MODEL 1
REMARK VINA RESULT:      -5.8      0.000      0.000
REMARK  0 active torsions:
REMARK  status: ('A' for Active; 'I' for Inactive)
ROOT
HETATM    1  C1  UNL     1     -32.155   7.258   2.730  1.00 20.00     0.021 A 
HETATM    2  C2  UNL     1     -33.161   6.267   3.127  1.00 20.00     0.029 A 
HETATM    3  C3  UNL     1     -34.508   4.794   6.082  1.00 20.00     0.025 A 
HETATM    4  C4  UNL     1     -31.804   8.228   3.602  1.00 20.00     0.107 A 
HETATM    5  C5  UNL     1     -34.019   7.245   6.418  1.00 20.00     0.101 C 
HETATM    6  C6  UNL     1     -34.685   5.625   5.073  1.00 20.00     0.038 A 
HETATM    7  C7  UNL     1     -34.805   6.142   6.479  1.00 20.00     0.028 A 
HETATM    8  C8  UNL     1     -33.657   6.363   4.372  1.00 20.00     0.044 A 
HETATM    9  N9  UNL     1     -32.362   8.301   4.865  1.00 20.00    -0.306 N 
HETATM   10  N10 UNL     1     -33.256   7.360   5.267  1.00 20.00    -0.274 N 
HETATM   11  H16 UNL     1     -32.033   9.006   5.514  1.00 20.00     0.186 HD
ENDROOT
TORSDOF 0
ENDMDL
MODEL 2
REMARK VINA RESULT:      -5.8      1.407      3.719
REMARK  0 active torsions:
REMARK  status: ('A' for Active; 'I' for Inactive)
ROOT
HETATM    1  C1  UNL     1     -34.754   5.258   6.007  1.00 20.00     0.021 A 
HETATM    2  C2  UNL     1     -34.366   6.662   6.180  1.00 20.00     0.029 A 
HETATM    3  C3  UNL     1     -31.940   8.981   4.974  1.00 20.00     0.025 A 
HETATM    4  C4  UNL     1     -34.443   4.625   4.855  1.00 20.00     0.107 A 
HETATM    5  C5  UNL     1     -32.730   7.440   3.140  1.00 20.00     0.101 C 
HETATM    6  C6  UNL     1     -33.198   8.584   4.970  1.00 20.00     0.038 A 
HETATM    7  C7  UNL     1     -32.448   8.657   3.671  1.00 20.00     0.028 A 
HETATM    8  C8  UNL     1     -33.679   7.235   5.178  1.00 20.00     0.044 A 
HETATM    9  N9  UNL     1     -33.756   5.266   3.840  1.00 20.00    -0.306 N 
HETATM   10  N10 UNL     1     -33.343   6.549   4.007  1.00 20.00    -0.274 N 
HETATM   11  H16 UNL     1     -33.488   4.744   3.015  1.00 20.00     0.186 HD
ENDROOT
TORSDOF 0
ENDMDL
MODEL 3
REMARK VINA RESULT:      -5.6      1.012      3.396
REMARK  0 active torsions:
REMARK  status: ('A' for Active; 'I' for Inactive)
ROOT
HETATM    1  C1  UNL     1     -34.707   4.998   5.126  1.00 20.00     0.021 A 
HETATM    2  C2  UNL     1     -33.903   5.501   4.007  1.00 20.00     0.029 A 
HETATM    3  C3  UNL     1     -32.687   8.590   2.705  1.00 20.00     0.025 A 
HETATM    4  C4  UNL     1     -34.787   5.726   6.261  1.00 20.00     0.107 A 
HETATM    5  C5  UNL     1     -32.633   8.570   5.226  1.00 20.00     0.101 C 
HETATM    6  C6  UNL     1     -32.414   7.461   3.330  1.00 20.00     0.038 A 
HETATM    7  C7  UNL     1     -32.090   8.767   3.999  1.00 20.00     0.028 A 
HETATM    8  C8  UNL     1     -33.313   6.696   4.166  1.00 20.00     0.044 A 
HETATM    9  N9  UNL     1     -34.139   6.941   6.387  1.00 20.00    -0.306 N 
HETATM   10  N10 UNL     1     -33.434   7.445   5.341  1.00 20.00    -0.274 N 
HETATM   11  H16 UNL     1     -34.269   7.488   7.229  1.00 20.00     0.186 HD
ENDROOT
TORSDOF 0
ENDMDL
MODEL 4
REMARK VINA RESULT:      -5.3      1.168      3.881
REMARK  0 active torsions:
REMARK  status: ('A' for Active; 'I' for Inactive)
ROOT
HETATM    1  C1  UNL     1     -34.736   6.105   6.527  1.00 20.00     0.021 A 
HETATM    2  C2  UNL     1     -34.046   7.281   5.985  1.00 20.00     0.029 A 
HETATM    3  C3  UNL     1     -31.499   8.091   3.624  1.00 20.00     0.025 A 
HETATM    4  C4  UNL     1     -34.799   4.978   5.787  1.00 20.00     0.107 A 
HETATM    5  C5  UNL     1     -32.938   6.186   2.808  1.00 20.00     0.101 C 
HETATM    6  C6  UNL     1     -32.786   8.090   3.917  1.00 20.00     0.038 A 
HETATM    7  C7  UNL     1     -32.315   7.385   2.676  1.00 20.00     0.028 A 
HETATM    8  C8  UNL     1     -33.475   7.152   4.776  1.00 20.00     0.044 A 
HETATM    9  N9  UNL     1     -34.217   4.901   4.535  1.00 20.00    -0.306 N 
HETATM   10  N10 UNL     1     -33.529   5.964   4.041  1.00 20.00    -0.274 N 
HETATM   11  H16 UNL     1     -34.232   4.022   4.032  1.00 20.00     0.186 HD
ENDROOT
TORSDOF 0
ENDMDL
MODEL 5
REMARK VINA RESULT:      -5.1      1.295      1.981
REMARK  0 active torsions:
REMARK  status: ('A' for Active; 'I' for Inactive)
ROOT
HETATM    1  C1  UNL     1     -32.211   8.403   3.514  1.00 20.00     0.021 A 
HETATM    2  C2  UNL     1     -32.723   8.130   4.861  1.00 20.00     0.029 A 
HETATM    3  C3  UNL     1     -35.167   6.099   6.480  1.00 20.00     0.025 A 
HETATM    4  C4  UNL     1     -32.338   7.460   2.556  1.00 20.00     0.107 A 
HETATM    5  C5  UNL     1     -34.056   4.864   4.583  1.00 20.00     0.101 C 
HETATM    6  C6  UNL     1     -33.890   6.321   6.234  1.00 20.00     0.038 A 
HETATM    7  C7  UNL     1     -34.490   4.994   5.862  1.00 20.00     0.028 A 
HETATM    8  C8  UNL     1     -33.334   6.950   5.056  1.00 20.00     0.044 A 
HETATM    9  N9  UNL     1     -32.951   6.247   2.812  1.00 20.00    -0.306 N 
HETATM   10  N10 UNL     1     -33.479   6.001   4.040  1.00 20.00    -0.274 N 
HETATM   11  H16 UNL     1     -33.082   5.587   2.056  1.00 20.00     0.186 HD
ENDROOT
TORSDOF 0
ENDMDL
MODEL 6
REMARK VINA RESULT:      -4.4     15.929     16.755
REMARK  0 active torsions:
REMARK  status: ('A' for Active; 'I' for Inactive)
ROOT
HETATM    1  C1  UNL     1     -24.445  18.530  12.332  1.00 20.00     0.021 A 
HETATM    2  C2  UNL     1     -23.083  18.355  11.815  1.00 20.00     0.029 A 
HETATM    3  C3  UNL     1     -21.416  17.493   8.783  1.00 20.00     0.025 A 
HETATM    4  C4  UNL     1     -25.442  18.835  11.474  1.00 20.00     0.107 A 
HETATM    5  C5  UNL     1     -23.449  18.919   8.341  1.00 20.00     0.101 C 
HETATM    6  C6  UNL     1     -21.736  18.436   9.647  1.00 20.00     0.038 A 
HETATM    7  C7  UNL     1     -22.139  18.593   8.208  1.00 20.00     0.028 A 
HETATM    8  C8  UNL     1     -22.912  18.475  10.488  1.00 20.00     0.044 A 
HETATM    9  N9  UNL     1     -25.212  18.975  10.118  1.00 20.00    -0.306 N 
HETATM   10  N10 UNL     1     -23.967  18.764   9.616  1.00 20.00    -0.274 N 
HETATM   11  H16 UNL     1     -25.993  19.146   9.496  1.00 20.00     0.186 HD
ENDROOT
TORSDOF 0
ENDMDL
MODEL 7
REMARK VINA RESULT:      -4.4     12.414     12.833
REMARK  0 active torsions:
REMARK  status: ('A' for Active; 'I' for Inactive)
ROOT
HETATM    1  C1  UNL     1     -30.523  18.730   1.937  1.00 20.00     0.021 A 
HETATM    2  C2  UNL     1     -30.818  18.417   0.534  1.00 20.00     0.029 A 
HETATM    3  C3  UNL     1     -33.525  17.276  -1.486  1.00 20.00     0.025 A 
HETATM    4  C4  UNL     1     -31.535  19.078   2.761  1.00 20.00     0.107 A 
HETATM    5  C5  UNL     1     -34.323  18.847   0.318  1.00 20.00     0.101 C 
HETATM    6  C6  UNL     1     -32.752  18.282  -1.127  1.00 20.00     0.038 A 
HETATM    7  C7  UNL     1     -34.240  18.405  -0.962  1.00 20.00     0.028 A 
HETATM    8  C8  UNL     1     -32.105  18.460   0.155  1.00 20.00     0.044 A 
HETATM    9  N9  UNL     1     -32.843  19.135   2.317  1.00 20.00    -0.306 N 
HETATM   10  N10 UNL     1     -33.139  18.796   1.035  1.00 20.00    -0.274 N 
HETATM   11  H16 UNL     1     -33.583  19.342   2.976  1.00 20.00     0.186 HD
ENDROOT
TORSDOF 0
ENDMDL
MODEL 8
REMARK VINA RESULT:      -4.3      1.481      2.530
REMARK  0 active torsions:
REMARK  status: ('A' for Active; 'I' for Inactive)
ROOT
HETATM    1  C1  UNL     1     -33.710   4.373   3.244  1.00 20.00     0.021 A 
HETATM    2  C2  UNL     1     -34.337   5.008   4.409  1.00 20.00     0.029 A 
HETATM    3  C3  UNL     1     -33.722   7.647   6.727  1.00 20.00     0.025 A 
HETATM    4  C4  UNL     1     -32.838   5.083   2.496  1.00 20.00     0.107 A 
HETATM    5  C5  UNL     1     -32.962   8.268   4.404  1.00 20.00     0.101 C 
HETATM    6  C6  UNL     1     -34.415   7.214   5.691  1.00 20.00     0.038 A 
HETATM    7  C7  UNL     1     -33.625   8.487   5.567  1.00 20.00     0.028 A 
HETATM    8  C8  UNL     1     -33.972   6.269   4.689  1.00 20.00     0.044 A 
HETATM    9  N9  UNL     1     -32.513   6.390   2.810  1.00 20.00    -0.306 N 
HETATM   10  N10 UNL     1     -33.044   6.974   3.915  1.00 20.00    -0.274 N 
HETATM   11  H16 UNL     1     -31.812   6.873   2.262  1.00 20.00     0.186 HD
ENDROOT
TORSDOF 0
ENDMDL
MODEL 9
REMARK VINA RESULT:      -4.3     15.858     16.506
REMARK  0 active torsions:
REMARK  status: ('A' for Active; 'I' for Inactive)
ROOT
HETATM    1  C1  UNL     1     -22.361  18.511   7.942  1.00 20.00     0.021 A 
HETATM    2  C2  UNL     1     -23.604  18.829   8.652  1.00 20.00     0.029 A 
HETATM    3  C3  UNL     1     -25.303  17.985  11.672  1.00 20.00     0.025 A 
HETATM    4  C4  UNL     1     -21.293  18.076   8.645  1.00 20.00     0.107 A 
HETATM    5  C5  UNL     1     -22.812  18.150  12.034  1.00 20.00     0.101 C 
HETATM    6  C6  UNL     1     -24.617  18.886  10.995  1.00 20.00     0.038 A 
HETATM    7  C7  UNL     1     -24.107  18.426  12.332  1.00 20.00     0.028 A 
HETATM    8  C8  UNL     1     -23.619  18.629   9.980  1.00 20.00     0.044 A 
HETATM    9  N9  UNL     1     -21.348  17.911  10.017  1.00 20.00    -0.306 N 
HETATM   10  N10 UNL     1     -22.508  18.150  10.682  1.00 20.00    -0.274 N 
HETATM   11  H16 UNL     1     -20.548  17.527  10.504  1.00 20.00     0.186 HD
ENDROOT
TORSDOF 0
ENDMDL
