MODEL 1
REMARK VINA RESULT:      -4.6      0.000      0.000
REMARK  2 active torsions:
REMARK  status: ('A' for Active; 'I' for Inactive)
REMARK    1  A    between atoms: C1_1  and  C4_4 
REMARK    2  A    between atoms: C1_1  and  C5_5 
ROOT
HETATM    1  C1  UNL     1     -33.986   5.258   4.140  1.00 20.00     0.159 C 
HETATM    2  O6  UNL     1     -34.145   4.077   4.423  1.00 20.00    -0.295 OA
ENDROOT
BRANCH   1   3
HETATM    3  C4  UNL     1     -34.605   6.309   4.956  1.00 20.00     0.058 A 
HETATM    4  C2  UNL     1     -34.666   6.145   6.449  1.00 20.00     0.013 A 
HETATM    5  C3  UNL     1     -33.737   7.155   5.847  1.00 20.00     0.013 A 
ENDBRANCH   1   3
BRANCH   1   6
HETATM    6  C5  UNL     1     -33.174   5.729   2.970  1.00 20.00     0.300 C 
HETATM    7  F7  UNL     1     -32.676   4.677   2.265  1.00 20.00    -0.248 F 
ENDBRANCH   1   6
TORSDOF 2
ENDMDL
MODEL 2
REMARK VINA RESULT:      -4.5      2.450      2.994
REMARK  2 active torsions:
REMARK  status: ('A' for Active; 'I' for Inactive)
REMARK    1  A    between atoms: C1_1  and  C4_4 
REMARK    2  A    between atoms: C1_1  and  C5_5 
ROOT
HETATM    1  C1  UNL     1     -34.054   6.718   5.435  1.00 20.00     0.159 C 
HETATM    2  O6  UNL     1     -33.726   6.762   6.614  1.00 20.00    -0.295 OA
ENDROOT
BRANCH   1   3
HETATM    3  C4  UNL     1     -33.682   7.800   4.517  1.00 20.00     0.058 A 
HETATM    4  C2  UNL     1     -32.476   8.646   4.822  1.00 20.00     0.013 A 
HETATM    5  C3  UNL     1     -32.433   7.666   3.689  1.00 20.00     0.013 A 
ENDBRANCH   1   3
BRANCH   1   6
HETATM    6  C5  UNL     1     -34.844   5.592   4.836  1.00 20.00     0.300 C 
HETATM    7  F7  UNL     1     -35.994   6.047   4.270  1.00 20.00    -0.248 F 
ENDBRANCH   1   6
TORSDOF 2
ENDMDL
MODEL 3
REMARK VINA RESULT:      -4.5      2.601      2.961
REMARK  2 active torsions:
REMARK  status: ('A' for Active; 'I' for Inactive)
REMARK    1  A    between atoms: C1_1  and  C4_4 
REMARK    2  A    between atoms: C1_1  and  C5_5 
ROOT
HETATM    1  C1  UNL     1     -33.348   7.067   4.326  1.00 20.00     0.159 C 
HETATM    2  O6  UNL     1     -32.772   6.523   3.391  1.00 20.00    -0.295 OA
ENDROOT
BRANCH   1   3
HETATM    3  C4  UNL     1     -34.562   6.475   4.899  1.00 20.00     0.058 A 
HETATM    4  C2  UNL     1     -34.740   4.982   4.871  1.00 20.00     0.013 A 
HETATM    5  C3  UNL     1     -34.462   5.676   6.170  1.00 20.00     0.013 A 
ENDBRANCH   1   3
BRANCH   1   6
HETATM    6  C5  UNL     1     -32.886   8.350   4.951  1.00 20.00     0.300 C 
HETATM    7  F7  UNL     1     -33.876   8.920   5.689  1.00 20.00    -0.248 F 
ENDBRANCH   1   6
TORSDOF 2
ENDMDL
MODEL 4
REMARK VINA RESULT:      -4.5      2.321      2.625
REMARK  2 active torsions:
REMARK  status: ('A' for Active; 'I' for Inactive)
REMARK    1  A    between atoms: C1_1  and  C4_4 
REMARK    2  A    between atoms: C1_1  and  C5_5 
ROOT
HETATM    1  C1  UNL     1     -33.711   7.373   4.736  1.00 20.00     0.159 C 
HETATM    2  O6  UNL     1     -33.650   8.404   5.396  1.00 20.00    -0.295 OA
ENDROOT
BRANCH   1   3
HETATM    3  C4  UNL     1     -34.758   6.380   5.002  1.00 20.00     0.058 A 
HETATM    4  C2  UNL     1     -34.475   4.924   4.750  1.00 20.00     0.013 A 
HETATM    5  C3  UNL     1     -34.594   5.429   6.156  1.00 20.00     0.013 A 
ENDBRANCH   1   3
BRANCH   1   6
HETATM    6  C5  UNL     1     -32.753   7.037   3.632  1.00 20.00     0.300 C 
HETATM    7  F7  UNL     1     -31.608   7.764   3.739  1.00 20.00    -0.248 F 
ENDBRANCH   1   6
TORSDOF 2
ENDMDL
MODEL 5
REMARK VINA RESULT:      -4.4      2.326      3.003
REMARK  2 active torsions:
REMARK  status: ('A' for Active; 'I' for Inactive)
REMARK    1  A    between atoms: C1_1  and  C4_4 
REMARK    2  A    between atoms: C1_1  and  C5_5 
ROOT
HETATM    1  C1  UNL     1     -34.207   6.522   4.903  1.00 20.00     0.159 C 
HETATM    2  O6  UNL     1     -34.533   5.610   4.153  1.00 20.00    -0.295 OA
ENDROOT
BRANCH   1   3
HETATM    3  C4  UNL     1     -33.731   7.799   4.360  1.00 20.00     0.058 A 
HETATM    4  C2  UNL     1     -32.586   8.507   5.031  1.00 20.00     0.013 A 
HETATM    5  C3  UNL     1     -32.383   7.860   3.695  1.00 20.00     0.013 A 
ENDBRANCH   1   3
BRANCH   1   6
HETATM    6  C5  UNL     1     -34.257   6.423   6.399  1.00 20.00     0.300 C 
HETATM    7  F7  UNL     1     -34.009   5.153   6.815  1.00 20.00    -0.248 F 
ENDBRANCH   1   6
TORSDOF 2
ENDMDL
MODEL 6
REMARK VINA RESULT:      -4.4      2.424      2.630
REMARK  2 active torsions:
REMARK  status: ('A' for Active; 'I' for Inactive)
REMARK    1  A    between atoms: C1_1  and  C4_4 
REMARK    2  A    between atoms: C1_1  and  C5_5 
ROOT
HETATM    1  C1  UNL     1     -32.870   7.773   4.406  1.00 20.00     0.159 C 
HETATM    2  O6  UNL     1     -32.176   8.704   4.796  1.00 20.00    -0.295 OA
ENDROOT
BRANCH   1   3
HETATM    3  C4  UNL     1     -34.131   7.449   5.083  1.00 20.00     0.058 A 
HETATM    4  C2  UNL     1     -34.664   6.044   5.019  1.00 20.00     0.013 A 
HETATM    5  C3  UNL     1     -34.106   6.573   6.306  1.00 20.00     0.013 A 
ENDBRANCH   1   3
BRANCH   1   6
HETATM    6  C5  UNL     1     -32.509   6.901   3.240  1.00 20.00     0.300 C 
HETATM    7  F7  UNL     1     -32.085   7.646   2.184  1.00 20.00    -0.248 F 
ENDBRANCH   1   6
TORSDOF 2
ENDMDL
MODEL 7
REMARK VINA RESULT:      -4.3      1.668      1.682
REMARK  2 active torsions:
REMARK  status: ('A' for Active; 'I' for Inactive)
REMARK    1  A    between atoms: C1_1  and  C4_4 
REMARK    2  A    between atoms: C1_1  and  C5_5 
ROOT
HETATM    1  C1  UNL     1     -33.422   6.430   3.897  1.00 20.00     0.159 C 
HETATM    2  O6  UNL     1     -33.390   5.375   3.276  1.00 20.00    -0.295 OA
ENDROOT
BRANCH   1   3
HETATM    3  C4  UNL     1     -34.415   6.643   4.956  1.00 20.00     0.058 A 
HETATM    4  C2  UNL     1     -34.702   5.536   5.933  1.00 20.00     0.013 A 
HETATM    5  C3  UNL     1     -33.956   6.754   6.384  1.00 20.00     0.013 A 
ENDBRANCH   1   3
BRANCH   1   6
HETATM    6  C5  UNL     1     -32.481   7.571   3.642  1.00 20.00     0.300 C 
HETATM    7  F7  UNL     1     -32.086   7.598   2.341  1.00 20.00    -0.248 F 
ENDBRANCH   1   6
TORSDOF 2
ENDMDL
MODEL 8
REMARK VINA RESULT:      -4.1      1.813      2.352
REMARK  2 active torsions:
REMARK  status: ('A' for Active; 'I' for Inactive)
REMARK    1  A    between atoms: C1_1  and  C4_4 
REMARK    2  A    between atoms: C1_1  and  C5_5 
ROOT
HETATM    1  C1  UNL     1     -34.287   6.163   5.621  1.00 20.00     0.159 C 
HETATM    2  O6  UNL     1     -34.931   5.898   6.629  1.00 20.00    -0.295 OA
ENDROOT
BRANCH   1   3
HETATM    3  C4  UNL     1     -33.295   7.244   5.633  1.00 20.00     0.058 A 
HETATM    4  C2  UNL     1     -32.746   7.758   4.331  1.00 20.00     0.013 A 
HETATM    5  C3  UNL     1     -33.686   8.608   5.131  1.00 20.00     0.013 A 
ENDBRANCH   1   3
BRANCH   1   6
HETATM    6  C5  UNL     1     -34.447   5.435   4.319  1.00 20.00     0.300 C 
HETATM    7  F7  UNL     1     -34.045   4.140   4.430  1.00 20.00    -0.248 F 
ENDBRANCH   1   6
TORSDOF 2
ENDMDL
MODEL 9
REMARK VINA RESULT:      -3.8      2.277      3.275
REMARK  2 active torsions:
REMARK  status: ('A' for Active; 'I' for Inactive)
REMARK    1  A    between atoms: C1_1  and  C4_4 
REMARK    2  A    between atoms: C1_1  and  C5_5 
ROOT
HETATM    1  C1  UNL     1     -34.242   5.770   4.956  1.00 20.00     0.159 C 
HETATM    2  O6  UNL     1     -34.725   4.666   5.175  1.00 20.00    -0.295 OA
ENDROOT
BRANCH   1   3
HETATM    3  C4  UNL     1     -33.919   6.184   3.586  1.00 20.00     0.058 A 
HETATM    4  C2  UNL     1     -32.561   6.757   3.288  1.00 20.00     0.013 A 
HETATM    5  C3  UNL     1     -32.917   5.388   2.793  1.00 20.00     0.013 A 
ENDBRANCH   1   3
BRANCH   1   6
HETATM    6  C5  UNL     1     -33.940   6.771   6.031  1.00 20.00     0.300 C 
HETATM    7  F7  UNL     1     -34.793   6.633   7.082  1.00 20.00    -0.248 F 
ENDBRANCH   1   6
TORSDOF 2
ENDMDL
