MODEL 1
REMARK VINA RESULT:      -4.9      0.000      0.000
REMARK  1 active torsions:
REMARK  status: ('A' for Active; 'I' for Inactive)
REMARK    1  A    between atoms: C2_2  and  C4_4 
ROOT
HETATM    1  C1  UNL     1     -32.485   8.492   4.701  1.00 20.00     0.107 C 
HETATM    2  C2  UNL     1     -34.053   6.746   5.357  1.00 20.00     0.118 C 
HETATM    3  C3  UNL     1     -33.178   7.270   4.486  1.00 20.00     0.095 C 
HETATM    4  N5  UNL     1     -31.914   9.489   4.870  1.00 20.00    -0.191 NA
HETATM    5 BR9  UNL     1     -32.784   6.413   2.868  1.00 20.00    -0.039 Br
ENDROOT
BRANCH   2   6
HETATM    6  C4  UNL     1     -34.836   5.480   5.242  1.00 20.00     0.409 C 
HETATM    7  F6  UNL     1     -35.908   5.643   4.423  1.00 20.00    -0.167 F 
HETATM    8  F7  UNL     1     -34.134   4.426   4.758  1.00 20.00    -0.167 F 
HETATM    9  F8  UNL     1     -35.328   5.099   6.450  1.00 20.00    -0.167 F 
ENDBRANCH   2   6
TORSDOF 1
ENDMDL
MODEL 2
REMARK VINA RESULT:      -4.8      0.042      1.250
REMARK  1 active torsions:
REMARK  status: ('A' for Active; 'I' for Inactive)
REMARK    1  A    between atoms: C2_2  and  C4_4 
ROOT
HETATM    1  C1  UNL     1     -32.477   8.505   4.714  1.00 20.00     0.107 C 
HETATM    2  C2  UNL     1     -34.054   6.765   5.367  1.00 20.00     0.118 C 
HETATM    3  C3  UNL     1     -33.180   7.289   4.494  1.00 20.00     0.095 C 
HETATM    4  N5  UNL     1     -31.898   9.496   4.887  1.00 20.00    -0.191 NA
HETATM    5 BR9  UNL     1     -32.802   6.442   2.867  1.00 20.00    -0.039 Br
ENDROOT
BRANCH   2   6
HETATM    6  C4  UNL     1     -34.846   5.506   5.246  1.00 20.00     0.409 C 
HETATM    7  F6  UNL     1     -35.330   5.117   6.455  1.00 20.00    -0.167 F 
HETATM    8  F7  UNL     1     -35.910   5.588   4.411  1.00 20.00    -0.167 F 
HETATM    9  F8  UNL     1     -34.073   4.484   4.793  1.00 20.00    -0.167 F 
ENDBRANCH   2   6
TORSDOF 1
ENDMDL
MODEL 3
REMARK VINA RESULT:      -4.8      0.041      1.262
REMARK  1 active torsions:
REMARK  status: ('A' for Active; 'I' for Inactive)
REMARK    1  A    between atoms: C2_2  and  C4_4 
ROOT
HETATM    1  C1  UNL     1     -32.480   8.499   4.707  1.00 20.00     0.107 C 
HETATM    2  C2  UNL     1     -34.047   6.760   5.384  1.00 20.00     0.118 C 
HETATM    3  C3  UNL     1     -33.181   7.280   4.501  1.00 20.00     0.095 C 
HETATM    4  N5  UNL     1     -31.903   9.494   4.868  1.00 20.00    -0.191 NA
HETATM    5 BR9  UNL     1     -32.811   6.420   2.878  1.00 20.00    -0.039 Br
ENDROOT
BRANCH   2   6
HETATM    6  C4  UNL     1     -34.836   5.497   5.279  1.00 20.00     0.409 C 
HETATM    7  F6  UNL     1     -34.073   4.485   4.790  1.00 20.00    -0.167 F 
HETATM    8  F7  UNL     1     -35.356   5.059   6.452  1.00 20.00    -0.167 F 
HETATM    9  F8  UNL     1     -35.880   5.644   4.421  1.00 20.00    -0.167 F 
ENDBRANCH   2   6
TORSDOF 1
ENDMDL
MODEL 4
REMARK VINA RESULT:      -4.6      3.569      4.147
REMARK  1 active torsions:
REMARK  status: ('A' for Active; 'I' for Inactive)
REMARK    1  A    between atoms: C2_2  and  C4_4 
ROOT
HETATM    1  C1  UNL     1     -34.609   5.469   4.926  1.00 20.00     0.107 C 
HETATM    2  C2  UNL     1     -33.329   7.534   4.733  1.00 20.00     0.118 C 
HETATM    3  C3  UNL     1     -33.670   6.318   4.280  1.00 20.00     0.095 C 
HETATM    4  N5  UNL     1     -35.375   4.770   5.447  1.00 20.00    -0.191 NA
HETATM    5 BR9  UNL     1     -32.918   5.617   2.714  1.00 20.00    -0.039 Br
ENDROOT
BRANCH   2   6
HETATM    6  C4  UNL     1     -32.363   8.509   4.146  1.00 20.00     0.409 C 
HETATM    7  F6  UNL     1     -31.138   7.943   3.984  1.00 20.00    -0.167 F 
HETATM    8  F7  UNL     1     -32.726   9.001   2.936  1.00 20.00    -0.167 F 
HETATM    9  F8  UNL     1     -32.189   9.578   4.966  1.00 20.00    -0.167 F 
ENDBRANCH   2   6
TORSDOF 1
ENDMDL
MODEL 5
REMARK VINA RESULT:      -4.1      1.646      1.941
REMARK  1 active torsions:
REMARK  status: ('A' for Active; 'I' for Inactive)
REMARK    1  A    between atoms: C2_2  and  C4_4 
ROOT
HETATM    1  C1  UNL     1     -32.732   8.285   3.952  1.00 20.00     0.107 C 
HETATM    2  C2  UNL     1     -33.632   6.026   4.118  1.00 20.00     0.118 C 
HETATM    3  C3  UNL     1     -33.423   7.248   4.634  1.00 20.00     0.095 C 
HETATM    4  N5  UNL     1     -32.170   9.138   3.401  1.00 20.00    -0.191 NA
HETATM    5 BR9  UNL     1     -34.041   7.700   6.343  1.00 20.00    -0.039 Br
ENDROOT
BRANCH   2   6
HETATM    6  C4  UNL     1     -34.338   4.864   4.734  1.00 20.00     0.409 C 
HETATM    7  F6  UNL     1     -34.042   3.711   4.080  1.00 20.00    -0.167 F 
HETATM    8  F7  UNL     1     -34.043   4.655   6.041  1.00 20.00    -0.167 F 
HETATM    9  F8  UNL     1     -35.686   5.017   4.660  1.00 20.00    -0.167 F 
ENDBRANCH   2   6
TORSDOF 1
ENDMDL
MODEL 6
REMARK VINA RESULT:      -4.1      2.112      2.506
REMARK  1 active torsions:
REMARK  status: ('A' for Active; 'I' for Inactive)
REMARK    1  A    between atoms: C2_2  and  C4_4 
ROOT
HETATM    1  C1  UNL     1     -32.481   7.531   2.854  1.00 20.00     0.107 C 
HETATM    2  C2  UNL     1     -33.739   6.441   4.634  1.00 20.00     0.118 C 
HETATM    3  C3  UNL     1     -32.971   7.446   4.186  1.00 20.00     0.095 C 
HETATM    4  N5  UNL     1     -32.077   7.609   1.769  1.00 20.00    -0.191 NA
HETATM    5 BR9  UNL     1     -32.468   8.860   5.306  1.00 20.00    -0.039 Br
ENDROOT
BRANCH   2   6
HETATM    6  C4  UNL     1     -34.310   6.244   6.000  1.00 20.00     0.409 C 
HETATM    7  F6  UNL     1     -33.464   5.524   6.782  1.00 20.00    -0.167 F 
HETATM    8  F7  UNL     1     -34.574   7.393   6.670  1.00 20.00    -0.167 F 
HETATM    9  F8  UNL     1     -35.475   5.548   5.946  1.00 20.00    -0.167 F 
ENDBRANCH   2   6
TORSDOF 1
ENDMDL
MODEL 7
REMARK VINA RESULT:      -4.1      3.849      4.387
REMARK  1 active torsions:
REMARK  status: ('A' for Active; 'I' for Inactive)
REMARK    1  A    between atoms: C2_2  and  C4_4 
ROOT
HETATM    1  C1  UNL     1     -34.552   5.553   4.885  1.00 20.00     0.107 C 
HETATM    2  C2  UNL     1     -33.079   6.738   3.347  1.00 20.00     0.118 C 
HETATM    3  C3  UNL     1     -33.724   6.649   4.520  1.00 20.00     0.095 C 
HETATM    4  N5  UNL     1     -35.229   4.662   5.191  1.00 20.00    -0.191 NA
HETATM    5 BR9  UNL     1     -33.584   7.999   5.812  1.00 20.00    -0.039 Br
ENDROOT
BRANCH   2   6
HETATM    6  C4  UNL     1     -32.189   7.831   2.855  1.00 20.00     0.409 C 
HETATM    7  F6  UNL     1     -31.832   7.623   1.560  1.00 20.00    -0.167 F 
HETATM    8  F7  UNL     1     -32.735   9.070   2.913  1.00 20.00    -0.167 F 
HETATM    9  F8  UNL     1     -31.035   7.880   3.571  1.00 20.00    -0.167 F 
ENDBRANCH   2   6
TORSDOF 1
ENDMDL
MODEL 8
REMARK VINA RESULT:      -4.0      3.411      3.819
REMARK  1 active torsions:
REMARK  status: ('A' for Active; 'I' for Inactive)
REMARK    1  A    between atoms: C2_2  and  C4_4 
ROOT
HETATM    1  C1  UNL     1     -33.111   5.238   2.743  1.00 20.00     0.107 C 
HETATM    2  C2  UNL     1     -32.855   7.235   4.117  1.00 20.00     0.118 C 
HETATM    3  C3  UNL     1     -33.444   6.057   3.856  1.00 20.00     0.095 C 
HETATM    4  N5  UNL     1     -32.844   4.563   1.837  1.00 20.00    -0.191 NA
HETATM    5 BR9  UNL     1     -34.790   5.375   4.965  1.00 20.00    -0.039 Br
ENDROOT
BRANCH   2   6
HETATM    6  C4  UNL     1     -33.119   8.176   5.245  1.00 20.00     0.409 C 
HETATM    7  F6  UNL     1     -32.213   9.189   5.257  1.00 20.00    -0.167 F 
HETATM    8  F7  UNL     1     -34.345   8.753   5.222  1.00 20.00    -0.167 F 
HETATM    9  F8  UNL     1     -33.008   7.545   6.443  1.00 20.00    -0.167 F 
ENDBRANCH   2   6
TORSDOF 1
ENDMDL
MODEL 9
REMARK VINA RESULT:      -4.0      2.687      3.123
REMARK  1 active torsions:
REMARK  status: ('A' for Active; 'I' for Inactive)
REMARK    1  A    between atoms: C2_2  and  C4_4 
ROOT
HETATM    1  C1  UNL     1     -33.021   5.558   2.804  1.00 20.00     0.107 C 
HETATM    2  C2  UNL     1     -33.861   6.075   5.033  1.00 20.00     0.118 C 
HETATM    3  C3  UNL     1     -33.142   6.396   3.946  1.00 20.00     0.095 C 
HETATM    4  N5  UNL     1     -32.918   4.880   1.867  1.00 20.00    -0.191 NA
HETATM    5 BR9  UNL     1     -32.212   8.018   3.838  1.00 20.00    -0.039 Br
ENDROOT
BRANCH   2   6
HETATM    6  C4  UNL     1     -34.061   6.866   6.282  1.00 20.00     0.409 C 
HETATM    7  F6  UNL     1     -32.928   6.889   7.031  1.00 20.00    -0.167 F 
HETATM    8  F7  UNL     1     -34.418   8.158   6.080  1.00 20.00    -0.167 F 
HETATM    9  F8  UNL     1     -35.028   6.313   7.061  1.00 20.00    -0.167 F 
ENDBRANCH   2   6
TORSDOF 1
ENDMDL
