MODEL 1
REMARK VINA RESULT:      -4.8      0.000      0.000
REMARK  1 active torsions:
REMARK  status: ('A' for Active; 'I' for Inactive)
REMARK    1  A    between atoms: C3_3  and  C6_6 
ROOT
HETATM    1  C1  UNL     1     -32.980   8.218   4.771  1.00 20.00     0.013 C 
HETATM    2  C2  UNL     1     -33.654   7.223   4.813  1.00 20.00    -0.099 C 
HETATM    3  C4  UNL     1     -35.858   6.322   4.248  1.00 20.00     0.038 C 
HETATM    4  C5  UNL     1     -34.654   5.592   6.340  1.00 20.00     0.038 C 
HETATM    5  C6  UNL     1     -34.491   5.997   4.867  1.00 20.00     0.091 C 
ENDROOT
BRANCH   5   6
HETATM    6  C3  UNL     1     -33.795   4.871   4.073  1.00 20.00     0.238 C 
HETATM    7  O7  UNL     1     -33.865   3.691   4.412  1.00 20.00    -0.278 OA
HETATM    8 CL8  UNL     1     -32.912   5.423   2.668  1.00 20.00    -0.042 Cl
ENDBRANCH   5   6
TORSDOF 1
ENDMDL
MODEL 2
REMARK VINA RESULT:      -4.5      2.077      2.918
REMARK  1 active torsions:
REMARK  status: ('A' for Active; 'I' for Inactive)
REMARK    1  A    between atoms: C3_3  and  C6_6 
ROOT
HETATM    1  C1  UNL     1     -32.902   5.165   2.676  1.00 20.00     0.013 C 
HETATM    2  C2  UNL     1     -33.586   5.517   3.599  1.00 20.00    -0.099 C 
HETATM    3  C4  UNL     1     -34.414   4.834   5.799  1.00 20.00     0.038 C 
HETATM    4  C5  UNL     1     -35.864   6.163   4.220  1.00 20.00     0.038 C 
HETATM    5  C6  UNL     1     -34.435   5.947   4.740  1.00 20.00     0.091 C 
ENDROOT
BRANCH   5   6
HETATM    6  C3  UNL     1     -33.871   7.258   5.328  1.00 20.00     0.238 C 
HETATM    7  O7  UNL     1     -34.037   7.572   6.505  1.00 20.00    -0.278 OA
HETATM    8 CL8  UNL     1     -32.990   8.239   4.179  1.00 20.00    -0.042 Cl
ENDBRANCH   5   6
TORSDOF 1
ENDMDL
MODEL 3
REMARK VINA RESULT:      -3.8      2.092      2.592
REMARK  1 active torsions:
REMARK  status: ('A' for Active; 'I' for Inactive)
REMARK    1  A    between atoms: C3_3  and  C6_6 
ROOT
HETATM    1  C1  UNL     1     -32.480   7.395   3.348  1.00 20.00     0.013 C 
HETATM    2  C2  UNL     1     -33.287   6.690   3.892  1.00 20.00    -0.099 C 
HETATM    3  C4  UNL     1     -33.976   4.359   4.181  1.00 20.00     0.038 C 
HETATM    4  C5  UNL     1     -35.683   6.212   4.054  1.00 20.00     0.038 C 
HETATM    5  C6  UNL     1     -34.286   5.816   4.558  1.00 20.00     0.091 C 
ENDROOT
BRANCH   5   6
HETATM    6  C3  UNL     1     -34.191   6.007   6.087  1.00 20.00     0.238 C 
HETATM    7  O7  UNL     1     -34.226   5.059   6.869  1.00 20.00    -0.278 OA
HETATM    8 CL8  UNL     1     -34.033   7.675   6.593  1.00 20.00    -0.042 Cl
ENDBRANCH   5   6
TORSDOF 1
ENDMDL
MODEL 4
REMARK VINA RESULT:      -3.7      9.236     10.115
REMARK  1 active torsions:
REMARK  status: ('A' for Active; 'I' for Inactive)
REMARK    1  A    between atoms: C3_3  and  C6_6 
ROOT
HETATM    1  C1  UNL     1     -43.067  12.023   7.264  1.00 20.00     0.013 C 
HETATM    2  C2  UNL     1     -42.131  12.583   6.759  1.00 20.00    -0.099 C 
HETATM    3  C4  UNL     1     -40.600  14.474   7.026  1.00 20.00     0.038 C 
HETATM    4  C5  UNL     1     -41.406  13.768   4.743  1.00 20.00     0.038 C 
HETATM    5  C6  UNL     1     -40.977  13.280   6.135  1.00 20.00     0.091 C 
ENDROOT
BRANCH   5   6
HETATM    6  C3  UNL     1     -39.791  12.299   6.021  1.00 20.00     0.238 C 
HETATM    7  O7  UNL     1     -39.165  11.911   7.006  1.00 20.00    -0.278 OA
HETATM    8 CL8  UNL     1     -39.425  11.802   4.384  1.00 20.00    -0.042 Cl
ENDBRANCH   5   6
TORSDOF 1
ENDMDL
MODEL 5
REMARK VINA RESULT:      -3.7      9.329      9.907
REMARK  1 active torsions:
REMARK  status: ('A' for Active; 'I' for Inactive)
REMARK    1  A    between atoms: C3_3  and  C6_6 
ROOT
HETATM    1  C1  UNL     1     -40.399  15.281   7.728  1.00 20.00     0.013 C 
HETATM    2  C2  UNL     1     -40.666  14.344   7.024  1.00 20.00    -0.099 C 
HETATM    3  C4  UNL     1     -41.417  13.731   4.777  1.00 20.00     0.038 C 
HETATM    4  C5  UNL     1     -42.165  12.422   6.799  1.00 20.00     0.038 C 
HETATM    5  C6  UNL     1     -41.001  13.189   6.153  1.00 20.00     0.091 C 
ENDROOT
BRANCH   5   6
HETATM    6  C3  UNL     1     -39.763  12.276   6.019  1.00 20.00     0.238 C 
HETATM    7  O7  UNL     1     -39.107  11.915   6.994  1.00 20.00    -0.278 OA
HETATM    8 CL8  UNL     1     -39.387  11.812   4.374  1.00 20.00    -0.042 Cl
ENDBRANCH   5   6
TORSDOF 1
ENDMDL
MODEL 6
REMARK VINA RESULT:      -3.7      1.943      2.862
REMARK  1 active torsions:
REMARK  status: ('A' for Active; 'I' for Inactive)
REMARK    1  A    between atoms: C3_3  and  C6_6 
ROOT
HETATM    1  C1  UNL     1     -34.415   5.012   6.826  1.00 20.00     0.013 C 
HETATM    2  C2  UNL     1     -34.358   5.515   5.736  1.00 20.00    -0.099 C 
HETATM    3  C4  UNL     1     -35.728   6.415   3.918  1.00 20.00     0.038 C 
HETATM    4  C5  UNL     1     -33.607   5.137   3.437  1.00 20.00     0.038 C 
HETATM    5  C6  UNL     1     -34.293   6.131   4.386  1.00 20.00     0.091 C 
ENDROOT
BRANCH   5   6
HETATM    6  C3  UNL     1     -33.484   7.445   4.465  1.00 20.00     0.238 C 
HETATM    7  O7  UNL     1     -33.724   8.311   5.304  1.00 20.00    -0.278 OA
HETATM    8 CL8  UNL     1     -32.217   7.581   3.267  1.00 20.00    -0.042 Cl
ENDBRANCH   5   6
TORSDOF 1
ENDMDL
MODEL 7
REMARK VINA RESULT:      -3.6     10.041     10.777
REMARK  1 active torsions:
REMARK  status: ('A' for Active; 'I' for Inactive)
REMARK    1  A    between atoms: C3_3  and  C6_6 
ROOT
HETATM    1  C1  UNL     1     -39.511  11.619   5.226  1.00 20.00     0.013 C 
HETATM    2  C2  UNL     1     -40.331  12.342   5.726  1.00 20.00    -0.099 C 
HETATM    3  C4  UNL     1     -42.472  12.356   6.912  1.00 20.00     0.038 C 
HETATM    4  C5  UNL     1     -41.899  14.160   5.245  1.00 20.00     0.038 C 
HETATM    5  C6  UNL     1     -41.348  13.234   6.340  1.00 20.00     0.091 C 
ENDROOT
BRANCH   5   6
HETATM    6  C3  UNL     1     -40.688  14.062   7.463  1.00 20.00     0.238 C 
HETATM    7  O7  UNL     1     -40.083  13.535   8.395  1.00 20.00    -0.278 OA
HETATM    8 CL8  UNL     1     -40.880  15.792   7.288  1.00 20.00    -0.042 Cl
ENDBRANCH   5   6
TORSDOF 1
ENDMDL
MODEL 8
REMARK VINA RESULT:      -3.6      8.288      9.420
REMARK  1 active torsions:
REMARK  status: ('A' for Active; 'I' for Inactive)
REMARK    1  A    between atoms: C3_3  and  C6_6 
ROOT
HETATM    1  C1  UNL     1     -43.408   5.726   2.499  1.00 20.00     0.013 C 
HETATM    2  C2  UNL     1     -42.778   6.240   1.615  1.00 20.00    -0.099 C 
HETATM    3  C4  UNL     1     -40.781   7.576   1.149  1.00 20.00     0.038 C 
HETATM    4  C5  UNL     1     -42.903   7.909  -0.172  1.00 20.00     0.038 C 
HETATM    5  C6  UNL     1     -41.999   6.880   0.523  1.00 20.00     0.091 C 
ENDROOT
BRANCH   5   6
HETATM    6  C3  UNL     1     -41.544   5.798  -0.479  1.00 20.00     0.238 C 
HETATM    7  O7  UNL     1     -40.357   5.599  -0.733  1.00 20.00    -0.278 OA
HETATM    8 CL8  UNL     1     -42.855   4.899  -1.209  1.00 20.00    -0.042 Cl
ENDBRANCH   5   6
TORSDOF 1
ENDMDL
MODEL 9
REMARK VINA RESULT:      -3.5     10.256     10.950
REMARK  1 active torsions:
REMARK  status: ('A' for Active; 'I' for Inactive)
REMARK    1  A    between atoms: C3_3  and  C6_6 
ROOT
HETATM    1  C1  UNL     1     -39.386  11.781   4.951  1.00 20.00     0.013 C 
HETATM    2  C2  UNL     1     -40.215  12.495   5.447  1.00 20.00    -0.099 C 
HETATM    3  C4  UNL     1     -40.532  14.306   7.063  1.00 20.00     0.038 C 
HETATM    4  C5  UNL     1     -42.259  12.488   6.795  1.00 20.00     0.038 C 
HETATM    5  C6  UNL     1     -41.239  13.376   6.066  1.00 20.00     0.091 C 
ENDROOT
BRANCH   5   6
HETATM    6  C3  UNL     1     -41.935  14.201   4.962  1.00 20.00     0.238 C 
HETATM    7  O7  UNL     1     -41.670  14.055   3.770  1.00 20.00    -0.278 OA
HETATM    8 CL8  UNL     1     -43.116  15.346   5.559  1.00 20.00    -0.042 Cl
ENDBRANCH   5   6
TORSDOF 1
ENDMDL
