MODEL 1
REMARK VINA RESULT:      -3.7      0.000      0.000
REMARK  0 active torsions:
REMARK  status: ('A' for Active; 'I' for Inactive)
ROOT
HETATM    1  C1  UNL     1     -32.581  18.493   0.682  1.00 20.00     0.029 C 
HETATM    2  C2  UNL     1     -33.702  18.829  -0.270  1.00 20.00     0.042 C 
HETATM    3  C3  UNL     1     -33.210  17.016  -2.023  1.00 20.00     0.070 C 
HETATM    4  C4  UNL     1     -33.594  17.044  -3.503  1.00 20.00     0.275 C 
HETATM    5  C5  UNL     1     -33.678  19.261  -2.792  1.00 20.00     0.309 C 
HETATM    6  C6  UNL     1     -31.366  18.948  -0.096  1.00 20.00     0.169 C 
HETATM    7  C7  UNL     1     -33.086  18.491  -1.618  1.00 20.00     0.089 C 
HETATM    8  C8  UNL     1     -33.998  18.778  -5.150  1.00 20.00     0.310 C 
HETATM    9  N9  UNL     1     -33.301  18.413  -3.927  1.00 20.00     0.087 N 
HETATM   10  O10 UNL     1     -31.683  18.808  -1.490  1.00 20.00    -0.378 OA
ENDROOT
TORSDOF 0
ENDMDL
MODEL 2
REMARK VINA RESULT:      -3.5      1.475      1.573
REMARK  0 active torsions:
REMARK  status: ('A' for Active; 'I' for Inactive)
ROOT
HETATM    1  C1  UNL     1     -32.655  18.208  -0.475  1.00 20.00     0.029 C 
HETATM    2  C2  UNL     1     -34.018  17.884  -1.032  1.00 20.00     0.042 C 
HETATM    3  C3  UNL     1     -33.242  16.384  -2.970  1.00 20.00     0.070 C 
HETATM    4  C4  UNL     1     -34.000  16.098  -4.267  1.00 20.00     0.275 C 
HETATM    5  C5  UNL     1     -34.932  18.056  -3.416  1.00 20.00     0.309 C 
HETATM    6  C6  UNL     1     -32.092  19.120  -1.544  1.00 20.00     0.169 C 
HETATM    7  C7  UNL     1     -33.733  17.768  -2.521  1.00 20.00     0.089 C 
HETATM    8  C8  UNL     1     -35.644  17.278  -5.604  1.00 20.00     0.310 C 
HETATM    9  N9  UNL     1     -34.539  17.398  -4.665  1.00 20.00     0.087 N 
HETATM   10  O10 UNL     1     -32.688  18.727  -2.789  1.00 20.00    -0.378 OA
ENDROOT
TORSDOF 0
ENDMDL
MODEL 3
REMARK VINA RESULT:      -3.4      1.318      2.071
REMARK  0 active torsions:
REMARK  status: ('A' for Active; 'I' for Inactive)
ROOT
HETATM    1  C1  UNL     1     -32.406  19.249   0.133  1.00 20.00     0.029 C 
HETATM    2  C2  UNL     1     -31.957  18.166  -0.815  1.00 20.00     0.042 C 
HETATM    3  C3  UNL     1     -33.060  19.099  -2.940  1.00 20.00     0.070 C 
HETATM    4  C4  UNL     1     -33.475  18.307  -4.180  1.00 20.00     0.275 C 
HETATM    5  C5  UNL     1     -33.287  16.737  -2.469  1.00 20.00     0.309 C 
HETATM    6  C6  UNL     1     -33.889  18.969   0.244  1.00 20.00     0.169 C 
HETATM    7  C7  UNL     1     -33.124  18.089  -1.786  1.00 20.00     0.089 C 
HETATM    8  C8  UNL     1     -34.140  16.017  -4.626  1.00 20.00     0.310 C 
HETATM    9  N9  UNL     1     -34.087  17.091  -3.646  1.00 20.00     0.087 N 
HETATM   10  O10 UNL     1     -34.299  18.378  -0.998  1.00 20.00    -0.378 OA
ENDROOT
TORSDOF 0
ENDMDL
MODEL 4
REMARK VINA RESULT:      -3.2     12.539     13.858
REMARK  0 active torsions:
REMARK  status: ('A' for Active; 'I' for Inactive)
ROOT
HETATM    1  C1  UNL     1     -40.894  13.215   5.182  1.00 20.00     0.029 C 
HETATM    2  C2  UNL     1     -41.915  13.773   6.142  1.00 20.00     0.042 C 
HETATM    3  C3  UNL     1     -40.335  15.318   7.455  1.00 20.00     0.070 C 
HETATM    4  C4  UNL     1     -40.525  15.819   8.887  1.00 20.00     0.275 C 
HETATM    5  C5  UNL     1     -41.890  13.941   8.695  1.00 20.00     0.309 C 
HETATM    6  C6  UNL     1     -40.064  12.333   6.090  1.00 20.00     0.169 C 
HETATM    7  C7  UNL     1     -41.087  13.981   7.401  1.00 20.00     0.089 C 
HETATM    8  C8  UNL     1     -41.660  15.001  10.869  1.00 20.00     0.310 C 
HETATM    9  N9  UNL     1     -40.999  14.647   9.622  1.00 20.00     0.087 N 
HETATM   10  O10 UNL     1     -40.114  12.914   7.402  1.00 20.00    -0.378 OA
ENDROOT
TORSDOF 0
ENDMDL
MODEL 5
REMARK VINA RESULT:      -3.2      3.828      5.240
REMARK  0 active torsions:
REMARK  status: ('A' for Active; 'I' for Inactive)
ROOT
HETATM    1  C1  UNL     1     -33.259  14.858  -4.064  1.00 20.00     0.029 C 
HETATM    2  C2  UNL     1     -34.587  14.456  -4.657  1.00 20.00     0.042 C 
HETATM    3  C3  UNL     1     -34.296  15.596  -6.941  1.00 20.00     0.070 C 
HETATM    4  C4  UNL     1     -35.409  16.059  -7.882  1.00 20.00     0.275 C 
HETATM    5  C5  UNL     1     -36.405  15.858  -5.785  1.00 20.00     0.309 C 
HETATM    6  C6  UNL     1     -33.454  16.343  -3.846  1.00 20.00     0.169 C 
HETATM    7  C7  UNL     1     -34.916  15.650  -5.538  1.00 20.00     0.089 C 
HETATM    8  C8  UNL     1     -37.709  16.782  -7.614  1.00 20.00     0.310 C 
HETATM    9  N9  UNL     1     -36.395  16.681  -6.999  1.00 20.00     0.087 N 
HETATM   10  O10 UNL     1     -34.376  16.797  -4.848  1.00 20.00    -0.378 OA
ENDROOT
TORSDOF 0
ENDMDL
MODEL 6
REMARK VINA RESULT:      -3.2     12.098     13.019
REMARK  0 active torsions:
REMARK  status: ('A' for Active; 'I' for Inactive)
ROOT
HETATM    1  C1  UNL     1     -41.607  15.523   8.877  1.00 20.00     0.029 C 
HETATM    2  C2  UNL     1     -40.422  15.237   7.988  1.00 20.00     0.042 C 
HETATM    3  C3  UNL     1     -41.730  14.384   5.946  1.00 20.00     0.070 C 
HETATM    4  C4  UNL     1     -41.214  13.445   4.856  1.00 20.00     0.275 C 
HETATM    5  C5  UNL     1     -39.789  13.136   6.673  1.00 20.00     0.309 C 
HETATM    6  C6  UNL     1     -42.089  14.127   9.210  1.00 20.00     0.169 C 
HETATM    7  C7  UNL     1     -40.904  14.035   7.192  1.00 20.00     0.089 C 
HETATM    8  C8  UNL     1     -39.531  11.703   4.729  1.00 20.00     0.310 C 
HETATM    9  N9  UNL     1     -40.463  12.423   5.583  1.00 20.00     0.087 N 
HETATM   10  O10 UNL     1     -41.746  13.288   8.097  1.00 20.00    -0.378 OA
ENDROOT
TORSDOF 0
ENDMDL
MODEL 7
REMARK VINA RESULT:      -3.2     12.058     13.083
REMARK  0 active torsions:
REMARK  status: ('A' for Active; 'I' for Inactive)
ROOT
HETATM    1  C1  UNL     1     -39.408  11.748   5.807  1.00 20.00     0.029 C 
HETATM    2  C2  UNL     1     -39.752  12.816   6.815  1.00 20.00     0.042 C 
HETATM    3  C3  UNL     1     -42.307  12.558   6.723  1.00 20.00     0.070 C 
HETATM    4  C4  UNL     1     -43.348  13.620   7.076  1.00 20.00     0.275 C 
HETATM    5  C5  UNL     1     -41.374  14.789   6.671  1.00 20.00     0.309 C 
HETATM    6  C6  UNL     1     -39.871  12.382   4.513  1.00 20.00     0.169 C 
HETATM    7  C7  UNL     1     -41.070  13.349   6.277  1.00 20.00     0.089 C 
HETATM    8  C8  UNL     1     -43.415  16.045   7.068  1.00 20.00     0.310 C 
HETATM    9  N9  UNL     1     -42.827  14.851   6.482  1.00 20.00     0.087 N 
HETATM   10  O10 UNL     1     -40.965  13.252   4.840  1.00 20.00    -0.378 OA
ENDROOT
TORSDOF 0
ENDMDL
MODEL 8
REMARK VINA RESULT:      -3.1      3.041      5.258
REMARK  0 active torsions:
REMARK  status: ('A' for Active; 'I' for Inactive)
ROOT
HETATM    1  C1  UNL     1     -35.571  15.142  -6.857  1.00 20.00     0.029 C 
HETATM    2  C2  UNL     1     -34.411  16.076  -6.621  1.00 20.00     0.042 C 
HETATM    3  C3  UNL     1     -33.954  15.434  -4.174  1.00 20.00     0.070 C 
HETATM    4  C4  UNL     1     -33.274  16.298  -3.113  1.00 20.00     0.275 C 
HETATM    5  C5  UNL     1     -33.993  17.781  -4.759  1.00 20.00     0.309 C 
HETATM    6  C6  UNL     1     -36.659  15.780  -6.021  1.00 20.00     0.169 C 
HETATM    7  C7  UNL     1     -34.585  16.434  -5.153  1.00 20.00     0.089 C 
HETATM    8  C8  UNL     1     -33.027  18.679  -2.719  1.00 20.00     0.310 C 
HETATM    9  N9  UNL     1     -33.844  17.630  -3.308  1.00 20.00     0.087 N 
HETATM   10  O10 UNL     1     -36.012  16.448  -4.928  1.00 20.00    -0.378 OA
ENDROOT
TORSDOF 0
ENDMDL
MODEL 9
REMARK VINA RESULT:      -3.1      3.209      5.654
REMARK  0 active torsions:
REMARK  status: ('A' for Active; 'I' for Inactive)
ROOT
HETATM    1  C1  UNL     1     -35.781  16.389  -7.677  1.00 20.00     0.029 C 
HETATM    2  C2  UNL     1     -34.647  17.078  -6.959  1.00 20.00     0.042 C 
HETATM    3  C3  UNL     1     -33.980  15.124  -5.429  1.00 20.00     0.070 C 
HETATM    4  C4  UNL     1     -33.260  15.218  -4.084  1.00 20.00     0.275 C 
HETATM    5  C5  UNL     1     -34.164  17.332  -4.459  1.00 20.00     0.309 C 
HETATM    6  C6  UNL     1     -36.829  16.300  -6.590  1.00 20.00     0.169 C 
HETATM    7  C7  UNL     1     -34.726  16.458  -5.573  1.00 20.00     0.089 C 
HETATM    8  C8  UNL     1     -33.087  16.884  -2.329  1.00 20.00     0.310 C 
HETATM    9  N9  UNL     1     -33.901  16.345  -3.408  1.00 20.00     0.087 N 
HETATM   10  O10 UNL     1     -36.130  16.218  -5.338  1.00 20.00    -0.378 OA
ENDROOT
TORSDOF 0
ENDMDL
