MODEL 1
REMARK VINA RESULT:      -4.1      0.000      0.000
REMARK  1 active torsions:
REMARK  status: ('A' for Active; 'I' for Inactive)
REMARK    1  A    between atoms: C1_1  and  C4_4 
ROOT
HETATM    1  C2  UNL     1     -34.119   6.781   5.639  1.00 20.00     0.054 A 
HETATM    2  C3  UNL     1     -34.647   5.535   6.285  1.00 20.00     0.054 A 
HETATM    3  C4  UNL     1     -34.741   5.704   4.793  1.00 20.00     0.156 A 
HETATM    4  F6  UNL     1     -36.011   5.988   4.303  1.00 20.00    -0.235 F 
ENDROOT
BRANCH   3   5
HETATM    5  C1  UNL     1     -33.898   4.890   3.913  1.00 20.00     0.274 C 
HETATM    6  O5  UNL     1     -33.256   5.352   2.974  1.00 20.00    -0.303 OA
ENDBRANCH   3   5
TORSDOF 1
ENDMDL
MODEL 2
REMARK VINA RESULT:      -3.8      2.107      2.538
REMARK  1 active torsions:
REMARK  status: ('A' for Active; 'I' for Inactive)
REMARK    1  A    between atoms: C1_1  and  C4_4 
ROOT
HETATM    1  C2  UNL     1     -34.327   4.940   4.906  1.00 20.00     0.054 A 
HETATM    2  C3  UNL     1     -35.477   5.837   4.554  1.00 20.00     0.054 A 
HETATM    3  C4  UNL     1     -34.336   6.369   5.376  1.00 20.00     0.156 A 
HETATM    4  F6  UNL     1     -34.607   6.551   6.728  1.00 20.00    -0.235 F 
ENDROOT
BRANCH   3   5
HETATM    5  C1  UNL     1     -33.403   7.336   4.790  1.00 20.00     0.274 C 
HETATM    6  O5  UNL     1     -33.269   8.483   5.204  1.00 20.00    -0.303 OA
ENDBRANCH   3   5
TORSDOF 1
ENDMDL
MODEL 3
REMARK VINA RESULT:      -3.7      1.987      2.332
REMARK  1 active torsions:
REMARK  status: ('A' for Active; 'I' for Inactive)
REMARK    1  A    between atoms: C1_1  and  C4_4 
ROOT
HETATM    1  C2  UNL     1     -35.468   5.844   4.585  1.00 20.00     0.054 A 
HETATM    2  C3  UNL     1     -34.502   5.178   5.519  1.00 20.00     0.054 A 
HETATM    3  C4  UNL     1     -34.009   6.206   4.537  1.00 20.00     0.156 A 
HETATM    4  F6  UNL     1     -33.303   5.703   3.449  1.00 20.00    -0.235 F 
ENDROOT
BRANCH   3   5
HETATM    5  C1  UNL     1     -33.567   7.519   5.016  1.00 20.00     0.274 C 
HETATM    6  O5  UNL     1     -32.454   7.983   4.788  1.00 20.00    -0.303 OA
ENDBRANCH   3   5
TORSDOF 1
ENDMDL
MODEL 4
REMARK VINA RESULT:      -3.6      2.030      2.468
REMARK  1 active torsions:
REMARK  status: ('A' for Active; 'I' for Inactive)
REMARK    1  A    between atoms: C1_1  and  C4_4 
ROOT
HETATM    1  C2  UNL     1     -34.025   8.336   5.217  1.00 20.00     0.054 A 
HETATM    2  C3  UNL     1     -32.884   7.584   4.597  1.00 20.00     0.054 A 
HETATM    3  C4  UNL     1     -33.917   6.847   5.406  1.00 20.00     0.156 A 
HETATM    4  F6  UNL     1     -33.503   6.433   6.668  1.00 20.00    -0.235 F 
ENDROOT
BRANCH   3   5
HETATM    5  C1  UNL     1     -34.868   5.956   4.735  1.00 20.00     0.274 C 
HETATM    6  O5  UNL     1     -34.868   4.737   4.878  1.00 20.00    -0.303 OA
ENDBRANCH   3   5
TORSDOF 1
ENDMDL
MODEL 5
REMARK VINA RESULT:      -3.5      1.879      2.560
REMARK  1 active torsions:
REMARK  status: ('A' for Active; 'I' for Inactive)
REMARK    1  A    between atoms: C1_1  and  C4_4 
ROOT
HETATM    1  C2  UNL     1     -34.112   4.470   4.709  1.00 20.00     0.054 A 
HETATM    2  C3  UNL     1     -33.758   5.317   3.522  1.00 20.00     0.054 A 
HETATM    3  C4  UNL     1     -34.606   5.889   4.625  1.00 20.00     0.156 A 
HETATM    4  F6  UNL     1     -35.957   6.034   4.326  1.00 20.00    -0.235 F 
ENDROOT
BRANCH   3   5
HETATM    5  C1  UNL     1     -34.050   6.909   5.519  1.00 20.00     0.274 C 
HETATM    6  O5  UNL     1     -34.363   7.015   6.701  1.00 20.00    -0.303 OA
ENDBRANCH   3   5
TORSDOF 1
ENDMDL
MODEL 6
REMARK VINA RESULT:      -3.5      2.369      2.705
REMARK  1 active torsions:
REMARK  status: ('A' for Active; 'I' for Inactive)
REMARK    1  A    between atoms: C1_1  and  C4_4 
ROOT
HETATM    1  C2  UNL     1     -33.663   6.564   6.321  1.00 20.00     0.054 A 
HETATM    2  C3  UNL     1     -34.655   6.538   5.196  1.00 20.00     0.054 A 
HETATM    3  C4  UNL     1     -33.680   7.678   5.310  1.00 20.00     0.156 A 
HETATM    4  F6  UNL     1     -34.218   8.881   5.756  1.00 20.00    -0.235 F 
ENDROOT
BRANCH   3   5
HETATM    5  C1  UNL     1     -32.586   7.803   4.343  1.00 20.00     0.274 C 
HETATM    6  O5  UNL     1     -32.561   8.650   3.456  1.00 20.00    -0.303 OA
ENDBRANCH   3   5
TORSDOF 1
ENDMDL
MODEL 7
REMARK VINA RESULT:      -3.5      1.989      2.279
REMARK  1 active torsions:
REMARK  status: ('A' for Active; 'I' for Inactive)
REMARK    1  A    between atoms: C1_1  and  C4_4 
ROOT
HETATM    1  C2  UNL     1     -33.316   7.215   5.903  1.00 20.00     0.054 A 
HETATM    2  C3  UNL     1     -34.072   8.134   4.990  1.00 20.00     0.054 A 
HETATM    3  C4  UNL     1     -33.851   6.699   4.596  1.00 20.00     0.156 A 
HETATM    4  F6  UNL     1     -32.901   6.492   3.601  1.00 20.00    -0.235 F 
ENDROOT
BRANCH   3   5
HETATM    5  C1  UNL     1     -34.979   5.762   4.588  1.00 20.00     0.274 C 
HETATM    6  O5  UNL     1     -34.875   4.577   4.887  1.00 20.00    -0.303 OA
ENDBRANCH   3   5
TORSDOF 1
ENDMDL
MODEL 8
REMARK VINA RESULT:      -3.3     16.920     17.262
REMARK  1 active torsions:
REMARK  status: ('A' for Active; 'I' for Inactive)
REMARK    1  A    between atoms: C1_1  and  C4_4 
ROOT
HETATM    1  C2  UNL     1     -23.353  10.339  -7.270  1.00 20.00     0.054 A 
HETATM    2  C3  UNL     1     -22.153  11.163  -7.632  1.00 20.00     0.054 A 
HETATM    3  C4  UNL     1     -22.145  10.338  -6.373  1.00 20.00     0.156 A 
HETATM    4  F6  UNL     1     -22.279  11.054  -5.188  1.00 20.00    -0.235 F 
ENDROOT
BRANCH   3   5
HETATM    5  C1  UNL     1     -21.300   9.143  -6.290  1.00 20.00     0.274 C 
HETATM    6  O5  UNL     1     -21.293   8.387  -5.324  1.00 20.00    -0.303 OA
ENDBRANCH   3   5
TORSDOF 1
ENDMDL
MODEL 9
REMARK VINA RESULT:      -3.3      2.724      3.343
REMARK  1 active torsions:
REMARK  status: ('A' for Active; 'I' for Inactive)
REMARK    1  A    between atoms: C1_1  and  C4_4 
ROOT
HETATM    1  C2  UNL     1     -32.338   7.656   3.733  1.00 20.00     0.054 A 
HETATM    2  C3  UNL     1     -32.228   8.812   4.683  1.00 20.00     0.054 A 
HETATM    3  C4  UNL     1     -33.394   7.866   4.784  1.00 20.00     0.156 A 
HETATM    4  F6  UNL     1     -34.608   8.363   4.320  1.00 20.00    -0.235 F 
ENDROOT
BRANCH   3   5
HETATM    5  C1  UNL     1     -33.488   6.943   5.918  1.00 20.00     0.274 C 
HETATM    6  O5  UNL     1     -34.428   6.935   6.707  1.00 20.00    -0.303 OA
ENDBRANCH   3   5
TORSDOF 1
ENDMDL
