MODEL 1
REMARK VINA RESULT:      -4.9      0.000      0.000
REMARK  1 active torsions:
REMARK  status: ('A' for Active; 'I' for Inactive)
REMARK    1  A    between atoms: C4_4  and  C9_9 
ROOT
HETATM    1  C1  UNL     1     -34.459   5.755   5.407  1.00 20.00    -0.089 C 
HETATM    2  C2  UNL     1     -34.654   5.293   6.650  1.00 20.00     0.014 C 
HETATM    3  C5  UNL     1     -34.589   4.877   4.190  1.00 20.00     0.033 C 
HETATM    4  C6  UNL     1     -34.071   7.184   5.126  1.00 20.00     0.042 C 
HETATM    5  C7  UNL     1     -33.320   4.944   3.338  1.00 20.00     0.005 C 
HETATM    6  C8  UNL     1     -32.933   6.387   3.002  1.00 20.00     0.009 C 
HETATM    7  C9  UNL     1     -32.793   7.243   4.272  1.00 20.00     0.017 C 
ENDROOT
BRANCH   7   8
HETATM    8  C4  UNL     1     -32.452   8.657   3.912  1.00 20.00    -0.089 C 
HETATM    9  C3  UNL     1     -32.043   9.544   4.832  1.00 20.00     0.014 C 
HETATM   10  C10 UNL     1     -32.593   9.024   2.465  1.00 20.00     0.043 C 
ENDBRANCH   7   8
TORSDOF 1
ENDMDL
MODEL 2
REMARK VINA RESULT:      -4.9      0.087      1.115
REMARK  1 active torsions:
REMARK  status: ('A' for Active; 'I' for Inactive)
REMARK    1  A    between atoms: C4_4  and  C9_9 
ROOT
HETATM    1  C1  UNL     1     -34.449   5.756   5.363  1.00 20.00    -0.089 C 
HETATM    2  C2  UNL     1     -34.644   5.345   6.624  1.00 20.00     0.014 C 
HETATM    3  C5  UNL     1     -34.563   4.825   4.184  1.00 20.00     0.033 C 
HETATM    4  C6  UNL     1     -34.079   7.177   5.022  1.00 20.00     0.042 C 
HETATM    5  C7  UNL     1     -33.292   4.872   3.335  1.00 20.00     0.005 C 
HETATM    6  C8  UNL     1     -32.923   6.304   2.939  1.00 20.00     0.009 C 
HETATM    7  C9  UNL     1     -32.799   7.216   4.171  1.00 20.00     0.017 C 
ENDROOT
BRANCH   7   8
HETATM    8  C4  UNL     1     -32.475   8.618   3.752  1.00 20.00    -0.089 C 
HETATM    9  C3  UNL     1     -32.579   9.018   2.476  1.00 20.00     0.014 C 
HETATM   10  C10 UNL     1     -32.031   9.547   4.841  1.00 20.00     0.043 C 
ENDBRANCH   7   8
TORSDOF 1
ENDMDL
MODEL 3
REMARK VINA RESULT:      -4.6      1.001      3.676
REMARK  1 active torsions:
REMARK  status: ('A' for Active; 'I' for Inactive)
REMARK    1  A    between atoms: C4_4  and  C9_9 
ROOT
HETATM    1  C1  UNL     1     -32.514   8.057   2.967  1.00 20.00    -0.089 C 
HETATM    2  C2  UNL     1     -32.590   9.240   2.341  1.00 20.00     0.014 C 
HETATM    3  C5  UNL     1     -32.040   6.806   2.273  1.00 20.00     0.033 C 
HETATM    4  C6  UNL     1     -32.916   7.875   4.408  1.00 20.00     0.042 C 
HETATM    5  C7  UNL     1     -33.071   5.686   2.418  1.00 20.00     0.005 C 
HETATM    6  C8  UNL     1     -33.460   5.453   3.880  1.00 20.00     0.009 C 
HETATM    7  C9  UNL     1     -33.954   6.749   4.545  1.00 20.00     0.017 C 
ENDROOT
BRANCH   7   8
HETATM    8  C4  UNL     1     -34.291   6.501   5.984  1.00 20.00    -0.089 C 
HETATM    9  C3  UNL     1     -34.192   7.466   6.911  1.00 20.00     0.014 C 
HETATM   10  C10 UNL     1     -34.745   5.114   6.327  1.00 20.00     0.043 C 
ENDBRANCH   7   8
TORSDOF 1
ENDMDL
MODEL 4
REMARK VINA RESULT:      -4.5     11.853     13.016
REMARK  1 active torsions:
REMARK  status: ('A' for Active; 'I' for Inactive)
REMARK    1  A    between atoms: C4_4  and  C9_9 
ROOT
HETATM    1  C1  UNL     1     -33.574  16.463  -3.489  1.00 20.00    -0.089 C 
HETATM    2  C2  UNL     1     -33.297  15.262  -4.017  1.00 20.00     0.014 C 
HETATM    3  C5  UNL     1     -34.052  17.621  -4.325  1.00 20.00     0.033 C 
HETATM    4  C6  UNL     1     -33.409  16.760  -2.020  1.00 20.00     0.042 C 
HETATM    5  C7  UNL     1     -33.162  18.846  -4.110  1.00 20.00     0.005 C 
HETATM    6  C8  UNL     1     -33.018  19.193  -2.626  1.00 20.00     0.009 C 
HETATM    7  C9  UNL     1     -32.510  17.990  -1.813  1.00 20.00     0.017 C 
ENDROOT
BRANCH   7   8
HETATM    8  C4  UNL     1     -32.415  18.346  -0.360  1.00 20.00    -0.089 C 
HETATM    9  C3  UNL     1     -31.258  18.723   0.204  1.00 20.00     0.014 C 
HETATM   10  C10 UNL     1     -33.689  18.257   0.427  1.00 20.00     0.043 C 
ENDBRANCH   7   8
TORSDOF 1
ENDMDL
MODEL 5
REMARK VINA RESULT:      -4.1      1.111      2.555
REMARK  1 active torsions:
REMARK  status: ('A' for Active; 'I' for Inactive)
REMARK    1  A    between atoms: C4_4  and  C9_9 
ROOT
HETATM    1  C1  UNL     1     -33.245   5.178   3.178  1.00 20.00    -0.089 C 
HETATM    2  C2  UNL     1     -33.181   4.869   1.875  1.00 20.00     0.014 C 
HETATM    3  C5  UNL     1     -33.836   4.244   4.200  1.00 20.00     0.033 C 
HETATM    4  C6  UNL     1     -32.751   6.494   3.723  1.00 20.00     0.042 C 
HETATM    5  C7  UNL     1     -34.929   4.948   5.007  1.00 20.00     0.005 C 
HETATM    6  C8  UNL     1     -34.435   6.266   5.609  1.00 20.00     0.009 C 
HETATM    7  C9  UNL     1     -33.856   7.197   4.530  1.00 20.00     0.017 C 
ENDROOT
BRANCH   7   8
HETATM    8  C4  UNL     1     -33.345   8.461   5.151  1.00 20.00    -0.089 C 
HETATM    9  C3  UNL     1     -33.937   9.015   6.220  1.00 20.00     0.014 C 
HETATM   10  C10 UNL     1     -32.135   9.071   4.509  1.00 20.00     0.043 C 
ENDBRANCH   7   8
TORSDOF 1
ENDMDL
MODEL 6
REMARK VINA RESULT:      -4.0     12.009     12.895
REMARK  1 active torsions:
REMARK  status: ('A' for Active; 'I' for Inactive)
REMARK    1  A    between atoms: C4_4  and  C9_9 
ROOT
HETATM    1  C1  UNL     1     -33.752  18.654   0.915  1.00 20.00    -0.089 C 
HETATM    2  C2  UNL     1     -34.735  19.263   1.593  1.00 20.00     0.014 C 
HETATM    3  C5  UNL     1     -32.326  18.639   1.399  1.00 20.00     0.033 C 
HETATM    4  C6  UNL     1     -33.988  17.953  -0.399  1.00 20.00     0.042 C 
HETATM    5  C7  UNL     1     -31.383  19.168   0.318  1.00 20.00     0.005 C 
HETATM    6  C8  UNL     1     -31.574  18.438  -1.014  1.00 20.00     0.009 C 
HETATM    7  C9  UNL     1     -33.038  18.493  -1.482  1.00 20.00     0.017 C 
ENDROOT
BRANCH   7   8
HETATM    8  C4  UNL     1     -33.204  17.739  -2.766  1.00 20.00    -0.089 C 
HETATM    9  C3  UNL     1     -33.308  16.402  -2.795  1.00 20.00     0.014 C 
HETATM   10  C10 UNL     1     -33.249  18.565  -4.017  1.00 20.00     0.043 C 
ENDBRANCH   7   8
TORSDOF 1
ENDMDL
MODEL 7
REMARK VINA RESULT:      -3.9      1.170      3.575
REMARK  1 active torsions:
REMARK  status: ('A' for Active; 'I' for Inactive)
REMARK    1  A    between atoms: C4_4  and  C9_9 
ROOT
HETATM    1  C1  UNL     1     -33.020   5.792   2.692  1.00 20.00    -0.089 C 
HETATM    2  C2  UNL     1     -32.685   4.648   2.078  1.00 20.00     0.014 C 
HETATM    3  C5  UNL     1     -32.520   7.134   2.227  1.00 20.00     0.033 C 
HETATM    4  C6  UNL     1     -33.905   5.827   3.913  1.00 20.00     0.042 C 
HETATM    5  C7  UNL     1     -31.843   7.886   3.375  1.00 20.00     0.005 C 
HETATM    6  C8  UNL     1     -32.744   7.973   4.610  1.00 20.00     0.009 C 
HETATM    7  C9  UNL     1     -33.216   6.581   5.062  1.00 20.00     0.017 C 
ENDROOT
BRANCH   7   8
HETATM    8  C4  UNL     1     -34.125   6.698   6.248  1.00 20.00    -0.089 C 
HETATM    9  C3  UNL     1     -34.229   7.835   6.952  1.00 20.00     0.014 C 
HETATM   10  C10 UNL     1     -34.913   5.472   6.600  1.00 20.00     0.043 C 
ENDBRANCH   7   8
TORSDOF 1
ENDMDL
MODEL 8
REMARK VINA RESULT:      -3.9      1.049      4.212
REMARK  1 active torsions:
REMARK  status: ('A' for Active; 'I' for Inactive)
REMARK    1  A    between atoms: C4_4  and  C9_9 
ROOT
HETATM    1  C1  UNL     1     -32.620   7.932   2.837  1.00 20.00    -0.089 C 
HETATM    2  C2  UNL     1     -31.830   7.645   1.793  1.00 20.00     0.014 C 
HETATM    3  C5  UNL     1     -32.525   9.235   3.587  1.00 20.00     0.033 C 
HETATM    4  C6  UNL     1     -33.654   6.967   3.361  1.00 20.00     0.042 C 
HETATM    5  C7  UNL     1     -32.332   8.984   5.084  1.00 20.00     0.005 C 
HETATM    6  C8  UNL     1     -33.399   8.041   5.646  1.00 20.00     0.009 C 
HETATM    7  C9  UNL     1     -33.451   6.717   4.865  1.00 20.00     0.017 C 
ENDROOT
BRANCH   7   8
HETATM    8  C4  UNL     1     -34.528   5.831   5.411  1.00 20.00    -0.089 C 
HETATM    9  C3  UNL     1     -34.453   5.298   6.640  1.00 20.00     0.014 C 
HETATM   10  C10 UNL     1     -35.697   5.575   4.507  1.00 20.00     0.043 C 
ENDBRANCH   7   8
TORSDOF 1
ENDMDL
MODEL 9
REMARK VINA RESULT:      -3.9     12.003     13.080
REMARK  1 active torsions:
REMARK  status: ('A' for Active; 'I' for Inactive)
REMARK    1  A    between atoms: C4_4  and  C9_9 
ROOT
HETATM    1  C1  UNL     1     -35.219  17.918  -4.011  1.00 20.00    -0.089 C 
HETATM    2  C2  UNL     1     -36.499  18.183  -4.308  1.00 20.00     0.014 C 
HETATM    3  C5  UNL     1     -34.382  16.968  -4.826  1.00 20.00     0.033 C 
HETATM    4  C6  UNL     1     -34.519  18.531  -2.825  1.00 20.00     0.042 C 
HETATM    5  C7  UNL     1     -33.767  15.888  -3.933  1.00 20.00     0.005 C 
HETATM    6  C8  UNL     1     -33.012  16.491  -2.746  1.00 20.00     0.009 C 
HETATM    7  C9  UNL     1     -33.907  17.439  -1.931  1.00 20.00     0.017 C 
ENDROOT
BRANCH   7   8
HETATM    8  C4  UNL     1     -33.133  18.044  -0.800  1.00 20.00    -0.089 C 
HETATM    9  C3  UNL     1     -31.848  18.406  -0.933  1.00 20.00     0.014 C 
HETATM   10  C10 UNL     1     -33.877  18.221   0.490  1.00 20.00     0.043 C 
ENDBRANCH   7   8
TORSDOF 1
ENDMDL
