MODEL 1
REMARK VINA RESULT:      -4.3      0.000      0.000
REMARK  2 active torsions:
REMARK  status: ('A' for Active; 'I' for Inactive)
REMARK    1  A    between atoms: C7_7  and  C9_9 
REMARK    2  A    between atoms: C8_8  and  C10_10 
ROOT
HETATM    1  C1  UNL     1     -34.422   7.972   5.622  1.00 20.00     0.005 C 
HETATM    2  C2  UNL     1     -33.807   7.172   6.776  1.00 20.00     0.005 C 
HETATM    3  C3  UNL     1     -35.355   5.868   4.656  1.00 20.00     0.005 C 
HETATM    4  C4  UNL     1     -34.733   5.063   5.816  1.00 20.00     0.005 C 
HETATM    5  C7  UNL     1     -34.496   7.113   4.349  1.00 20.00    -0.010 C 
HETATM    6  C8  UNL     1     -33.445   5.751   6.316  1.00 20.00    -0.010 C 
ENDROOT
BRANCH   5   7
HETATM    7  C9  UNL     1     -33.098   6.602   3.956  1.00 20.00    -0.006 A 
HETATM    8  C5  UNL     1     -32.836   5.890   2.611  1.00 20.00     0.006 A 
HETATM    9  C6  UNL     1     -31.954   7.062   2.155  1.00 20.00     0.006 A 
HETATM   10  C10 UNL     1     -32.206   7.780   3.498  1.00 20.00    -0.006 A 
ENDBRANCH   5   7
TORSDOF 2
ENDMDL
MODEL 2
REMARK VINA RESULT:      -4.2      0.825      1.074
REMARK  2 active torsions:
REMARK  status: ('A' for Active; 'I' for Inactive)
REMARK    1  A    between atoms: C7_7  and  C9_9 
REMARK    2  A    between atoms: C8_8  and  C10_10 
ROOT
HETATM    1  C1  UNL     1     -34.399   6.955   6.480  1.00 20.00     0.005 C 
HETATM    2  C2  UNL     1     -33.987   5.511   6.790  1.00 20.00     0.005 C 
HETATM    3  C3  UNL     1     -35.397   6.211   4.318  1.00 20.00     0.005 C 
HETATM    4  C4  UNL     1     -34.980   4.759   4.628  1.00 20.00     0.005 C 
HETATM    5  C7  UNL     1     -34.406   7.202   4.964  1.00 20.00    -0.010 C 
HETATM    6  C8  UNL     1     -33.700   4.742   5.491  1.00 20.00    -0.010 C 
ENDROOT
BRANCH   5   7
HETATM    7  C9  UNL     1     -33.022   6.903   4.358  1.00 20.00    -0.006 A 
HETATM    8  C5  UNL     1     -32.820   6.700   2.841  1.00 20.00     0.006 A 
HETATM    9  C6  UNL     1     -31.983   7.987   2.774  1.00 20.00     0.006 A 
HETATM   10  C10 UNL     1     -32.176   8.196   4.292  1.00 20.00    -0.006 A 
ENDBRANCH   5   7
TORSDOF 2
ENDMDL
MODEL 3
REMARK VINA RESULT:      -3.8     15.094     16.276
REMARK  2 active torsions:
REMARK  status: ('A' for Active; 'I' for Inactive)
REMARK    1  A    between atoms: C7_7  and  C9_9 
REMARK    2  A    between atoms: C8_8  and  C10_10 
ROOT
HETATM    1  C1  UNL     1     -22.934  17.953  12.205  1.00 20.00     0.005 C 
HETATM    2  C2  UNL     1     -23.577  16.565  12.314  1.00 20.00     0.005 C 
HETATM    3  C3  UNL     1     -25.197  19.005  12.219  1.00 20.00     0.005 C 
HETATM    4  C4  UNL     1     -25.843  17.608  12.326  1.00 20.00     0.005 C 
HETATM    5  C7  UNL     1     -23.861  18.919  11.451  1.00 20.00    -0.010 C 
HETATM    6  C8  UNL     1     -24.954  16.553  11.634  1.00 20.00    -0.010 C 
ENDROOT
BRANCH   5   7
HETATM    7  C9  UNL     1     -24.190  18.374  10.049  1.00 20.00    -0.006 A 
HETATM    8  C5  UNL     1     -24.962  19.212   9.007  1.00 20.00     0.006 A 
HETATM    9  C6  UNL     1     -23.713  19.263   8.113  1.00 20.00     0.006 A 
HETATM   10  C10 UNL     1     -22.934  18.422   9.148  1.00 20.00    -0.006 A 
ENDBRANCH   5   7
TORSDOF 2
ENDMDL
MODEL 4
REMARK VINA RESULT:      -3.7      8.632     10.151
REMARK  2 active torsions:
REMARK  status: ('A' for Active; 'I' for Inactive)
REMARK    1  A    between atoms: C7_7  and  C9_9 
REMARK    2  A    between atoms: C8_8  and  C10_10 
ROOT
HETATM    1  C1  UNL     1     -41.081  14.158   7.882  1.00 20.00     0.005 C 
HETATM    2  C2  UNL     1     -42.280  13.256   8.198  1.00 20.00     0.005 C 
HETATM    3  C3  UNL     1     -41.975  14.550   5.586  1.00 20.00     0.005 C 
HETATM    4  C4  UNL     1     -43.180  13.640   5.903  1.00 20.00     0.005 C 
HETATM    5  C7  UNL     1     -40.736  14.095   6.386  1.00 20.00    -0.010 C 
HETATM    6  C8  UNL     1     -42.779  12.555   6.925  1.00 20.00    -0.010 C 
ENDROOT
BRANCH   5   7
HETATM    7  C9  UNL     1     -40.439  12.645   5.957  1.00 20.00    -0.006 A 
HETATM    8  C5  UNL     1     -39.929  12.300   4.542  1.00 20.00     0.006 A 
HETATM    9  C6  UNL     1     -38.587  11.839   5.132  1.00 20.00     0.006 A 
HETATM   10  C10 UNL     1     -39.090  12.177   6.552  1.00 20.00    -0.006 A 
ENDBRANCH   5   7
TORSDOF 2
ENDMDL
MODEL 5
REMARK VINA RESULT:      -3.7     15.224     16.497
REMARK  2 active torsions:
REMARK  status: ('A' for Active; 'I' for Inactive)
REMARK    1  A    between atoms: C7_7  and  C9_9 
REMARK    2  A    between atoms: C8_8  and  C10_10 
ROOT
HETATM    1  C1  UNL     1     -23.866  16.493  11.975  1.00 20.00     0.005 C 
HETATM    2  C2  UNL     1     -25.353  16.865  11.963  1.00 20.00     0.005 C 
HETATM    3  C3  UNL     1     -23.266  18.889  12.332  1.00 20.00     0.005 C 
HETATM    4  C4  UNL     1     -24.762  19.263  12.317  1.00 20.00     0.005 C 
HETATM    5  C7  UNL     1     -23.014  17.655  11.440  1.00 20.00    -0.010 C 
HETATM    6  C8  UNL     1     -25.550  18.288  11.417  1.00 20.00    -0.010 C 
ENDROOT
BRANCH   5   7
HETATM    7  C9  UNL     1     -23.455  18.041  10.015  1.00 20.00    -0.006 A 
HETATM    8  C5  UNL     1     -22.864  19.262   9.280  1.00 20.00     0.006 A 
HETATM    9  C6  UNL     1     -22.203  18.331   8.252  1.00 20.00     0.006 A 
HETATM   10  C10 UNL     1     -22.792  17.103   8.978  1.00 20.00    -0.006 A 
ENDBRANCH   5   7
TORSDOF 2
ENDMDL
MODEL 6
REMARK VINA RESULT:      -3.4      8.961     10.555
REMARK  2 active torsions:
REMARK  status: ('A' for Active; 'I' for Inactive)
REMARK    1  A    between atoms: C7_7  and  C9_9 
REMARK    2  A    between atoms: C8_8  and  C10_10 
ROOT
HETATM    1  C1  UNL     1     -42.757  14.152   5.627  1.00 20.00     0.005 C 
HETATM    2  C2  UNL     1     -42.225  15.506   6.110  1.00 20.00     0.005 C 
HETATM    3  C3  UNL     1     -42.157  13.128   7.822  1.00 20.00     0.005 C 
HETATM    4  C4  UNL     1     -41.619  14.490   8.307  1.00 20.00     0.005 C 
HETATM    5  C7  UNL     1     -41.988  13.000   6.293  1.00 20.00    -0.010 C 
HETATM    6  C8  UNL     1     -41.080  15.309   7.115  1.00 20.00    -0.010 C 
ENDROOT
BRANCH   5   7
HETATM    7  C9  UNL     1     -40.480  13.114   6.002  1.00 20.00    -0.006 A 
HETATM    8  C5  UNL     1     -39.485  12.003   6.401  1.00 20.00     0.006 A 
HETATM    9  C6  UNL     1     -39.209  11.710   4.918  1.00 20.00     0.006 A 
HETATM   10  C10 UNL     1     -40.199  12.821   4.510  1.00 20.00    -0.006 A 
ENDBRANCH   5   7
TORSDOF 2
ENDMDL
MODEL 7
REMARK VINA RESULT:      -3.3      9.311     10.951
REMARK  2 active torsions:
REMARK  status: ('A' for Active; 'I' for Inactive)
REMARK    1  A    between atoms: C7_7  and  C9_9 
REMARK    2  A    between atoms: C8_8  and  C10_10 
ROOT
HETATM    1  C1  UNL     1     -40.351  14.578   8.744  1.00 20.00     0.005 C 
HETATM    2  C2  UNL     1     -41.688  14.110   9.332  1.00 20.00     0.005 C 
HETATM    3  C3  UNL     1     -41.564  15.721   6.886  1.00 20.00     0.005 C 
HETATM    4  C4  UNL     1     -42.908  15.248   7.477  1.00 20.00     0.005 C 
HETATM    5  C7  UNL     1     -40.448  14.707   7.216  1.00 20.00    -0.010 C 
HETATM    6  C8  UNL     1     -42.725  13.906   8.218  1.00 20.00    -0.010 C 
ENDROOT
BRANCH   5   7
HETATM    7  C9  UNL     1     -40.867  13.366   6.583  1.00 20.00    -0.006 A 
HETATM    8  C5  UNL     1     -41.010  13.192   5.057  1.00 20.00     0.006 A 
HETATM    9  C6  UNL     1     -39.823  12.216   5.051  1.00 20.00     0.006 A 
HETATM   10  C10 UNL     1     -39.674  12.381   6.578  1.00 20.00    -0.006 A 
ENDBRANCH   5   7
TORSDOF 2
ENDMDL
MODEL 8
REMARK VINA RESULT:      -3.3      9.453     11.168
REMARK  2 active torsions:
REMARK  status: ('A' for Active; 'I' for Inactive)
REMARK    1  A    between atoms: C7_7  and  C9_9 
REMARK    2  A    between atoms: C8_8  and  C10_10 
ROOT
HETATM    1  C1  UNL     1     -42.659  15.079   7.282  1.00 20.00     0.005 C 
HETATM    2  C2  UNL     1     -41.878  16.399   7.261  1.00 20.00     0.005 C 
HETATM    3  C3  UNL     1     -41.082  14.170   8.990  1.00 20.00     0.005 C 
HETATM    4  C4  UNL     1     -40.296  15.496   8.966  1.00 20.00     0.005 C 
HETATM    5  C7  UNL     1     -41.725  13.904   7.612  1.00 20.00    -0.010 C 
HETATM    6  C8  UNL     1     -40.394  16.153   7.572  1.00 20.00    -0.010 C 
ENDROOT
BRANCH   5   7
HETATM    7  C9  UNL     1     -40.572  13.824   6.593  1.00 20.00    -0.006 A 
HETATM    8  C5  UNL     1     -39.595  12.629   6.558  1.00 20.00     0.006 A 
HETATM    9  C6  UNL     1     -40.135  12.221   5.178  1.00 20.00     0.006 A 
HETATM   10  C10 UNL     1     -41.113  13.415   5.203  1.00 20.00    -0.006 A 
ENDBRANCH   5   7
TORSDOF 2
ENDMDL
MODEL 9
REMARK VINA RESULT:      -3.3     12.438     14.367
REMARK  2 active torsions:
REMARK  status: ('A' for Active; 'I' for Inactive)
REMARK    1  A    between atoms: C7_7  and  C9_9 
REMARK    2  A    between atoms: C8_8  and  C10_10 
ROOT
HETATM    1  C1  UNL     1     -35.210  14.859  -6.181  1.00 20.00     0.005 C 
HETATM    2  C2  UNL     1     -34.571  15.580  -7.374  1.00 20.00     0.005 C 
HETATM    3  C3  UNL     1     -36.485  16.926  -5.609  1.00 20.00     0.005 C 
HETATM    4  C4  UNL     1     -35.840  17.652  -6.807  1.00 20.00     0.005 C 
HETATM    5  C7  UNL     1     -35.524  15.854  -5.053  1.00 20.00    -0.010 C 
HETATM    6  C8  UNL     1     -34.433  17.083  -7.085  1.00 20.00    -0.010 C 
ENDROOT
BRANCH   5   7
HETATM    7  C9  UNL     1     -34.247  16.591  -4.607  1.00 20.00    -0.006 A 
HETATM    8  C5  UNL     1     -34.248  17.587  -3.428  1.00 20.00     0.006 A 
HETATM    9  C6  UNL     1     -33.346  16.640  -2.621  1.00 20.00     0.006 A 
HETATM   10  C10 UNL     1     -33.336  15.640  -3.797  1.00 20.00    -0.006 A 
ENDBRANCH   5   7
TORSDOF 2
ENDMDL
