MODEL 1
REMARK VINA RESULT:      -4.2      0.000      0.000
REMARK  0 active torsions:
REMARK  status: ('A' for Active; 'I' for Inactive)
ROOT
HETATM    1  C1  UNL     1     -33.526   5.471   3.520  1.00 20.00     0.043 C 
HETATM    2  C2  UNL     1     -33.394   7.470   6.013  1.00 20.00     0.019 C 
HETATM    3  C3  UNL     1     -34.057   6.349   6.324  1.00 20.00     0.114 C 
HETATM    4  C4  UNL     1     -32.688   6.495   3.299  1.00 20.00     0.136 C 
HETATM    5  C5  UNL     1     -34.762   5.408   4.349  1.00 20.00     0.118 C 
HETATM    6  C6  UNL     1     -33.602   8.196   4.722  1.00 20.00     0.203 C 
HETATM    7  N7  UNL     1     -35.027   5.756   5.567  1.00 20.00    -0.273 NA
HETATM    8  O8  UNL     1     -32.634   7.776   3.767  1.00 20.00    -0.359 OA
ENDROOT
TORSDOF 0
ENDMDL
MODEL 2
REMARK VINA RESULT:      -4.2      1.882      2.581
REMARK  0 active torsions:
REMARK  status: ('A' for Active; 'I' for Inactive)
ROOT
HETATM    1  C1  UNL     1     -34.193   5.386   3.847  1.00 20.00     0.043 C 
HETATM    2  C2  UNL     1     -33.656   8.147   5.369  1.00 20.00     0.019 C 
HETATM    3  C3  UNL     1     -33.177   8.180   4.119  1.00 20.00     0.114 C 
HETATM    4  C4  UNL     1     -34.850   5.452   5.014  1.00 20.00     0.136 C 
HETATM    5  C5  UNL     1     -32.900   6.002   3.440  1.00 20.00     0.118 C 
HETATM    6  C6  UNL     1     -33.475   6.966   6.268  1.00 20.00     0.203 C 
HETATM    7  N7  UNL     1     -32.431   7.205   3.521  1.00 20.00    -0.273 NA
HETATM    8  O8  UNL     1     -34.612   6.113   6.185  1.00 20.00    -0.359 OA
ENDROOT
TORSDOF 0
ENDMDL
MODEL 3
REMARK VINA RESULT:      -4.1      1.828      3.294
REMARK  0 active torsions:
REMARK  status: ('A' for Active; 'I' for Inactive)
ROOT
HETATM    1  C1  UNL     1     -33.683   7.228   6.355  1.00 20.00     0.043 C 
HETATM    2  C2  UNL     1     -33.586   5.572   3.621  1.00 20.00     0.019 C 
HETATM    3  C3  UNL     1     -32.791   6.648   3.565  1.00 20.00     0.114 C 
HETATM    4  C4  UNL     1     -34.296   6.040   6.465  1.00 20.00     0.136 C 
HETATM    5  C5  UNL     1     -33.526   8.118   5.171  1.00 20.00     0.118 C 
HETATM    6  C6  UNL     1     -34.963   5.618   4.200  1.00 20.00     0.203 C 
HETATM    7  N7  UNL     1     -33.126   7.912   3.958  1.00 20.00    -0.273 NA
HETATM    8  O8  UNL     1     -34.929   5.228   5.569  1.00 20.00    -0.359 OA
ENDROOT
TORSDOF 0
ENDMDL
MODEL 4
REMARK VINA RESULT:      -4.0      0.785      2.326
REMARK  0 active torsions:
REMARK  status: ('A' for Active; 'I' for Inactive)
ROOT
HETATM    1  C1  UNL     1     -33.321   8.041   5.384  1.00 20.00     0.043 C 
HETATM    2  C2  UNL     1     -34.517   5.511   3.836  1.00 20.00     0.019 C 
HETATM    3  C3  UNL     1     -35.137   5.700   5.008  1.00 20.00     0.114 C 
HETATM    4  C4  UNL     1     -32.869   7.963   4.124  1.00 20.00     0.136 C 
HETATM    5  C5  UNL     1     -33.732   6.959   6.322  1.00 20.00     0.118 C 
HETATM    6  C6  UNL     1     -33.033   5.611   3.685  1.00 20.00     0.203 C 
HETATM    7  N7  UNL     1     -34.527   5.944   6.205  1.00 20.00    -0.273 NA
HETATM    8  O8  UNL     1     -32.674   6.922   3.262  1.00 20.00    -0.359 OA
ENDROOT
TORSDOF 0
ENDMDL
MODEL 5
REMARK VINA RESULT:      -3.5     16.168     17.106
REMARK  0 active torsions:
REMARK  status: ('A' for Active; 'I' for Inactive)
ROOT
HETATM    1  C1  UNL     1     -22.179  18.830   9.399  1.00 20.00     0.043 C 
HETATM    2  C2  UNL     1     -23.505  17.294  11.872  1.00 20.00     0.019 C 
HETATM    3  C3  UNL     1     -24.323  17.304  10.811  1.00 20.00     0.114 C 
HETATM    4  C4  UNL     1     -21.300  18.620  10.390  1.00 20.00     0.136 C 
HETATM    5  C5  UNL     1     -23.654  19.035   9.455  1.00 20.00     0.118 C 
HETATM    6  C6  UNL     1     -22.737  18.501  12.307  1.00 20.00     0.203 C 
HETATM    7  N7  UNL     1     -24.613  18.389  10.035  1.00 20.00    -0.273 NA
HETATM    8  O8  UNL     1     -21.431  18.478  11.742  1.00 20.00    -0.359 OA
ENDROOT
TORSDOF 0
ENDMDL
MODEL 6
REMARK VINA RESULT:      -3.4     16.160     17.181
REMARK  0 active torsions:
REMARK  status: ('A' for Active; 'I' for Inactive)
ROOT
HETATM    1  C1  UNL     1     -23.839  18.294  12.111  1.00 20.00     0.043 C 
HETATM    2  C2  UNL     1     -22.450  19.263   9.397  1.00 20.00     0.019 C 
HETATM    3  C3  UNL     1     -23.784  19.236   9.278  1.00 20.00     0.114 C 
HETATM    4  C4  UNL     1     -22.530  18.535  12.275  1.00 20.00     0.136 C 
HETATM    5  C5  UNL     1     -24.583  17.826  10.908  1.00 20.00     0.118 C 
HETATM    6  C6  UNL     1     -21.680  18.168  10.062  1.00 20.00     0.203 C 
HETATM    7  N7  UNL     1     -24.602  18.217   9.675  1.00 20.00    -0.273 NA
HETATM    8  O8  UNL     1     -21.458  18.490  11.431  1.00 20.00    -0.359 OA
ENDROOT
TORSDOF 0
ENDMDL
MODEL 7
REMARK VINA RESULT:      -3.4      9.189     10.054
REMARK  0 active torsions:
REMARK  status: ('A' for Active; 'I' for Inactive)
ROOT
HETATM    1  C1  UNL     1     -43.417   7.213   1.447  1.00 20.00     0.043 C 
HETATM    2  C2  UNL     1     -40.790   6.661  -0.292  1.00 20.00     0.019 C 
HETATM    3  C3  UNL     1     -41.198   7.930  -0.418  1.00 20.00     0.114 C 
HETATM    4  C4  UNL     1     -42.871   6.021   1.727  1.00 20.00     0.136 C 
HETATM    5  C5  UNL     1     -43.417   7.992   0.177  1.00 20.00     0.118 C 
HETATM    6  C6  UNL     1     -41.738   5.505  -0.323  1.00 20.00     0.203 C 
HETATM    7  N7  UNL     1     -42.481   8.340  -0.646  1.00 20.00    -0.273 NA
HETATM    8  O8  UNL     1     -42.113   5.147   1.002  1.00 20.00    -0.359 OA
ENDROOT
TORSDOF 0
ENDMDL
MODEL 8
REMARK VINA RESULT:      -3.3     16.243     17.082
REMARK  0 active torsions:
REMARK  status: ('A' for Active; 'I' for Inactive)
ROOT
HETATM    1  C1  UNL     1     -23.446  19.183   9.306  1.00 20.00     0.043 C 
HETATM    2  C2  UNL     1     -22.978  17.958  12.223  1.00 20.00     0.019 C 
HETATM    3  C3  UNL     1     -21.891  18.610  11.789  1.00 20.00     0.114 C 
HETATM    4  C4  UNL     1     -24.583  18.719   9.844  1.00 20.00     0.136 C 
HETATM    5  C5  UNL     1     -22.041  18.729   9.499  1.00 20.00     0.118 C 
HETATM    6  C6  UNL     1     -23.767  17.038  11.348  1.00 20.00     0.203 C 
HETATM    7  N7  UNL     1     -21.327  18.490  10.551  1.00 20.00    -0.273 NA
HETATM    8  O8  UNL     1     -24.855  17.741  10.757  1.00 20.00    -0.359 OA
ENDROOT
TORSDOF 0
ENDMDL
MODEL 9
REMARK VINA RESULT:      -3.3      8.923      9.742
REMARK  0 active torsions:
REMARK  status: ('A' for Active; 'I' for Inactive)
ROOT
HETATM    1  C1  UNL     1     -41.115   6.000  -0.383  1.00 20.00     0.043 C 
HETATM    2  C2  UNL     1     -43.246   5.705   1.983  1.00 20.00     0.019 C 
HETATM    3  C3  UNL     1     -43.305   4.663   1.144  1.00 20.00     0.114 C 
HETATM    4  C4  UNL     1     -40.926   6.914   0.579  1.00 20.00     0.136 C 
HETATM    5  C5  UNL     1     -42.368   5.338  -0.843  1.00 20.00     0.118 C 
HETATM    6  C6  UNL     1     -43.130   7.117   1.505  1.00 20.00     0.203 C 
HETATM    7  N7  UNL     1     -43.327   4.733  -0.219  1.00 20.00    -0.273 NA
HETATM    8  O8  UNL     1     -41.762   7.511   1.479  1.00 20.00    -0.359 OA
ENDROOT
TORSDOF 0
ENDMDL
