MODEL 1
REMARK VINA RESULT:      -3.7      0.000      0.000
REMARK  0 active torsions:
REMARK  status: ('A' for Active; 'I' for Inactive)
ROOT
HETATM    1  C1  UNL     1     -33.964  15.205  -4.231  1.00 20.00     0.141 C 
HETATM    2  C2  UNL     1     -33.098  16.041  -3.315  1.00 20.00     0.079 C 
HETATM    3  C3  UNL     1     -33.836  17.297  -2.889  1.00 20.00     0.008 C 
HETATM    4  C4  UNL     1     -34.323  18.087  -4.101  1.00 20.00     0.017 C 
HETATM    5  C5  UNL     1     -36.226  15.863  -7.671  1.00 20.00     0.085 C 
HETATM    6  C6  UNL     1     -36.905  17.146  -7.222  1.00 20.00     0.084 C 
HETATM    7  C7  UNL     1     -34.572  15.935  -5.433  1.00 20.00     0.130 C 
HETATM    8  C8  UNL     1     -35.255  17.236  -4.978  1.00 20.00     0.068 C 
HETATM    9  O9  UNL     1     -34.065  13.994  -4.042  1.00 20.00    -0.297 OA
HETATM   10  S10 UNL     1     -35.745  14.809  -6.274  1.00 20.00    -0.155 SA
HETATM   11  S11 UNL     1     -35.758  18.285  -6.395  1.00 20.00    -0.162 SA
ENDROOT
TORSDOF 0
ENDMDL
MODEL 2
REMARK VINA RESULT:      -3.5      1.608      2.719
REMARK  0 active torsions:
REMARK  status: ('A' for Active; 'I' for Inactive)
ROOT
HETATM    1  C1  UNL     1     -33.739  17.503  -3.996  1.00 20.00     0.141 C 
HETATM    2  C2  UNL     1     -33.288  16.356  -3.118  1.00 20.00     0.079 C 
HETATM    3  C3  UNL     1     -32.924  15.152  -3.968  1.00 20.00     0.008 C 
HETATM    4  C4  UNL     1     -34.077  14.756  -4.886  1.00 20.00     0.017 C 
HETATM    5  C5  UNL     1     -36.455  18.025  -7.116  1.00 20.00     0.085 C 
HETATM    6  C6  UNL     1     -36.090  16.781  -7.909  1.00 20.00     0.084 C 
HETATM    7  C7  UNL     1     -34.837  17.179  -5.014  1.00 20.00     0.130 C 
HETATM    8  C8  UNL     1     -34.470  15.918  -5.812  1.00 20.00     0.068 C 
HETATM    9  O9  UNL     1     -33.297  18.634  -3.800  1.00 20.00    -0.297 OA
HETATM   10  S10 UNL     1     -35.074  18.630  -6.105  1.00 20.00    -0.155 SA
HETATM   11  S11 UNL     1     -35.862  15.325  -6.849  1.00 20.00    -0.162 SA
ENDROOT
TORSDOF 0
ENDMDL
MODEL 3
REMARK VINA RESULT:      -3.5      1.790      3.543
REMARK  0 active torsions:
REMARK  status: ('A' for Active; 'I' for Inactive)
ROOT
HETATM    1  C1  UNL     1     -34.804  14.848  -4.791  1.00 20.00     0.141 C 
HETATM    2  C2  UNL     1     -35.805  14.493  -5.868  1.00 20.00     0.079 C 
HETATM    3  C3  UNL     1     -35.534  15.297  -7.127  1.00 20.00     0.008 C 
HETATM    4  C4  UNL     1     -35.513  16.793  -6.831  1.00 20.00     0.017 C 
HETATM    5  C5  UNL     1     -33.351  18.353  -3.061  1.00 20.00     0.085 C 
HETATM    6  C6  UNL     1     -33.142  19.138  -4.345  1.00 20.00     0.084 C 
HETATM    7  C7  UNL     1     -34.647  16.341  -4.483  1.00 20.00     0.130 C 
HETATM    8  C8  UNL     1     -34.441  17.135  -5.783  1.00 20.00     0.068 C 
HETATM    9  O9  UNL     1     -34.246  13.955  -4.155  1.00 20.00    -0.297 OA
HETATM   10  S10 UNL     1     -33.249  16.559  -3.323  1.00 20.00    -0.155 SA
HETATM   11  S11 UNL     1     -34.523  18.946  -5.508  1.00 20.00    -0.162 SA
ENDROOT
TORSDOF 0
ENDMDL
MODEL 4
REMARK VINA RESULT:      -3.4      1.327      1.585
REMARK  0 active torsions:
REMARK  status: ('A' for Active; 'I' for Inactive)
ROOT
HETATM    1  C1  UNL     1     -34.838  15.056  -4.918  1.00 20.00     0.141 C 
HETATM    2  C2  UNL     1     -33.550  14.929  -4.135  1.00 20.00     0.079 C 
HETATM    3  C3  UNL     1     -33.416  16.075  -3.148  1.00 20.00     0.008 C 
HETATM    4  C4  UNL     1     -33.531  17.423  -3.853  1.00 20.00     0.017 C 
HETATM    5  C5  UNL     1     -36.763  18.050  -7.090  1.00 20.00     0.085 C 
HETATM    6  C6  UNL     1     -36.562  19.179  -6.094  1.00 20.00     0.084 C 
HETATM    7  C7  UNL     1     -35.084  16.409  -5.592  1.00 20.00     0.130 C 
HETATM    8  C8  UNL     1     -34.876  17.552  -4.585  1.00 20.00     0.068 C 
HETATM    9  O9  UNL     1     -35.565  14.074  -5.065  1.00 20.00    -0.297 OA
HETATM   10  S10 UNL     1     -36.776  16.419  -6.292  1.00 20.00    -0.155 SA
HETATM   11  S11 UNL     1     -34.887  19.198  -5.394  1.00 20.00    -0.162 SA
ENDROOT
TORSDOF 0
ENDMDL
MODEL 5
REMARK VINA RESULT:      -3.3      2.154      3.075
REMARK  0 active torsions:
REMARK  status: ('A' for Active; 'I' for Inactive)
ROOT
HETATM    1  C1  UNL     1     -35.325  18.243  -3.434  1.00 20.00     0.141 C 
HETATM    2  C2  UNL     1     -34.785  18.157  -2.023  1.00 20.00     0.079 C 
HETATM    3  C3  UNL     1     -33.367  17.616  -2.031  1.00 20.00     0.008 C 
HETATM    4  C4  UNL     1     -33.294  16.276  -2.758  1.00 20.00     0.017 C 
HETATM    5  C5  UNL     1     -35.591  15.690  -6.720  1.00 20.00     0.085 C 
HETATM    6  C6  UNL     1     -34.177  15.138  -6.659  1.00 20.00     0.084 C 
HETATM    7  C7  UNL     1     -35.215  16.967  -4.274  1.00 20.00     0.130 C 
HETATM    8  C8  UNL     1     -33.784  16.406  -4.209  1.00 20.00     0.068 C 
HETATM    9  O9  UNL     1     -35.901  19.263  -3.808  1.00 20.00    -0.297 OA
HETATM   10  S10 UNL     1     -35.718  17.348  -5.992  1.00 20.00    -0.155 SA
HETATM   11  S11 UNL     1     -33.659  14.740  -4.965  1.00 20.00    -0.162 SA
ENDROOT
TORSDOF 0
ENDMDL
MODEL 6
REMARK VINA RESULT:      -3.3      1.826      2.419
REMARK  0 active torsions:
REMARK  status: ('A' for Active; 'I' for Inactive)
ROOT
HETATM    1  C1  UNL     1     -33.938  17.375  -2.756  1.00 20.00     0.141 C 
HETATM    2  C2  UNL     1     -34.366  18.775  -2.378  1.00 20.00     0.079 C 
HETATM    3  C3  UNL     1     -35.789  19.035  -2.837  1.00 20.00     0.008 C 
HETATM    4  C4  UNL     1     -35.942  18.771  -4.332  1.00 20.00     0.017 C 
HETATM    5  C5  UNL     1     -33.975  15.040  -6.210  1.00 20.00     0.085 C 
HETATM    6  C6  UNL     1     -35.389  15.368  -6.659  1.00 20.00     0.084 C 
HETATM    7  C7  UNL     1     -34.136  16.984  -4.224  1.00 20.00     0.130 C 
HETATM    8  C8  UNL     1     -35.565  17.321  -4.678  1.00 20.00     0.068 C 
HETATM    9  O9  UNL     1     -33.376  16.661  -1.926  1.00 20.00    -0.297 OA
HETATM   10  S10 UNL     1     -33.763  15.202  -4.415  1.00 20.00    -0.155 SA
HETATM   11  S11 UNL     1     -35.778  17.133  -6.490  1.00 20.00    -0.162 SA
ENDROOT
TORSDOF 0
ENDMDL
MODEL 7
REMARK VINA RESULT:      -3.2      1.773      2.279
REMARK  0 active torsions:
REMARK  status: ('A' for Active; 'I' for Inactive)
ROOT
HETATM    1  C1  UNL     1     -35.198  15.148  -6.060  1.00 20.00     0.141 C 
HETATM    2  C2  UNL     1     -33.871  14.798  -5.424  1.00 20.00     0.079 C 
HETATM    3  C3  UNL     1     -33.755  15.443  -4.055  1.00 20.00     0.008 C 
HETATM    4  C4  UNL     1     -33.974  16.951  -4.137  1.00 20.00     0.017 C 
HETATM    5  C5  UNL     1     -37.379  18.631  -6.763  1.00 20.00     0.085 C 
HETATM    6  C6  UNL     1     -37.195  19.262  -5.394  1.00 20.00     0.084 C 
HETATM    7  C7  UNL     1     -35.548  16.639  -6.110  1.00 20.00     0.130 C 
HETATM    8  C8  UNL     1     -35.357  17.278  -4.724  1.00 20.00     0.068 C 
HETATM    9  O9  UNL     1     -35.876  14.266  -6.586  1.00 20.00    -0.297 OA
HETATM   10  S10 UNL     1     -37.267  16.820  -6.711  1.00 20.00    -0.155 SA
HETATM   11  S11 UNL     1     -35.494  19.106  -4.781  1.00 20.00    -0.162 SA
ENDROOT
TORSDOF 0
ENDMDL
MODEL 8
REMARK VINA RESULT:      -3.2     12.628     13.988
REMARK  0 active torsions:
REMARK  status: ('A' for Active; 'I' for Inactive)
ROOT
HETATM    1  C1  UNL     1     -34.029   4.964   4.844  1.00 20.00     0.141 C 
HETATM    2  C2  UNL     1     -34.345   4.956   6.324  1.00 20.00     0.079 C 
HETATM    3  C3  UNL     1     -34.909   6.298   6.751  1.00 20.00     0.008 C 
HETATM    4  C4  UNL     1     -33.969   7.438   6.370  1.00 20.00     0.017 C 
HETATM    5  C5  UNL     1     -31.944   7.444   2.220  1.00 20.00     0.085 C 
HETATM    6  C6  UNL     1     -32.499   8.770   2.714  1.00 20.00     0.084 C 
HETATM    7  C7  UNL     1     -33.159   6.124   4.349  1.00 20.00     0.130 C 
HETATM    8  C8  UNL     1     -33.719   7.464   4.853  1.00 20.00     0.068 C 
HETATM    9  O9  UNL     1     -34.384   4.022   4.137  1.00 20.00    -0.297 OA
HETATM   10  S10 UNL     1     -33.083   6.063   2.521  1.00 20.00    -0.155 SA
HETATM   11  S11 UNL     1     -32.573   8.859   4.526  1.00 20.00    -0.162 SA
ENDROOT
TORSDOF 0
ENDMDL
MODEL 9
REMARK VINA RESULT:      -3.2      1.940      3.831
REMARK  0 active torsions:
REMARK  status: ('A' for Active; 'I' for Inactive)
ROOT
HETATM    1  C1  UNL     1     -34.907  15.883  -6.173  1.00 20.00     0.141 C 
HETATM    2  C2  UNL     1     -35.826  16.578  -7.153  1.00 20.00     0.079 C 
HETATM    3  C3  UNL     1     -35.398  18.021  -7.347  1.00 20.00     0.008 C 
HETATM    4  C4  UNL     1     -35.318  18.756  -6.012  1.00 20.00     0.017 C 
HETATM    5  C5  UNL     1     -33.417  16.668  -2.359  1.00 20.00     0.085 C 
HETATM    6  C6  UNL     1     -33.050  18.125  -2.584  1.00 20.00     0.084 C 
HETATM    7  C7  UNL     1     -34.694  16.591  -4.832  1.00 20.00     0.130 C 
HETATM    8  C8  UNL     1     -34.327  18.067  -5.060  1.00 20.00     0.068 C 
HETATM    9  O9  UNL     1     -34.459  14.767  -6.438  1.00 20.00    -0.297 OA
HETATM   10  S10 UNL     1     -33.394  15.704  -3.897  1.00 20.00    -0.155 SA
HETATM   11  S11 UNL     1     -34.330  19.030  -3.499  1.00 20.00    -0.162 SA
ENDROOT
TORSDOF 0
ENDMDL
