MODEL 1
REMARK VINA RESULT:      -4.5      0.000      0.000
REMARK  0 active torsions:
REMARK  status: ('A' for Active; 'I' for Inactive)
ROOT
HETATM    1  C1  UNL     1     -34.782   6.085   6.704  1.00 20.00     0.004 A 
HETATM    2  C2  UNL     1     -34.768   5.009   5.800  1.00 20.00     0.034 A 
HETATM    3  C3  UNL     1     -34.134   7.293   6.416  1.00 20.00     0.021 A 
HETATM    4  C4  UNL     1     -33.193   4.996   2.639  1.00 20.00     0.210 A 
HETATM    5  C5  UNL     1     -34.086   5.174   4.584  1.00 20.00     0.086 A 
HETATM    6  C6  UNL     1     -33.460   6.385   4.337  1.00 20.00     0.081 A 
HETATM    7  C7  UNL     1     -33.443   7.465   5.215  1.00 20.00     0.029 A 
HETATM    8  C8  UNL     1     -32.172   7.310   2.443  1.00 20.00     0.140 C 
HETATM    9  C9  UNL     1     -31.466   8.227   3.449  1.00 20.00     0.100 C 
HETATM   10  N10 UNL     1     -33.908   4.317   3.517  1.00 20.00    -0.242 NA
HETATM   11  N11 UNL     1     -32.906   6.245   3.095  1.00 20.00    -0.338 N 
HETATM   12  S12 UNL     1     -32.596   8.937   4.722  1.00 20.00    -0.126 SA
ENDROOT
TORSDOF 0
ENDMDL
MODEL 2
REMARK VINA RESULT:      -4.5      0.987      1.268
REMARK  0 active torsions:
REMARK  status: ('A' for Active; 'I' for Inactive)
ROOT
HETATM    1  C1  UNL     1     -34.801   4.996   5.970  1.00 20.00     0.004 A 
HETATM    2  C2  UNL     1     -34.325   4.501   4.744  1.00 20.00     0.034 A 
HETATM    3  C3  UNL     1     -34.575   6.321   6.363  1.00 20.00     0.021 A 
HETATM    4  C4  UNL     1     -32.507   6.344   2.344  1.00 20.00     0.210 A 
HETATM    5  C5  UNL     1     -33.612   5.374   3.908  1.00 20.00     0.086 A 
HETATM    6  C6  UNL     1     -33.412   6.677   4.332  1.00 20.00     0.081 A 
HETATM    7  C7  UNL     1     -33.857   7.197   5.544  1.00 20.00     0.029 A 
HETATM    8  C8  UNL     1     -32.317   8.664   3.354  1.00 20.00     0.140 C 
HETATM    9  C9  UNL     1     -32.078   9.161   4.785  1.00 20.00     0.100 C 
HETATM   10  N10 UNL     1     -33.039   5.181   2.668  1.00 20.00    -0.242 NA
HETATM   11  N11 UNL     1     -32.712   7.271   3.319  1.00 20.00    -0.338 N 
HETATM   12  S12 UNL     1     -33.512   8.891   5.911  1.00 20.00    -0.126 SA
ENDROOT
TORSDOF 0
ENDMDL
MODEL 3
REMARK VINA RESULT:      -4.2      2.064      4.249
REMARK  0 active torsions:
REMARK  status: ('A' for Active; 'I' for Inactive)
ROOT
HETATM    1  C1  UNL     1     -32.375   6.335   1.865  1.00 20.00     0.004 A 
HETATM    2  C2  UNL     1     -32.006   7.586   2.386  1.00 20.00     0.034 A 
HETATM    3  C3  UNL     1     -33.169   5.440   2.595  1.00 20.00     0.021 A 
HETATM    4  C4  UNL     1     -32.929   8.851   5.551  1.00 20.00     0.210 A 
HETATM    5  C5  UNL     1     -32.459   7.929   3.670  1.00 20.00     0.086 A 
HETATM    6  C6  UNL     1     -33.243   7.018   4.358  1.00 20.00     0.081 A 
HETATM    7  C7  UNL     1     -33.616   5.765   3.877  1.00 20.00     0.029 A 
HETATM    8  C8  UNL     1     -34.362   7.017   6.560  1.00 20.00     0.140 C 
HETATM    9  C9  UNL     1     -34.261   5.487   6.544  1.00 20.00     0.100 C 
HETATM   10  N10 UNL     1     -32.269   9.065   4.428  1.00 20.00    -0.242 NA
HETATM   11  N11 UNL     1     -33.530   7.630   5.546  1.00 20.00    -0.338 N 
HETATM   12  S12 UNL     1     -34.630   4.739   4.899  1.00 20.00    -0.126 SA
ENDROOT
TORSDOF 0
ENDMDL
MODEL 4
REMARK VINA RESULT:      -4.2     16.194     17.095
REMARK  0 active torsions:
REMARK  status: ('A' for Active; 'I' for Inactive)
ROOT
HETATM    1  C1  UNL     1     -24.627  19.263   7.361  1.00 20.00     0.004 A 
HETATM    2  C2  UNL     1     -23.237  19.062   7.391  1.00 20.00     0.034 A 
HETATM    3  C3  UNL     1     -25.395  19.253   8.533  1.00 20.00     0.021 A 
HETATM    4  C4  UNL     1     -21.296  18.514  10.289  1.00 20.00     0.210 A 
HETATM    5  C5  UNL     1     -22.623  18.853   8.636  1.00 20.00     0.086 A 
HETATM    6  C6  UNL     1     -23.417  18.852   9.771  1.00 20.00     0.081 A 
HETATM    7  C7  UNL     1     -24.798  19.035   9.777  1.00 20.00     0.029 A 
HETATM    8  C8  UNL     1     -22.977  18.594  12.188  1.00 20.00     0.140 C 
HETATM    9  C9  UNL     1     -24.412  18.073  12.332  1.00 20.00     0.100 C 
HETATM   10  N10 UNL     1     -21.304  18.638   8.975  1.00 20.00    -0.242 NA
HETATM   11  N11 UNL     1     -22.549  18.640  10.805  1.00 20.00    -0.338 N 
HETATM   12  S12 UNL     1     -25.643  19.010  11.329  1.00 20.00    -0.126 SA
ENDROOT
TORSDOF 0
ENDMDL
MODEL 5
REMARK VINA RESULT:      -4.2      1.919      2.890
REMARK  0 active torsions:
REMARK  status: ('A' for Active; 'I' for Inactive)
ROOT
HETATM    1  C1  UNL     1     -34.899   5.380   6.121  1.00 20.00     0.004 A 
HETATM    2  C2  UNL     1     -34.538   6.669   6.547  1.00 20.00     0.034 A 
HETATM    3  C3  UNL     1     -34.466   4.865   4.893  1.00 20.00     0.021 A 
HETATM    4  C4  UNL     1     -32.494   8.929   4.764  1.00 20.00     0.210 A 
HETATM    5  C5  UNL     1     -33.718   7.439   5.707  1.00 20.00     0.086 A 
HETATM    6  C6  UNL     1     -33.310   6.893   4.502  1.00 20.00     0.081 A 
HETATM    7  C7  UNL     1     -33.660   5.626   4.043  1.00 20.00     0.029 A 
HETATM    8  C8  UNL     1     -31.877   7.674   2.648  1.00 20.00     0.140 C 
HETATM    9  C9  UNL     1     -32.665   6.737   1.724  1.00 20.00     0.100 C 
HETATM   10  N10 UNL     1     -33.204   8.711   5.855  1.00 20.00    -0.242 NA
HETATM   11  N11 UNL     1     -32.531   7.858   3.927  1.00 20.00    -0.338 N 
HETATM   12  S12 UNL     1     -33.035   5.095   2.477  1.00 20.00    -0.126 SA
ENDROOT
TORSDOF 0
ENDMDL
MODEL 6
REMARK VINA RESULT:      -4.0      1.408      3.267
REMARK  0 active torsions:
REMARK  status: ('A' for Active; 'I' for Inactive)
ROOT
HETATM    1  C1  UNL     1     -32.387   9.274   4.608  1.00 20.00     0.004 A 
HETATM    2  C2  UNL     1     -32.047   8.644   3.399  1.00 20.00     0.034 A 
HETATM    3  C3  UNL     1     -33.137   8.617   5.592  1.00 20.00     0.021 A 
HETATM    4  C4  UNL     1     -32.904   5.344   2.484  1.00 20.00     0.210 A 
HETATM    5  C5  UNL     1     -32.476   7.323   3.196  1.00 20.00     0.086 A 
HETATM    6  C6  UNL     1     -33.214   6.708   4.194  1.00 20.00     0.081 A 
HETATM    7  C7  UNL     1     -33.580   7.307   5.397  1.00 20.00     0.029 A 
HETATM    8  C8  UNL     1     -34.204   4.463   4.478  1.00 20.00     0.140 C 
HETATM    9  C9  UNL     1     -35.236   5.102   5.414  1.00 20.00     0.100 C 
HETATM   10  N10 UNL     1     -32.294   6.460   2.135  1.00 20.00    -0.242 NA
HETATM   11  N11 UNL     1     -33.468   5.453   3.718  1.00 20.00    -0.338 N 
HETATM   12  S12 UNL     1     -34.519   6.360   6.557  1.00 20.00    -0.126 SA
ENDROOT
TORSDOF 0
ENDMDL
MODEL 7
REMARK VINA RESULT:      -4.0      1.214      3.121
REMARK  0 active torsions:
REMARK  status: ('A' for Active; 'I' for Inactive)
ROOT
HETATM    1  C1  UNL     1     -32.520   5.881   2.017  1.00 20.00     0.004 A 
HETATM    2  C2  UNL     1     -33.342   4.934   2.651  1.00 20.00     0.034 A 
HETATM    3  C3  UNL     1     -32.210   7.105   2.624  1.00 20.00     0.021 A 
HETATM    4  C4  UNL     1     -34.811   5.287   5.842  1.00 20.00     0.210 A 
HETATM    5  C5  UNL     1     -33.848   5.240   3.924  1.00 20.00     0.086 A 
HETATM    6  C6  UNL     1     -33.516   6.460   4.489  1.00 20.00     0.081 A 
HETATM    7  C7  UNL     1     -32.717   7.427   3.884  1.00 20.00     0.029 A 
HETATM    8  C8  UNL     1     -34.021   7.562   6.642  1.00 20.00     0.140 C 
HETATM    9  C9  UNL     1     -33.825   8.907   5.931  1.00 20.00     0.100 C 
HETATM   10  N10 UNL     1     -34.658   4.522   4.778  1.00 20.00    -0.242 NA
HETATM   11  N11 UNL     1     -34.137   6.462   5.707  1.00 20.00    -0.338 N 
HETATM   12  S12 UNL     1     -32.396   8.925   4.766  1.00 20.00    -0.126 SA
ENDROOT
TORSDOF 0
ENDMDL
MODEL 8
REMARK VINA RESULT:      -4.0      1.863      2.919
REMARK  0 active torsions:
REMARK  status: ('A' for Active; 'I' for Inactive)
ROOT
HETATM    1  C1  UNL     1     -34.045   4.282   3.815  1.00 20.00     0.004 A 
HETATM    2  C2  UNL     1     -34.495   4.729   5.069  1.00 20.00     0.034 A 
HETATM    3  C3  UNL     1     -33.288   5.105   2.971  1.00 20.00     0.021 A 
HETATM    4  C4  UNL     1     -33.881   7.915   6.462  1.00 20.00     0.210 A 
HETATM    5  C5  UNL     1     -34.163   6.033   5.467  1.00 20.00     0.086 A 
HETATM    6  C6  UNL     1     -33.411   6.814   4.604  1.00 20.00     0.081 A 
HETATM    7  C7  UNL     1     -32.960   6.409   3.351  1.00 20.00     0.029 A 
HETATM    8  C8  UNL     1     -32.481   9.101   4.709  1.00 20.00     0.140 C 
HETATM    9  C9  UNL     1     -32.533   9.127   3.177  1.00 20.00     0.100 C 
HETATM   10  N10 UNL     1     -34.450   6.735   6.619  1.00 20.00    -0.242 NA
HETATM   11  N11 UNL     1     -33.243   8.001   5.263  1.00 20.00    -0.338 N 
HETATM   12  S12 UNL     1     -32.004   7.545   2.392  1.00 20.00    -0.126 SA
ENDROOT
TORSDOF 0
ENDMDL
MODEL 9
REMARK VINA RESULT:      -4.0     12.706     13.927
REMARK  0 active torsions:
REMARK  status: ('A' for Active; 'I' for Inactive)
ROOT
HETATM    1  C1  UNL     1     -33.959  17.814  -1.994  1.00 20.00     0.004 A 
HETATM    2  C2  UNL     1     -33.332  16.628  -2.411  1.00 20.00     0.034 A 
HETATM    3  C3  UNL     1     -34.880  18.483  -2.811  1.00 20.00     0.021 A 
HETATM    4  C4  UNL     1     -33.855  14.997  -5.499  1.00 20.00     0.210 A 
HETATM    5  C5  UNL     1     -33.654  16.117  -3.679  1.00 20.00     0.086 A 
HETATM    6  C6  UNL     1     -34.570  16.808  -4.454  1.00 20.00     0.081 A 
HETATM    7  C7  UNL     1     -35.200  17.992  -4.078  1.00 20.00     0.029 A 
HETATM    8  C8  UNL     1     -35.573  16.442  -6.682  1.00 20.00     0.140 C 
HETATM    9  C9  UNL     1     -35.772  17.959  -6.775  1.00 20.00     0.100 C 
HETATM   10  N10 UNL     1     -33.215  14.992  -4.345  1.00 20.00    -0.242 NA
HETATM   11  N11 UNL     1     -34.682  16.073  -5.601  1.00 20.00    -0.338 N 
HETATM   12  S12 UNL     1     -36.349  18.727  -5.202  1.00 20.00    -0.126 SA
ENDROOT
TORSDOF 0
ENDMDL
