MODEL 1
REMARK VINA RESULT:      -3.9      0.000      0.000
REMARK  2 active torsions:
REMARK  status: ('A' for Active; 'I' for Inactive)
REMARK    1  A    between atoms: C2_2  and  C5_5 
REMARK    2  A    between atoms: C5_5  and  C6_6 
ROOT
HETATM    1  C5  UNL     1     -33.030   8.326   4.380  1.00 20.00     0.042 C 
ENDROOT
BRANCH   1   2
HETATM    2  C2  UNL     1     -33.882   7.166   4.821  1.00 20.00    -0.030 C 
HETATM    3  C1  UNL     1     -33.924   6.707   6.080  1.00 20.00    -0.035 C 
HETATM    4  C3  UNL     1     -34.765   5.553   6.516  1.00 20.00     0.036 C 
ENDBRANCH   1   2
BRANCH   1   5
HETATM    5  C6  UNL     1     -32.205   8.013   3.129  1.00 20.00     0.057 C 
HETATM    6  C4  UNL     1     -32.388   6.570   2.681  1.00 20.00     0.022 C 
HETATM    7 BR7  UNL     1     -32.766   9.179   1.652  1.00 20.00    -0.091 Br
ENDBRANCH   1   5
TORSDOF 2
ENDMDL
MODEL 2
REMARK VINA RESULT:      -3.6      1.613      1.828
REMARK  2 active torsions:
REMARK  status: ('A' for Active; 'I' for Inactive)
REMARK    1  A    between atoms: C2_2  and  C5_5 
REMARK    2  A    between atoms: C5_5  and  C6_6 
ROOT
HETATM    1  C5  UNL     1     -33.111   6.078   3.067  1.00 20.00     0.042 C 
ENDROOT
BRANCH   1   2
HETATM    2  C2  UNL     1     -33.985   6.181   4.288  1.00 20.00    -0.030 C 
HETATM    3  C1  UNL     1     -34.123   5.201   5.193  1.00 20.00    -0.035 C 
HETATM    4  C3  UNL     1     -34.994   5.303   6.401  1.00 20.00     0.036 C 
ENDBRANCH   1   2
BRANCH   1   5
HETATM    5  C6  UNL     1     -32.095   7.218   2.967  1.00 20.00     0.057 C 
HETATM    6  C4  UNL     1     -32.230   7.979   1.656  1.00 20.00     0.022 C 
HETATM    7 BR7  UNL     1     -32.374   8.491   4.436  1.00 20.00    -0.091 Br
ENDBRANCH   1   5
TORSDOF 2
ENDMDL
MODEL 3
REMARK VINA RESULT:      -3.6      2.542      3.793
REMARK  2 active torsions:
REMARK  status: ('A' for Active; 'I' for Inactive)
REMARK    1  A    between atoms: C2_2  and  C5_5 
REMARK    2  A    between atoms: C5_5  and  C6_6 
ROOT
HETATM    1  C5  UNL     1     -34.335   6.001   6.350  1.00 20.00     0.042 C 
ENDROOT
BRANCH   1   2
HETATM    2  C2  UNL     1     -33.925   7.389   5.940  1.00 20.00    -0.030 C 
HETATM    3  C1  UNL     1     -32.861   7.657   5.169  1.00 20.00    -0.035 C 
HETATM    4  C3  UNL     1     -32.451   9.035   4.767  1.00 20.00     0.036 C 
ENDBRANCH   1   2
BRANCH   1   5
HETATM    5  C6  UNL     1     -35.004   5.221   5.215  1.00 20.00     0.057 C 
HETATM    6  C4  UNL     1     -35.792   6.138   4.291  1.00 20.00     0.022 C 
HETATM    7 BR7  UNL     1     -33.639   4.308   4.138  1.00 20.00    -0.091 Br
ENDBRANCH   1   5
TORSDOF 2
ENDMDL
MODEL 4
REMARK VINA RESULT:      -3.5      2.600      4.189
REMARK  2 active torsions:
REMARK  status: ('A' for Active; 'I' for Inactive)
REMARK    1  A    between atoms: C2_2  and  C5_5 
REMARK    2  A    between atoms: C5_5  and  C6_6 
ROOT
HETATM    1  C5  UNL     1     -32.938   7.647   4.481  1.00 20.00     0.042 C 
ENDROOT
BRANCH   1   2
HETATM    2  C2  UNL     1     -32.316   7.685   3.111  1.00 20.00    -0.030 C 
HETATM    3  C1  UNL     1     -32.672   8.552   2.152  1.00 20.00    -0.035 C 
HETATM    4  C3  UNL     1     -32.058   8.585   0.792  1.00 20.00     0.036 C 
ENDBRANCH   1   2
BRANCH   1   5
HETATM    5  C6  UNL     1     -34.111   6.669   4.572  1.00 20.00     0.057 C 
HETATM    6  C4  UNL     1     -33.863   5.414   3.748  1.00 20.00     0.022 C 
HETATM    7 BR7  UNL     1     -34.381   6.122   6.439  1.00 20.00    -0.091 Br
ENDBRANCH   1   5
TORSDOF 2
ENDMDL
MODEL 5
REMARK VINA RESULT:      -3.3      2.059      4.153
REMARK  2 active torsions:
REMARK  status: ('A' for Active; 'I' for Inactive)
REMARK    1  A    between atoms: C2_2  and  C5_5 
REMARK    2  A    between atoms: C5_5  and  C6_6 
ROOT
HETATM    1  C5  UNL     1     -32.982   8.074   4.812  1.00 20.00     0.042 C 
ENDROOT
BRANCH   1   2
HETATM    2  C2  UNL     1     -32.512   7.835   3.402  1.00 20.00    -0.030 C 
HETATM    3  C1  UNL     1     -32.594   8.747   2.423  1.00 20.00    -0.035 C 
HETATM    4  C3  UNL     1     -32.133   8.507   1.023  1.00 20.00     0.036 C 
ENDBRANCH   1   2
BRANCH   1   5
HETATM    5  C6  UNL     1     -33.422   6.788   5.516  1.00 20.00     0.057 C 
HETATM    6  C4  UNL     1     -34.295   7.080   6.728  1.00 20.00     0.022 C 
HETATM    7 BR7  UNL     1     -34.461   5.671   4.279  1.00 20.00    -0.091 Br
ENDBRANCH   1   5
TORSDOF 2
ENDMDL
MODEL 6
REMARK VINA RESULT:      -3.3     11.673     12.198
REMARK  2 active torsions:
REMARK  status: ('A' for Active; 'I' for Inactive)
REMARK    1  A    between atoms: C2_2  and  C5_5 
REMARK    2  A    between atoms: C5_5  and  C6_6 
ROOT
HETATM    1  C5  UNL     1     -33.818  14.813  -4.096  1.00 20.00     0.042 C 
ENDROOT
BRANCH   1   2
HETATM    2  C2  UNL     1     -33.258  16.104  -3.561  1.00 20.00    -0.030 C 
HETATM    3  C1  UNL     1     -33.462  16.545  -2.311  1.00 20.00    -0.035 C 
HETATM    4  C3  UNL     1     -32.911  17.828  -1.783  1.00 20.00     0.036 C 
ENDBRANCH   1   2
BRANCH   1   5
HETATM    5  C6  UNL     1     -34.546  14.991  -5.431  1.00 20.00     0.057 C 
HETATM    6  C4  UNL     1     -35.940  14.382  -5.396  1.00 20.00     0.022 C 
HETATM    7 BR7  UNL     1     -34.732  16.903  -5.840  1.00 20.00    -0.091 Br
ENDBRANCH   1   5
TORSDOF 2
ENDMDL
MODEL 7
REMARK VINA RESULT:      -3.3     11.370     12.137
REMARK  2 active torsions:
REMARK  status: ('A' for Active; 'I' for Inactive)
REMARK    1  A    between atoms: C2_2  and  C5_5 
REMARK    2  A    between atoms: C5_5  and  C6_6 
ROOT
HETATM    1  C5  UNL     1     -32.786  18.299  -2.183  1.00 20.00     0.042 C 
ENDROOT
BRANCH   1   2
HETATM    2  C2  UNL     1     -33.267  16.889  -2.399  1.00 20.00    -0.030 C 
HETATM    3  C1  UNL     1     -33.282  16.280  -3.594  1.00 20.00    -0.035 C 
HETATM    4  C3  UNL     1     -33.764  14.884  -3.808  1.00 20.00     0.036 C 
ENDBRANCH   1   2
BRANCH   1   5
HETATM    5  C6  UNL     1     -32.896  18.745  -0.723  1.00 20.00     0.057 C 
HETATM    6  C4  UNL     1     -33.884  17.887   0.055  1.00 20.00     0.022 C 
HETATM    7 BR7  UNL     1     -31.145  18.594   0.154  1.00 20.00    -0.091 Br
ENDBRANCH   1   5
TORSDOF 2
ENDMDL
MODEL 8
REMARK VINA RESULT:      -3.2     11.703     12.030
REMARK  2 active torsions:
REMARK  status: ('A' for Active; 'I' for Inactive)
REMARK    1  A    between atoms: C2_2  and  C5_5 
REMARK    2  A    between atoms: C5_5  and  C6_6 
ROOT
HETATM    1  C5  UNL     1     -31.436  18.362  -0.563  1.00 20.00     0.042 C 
ENDROOT
BRANCH   1   2
HETATM    2  C2  UNL     1     -31.215  18.920   0.817  1.00 20.00    -0.030 C 
HETATM    3  C1  UNL     1     -30.522  18.289   1.776  1.00 20.00    -0.035 C 
HETATM    4  C3  UNL     1     -30.308  18.841   3.147  1.00 20.00     0.036 C 
ENDBRANCH   1   2
BRANCH   1   5
HETATM    5  C6  UNL     1     -32.898  18.443  -1.008  1.00 20.00     0.057 C 
HETATM    6  C4  UNL     1     -33.324  17.197  -1.770  1.00 20.00     0.022 C 
HETATM    7 BR7  UNL     1     -34.065  18.620   0.562  1.00 20.00    -0.091 Br
ENDBRANCH   1   5
TORSDOF 2
ENDMDL
MODEL 9
REMARK VINA RESULT:      -3.2     11.677     12.146
REMARK  2 active torsions:
REMARK  status: ('A' for Active; 'I' for Inactive)
REMARK    1  A    between atoms: C2_2  and  C5_5 
REMARK    2  A    between atoms: C5_5  and  C6_6 
ROOT
HETATM    1  C5  UNL     1     -32.044  18.700  -1.264  1.00 20.00     0.042 C 
ENDROOT
BRANCH   1   2
HETATM    2  C2  UNL     1     -31.076  18.459  -0.136  1.00 20.00    -0.030 C 
HETATM    3  C1  UNL     1     -31.371  18.657   1.157  1.00 20.00    -0.035 C 
HETATM    4  C3  UNL     1     -30.409  18.423   2.274  1.00 20.00     0.036 C 
ENDBRANCH   1   2
BRANCH   1   5
HETATM    5  C6  UNL     1     -33.293  17.820  -1.171  1.00 20.00     0.057 C 
HETATM    6  C4  UNL     1     -34.567  18.652  -1.163  1.00 20.00     0.022 C 
HETATM    7 BR7  UNL     1     -33.372  16.609  -2.714  1.00 20.00    -0.091 Br
ENDBRANCH   1   5
TORSDOF 2
ENDMDL
