MODEL 1
REMARK VINA RESULT:      -5.8      0.000      0.000
REMARK  2 active torsions:
REMARK  status: ('A' for Active; 'I' for Inactive)
REMARK    1  A    between atoms: C1_1  and  C2_2 
REMARK    2  A    between atoms: C1_1  and  C3_3 
ROOT
HETATM    1  C1  UNL     1     -33.676   6.693   5.771  1.00 20.00     0.346 C 
HETATM    2  F4  UNL     1     -34.242   7.408   6.791  1.00 20.00    -0.234 F 
ENDROOT
BRANCH   1   3
HETATM    3  C2  UNL     1     -34.695   5.660   5.305  1.00 20.00     0.357 C 
HETATM    4  F5  UNL     1     -35.631   6.233   4.512  1.00 20.00    -0.184 F 
HETATM    5  F6  UNL     1     -35.347   5.138   6.374  1.00 20.00    -0.184 F 
HETATM    6 CL9  UNL     1     -33.911   4.346   4.406  1.00 20.00    -0.045 Cl
ENDBRANCH   1   3
BRANCH   1   7
HETATM    7  C3  UNL     1     -33.255   7.704   4.714  1.00 20.00     0.357 C 
HETATM    8  F7  UNL     1     -32.358   8.563   5.268  1.00 20.00    -0.184 F 
HETATM    9  F8  UNL     1     -34.322   8.452   4.338  1.00 20.00    -0.184 F 
HETATM   10 CL10 UNL     1     -32.517   6.964   3.284  1.00 20.00    -0.045 Cl
ENDBRANCH   1   7
TORSDOF 2
ENDMDL
MODEL 2
REMARK VINA RESULT:      -5.7      1.127      1.325
REMARK  2 active torsions:
REMARK  status: ('A' for Active; 'I' for Inactive)
REMARK    1  A    between atoms: C1_1  and  C2_2 
REMARK    2  A    between atoms: C1_1  and  C3_3 
ROOT
HETATM    1  C1  UNL     1     -33.750   6.730   5.715  1.00 20.00     0.346 C 
HETATM    2  F4  UNL     1     -34.335   7.518   6.669  1.00 20.00    -0.234 F 
ENDROOT
BRANCH   1   3
HETATM    3  C2  UNL     1     -34.731   5.618   5.364  1.00 20.00     0.357 C 
HETATM    4  F5  UNL     1     -35.761   6.101   4.630  1.00 20.00    -0.184 F 
HETATM    5  F6  UNL     1     -35.264   5.096   6.497  1.00 20.00    -0.184 F 
HETATM    6 CL9  UNL     1     -33.934   4.325   4.448  1.00 20.00    -0.045 Cl
ENDBRANCH   1   3
BRANCH   1   7
HETATM    7  C3  UNL     1     -33.379   7.651   4.561  1.00 20.00     0.357 C 
HETATM    8  F7  UNL     1     -34.498   8.308   4.154  1.00 20.00    -0.184 F 
HETATM    9  F8  UNL     1     -32.957   6.916   3.501  1.00 20.00    -0.184 F 
HETATM   10 CL10 UNL     1     -32.144   8.847   4.982  1.00 20.00    -0.045 Cl
ENDBRANCH   1   7
TORSDOF 2
ENDMDL
MODEL 3
REMARK VINA RESULT:      -5.5      1.419      1.720
REMARK  2 active torsions:
REMARK  status: ('A' for Active; 'I' for Inactive)
REMARK    1  A    between atoms: C1_1  and  C2_2 
REMARK    2  A    between atoms: C1_1  and  C3_3 
ROOT
HETATM    1  C1  UNL     1     -34.024   7.025   4.312  1.00 20.00     0.346 C 
HETATM    2  F4  UNL     1     -33.001   6.479   3.585  1.00 20.00    -0.234 F 
ENDROOT
BRANCH   1   3
HETATM    3  C2  UNL     1     -34.876   5.881   4.848  1.00 20.00     0.357 C 
HETATM    4  F5  UNL     1     -36.105   5.891   4.278  1.00 20.00    -0.184 F 
HETATM    5  F6  UNL     1     -35.059   6.026   6.184  1.00 20.00    -0.184 F 
HETATM    6 CL9  UNL     1     -34.113   4.310   4.533  1.00 20.00    -0.045 Cl
ENDBRANCH   1   3
BRANCH   1   7
HETATM    7  C3  UNL     1     -33.379   7.901   5.377  1.00 20.00     0.357 C 
HETATM    8  F7  UNL     1     -32.909   7.102   6.371  1.00 20.00    -0.184 F 
HETATM    9  F8  UNL     1     -34.313   8.708   5.940  1.00 20.00    -0.184 F 
HETATM   10 CL10 UNL     1     -32.039   8.884   4.764  1.00 20.00    -0.045 Cl
ENDBRANCH   1   7
TORSDOF 2
ENDMDL
MODEL 4
REMARK VINA RESULT:      -5.5      1.596      3.623
REMARK  2 active torsions:
REMARK  status: ('A' for Active; 'I' for Inactive)
REMARK    1  A    between atoms: C1_1  and  C2_2 
REMARK    2  A    between atoms: C1_1  and  C3_3 
ROOT
HETATM    1  C1  UNL     1     -33.327   6.082   4.156  1.00 20.00     0.346 C 
HETATM    2  F4  UNL     1     -33.602   5.615   2.900  1.00 20.00    -0.234 F 
ENDROOT
BRANCH   1   3
HETATM    3  C2  UNL     1     -33.002   7.565   4.041  1.00 20.00     0.357 C 
HETATM    4  F5  UNL     1     -32.168   7.953   5.035  1.00 20.00    -0.184 F 
HETATM    5  F6  UNL     1     -34.136   8.300   4.168  1.00 20.00    -0.184 F 
HETATM    6 CL9  UNL     1     -32.242   7.936   2.481  1.00 20.00    -0.045 Cl
ENDBRANCH   1   3
BRANCH   1   7
HETATM    7  C3  UNL     1     -34.540   5.752   5.016  1.00 20.00     0.357 C 
HETATM    8  F7  UNL     1     -34.581   4.407   5.209  1.00 20.00    -0.184 F 
HETATM    9  F8  UNL     1     -35.678   6.083   4.356  1.00 20.00    -0.184 F 
HETATM   10 CL10 UNL     1     -34.519   6.548   6.598  1.00 20.00    -0.045 Cl
ENDBRANCH   1   7
TORSDOF 2
ENDMDL
MODEL 5
REMARK VINA RESULT:      -5.4      1.681      3.589
REMARK  2 active torsions:
REMARK  status: ('A' for Active; 'I' for Inactive)
REMARK    1  A    between atoms: C1_1  and  C2_2 
REMARK    2  A    between atoms: C1_1  and  C3_3 
ROOT
HETATM    1  C1  UNL     1     -33.371   6.401   4.501  1.00 20.00     0.346 C 
HETATM    2  F4  UNL     1     -33.191   6.304   3.148  1.00 20.00    -0.234 F 
ENDROOT
BRANCH   1   3
HETATM    3  C2  UNL     1     -33.594   7.870   4.837  1.00 20.00     0.357 C 
HETATM    4  F5  UNL     1     -34.083   8.006   6.093  1.00 20.00    -0.184 F 
HETATM    5  F6  UNL     1     -34.514   8.404   3.995  1.00 20.00    -0.184 F 
HETATM    6 CL9  UNL     1     -32.084   8.793   4.709  1.00 20.00    -0.045 Cl
ENDBRANCH   1   3
BRANCH   1   7
HETATM    7  C3  UNL     1     -34.530   5.476   4.851  1.00 20.00     0.357 C 
HETATM    8  F7  UNL     1     -34.298   4.260   4.289  1.00 20.00    -0.184 F 
HETATM    9  F8  UNL     1     -35.677   5.944   4.298  1.00 20.00    -0.184 F 
HETATM   10 CL10 UNL     1     -34.757   5.258   6.593  1.00 20.00    -0.045 Cl
ENDBRANCH   1   7
TORSDOF 2
ENDMDL
MODEL 6
REMARK VINA RESULT:      -5.3      1.512      3.339
REMARK  2 active torsions:
REMARK  status: ('A' for Active; 'I' for Inactive)
REMARK    1  A    between atoms: C1_1  and  C2_2 
REMARK    2  A    between atoms: C1_1  and  C3_3 
ROOT
HETATM    1  C1  UNL     1     -33.975   7.961   4.908  1.00 20.00     0.346 C 
HETATM    2  F4  UNL     1     -33.929   9.118   5.636  1.00 20.00    -0.234 F 
ENDROOT
BRANCH   1   3
HETATM    3  C2  UNL     1     -32.762   7.942   3.986  1.00 20.00     0.357 C 
HETATM    4  F5  UNL     1     -31.623   8.158   4.686  1.00 20.00    -0.184 F 
HETATM    5  F6  UNL     1     -32.860   8.940   3.072  1.00 20.00    -0.184 F 
HETATM    6 CL9  UNL     1     -32.625   6.390   3.138  1.00 20.00    -0.045 Cl
ENDBRANCH   1   3
BRANCH   1   7
HETATM    7  C3  UNL     1     -34.038   6.819   5.914  1.00 20.00     0.357 C 
HETATM    8  F7  UNL     1     -34.725   7.243   7.008  1.00 20.00    -0.184 F 
HETATM    9  F8  UNL     1     -32.788   6.509   6.340  1.00 20.00    -0.184 F 
HETATM   10 CL10 UNL     1     -34.826   5.365   5.281  1.00 20.00    -0.045 Cl
ENDBRANCH   1   7
TORSDOF 2
ENDMDL
MODEL 7
REMARK VINA RESULT:      -5.3      1.780      2.127
REMARK  2 active torsions:
REMARK  status: ('A' for Active; 'I' for Inactive)
REMARK    1  A    between atoms: C1_1  and  C2_2 
REMARK    2  A    between atoms: C1_1  and  C3_3 
ROOT
HETATM    1  C1  UNL     1     -33.914   6.864   4.235  1.00 20.00     0.346 C 
HETATM    2  F4  UNL     1     -32.830   6.318   3.602  1.00 20.00    -0.234 F 
ENDROOT
BRANCH   1   3
HETATM    3  C2  UNL     1     -34.777   5.719   4.750  1.00 20.00     0.357 C 
HETATM    4  F5  UNL     1     -34.336   4.532   4.271  1.00 20.00    -0.184 F 
HETATM    5  F6  UNL     1     -36.054   5.870   4.316  1.00 20.00    -0.184 F 
HETATM    6 CL9  UNL     1     -34.770   5.658   6.523  1.00 20.00    -0.045 Cl
ENDBRANCH   1   3
BRANCH   1   7
HETATM    7  C3  UNL     1     -33.365   7.792   5.309  1.00 20.00     0.357 C 
HETATM    8  F7  UNL     1     -32.834   7.035   6.306  1.00 20.00    -0.184 F 
HETATM    9  F8  UNL     1     -34.377   8.505   5.864  1.00 20.00    -0.184 F 
HETATM   10 CL10 UNL     1     -32.117   8.899   4.715  1.00 20.00    -0.045 Cl
ENDBRANCH   1   7
TORSDOF 2
ENDMDL
MODEL 8
REMARK VINA RESULT:      -5.2      1.251      3.276
REMARK  2 active torsions:
REMARK  status: ('A' for Active; 'I' for Inactive)
REMARK    1  A    between atoms: C1_1  and  C2_2 
REMARK    2  A    between atoms: C1_1  and  C3_3 
ROOT
HETATM    1  C1  UNL     1     -34.056   6.990   5.729  1.00 20.00     0.346 C 
HETATM    2  F4  UNL     1     -33.037   6.601   6.554  1.00 20.00    -0.234 F 
ENDROOT
BRANCH   1   3
HETATM    3  C2  UNL     1     -33.442   7.726   4.545  1.00 20.00     0.357 C 
HETATM    4  F5  UNL     1     -34.395   8.380   3.839  1.00 20.00    -0.184 F 
HETATM    5  F6  UNL     1     -32.862   6.839   3.698  1.00 20.00    -0.184 F 
HETATM    6 CL9  UNL     1     -32.224   8.899   5.081  1.00 20.00    -0.045 Cl
ENDBRANCH   1   3
BRANCH   1   7
HETATM    7  C3  UNL     1     -34.831   5.729   5.373  1.00 20.00     0.357 C 
HETATM    8  F7  UNL     1     -35.887   6.075   4.590  1.00 20.00    -0.184 F 
HETATM    9  F8  UNL     1     -35.349   5.172   6.496  1.00 20.00    -0.184 F 
HETATM   10 CL10 UNL     1     -33.860   4.526   4.509  1.00 20.00    -0.045 Cl
ENDBRANCH   1   7
TORSDOF 2
ENDMDL
MODEL 9
REMARK VINA RESULT:      -5.1      1.840      2.312
REMARK  2 active torsions:
REMARK  status: ('A' for Active; 'I' for Inactive)
REMARK    1  A    between atoms: C1_1  and  C2_2 
REMARK    2  A    between atoms: C1_1  and  C3_3 
ROOT
HETATM    1  C1  UNL     1     -33.695   7.335   4.475  1.00 20.00     0.346 C 
HETATM    2  F4  UNL     1     -33.334   6.188   3.821  1.00 20.00    -0.234 F 
ENDROOT
BRANCH   1   3
HETATM    3  C2  UNL     1     -33.895   6.990   5.946  1.00 20.00     0.357 C 
HETATM    4  F5  UNL     1     -34.565   7.978   6.584  1.00 20.00    -0.184 F 
HETATM    5  F6  UNL     1     -32.691   6.868   6.560  1.00 20.00    -0.184 F 
HETATM    6 CL9  UNL     1     -34.798   5.474   6.132  1.00 20.00    -0.045 Cl
ENDBRANCH   1   3
BRANCH   1   7
HETATM    7  C3  UNL     1     -32.601   8.356   4.195  1.00 20.00     0.357 C 
HETATM    8  F7  UNL     1     -31.401   7.718   4.202  1.00 20.00    -0.184 F 
HETATM    9  F8  UNL     1     -32.557   9.272   5.195  1.00 20.00    -0.184 F 
HETATM   10 CL10 UNL     1     -32.791   9.184   2.641  1.00 20.00    -0.045 Cl
ENDBRANCH   1   7
TORSDOF 2
ENDMDL
