MODEL 1
REMARK VINA RESULT:      -4.6      0.000      0.000
REMARK  2 active torsions:
REMARK  status: ('A' for Active; 'I' for Inactive)
REMARK    1  A    between atoms: C1_1  and  C2_2 
REMARK    2  A    between atoms: C2_2  and  C3_3 
ROOT
HETATM    1  C2  UNL     1     -33.514   6.394   4.553  1.00 20.00     0.218 C 
HETATM    2 CL8  UNL     1     -32.957   5.885   2.932  1.00 20.00    -0.113 Cl
ENDROOT
BRANCH   1   3
HETATM    3  C1  UNL     1     -33.764   7.896   4.558  1.00 20.00     0.251 C 
HETATM    4  F4  UNL     1     -33.979   8.326   5.828  1.00 20.00    -0.254 F 
ENDBRANCH   1   3
BRANCH   1   5
HETATM    5  C3  UNL     1     -34.751   5.605   4.934  1.00 20.00     0.406 C 
HETATM    6  F5  UNL     1     -34.609   4.301   4.605  1.00 20.00    -0.169 F 
HETATM    7  F6  UNL     1     -35.858   6.064   4.311  1.00 20.00    -0.169 F 
HETATM    8  F7  UNL     1     -34.975   5.660   6.267  1.00 20.00    -0.169 F 
ENDBRANCH   1   5
TORSDOF 2
ENDMDL
MODEL 2
REMARK VINA RESULT:      -4.6      0.032      1.343
REMARK  2 active torsions:
REMARK  status: ('A' for Active; 'I' for Inactive)
REMARK    1  A    between atoms: C1_1  and  C2_2 
REMARK    2  A    between atoms: C2_2  and  C3_3 
ROOT
HETATM    1  C2  UNL     1     -33.503   6.391   4.552  1.00 20.00     0.218 C 
HETATM    2 CL8  UNL     1     -32.982   5.874   2.922  1.00 20.00    -0.113 Cl
ENDROOT
BRANCH   1   3
HETATM    3  C1  UNL     1     -33.740   7.894   4.558  1.00 20.00     0.251 C 
HETATM    4  F4  UNL     1     -33.962   8.324   5.828  1.00 20.00    -0.254 F 
ENDBRANCH   1   3
BRANCH   1   5
HETATM    5  C3  UNL     1     -34.740   5.614   4.958  1.00 20.00     0.406 C 
HETATM    6  F5  UNL     1     -35.840   6.109   4.347  1.00 20.00    -0.169 F 
HETATM    7  F6  UNL     1     -34.956   5.664   6.290  1.00 20.00    -0.169 F 
HETATM    8  F7  UNL     1     -34.638   4.313   4.604  1.00 20.00    -0.169 F 
ENDBRANCH   1   5
TORSDOF 2
ENDMDL
MODEL 3
REMARK VINA RESULT:      -4.6      0.019      1.335
REMARK  2 active torsions:
REMARK  status: ('A' for Active; 'I' for Inactive)
REMARK    1  A    between atoms: C1_1  and  C2_2 
REMARK    2  A    between atoms: C2_2  and  C3_3 
ROOT
HETATM    1  C2  UNL     1     -33.515   6.402   4.557  1.00 20.00     0.218 C 
HETATM    2 CL8  UNL     1     -32.935   5.904   2.941  1.00 20.00    -0.113 Cl
ENDROOT
BRANCH   1   3
HETATM    3  C1  UNL     1     -33.790   7.899   4.561  1.00 20.00     0.251 C 
HETATM    4  F4  UNL     1     -33.962   8.336   5.836  1.00 20.00    -0.254 F 
ENDBRANCH   1   3
BRANCH   1   5
HETATM    5  C3  UNL     1     -34.742   5.592   4.927  1.00 20.00     0.406 C 
HETATM    6  F5  UNL     1     -34.975   5.654   6.257  1.00 20.00    -0.169 F 
HETATM    7  F6  UNL     1     -34.608   4.289   4.597  1.00 20.00    -0.169 F 
HETATM    8  F7  UNL     1     -35.846   6.065   4.305  1.00 20.00    -0.169 F 
ENDBRANCH   1   5
TORSDOF 2
ENDMDL
MODEL 4
REMARK VINA RESULT:      -4.6      1.279      2.984
REMARK  2 active torsions:
REMARK  status: ('A' for Active; 'I' for Inactive)
REMARK    1  A    between atoms: C1_1  and  C2_2 
REMARK    2  A    between atoms: C2_2  and  C3_3 
ROOT
HETATM    1  C2  UNL     1     -34.131   6.608   4.486  1.00 20.00     0.218 C 
HETATM    2 CL8  UNL     1     -33.034   6.001   3.212  1.00 20.00    -0.113 Cl
ENDROOT
BRANCH   1   3
HETATM    3  C1  UNL     1     -34.737   5.433   5.240  1.00 20.00     0.251 C 
HETATM    4  F4  UNL     1     -34.155   4.273   4.837  1.00 20.00    -0.254 F 
ENDBRANCH   1   3
BRANCH   1   5
HETATM    5  C3  UNL     1     -33.372   7.548   5.402  1.00 20.00     0.406 C 
HETATM    6  F5  UNL     1     -33.122   6.959   6.594  1.00 20.00    -0.169 F 
HETATM    7  F6  UNL     1     -34.060   8.684   5.646  1.00 20.00    -0.169 F 
HETATM    8  F7  UNL     1     -32.179   7.894   4.868  1.00 20.00    -0.169 F 
ENDBRANCH   1   5
TORSDOF 2
ENDMDL
MODEL 5
REMARK VINA RESULT:      -4.5      1.833      2.277
REMARK  2 active torsions:
REMARK  status: ('A' for Active; 'I' for Inactive)
REMARK    1  A    between atoms: C1_1  and  C2_2 
REMARK    2  A    between atoms: C2_2  and  C3_3 
ROOT
HETATM    1  C2  UNL     1     -33.990   7.062   4.848  1.00 20.00     0.218 C 
HETATM    2 CL8  UNL     1     -33.539   7.094   6.578  1.00 20.00    -0.113 Cl
ENDROOT
BRANCH   1   3
HETATM    3  C1  UNL     1     -32.777   7.411   3.999  1.00 20.00     0.251 C 
HETATM    4  F4  UNL     1     -31.948   8.237   4.690  1.00 20.00    -0.254 F 
ENDBRANCH   1   3
BRANCH   1   5
HETATM    5  C3  UNL     1     -34.563   5.702   4.499  1.00 20.00     0.406 C 
HETATM    6  F5  UNL     1     -35.879   5.798   4.204  1.00 20.00    -0.169 F 
HETATM    7  F6  UNL     1     -34.436   4.822   5.515  1.00 20.00    -0.169 F 
HETATM    8  F7  UNL     1     -33.947   5.175   3.416  1.00 20.00    -0.169 F 
ENDBRANCH   1   5
TORSDOF 2
ENDMDL
MODEL 6
REMARK VINA RESULT:      -4.5      1.831      2.078
REMARK  2 active torsions:
REMARK  status: ('A' for Active; 'I' for Inactive)
REMARK    1  A    between atoms: C1_1  and  C2_2 
REMARK    2  A    between atoms: C2_2  and  C3_3 
ROOT
HETATM    1  C2  UNL     1     -34.001   7.074   4.858  1.00 20.00     0.218 C 
HETATM    2 CL8  UNL     1     -33.547   7.106   6.587  1.00 20.00    -0.113 Cl
ENDROOT
BRANCH   1   3
HETATM    3  C1  UNL     1     -32.785   7.408   4.005  1.00 20.00     0.251 C 
HETATM    4  F4  UNL     1     -31.985   8.289   4.663  1.00 20.00    -0.254 F 
ENDBRANCH   1   3
BRANCH   1   5
HETATM    5  C3  UNL     1     -34.589   5.720   4.513  1.00 20.00     0.406 C 
HETATM    6  F5  UNL     1     -34.480   4.870   5.559  1.00 20.00    -0.169 F 
HETATM    7  F6  UNL     1     -33.967   5.150   3.459  1.00 20.00    -0.169 F 
HETATM    8  F7  UNL     1     -35.904   5.819   4.213  1.00 20.00    -0.169 F 
ENDBRANCH   1   5
TORSDOF 2
ENDMDL
MODEL 7
REMARK VINA RESULT:      -4.5      1.890      2.536
REMARK  2 active torsions:
REMARK  status: ('A' for Active; 'I' for Inactive)
REMARK    1  A    between atoms: C1_1  and  C2_2 
REMARK    2  A    between atoms: C2_2  and  C3_3 
ROOT
HETATM    1  C2  UNL     1     -34.336   6.486   4.840  1.00 20.00     0.218 C 
HETATM    2 CL8  UNL     1     -33.261   7.811   4.305  1.00 20.00    -0.113 Cl
ENDROOT
BRANCH   1   3
HETATM    3  C1  UNL     1     -34.085   5.250   3.989  1.00 20.00     0.251 C 
HETATM    4  F4  UNL     1     -33.138   5.516   3.052  1.00 20.00    -0.254 F 
ENDBRANCH   1   3
BRANCH   1   5
HETATM    5  C3  UNL     1     -34.117   6.221   6.317  1.00 20.00     0.406 C 
HETATM    6  F5  UNL     1     -33.986   4.896   6.552  1.00 20.00    -0.169 F 
HETATM    7  F6  UNL     1     -35.143   6.669   7.071  1.00 20.00    -0.169 F 
HETATM    8  F7  UNL     1     -32.987   6.819   6.758  1.00 20.00    -0.169 F 
ENDBRANCH   1   5
TORSDOF 2
ENDMDL
MODEL 8
REMARK VINA RESULT:      -4.5      1.764      2.936
REMARK  2 active torsions:
REMARK  status: ('A' for Active; 'I' for Inactive)
REMARK    1  A    between atoms: C1_1  and  C2_2 
REMARK    2  A    between atoms: C2_2  and  C3_3 
ROOT
HETATM    1  C2  UNL     1     -34.514   6.283   4.951  1.00 20.00     0.218 C 
HETATM    2 CL8  UNL     1     -34.110   4.732   4.157  1.00 20.00    -0.113 Cl
ENDROOT
BRANCH   1   3
HETATM    3  C1  UNL     1     -34.618   6.074   6.455  1.00 20.00     0.251 C 
HETATM    4  F4  UNL     1     -33.957   4.942   6.813  1.00 20.00    -0.254 F 
ENDBRANCH   1   3
BRANCH   1   5
HETATM    5  C3  UNL     1     -33.473   7.324   4.587  1.00 20.00     0.406 C 
HETATM    6  F5  UNL     1     -32.689   7.610   5.651  1.00 20.00    -0.169 F 
HETATM    7  F6  UNL     1     -34.035   8.480   4.173  1.00 20.00    -0.169 F 
HETATM    8  F7  UNL     1     -32.663   6.881   3.600  1.00 20.00    -0.169 F 
ENDBRANCH   1   5
TORSDOF 2
ENDMDL
MODEL 9
REMARK VINA RESULT:      -4.5      1.491      1.883
REMARK  2 active torsions:
REMARK  status: ('A' for Active; 'I' for Inactive)
REMARK    1  A    between atoms: C1_1  and  C2_2 
REMARK    2  A    between atoms: C2_2  and  C3_3 
ROOT
HETATM    1  C2  UNL     1     -33.495   6.569   5.122  1.00 20.00     0.218 C 
HETATM    2 CL8  UNL     1     -33.099   8.000   4.125  1.00 20.00    -0.113 Cl
ENDROOT
BRANCH   1   3
HETATM    3  C1  UNL     1     -34.276   7.005   6.353  1.00 20.00     0.251 C 
HETATM    4  F4  UNL     1     -34.843   5.924   6.950  1.00 20.00    -0.254 F 
ENDBRANCH   1   3
BRANCH   1   5
HETATM    5  C3  UNL     1     -34.259   5.563   4.283  1.00 20.00     0.406 C 
HETATM    6  F5  UNL     1     -33.758   5.506   3.028  1.00 20.00    -0.169 F 
HETATM    7  F6  UNL     1     -35.569   5.876   4.185  1.00 20.00    -0.169 F 
HETATM    8  F7  UNL     1     -34.169   4.320   4.807  1.00 20.00    -0.169 F 
ENDBRANCH   1   5
TORSDOF 2
ENDMDL
