MODEL 1
REMARK VINA RESULT:      -4.1      0.000      0.000
REMARK  4 active torsions:
REMARK  status: ('A' for Active; 'I' for Inactive)
REMARK    1  A    between atoms: C2_2  and  C9_9 
REMARK    2  A    between atoms: C7_7  and  C8_8 
REMARK    3  A    between atoms: C8_8  and  C9_9 
REMARK    4  A    between atoms: C9_9  and  O11_11 
ROOT
HETATM    1  C3  UNL     1     -33.571  16.631  -2.060  1.00 20.00     0.031 C 
HETATM    2  C4  UNL     1     -33.903  17.700  -4.306  1.00 20.00     0.031 C 
HETATM    3  C5  UNL     1     -33.301  18.029  -1.514  1.00 20.00     0.168 C 
HETATM    4  C6  UNL     1     -33.616  19.036  -3.633  1.00 20.00     0.168 C 
HETATM    5  C7  UNL     1     -33.219  16.555  -3.550  1.00 20.00    -0.008 C 
HETATM    6  O10 UNL     1     -34.015  19.011  -2.264  1.00 20.00    -0.391 OA
ENDROOT
BRANCH   5   7
HETATM    7  C8  UNL     1     -33.602  15.200  -4.138  1.00 20.00     0.040 C 
BRANCH   7   8
HETATM    8  C9  UNL     1     -34.196  15.297  -5.546  1.00 20.00     0.140 C 
BRANCH   8   9
HETATM    9  C2  UNL     1     -35.522  14.606  -5.668  1.00 20.00    -0.006 C 
HETATM   10  C1  UNL     1     -36.040  13.811  -4.725  1.00 20.00     0.009 C 
ENDBRANCH   8   9
BRANCH   8  11
HETATM   11  O11 UNL     1     -33.300  14.661  -6.459  1.00 20.00    -0.392 OA
HETATM   12  H27 UNL     1     -33.792  13.929  -6.860  1.00 20.00     0.210 HD
ENDBRANCH   8  11
ENDBRANCH   7   8
ENDBRANCH   5   7
TORSDOF 4
ENDMDL
MODEL 2
REMARK VINA RESULT:      -3.9     12.017     13.191
REMARK  4 active torsions:
REMARK  status: ('A' for Active; 'I' for Inactive)
REMARK    1  A    between atoms: C2_2  and  C9_9 
REMARK    2  A    between atoms: C7_7  and  C8_8 
REMARK    3  A    between atoms: C8_8  and  C9_9 
REMARK    4  A    between atoms: C9_9  and  O11_11 
ROOT
HETATM    1  C3  UNL     1     -34.203   6.075   3.948  1.00 20.00     0.031 C 
HETATM    2  C4  UNL     1     -34.324   6.818   6.341  1.00 20.00     0.031 C 
HETATM    3  C5  UNL     1     -34.267   4.642   4.464  1.00 20.00     0.168 C 
HETATM    4  C6  UNL     1     -34.383   5.344   6.722  1.00 20.00     0.168 C 
HETATM    5  C7  UNL     1     -33.596   7.004   5.005  1.00 20.00    -0.008 C 
HETATM    6  O10 UNL     1     -34.997   4.577   5.688  1.00 20.00    -0.391 OA
ENDROOT
BRANCH   5   7
HETATM    7  C8  UNL     1     -33.641   8.460   4.551  1.00 20.00     0.040 C 
BRANCH   7   8
HETATM    8  C9  UNL     1     -32.388   8.896   3.787  1.00 20.00     0.140 C 
BRANCH   8   9
HETATM    9  C2  UNL     1     -32.517   8.717   2.303  1.00 20.00    -0.006 C 
HETATM   10  C1  UNL     1     -32.927   9.679   1.468  1.00 20.00     0.009 C 
ENDBRANCH   8   9
BRANCH   8  11
HETATM   11  O11 UNL     1     -31.292   8.088   4.219  1.00 20.00    -0.392 OA
HETATM   12  H27 UNL     1     -31.410   7.221   3.801  1.00 20.00     0.210 HD
ENDBRANCH   8  11
ENDBRANCH   7   8
ENDBRANCH   5   7
TORSDOF 4
ENDMDL
MODEL 3
REMARK VINA RESULT:      -3.9      2.091      5.076
REMARK  4 active torsions:
REMARK  status: ('A' for Active; 'I' for Inactive)
REMARK    1  A    between atoms: C2_2  and  C9_9 
REMARK    2  A    between atoms: C7_7  and  C8_8 
REMARK    3  A    between atoms: C8_8  and  C9_9 
REMARK    4  A    between atoms: C9_9  and  O11_11 
ROOT
HETATM    1  C3  UNL     1     -34.077  18.633  -4.006  1.00 20.00     0.031 C 
HETATM    2  C4  UNL     1     -33.266  16.671  -2.669  1.00 20.00     0.031 C 
HETATM    3  C5  UNL     1     -34.417  17.645  -5.117  1.00 20.00     0.168 C 
HETATM    4  C6  UNL     1     -33.652  15.794  -3.854  1.00 20.00     0.168 C 
HETATM    5  C7  UNL     1     -32.938  18.094  -3.133  1.00 20.00    -0.008 C 
HETATM    6  O10 UNL     1     -34.742  16.366  -4.574  1.00 20.00    -0.391 OA
ENDROOT
BRANCH   5   7
HETATM    7  C8  UNL     1     -32.673  19.014  -1.945  1.00 20.00     0.040 C 
BRANCH   7   8
HETATM    8  C9  UNL     1     -32.051  18.291  -0.747  1.00 20.00     0.140 C 
BRANCH   8   9
HETATM    9  C2  UNL     1     -32.781  18.556   0.538  1.00 20.00    -0.006 C 
HETATM   10  C1  UNL     1     -34.104  18.423   0.686  1.00 20.00     0.009 C 
ENDBRANCH   8   9
BRANCH   8  11
HETATM   11  O11 UNL     1     -30.713  18.762  -0.580  1.00 20.00    -0.392 OA
HETATM   12  H27 UNL     1     -30.618  18.990   0.357  1.00 20.00     0.210 HD
ENDBRANCH   8  11
ENDBRANCH   7   8
ENDBRANCH   5   7
TORSDOF 4
ENDMDL
MODEL 4
REMARK VINA RESULT:      -3.9      2.056      3.316
REMARK  4 active torsions:
REMARK  status: ('A' for Active; 'I' for Inactive)
REMARK    1  A    between atoms: C2_2  and  C9_9 
REMARK    2  A    between atoms: C7_7  and  C8_8 
REMARK    3  A    between atoms: C8_8  and  C9_9 
REMARK    4  A    between atoms: C9_9  and  O11_11 
ROOT
HETATM    1  C3  UNL     1     -34.190  18.611  -0.734  1.00 20.00     0.031 C 
HETATM    2  C4  UNL     1     -31.682  18.622  -0.740  1.00 20.00     0.031 C 
HETATM    3  C5  UNL     1     -34.116  18.485   0.784  1.00 20.00     0.168 C 
HETATM    4  C6  UNL     1     -31.748  18.496   0.777  1.00 20.00     0.168 C 
HETATM    5  C7  UNL     1     -32.935  18.023  -1.388  1.00 20.00    -0.008 C 
HETATM    6  O10 UNL     1     -32.933  19.106   1.285  1.00 20.00    -0.391 OA
ENDROOT
BRANCH   5   7
HETATM    7  C8  UNL     1     -32.940  18.256  -2.896  1.00 20.00     0.040 C 
BRANCH   7   8
HETATM    8  C9  UNL     1     -33.804  17.250  -3.662  1.00 20.00     0.140 C 
BRANCH   8   9
HETATM    9  C2  UNL     1     -33.390  15.827  -3.427  1.00 20.00    -0.006 C 
HETATM   10  C1  UNL     1     -33.824  14.793  -4.157  1.00 20.00     0.009 C 
ENDBRANCH   8   9
BRANCH   8  11
HETATM   11  O11 UNL     1     -33.665  17.508  -5.060  1.00 20.00    -0.392 OA
HETATM   12  H27 UNL     1     -32.713  17.546  -5.238  1.00 20.00     0.210 HD
ENDBRANCH   8  11
ENDBRANCH   7   8
ENDBRANCH   5   7
TORSDOF 4
ENDMDL
MODEL 5
REMARK VINA RESULT:      -3.8      2.394      5.759
REMARK  4 active torsions:
REMARK  status: ('A' for Active; 'I' for Inactive)
REMARK    1  A    between atoms: C2_2  and  C9_9 
REMARK    2  A    between atoms: C7_7  and  C8_8 
REMARK    3  A    between atoms: C8_8  and  C9_9 
REMARK    4  A    between atoms: C9_9  and  O11_11 
ROOT
HETATM    1  C3  UNL     1     -34.852  18.654  -2.250  1.00 20.00     0.031 C 
HETATM    2  C4  UNL     1     -33.458  16.569  -2.214  1.00 20.00     0.031 C 
HETATM    3  C5  UNL     1     -34.778  18.593  -3.772  1.00 20.00     0.168 C 
HETATM    4  C6  UNL     1     -33.463  16.624  -3.736  1.00 20.00     0.168 C 
HETATM    5  C7  UNL     1     -33.633  17.972  -1.621  1.00 20.00    -0.008 C 
HETATM    6  O10 UNL     1     -34.654  17.243  -4.217  1.00 20.00    -0.391 OA
ENDROOT
BRANCH   5   7
HETATM    7  C8  UNL     1     -33.756  17.915  -0.101  1.00 20.00     0.040 C 
BRANCH   7   8
HETATM    8  C9  UNL     1     -32.941  18.996   0.614  1.00 20.00     0.140 C 
BRANCH   8   9
HETATM    9  C2  UNL     1     -31.461  18.765   0.524  1.00 20.00    -0.006 C 
HETATM   10  C1  UNL     1     -30.720  18.270   1.522  1.00 20.00     0.009 C 
ENDBRANCH   8   9
BRANCH   8  11
HETATM   11  O11 UNL     1     -33.289  18.982   1.999  1.00 20.00    -0.392 OA
HETATM   12  H27 UNL     1     -34.097  18.453   2.073  1.00 20.00     0.210 HD
ENDBRANCH   8  11
ENDBRANCH   7   8
ENDBRANCH   5   7
TORSDOF 4
ENDMDL
MODEL 6
REMARK VINA RESULT:      -3.8     11.687     12.806
REMARK  4 active torsions:
REMARK  status: ('A' for Active; 'I' for Inactive)
REMARK    1  A    between atoms: C2_2  and  C9_9 
REMARK    2  A    between atoms: C7_7  and  C8_8 
REMARK    3  A    between atoms: C8_8  and  C9_9 
REMARK    4  A    between atoms: C9_9  and  O11_11 
ROOT
HETATM    1  C3  UNL     1     -42.168  14.293   4.870  1.00 20.00     0.031 C 
HETATM    2  C4  UNL     1     -41.694  14.875   7.264  1.00 20.00     0.031 C 
HETATM    3  C5  UNL     1     -42.840  15.655   4.746  1.00 20.00     0.168 C 
HETATM    4  C6  UNL     1     -42.392  16.204   7.005  1.00 20.00     0.168 C 
HETATM    5  C7  UNL     1     -42.224  13.791   6.318  1.00 20.00    -0.008 C 
HETATM    6  O10 UNL     1     -42.247  16.595   5.641  1.00 20.00    -0.391 OA
ENDROOT
BRANCH   5   7
HETATM    7  C8  UNL     1     -41.445  12.489   6.480  1.00 20.00     0.040 C 
BRANCH   7   8
HETATM    8  C9  UNL     1     -39.962  12.622   6.123  1.00 20.00     0.140 C 
BRANCH   8   9
HETATM    9  C2  UNL     1     -39.496  11.565   5.165  1.00 20.00    -0.006 C 
HETATM   10  C1  UNL     1     -39.070  11.818   3.923  1.00 20.00     0.009 C 
ENDBRANCH   8   9
BRANCH   8  11
HETATM   11  O11 UNL     1     -39.195  12.479   7.319  1.00 20.00    -0.392 OA
HETATM   12  H27 UNL     1     -38.659  11.680   7.207  1.00 20.00     0.210 HD
ENDBRANCH   8  11
ENDBRANCH   7   8
ENDBRANCH   5   7
TORSDOF 4
ENDMDL
MODEL 7
REMARK VINA RESULT:      -3.8      0.427      1.528
REMARK  4 active torsions:
REMARK  status: ('A' for Active; 'I' for Inactive)
REMARK    1  A    between atoms: C2_2  and  C9_9 
REMARK    2  A    between atoms: C7_7  and  C8_8 
REMARK    3  A    between atoms: C8_8  and  C9_9 
REMARK    4  A    between atoms: C9_9  and  O11_11 
ROOT
HETATM    1  C3  UNL     1     -33.820  17.965  -4.347  1.00 20.00     0.031 C 
HETATM    2  C4  UNL     1     -33.327  16.753  -2.207  1.00 20.00     0.031 C 
HETATM    3  C5  UNL     1     -34.138  19.191  -3.497  1.00 20.00     0.168 C 
HETATM    4  C6  UNL     1     -33.671  18.046  -1.478  1.00 20.00     0.168 C 
HETATM    5  C7  UNL     1     -34.060  16.677  -3.551  1.00 20.00    -0.008 C 
HETATM    6  O10 UNL     1     -33.376  19.180  -2.291  1.00 20.00    -0.391 OA
ENDROOT
BRANCH   5   7
HETATM    7  C8  UNL     1     -33.627  15.449  -4.346  1.00 20.00     0.040 C 
BRANCH   7   8
HETATM    8  C9  UNL     1     -34.235  15.391  -5.750  1.00 20.00     0.140 C 
BRANCH   8   9
HETATM    9  C2  UNL     1     -35.533  14.639  -5.793  1.00 20.00    -0.006 C 
HETATM   10  C1  UNL     1     -35.971  13.849  -4.807  1.00 20.00     0.009 C 
ENDBRANCH   8   9
BRANCH   8  11
HETATM   11  O11 UNL     1     -33.321  14.711  -6.611  1.00 20.00    -0.392 OA
HETATM   12  H27 UNL     1     -33.121  15.322  -7.336  1.00 20.00     0.210 HD
ENDBRANCH   8  11
ENDBRANCH   7   8
ENDBRANCH   5   7
TORSDOF 4
ENDMDL
MODEL 8
REMARK VINA RESULT:      -3.8      2.383      4.131
REMARK  4 active torsions:
REMARK  status: ('A' for Active; 'I' for Inactive)
REMARK    1  A    between atoms: C2_2  and  C9_9 
REMARK    2  A    between atoms: C7_7  and  C8_8 
REMARK    3  A    between atoms: C8_8  and  C9_9 
REMARK    4  A    between atoms: C9_9  and  O11_11 
ROOT
HETATM    1  C3  UNL     1     -31.168  18.603  -0.423  1.00 20.00     0.031 C 
HETATM    2  C4  UNL     1     -33.614  18.833   0.087  1.00 20.00     0.031 C 
HETATM    3  C5  UNL     1     -30.900  19.044   1.011  1.00 20.00     0.168 C 
HETATM    4  C6  UNL     1     -33.208  19.260   1.492  1.00 20.00     0.168 C 
HETATM    5  C7  UNL     1     -32.506  19.162  -0.920  1.00 20.00    -0.008 C 
HETATM    6  O10 UNL     1     -31.972  18.656   1.869  1.00 20.00    -0.391 OA
ENDROOT
BRANCH   5   7
HETATM    7  C8  UNL     1     -32.846  18.625  -2.308  1.00 20.00     0.040 C 
BRANCH   7   8
HETATM    8  C9  UNL     1     -33.798  17.426  -2.277  1.00 20.00     0.140 C 
BRANCH   8   9
HETATM    9  C2  UNL     1     -33.206  16.195  -2.898  1.00 20.00    -0.006 C 
HETATM   10  C1  UNL     1     -33.784  15.508  -3.890  1.00 20.00     0.009 C 
ENDBRANCH   8   9
BRANCH   8  11
HETATM   11  O11 UNL     1     -34.968  17.759  -3.024  1.00 20.00    -0.392 OA
HETATM   12  H27 UNL     1     -35.468  18.390  -2.485  1.00 20.00     0.210 HD
ENDBRANCH   8  11
ENDBRANCH   7   8
ENDBRANCH   5   7
TORSDOF 4
ENDMDL
MODEL 9
REMARK VINA RESULT:      -3.7     12.422     13.507
REMARK  4 active torsions:
REMARK  status: ('A' for Active; 'I' for Inactive)
REMARK    1  A    between atoms: C2_2  and  C9_9 
REMARK    2  A    between atoms: C7_7  and  C8_8 
REMARK    3  A    between atoms: C8_8  and  C9_9 
REMARK    4  A    between atoms: C9_9  and  O11_11 
ROOT
HETATM    1  C3  UNL     1     -42.271  13.934   8.541  1.00 20.00     0.031 C 
HETATM    2  C4  UNL     1     -40.534  15.424   7.515  1.00 20.00     0.031 C 
HETATM    3  C5  UNL     1     -42.269  14.875   9.740  1.00 20.00     0.168 C 
HETATM    4  C6  UNL     1     -40.630  16.282   8.770  1.00 20.00     0.168 C 
HETATM    5  C7  UNL     1     -40.919  13.972   7.821  1.00 20.00    -0.008 C 
HETATM    6  O10 UNL     1     -41.936  16.204   9.339  1.00 20.00    -0.391 OA
ENDROOT
BRANCH   5   7
HETATM    7  C8  UNL     1     -40.949  13.131   6.548  1.00 20.00     0.040 C 
BRANCH   7   8
HETATM    8  C9  UNL     1     -39.560  12.686   6.083  1.00 20.00     0.140 C 
BRANCH   8   9
HETATM    9  C2  UNL     1     -39.611  11.613   5.035  1.00 20.00    -0.006 C 
HETATM   10  C1  UNL     1     -38.931  11.659   3.884  1.00 20.00     0.009 C 
ENDBRANCH   8   9
BRANCH   8  11
HETATM   11  O11 UNL     1     -38.858  12.151   7.205  1.00 20.00    -0.392 OA
HETATM   12  H27 UNL     1     -39.191  12.620   7.985  1.00 20.00     0.210 HD
ENDBRANCH   8  11
ENDBRANCH   7   8
ENDBRANCH   5   7
TORSDOF 4
ENDMDL
