MODEL 1
REMARK VINA RESULT:      -2.4      0.000      0.000
REMARK  0 active torsions:
REMARK  status: ('A' for Active; 'I' for Inactive)
ROOT
HETATM    1  C1  UNL     1     -34.998  17.859  -5.031  1.00 20.00     0.175 C 
HETATM    2  C2  UNL     1     -34.442  15.176  -5.561  1.00 20.00     0.175 C 
HETATM    3  C3  UNL     1     -34.904  16.948  -7.667  1.00 20.00     0.175 C 
HETATM    4  C4  UNL     1     -37.008  16.183  -6.001  1.00 20.00     0.175 C 
HETATM    5  S5  UNL     1     -33.995  16.490  -4.395  1.00 20.00    -0.117 SA
HETATM    6  S6  UNL     1     -34.497  18.414  -6.682  1.00 20.00    -0.117 SA
HETATM    7  S7  UNL     1     -33.893  15.499  -7.259  1.00 20.00    -0.117 SA
HETATM    8  S8  UNL     1     -36.783  17.583  -4.871  1.00 20.00    -0.117 SA
HETATM    9  S9  UNL     1     -36.179  14.668  -5.448  1.00 20.00    -0.117 SA
HETATM   10  S10 UNL     1     -36.680  16.593  -7.736  1.00 20.00    -0.117 SA
ENDROOT
TORSDOF 0
ENDMDL
MODEL 2
REMARK VINA RESULT:      -2.4      0.012      2.803
REMARK  0 active torsions:
REMARK  status: ('A' for Active; 'I' for Inactive)
ROOT
HETATM    1  C1  UNL     1     -34.995  17.861  -5.031  1.00 20.00     0.175 C 
HETATM    2  C2  UNL     1     -34.908  16.961  -7.671  1.00 20.00     0.175 C 
HETATM    3  C3  UNL     1     -37.010  16.193  -6.004  1.00 20.00     0.175 C 
HETATM    4  C4  UNL     1     -34.445  15.179  -5.573  1.00 20.00     0.175 C 
HETATM    5  S5  UNL     1     -34.497  18.423  -6.681  1.00 20.00    -0.117 SA
HETATM    6  S6  UNL     1     -36.780  17.588  -4.871  1.00 20.00    -0.117 SA
HETATM    7  S7  UNL     1     -36.685  16.609  -7.738  1.00 20.00    -0.117 SA
HETATM    8  S8  UNL     1     -33.993  16.487  -4.401  1.00 20.00    -0.117 SA
HETATM    9  S9  UNL     1     -33.898  15.509  -7.270  1.00 20.00    -0.117 SA
HETATM   10  S10 UNL     1     -36.183  14.675  -5.459  1.00 20.00    -0.117 SA
ENDROOT
TORSDOF 0
ENDMDL
MODEL 3
REMARK VINA RESULT:      -2.4      0.013      2.804
REMARK  0 active torsions:
REMARK  status: ('A' for Active; 'I' for Inactive)
ROOT
HETATM    1  C1  UNL     1     -34.445  15.183  -5.574  1.00 20.00     0.175 C 
HETATM    2  C2  UNL     1     -37.011  16.191  -6.004  1.00 20.00     0.175 C 
HETATM    3  C3  UNL     1     -34.911  16.961  -7.672  1.00 20.00     0.175 C 
HETATM    4  C4  UNL     1     -34.999  17.864  -5.033  1.00 20.00     0.175 C 
HETATM    5  S5  UNL     1     -36.181  14.674  -5.459  1.00 20.00    -0.117 SA
HETATM    6  S6  UNL     1     -33.900  15.512  -7.271  1.00 20.00    -0.117 SA
HETATM    7  S7  UNL     1     -36.688  16.608  -7.739  1.00 20.00    -0.117 SA
HETATM    8  S8  UNL     1     -33.996  16.491  -4.402  1.00 20.00    -0.117 SA
HETATM    9  S9  UNL     1     -36.784  17.588  -4.871  1.00 20.00    -0.117 SA
HETATM   10  S10 UNL     1     -34.502  18.424  -6.684  1.00 20.00    -0.117 SA
ENDROOT
TORSDOF 0
ENDMDL
MODEL 4
REMARK VINA RESULT:      -2.4      0.023      3.235
REMARK  0 active torsions:
REMARK  status: ('A' for Active; 'I' for Inactive)
ROOT
HETATM    1  C1  UNL     1     -37.011  16.211  -6.003  1.00 20.00     0.175 C 
HETATM    2  C2  UNL     1     -34.908  16.969  -7.673  1.00 20.00     0.175 C 
HETATM    3  C3  UNL     1     -34.450  15.188  -5.575  1.00 20.00     0.175 C 
HETATM    4  C4  UNL     1     -34.989  17.872  -5.033  1.00 20.00     0.175 C 
HETATM    5  S5  UNL     1     -36.686  16.625  -7.738  1.00 20.00    -0.117 SA
HETATM    6  S6  UNL     1     -36.189  14.690  -5.458  1.00 20.00    -0.117 SA
HETATM    7  S7  UNL     1     -33.904  15.514  -7.272  1.00 20.00    -0.117 SA
HETATM    8  S8  UNL     1     -36.775  17.607  -4.870  1.00 20.00    -0.117 SA
HETATM    9  S9  UNL     1     -34.489  18.431  -6.684  1.00 20.00    -0.117 SA
HETATM   10  S10 UNL     1     -33.993  16.494  -4.404  1.00 20.00    -0.117 SA
ENDROOT
TORSDOF 0
ENDMDL
MODEL 5
REMARK VINA RESULT:      -2.4      0.011      2.801
REMARK  0 active torsions:
REMARK  status: ('A' for Active; 'I' for Inactive)
ROOT
HETATM    1  C1  UNL     1     -35.002  17.863  -5.034  1.00 20.00     0.175 C 
HETATM    2  C2  UNL     1     -37.012  16.189  -6.005  1.00 20.00     0.175 C 
HETATM    3  C3  UNL     1     -34.447  15.182  -5.571  1.00 20.00     0.175 C 
HETATM    4  C4  UNL     1     -34.910  16.959  -7.672  1.00 20.00     0.175 C 
HETATM    5  S5  UNL     1     -36.786  17.586  -4.872  1.00 20.00    -0.117 SA
HETATM    6  S6  UNL     1     -33.999  16.492  -4.401  1.00 20.00    -0.117 SA
HETATM    7  S7  UNL     1     -36.183  14.673  -5.458  1.00 20.00    -0.117 SA
HETATM    8  S8  UNL     1     -34.503  18.424  -6.684  1.00 20.00    -0.117 SA
HETATM    9  S9  UNL     1     -36.687  16.605  -7.740  1.00 20.00    -0.117 SA
HETATM   10  S10 UNL     1     -33.899  15.510  -7.268  1.00 20.00    -0.117 SA
ENDROOT
TORSDOF 0
ENDMDL
MODEL 6
REMARK VINA RESULT:      -2.4      0.088      3.236
REMARK  0 active torsions:
REMARK  status: ('A' for Active; 'I' for Inactive)
ROOT
HETATM    1  C1  UNL     1     -34.960  17.010  -7.606  1.00 20.00     0.175 C 
HETATM    2  C2  UNL     1     -37.038  16.218  -5.920  1.00 20.00     0.175 C 
HETATM    3  C3  UNL     1     -34.997  17.853  -4.946  1.00 20.00     0.175 C 
HETATM    4  C4  UNL     1     -34.472  15.180  -5.556  1.00 20.00     0.175 C 
HETATM    5  S5  UNL     1     -36.740  16.672  -7.649  1.00 20.00    -0.117 SA
HETATM    6  S6  UNL     1     -34.523  18.447  -6.591  1.00 20.00    -0.117 SA
HETATM    7  S7  UNL     1     -36.780  17.586  -4.759  1.00 20.00    -0.117 SA
HETATM    8  S8  UNL     1     -33.953  15.543  -7.255  1.00 20.00    -0.117 SA
HETATM    9  S9  UNL     1     -36.211  14.683  -5.422  1.00 20.00    -0.117 SA
HETATM   10  S10 UNL     1     -33.993  16.459  -4.364  1.00 20.00    -0.117 SA
ENDROOT
TORSDOF 0
ENDMDL
MODEL 7
REMARK VINA RESULT:      -2.4      0.013      2.805
REMARK  0 active torsions:
REMARK  status: ('A' for Active; 'I' for Inactive)
ROOT
HETATM    1  C1  UNL     1     -34.447  15.181  -5.573  1.00 20.00     0.175 C 
HETATM    2  C2  UNL     1     -34.912  16.961  -7.671  1.00 20.00     0.175 C 
HETATM    3  C3  UNL     1     -34.999  17.862  -5.032  1.00 20.00     0.175 C 
HETATM    4  C4  UNL     1     -37.013  16.191  -6.003  1.00 20.00     0.175 C 
HETATM    5  S5  UNL     1     -33.901  15.511  -7.270  1.00 20.00    -0.117 SA
HETATM    6  S6  UNL     1     -33.997  16.490  -4.403  1.00 20.00    -0.117 SA
HETATM    7  S7  UNL     1     -34.502  18.424  -6.683  1.00 20.00    -0.117 SA
HETATM    8  S8  UNL     1     -36.184  14.674  -5.458  1.00 20.00    -0.117 SA
HETATM    9  S9  UNL     1     -36.689  16.608  -7.738  1.00 20.00    -0.117 SA
HETATM   10  S10 UNL     1     -36.784  17.588  -4.870  1.00 20.00    -0.117 SA
ENDROOT
TORSDOF 0
ENDMDL
MODEL 8
REMARK VINA RESULT:      -2.4      0.090      2.807
REMARK  0 active torsions:
REMARK  status: ('A' for Active; 'I' for Inactive)
ROOT
HETATM    1  C1  UNL     1     -34.960  17.010  -7.603  1.00 20.00     0.175 C 
HETATM    2  C2  UNL     1     -34.472  15.178  -5.555  1.00 20.00     0.175 C 
HETATM    3  C3  UNL     1     -37.037  16.217  -5.917  1.00 20.00     0.175 C 
HETATM    4  C4  UNL     1     -34.994  17.851  -4.942  1.00 20.00     0.175 C 
HETATM    5  S5  UNL     1     -33.955  15.543  -7.253  1.00 20.00    -0.117 SA
HETATM    6  S6  UNL     1     -36.740  16.671  -7.645  1.00 20.00    -0.117 SA
HETATM    7  S7  UNL     1     -36.210  14.681  -5.420  1.00 20.00    -0.117 SA
HETATM    8  S8  UNL     1     -34.520  18.446  -6.588  1.00 20.00    -0.117 SA
HETATM    9  S9  UNL     1     -33.991  16.456  -4.362  1.00 20.00    -0.117 SA
HETATM   10  S10 UNL     1     -36.778  17.585  -4.755  1.00 20.00    -0.117 SA
ENDROOT
TORSDOF 0
ENDMDL
MODEL 9
REMARK VINA RESULT:      -2.4      0.110      2.777
REMARK  0 active torsions:
REMARK  status: ('A' for Active; 'I' for Inactive)
ROOT
HETATM    1  C1  UNL     1     -34.976  17.006  -7.586  1.00 20.00     0.175 C 
HETATM    2  C2  UNL     1     -34.993  17.845  -4.925  1.00 20.00     0.175 C 
HETATM    3  C3  UNL     1     -34.486  15.171  -5.542  1.00 20.00     0.175 C 
HETATM    4  C4  UNL     1     -37.048  16.221  -5.890  1.00 20.00     0.175 C 
HETATM    5  S5  UNL     1     -34.525  18.439  -6.572  1.00 20.00    -0.117 SA
HETATM    6  S6  UNL     1     -33.974  15.535  -7.242  1.00 20.00    -0.117 SA
HETATM    7  S7  UNL     1     -33.994  16.446  -4.351  1.00 20.00    -0.117 SA
HETATM    8  S8  UNL     1     -36.759  16.676  -7.621  1.00 20.00    -0.117 SA
HETATM    9  S9  UNL     1     -36.777  17.587  -4.729  1.00 20.00    -0.117 SA
HETATM   10  S10 UNL     1     -36.225  14.682  -5.399  1.00 20.00    -0.117 SA
ENDROOT
TORSDOF 0
ENDMDL
