MODEL 1
REMARK VINA RESULT:      -4.0      0.000      0.000
REMARK  0 active torsions:
REMARK  status: ('A' for Active; 'I' for Inactive)
ROOT
HETATM    1  C1  UNL     1     -35.349   5.901   4.460  1.00 20.00     0.080 A 
HETATM    2  C2  UNL     1     -34.332   5.217   5.318  1.00 20.00     0.207 A 
HETATM    3  C3  UNL     1     -33.901   6.325   4.401  1.00 20.00     0.128 A 
HETATM    4  F4  UNL     1     -33.996   3.916   4.986  1.00 20.00    -0.246 F 
HETATM    5 CL5  UNL     1     -32.980   5.911   2.960  1.00 20.00    -0.103 Cl
HETATM    6 BR6  UNL     1     -33.430   8.004   5.191  1.00 20.00    -0.065 Br
ENDROOT
TORSDOF 0
ENDMDL
MODEL 2
REMARK VINA RESULT:      -3.6      2.511      2.709
REMARK  0 active torsions:
REMARK  status: ('A' for Active; 'I' for Inactive)
ROOT
HETATM    1  C1  UNL     1     -33.799   8.070   4.634  1.00 20.00     0.080 A 
HETATM    2  C2  UNL     1     -33.293   7.099   5.655  1.00 20.00     0.207 A 
HETATM    3  C3  UNL     1     -33.953   6.584   4.409  1.00 20.00     0.128 A 
HETATM    4  F4  UNL     1     -33.986   7.021   6.851  1.00 20.00    -0.246 F 
HETATM    5 CL5  UNL     1     -35.567   5.894   4.539  1.00 20.00    -0.103 Cl
HETATM    6 BR6  UNL     1     -32.840   5.763   3.086  1.00 20.00    -0.065 Br
ENDROOT
TORSDOF 0
ENDMDL
MODEL 3
REMARK VINA RESULT:      -3.4      1.660      1.660
REMARK  0 active torsions:
REMARK  status: ('A' for Active; 'I' for Inactive)
ROOT
HETATM    1  C1  UNL     1     -35.331   6.009   4.117  1.00 20.00     0.080 A 
HETATM    2  C2  UNL     1     -34.091   5.175   4.191  1.00 20.00     0.207 A 
HETATM    3  C3  UNL     1     -34.099   6.544   4.807  1.00 20.00     0.128 A 
HETATM    4  F4  UNL     1     -33.387   4.983   3.015  1.00 20.00    -0.246 F 
HETATM    5 CL5  UNL     1     -33.200   7.829   4.007  1.00 20.00    -0.103 Cl
HETATM    6 BR6  UNL     1     -34.126   6.663   6.717  1.00 20.00    -0.065 Br
ENDROOT
TORSDOF 0
ENDMDL
MODEL 4
REMARK VINA RESULT:      -3.4      2.183      2.333
REMARK  0 active torsions:
REMARK  status: ('A' for Active; 'I' for Inactive)
ROOT
HETATM    1  C1  UNL     1     -33.863   5.314   4.173  1.00 20.00     0.080 A 
HETATM    2  C2  UNL     1     -34.998   6.249   3.896  1.00 20.00     0.207 A 
HETATM    3  C3  UNL     1     -33.938   6.645   4.882  1.00 20.00     0.128 A 
HETATM    4  F4  UNL     1     -36.246   5.888   4.376  1.00 20.00    -0.246 F 
HETATM    5 CL5  UNL     1     -34.343   6.643   6.595  1.00 20.00    -0.103 Cl
HETATM    6 BR6  UNL     1     -32.699   8.006   4.360  1.00 20.00    -0.065 Br
ENDROOT
TORSDOF 0
ENDMDL
MODEL 5
REMARK VINA RESULT:      -3.2      3.035      3.499
REMARK  0 active torsions:
REMARK  status: ('A' for Active; 'I' for Inactive)
ROOT
HETATM    1  C1  UNL     1     -32.015   8.244   4.604  1.00 20.00     0.080 A 
HETATM    2  C2  UNL     1     -33.134   8.758   3.754  1.00 20.00     0.207 A 
HETATM    3  C3  UNL     1     -33.052   7.291   4.061  1.00 20.00     0.128 A 
HETATM    4  F4  UNL     1     -32.813   9.185   2.477  1.00 20.00    -0.246 F 
HETATM    5 CL5  UNL     1     -32.567   6.191   2.775  1.00 20.00    -0.103 Cl
HETATM    6 BR6  UNL     1     -34.328   6.565   5.289  1.00 20.00    -0.065 Br
ENDROOT
TORSDOF 0
ENDMDL
MODEL 6
REMARK VINA RESULT:      -3.2      3.149      3.397
REMARK  0 active torsions:
REMARK  status: ('A' for Active; 'I' for Inactive)
ROOT
HETATM    1  C1  UNL     1     -34.079   8.179   4.072  1.00 20.00     0.080 A 
HETATM    2  C2  UNL     1     -32.685   7.736   4.391  1.00 20.00     0.207 A 
HETATM    3  C3  UNL     1     -33.851   6.979   4.959  1.00 20.00     0.128 A 
HETATM    4  F4  UNL     1     -31.944   8.542   5.238  1.00 20.00    -0.246 F 
HETATM    5 CL5  UNL     1     -34.202   7.145   6.676  1.00 20.00    -0.103 Cl
HETATM    6 BR6  UNL     1     -34.228   5.248   4.234  1.00 20.00    -0.065 Br
ENDROOT
TORSDOF 0
ENDMDL
MODEL 7
REMARK VINA RESULT:      -3.1      2.812      3.061
REMARK  0 active torsions:
REMARK  status: ('A' for Active; 'I' for Inactive)
ROOT
HETATM    1  C1  UNL     1     -33.258   6.965   6.164  1.00 20.00     0.080 A 
HETATM    2  C2  UNL     1     -33.888   8.139   5.483  1.00 20.00     0.207 A 
HETATM    3  C3  UNL     1     -33.778   6.832   4.752  1.00 20.00     0.128 A 
HETATM    4  F4  UNL     1     -33.051   9.177   5.110  1.00 20.00    -0.246 F 
HETATM    5 CL5  UNL     1     -32.602   6.695   3.450  1.00 20.00    -0.103 Cl
HETATM    6 BR6  UNL     1     -35.383   5.824   4.484  1.00 20.00    -0.065 Br
ENDROOT
TORSDOF 0
ENDMDL
MODEL 8
REMARK VINA RESULT:      -3.0     17.135     17.474
REMARK  0 active torsions:
REMARK  status: ('A' for Active; 'I' for Inactive)
ROOT
HETATM    1  C1  UNL     1     -22.805  18.506  12.322  1.00 20.00     0.080 A 
HETATM    2  C2  UNL     1     -23.202  18.511  10.879  1.00 20.00     0.207 A 
HETATM    3  C3  UNL     1     -24.131  17.921  11.899  1.00 20.00     0.128 A 
HETATM    4  F4  UNL     1     -22.519  17.655  10.032  1.00 20.00    -0.246 F 
HETATM    5 CL5  UNL     1     -24.315  16.171  11.954  1.00 20.00    -0.103 Cl
HETATM    6 BR6  UNL     1     -25.717  18.901  12.332  1.00 20.00    -0.065 Br
ENDROOT
TORSDOF 0
ENDMDL
MODEL 9
REMARK VINA RESULT:      -3.0     17.421     17.477
REMARK  0 active torsions:
REMARK  status: ('A' for Active; 'I' for Inactive)
ROOT
HETATM    1  C1  UNL     1     -23.851  18.467   9.995  1.00 20.00     0.080 A 
HETATM    2  C2  UNL     1     -22.790  17.438   9.762  1.00 20.00     0.207 A 
HETATM    3  C3  UNL     1     -23.326  17.647  11.148  1.00 20.00     0.128 A 
HETATM    4  F4  UNL     1     -21.517  17.897   9.469  1.00 20.00    -0.246 F 
HETATM    5 CL5  UNL     1     -22.300  18.450  12.332  1.00 20.00    -0.103 Cl
HETATM    6 BR6  UNL     1     -24.469  16.294  11.874  1.00 20.00    -0.065 Br
ENDROOT
TORSDOF 0
ENDMDL
