MODEL 1
REMARK VINA RESULT:      -5.1      0.000      0.000
REMARK  1 active torsions:
REMARK  status: ('A' for Active; 'I' for Inactive)
REMARK    1  A    between atoms: C2_2  and  C6_6 
ROOT
HETATM    1  C3  UNL     1     -33.729   7.052   6.181  1.00 20.00     0.181 C 
HETATM    2  C4  UNL     1     -33.848   5.694   4.084  1.00 20.00     0.181 C 
HETATM    3  C5  UNL     1     -34.696   4.912   6.130  1.00 20.00     0.337 C 
HETATM    4  C6  UNL     1     -33.830   7.116   4.654  1.00 20.00     0.061 C 
HETATM    5  O8  UNL     1     -34.760   6.214   6.707  1.00 20.00    -0.366 OA
HETATM    6  O9  UNL     1     -34.873   4.925   4.715  1.00 20.00    -0.366 OA
ENDROOT
BRANCH   4   7
HETATM    7  C2  UNL     1     -32.730   7.936   4.061  1.00 20.00    -0.085 C 
HETATM    8  C1  UNL     1     -32.236   9.016   4.683  1.00 20.00     0.014 C 
HETATM    9  C7  UNL     1     -32.210   7.479   2.730  1.00 20.00     0.043 C 
ENDBRANCH   4   7
TORSDOF 1
ENDMDL
MODEL 2
REMARK VINA RESULT:      -4.4      2.003      3.966
REMARK  1 active torsions:
REMARK  status: ('A' for Active; 'I' for Inactive)
REMARK    1  A    between atoms: C2_2  and  C6_6 
ROOT
HETATM    1  C3  UNL     1     -32.799   6.844   3.570  1.00 20.00     0.181 C 
HETATM    2  C4  UNL     1     -33.601   7.707   5.776  1.00 20.00     0.181 C 
HETATM    3  C5  UNL     1     -32.154   8.945   4.401  1.00 20.00     0.337 C 
HETATM    4  C6  UNL     1     -33.951   6.817   4.579  1.00 20.00     0.061 C 
HETATM    5  O8  UNL     1     -32.474   8.194   3.232  1.00 20.00    -0.366 OA
HETATM    6  O9  UNL     1     -33.236   9.013   5.327  1.00 20.00    -0.366 OA
ENDROOT
BRANCH   4   7
HETATM    7  C2  UNL     1     -34.280   5.422   5.004  1.00 20.00    -0.085 C 
HETATM    8  C1  UNL     1     -34.125   4.375   4.182  1.00 20.00     0.014 C 
HETATM    9  C7  UNL     1     -34.793   5.263   6.405  1.00 20.00     0.043 C 
ENDBRANCH   4   7
TORSDOF 1
ENDMDL
MODEL 3
REMARK VINA RESULT:      -4.4      2.010      3.807
REMARK  1 active torsions:
REMARK  status: ('A' for Active; 'I' for Inactive)
REMARK    1  A    between atoms: C2_2  and  C6_6 
ROOT
HETATM    1  C3  UNL     1     -32.843   6.801   3.609  1.00 20.00     0.181 C 
HETATM    2  C4  UNL     1     -33.579   7.752   5.801  1.00 20.00     0.181 C 
HETATM    3  C5  UNL     1     -32.130   8.909   4.359  1.00 20.00     0.337 C 
HETATM    4  C6  UNL     1     -33.975   6.834   4.640  1.00 20.00     0.061 C 
HETATM    5  O8  UNL     1     -32.492   8.130   3.221  1.00 20.00    -0.366 OA
HETATM    6  O9  UNL     1     -33.191   9.033   5.304  1.00 20.00    -0.366 OA
ENDROOT
BRANCH   4   7
HETATM    7  C2  UNL     1     -34.330   5.462   5.116  1.00 20.00    -0.085 C 
HETATM    8  C1  UNL     1     -34.851   5.245   6.332  1.00 20.00     0.014 C 
HETATM    9  C7  UNL     1     -34.072   4.342   4.151  1.00 20.00     0.043 C 
ENDBRANCH   4   7
TORSDOF 1
ENDMDL
MODEL 4
REMARK VINA RESULT:      -4.3      2.232      3.591
REMARK  1 active torsions:
REMARK  status: ('A' for Active; 'I' for Inactive)
REMARK    1  A    between atoms: C2_2  and  C6_6 
ROOT
HETATM    1  C3  UNL     1     -33.576   8.252   5.296  1.00 20.00     0.181 C 
HETATM    2  C4  UNL     1     -33.048   6.605   3.491  1.00 20.00     0.181 C 
HETATM    3  C5  UNL     1     -32.254   8.815   3.437  1.00 20.00     0.337 C 
HETATM    4  C6  UNL     1     -33.358   6.769   4.982  1.00 20.00     0.061 C 
HETATM    5  O8  UNL     1     -32.464   9.021   4.832  1.00 20.00    -0.366 OA
HETATM    6  O9  UNL     1     -31.963   7.456   3.117  1.00 20.00    -0.366 OA
ENDROOT
BRANCH   4   7
HETATM    7  C2  UNL     1     -34.529   5.938   5.398  1.00 20.00    -0.085 C 
HETATM    8  C1  UNL     1     -34.587   5.346   6.600  1.00 20.00     0.014 C 
HETATM    9  C7  UNL     1     -35.636   5.807   4.394  1.00 20.00     0.043 C 
ENDBRANCH   4   7
TORSDOF 1
ENDMDL
MODEL 5
REMARK VINA RESULT:      -4.2      0.481      1.695
REMARK  1 active torsions:
REMARK  status: ('A' for Active; 'I' for Inactive)
REMARK    1  A    between atoms: C2_2  and  C6_6 
ROOT
HETATM    1  C3  UNL     1     -33.928   5.717   3.851  1.00 20.00     0.181 C 
HETATM    2  C4  UNL     1     -33.863   7.115   5.923  1.00 20.00     0.181 C 
HETATM    3  C5  UNL     1     -35.168   5.169   5.769  1.00 20.00     0.337 C 
HETATM    4  C6  UNL     1     -33.066   6.659   4.697  1.00 20.00     0.061 C 
HETATM    5  O8  UNL     1     -34.434   4.654   4.660  1.00 20.00    -0.366 OA
HETATM    6  O9  UNL     1     -34.372   5.983   6.628  1.00 20.00    -0.366 OA
ENDROOT
BRANCH   4   7
HETATM    7  C2  UNL     1     -32.566   7.818   3.897  1.00 20.00    -0.085 C 
HETATM    8  C1  UNL     1     -32.409   9.036   4.435  1.00 20.00     0.014 C 
HETATM    9  C7  UNL     1     -32.248   7.540   2.458  1.00 20.00     0.043 C 
ENDBRANCH   4   7
TORSDOF 1
ENDMDL
MODEL 6
REMARK VINA RESULT:      -4.1      1.222      1.587
REMARK  1 active torsions:
REMARK  status: ('A' for Active; 'I' for Inactive)
REMARK    1  A    between atoms: C2_2  and  C6_6 
ROOT
HETATM    1  C3  UNL     1     -33.335   7.304   5.315  1.00 20.00     0.181 C 
HETATM    2  C4  UNL     1     -34.330   5.128   4.588  1.00 20.00     0.181 C 
HETATM    3  C5  UNL     1     -34.650   5.988   6.750  1.00 20.00     0.337 C 
HETATM    4  C6  UNL     1     -33.879   6.516   4.120  1.00 20.00     0.061 C 
HETATM    5  O8  UNL     1     -34.296   7.317   6.373  1.00 20.00    -0.366 OA
HETATM    6  O9  UNL     1     -35.240   5.250   5.682  1.00 20.00    -0.366 OA
ENDROOT
BRANCH   4   7
HETATM    7  C2  UNL     1     -32.878   6.429   3.014  1.00 20.00    -0.085 C 
HETATM    8  C1  UNL     1     -32.113   7.473   2.665  1.00 20.00     0.014 C 
HETATM    9  C7  UNL     1     -32.776   5.103   2.318  1.00 20.00     0.043 C 
ENDBRANCH   4   7
TORSDOF 1
ENDMDL
MODEL 7
REMARK VINA RESULT:      -4.1      2.183      3.876
REMARK  1 active torsions:
REMARK  status: ('A' for Active; 'I' for Inactive)
REMARK    1  A    between atoms: C2_2  and  C6_6 
ROOT
HETATM    1  C3  UNL     1     -33.009   6.176   3.433  1.00 20.00     0.181 C 
HETATM    2  C4  UNL     1     -32.955   8.228   4.861  1.00 20.00     0.181 C 
HETATM    3  C5  UNL     1     -31.698   8.047   2.885  1.00 20.00     0.337 C 
HETATM    4  C6  UNL     1     -33.814   7.045   4.404  1.00 20.00     0.061 C 
HETATM    5  O8  UNL     1     -32.490   6.979   2.371  1.00 20.00    -0.366 OA
HETATM    6  O9  UNL     1     -32.439   8.927   3.728  1.00 20.00    -0.366 OA
ENDROOT
BRANCH   4   7
HETATM    7  C2  UNL     1     -34.324   6.251   5.563  1.00 20.00    -0.085 C 
HETATM    8  C1  UNL     1     -34.405   6.768   6.797  1.00 20.00     0.014 C 
HETATM    9  C7  UNL     1     -34.742   4.841   5.264  1.00 20.00     0.043 C 
ENDBRANCH   4   7
TORSDOF 1
ENDMDL
MODEL 8
REMARK VINA RESULT:      -3.8     16.072     16.638
REMARK  1 active torsions:
REMARK  status: ('A' for Active; 'I' for Inactive)
REMARK    1  A    between atoms: C2_2  and  C6_6 
ROOT
HETATM    1  C3  UNL     1     -22.319  17.401   9.741  1.00 20.00     0.181 C 
HETATM    2  C4  UNL     1     -23.652  19.263   8.738  1.00 20.00     0.181 C 
HETATM    3  C5  UNL     1     -21.892  18.223   7.582  1.00 20.00     0.337 C 
HETATM    4  C6  UNL     1     -23.691  18.081   9.711  1.00 20.00     0.061 C 
HETATM    5  O8  UNL     1     -21.908  17.065   8.414  1.00 20.00    -0.366 OA
HETATM    6  O9  UNL     1     -23.175  18.834   7.462  1.00 20.00    -0.366 OA
ENDROOT
BRANCH   4   7
HETATM    7  C2  UNL     1     -24.129  18.502  11.077  1.00 20.00    -0.085 C 
HETATM    8  C1  UNL     1     -25.391  18.871  11.335  1.00 20.00     0.014 C 
HETATM    9  C7  UNL     1     -23.073  18.486  12.143  1.00 20.00     0.043 C 
ENDBRANCH   4   7
TORSDOF 1
ENDMDL
MODEL 9
REMARK VINA RESULT:      -3.7      1.285      1.882
REMARK  1 active torsions:
REMARK  status: ('A' for Active; 'I' for Inactive)
REMARK    1  A    between atoms: C2_2  and  C6_6 
ROOT
HETATM    1  C3  UNL     1     -34.388   5.866   5.529  1.00 20.00     0.181 C 
HETATM    2  C4  UNL     1     -32.923   6.250   3.539  1.00 20.00     0.181 C 
HETATM    3  C5  UNL     1     -33.829   4.140   4.036  1.00 20.00     0.337 C 
HETATM    4  C6  UNL     1     -33.944   6.893   4.482  1.00 20.00     0.061 C 
HETATM    5  O8  UNL     1     -34.843   4.675   4.885  1.00 20.00    -0.366 OA
HETATM    6  O9  UNL     1     -33.451   5.039   2.995  1.00 20.00    -0.366 OA
ENDROOT
BRANCH   4   7
HETATM    7  C2  UNL     1     -33.405   8.133   5.119  1.00 20.00    -0.085 C 
HETATM    8  C1  UNL     1     -33.940   8.648   6.235  1.00 20.00     0.014 C 
HETATM    9  C7  UNL     1     -32.228   8.767   4.438  1.00 20.00     0.043 C 
ENDBRANCH   4   7
TORSDOF 1
ENDMDL
