MODEL 1
REMARK VINA RESULT:      -5.5      0.000      0.000
REMARK  0 active torsions:
REMARK  status: ('A' for Active; 'I' for Inactive)
ROOT
HETATM    1  C1  UNL     1     -33.622   5.902   6.617  1.00 20.00     0.001 C 
HETATM    2  C2  UNL     1     -34.715   5.099   5.885  1.00 20.00     0.005 C 
HETATM    3  C3  UNL     1     -33.638   4.994   3.540  1.00 20.00     0.005 C 
HETATM    4  C4  UNL     1     -32.794   6.150   2.962  1.00 20.00     0.006 C 
HETATM    5  C5  UNL     1     -33.650   7.406   6.289  1.00 20.00     0.010 C 
HETATM    6  C6  UNL     1     -35.065   6.967   4.269  1.00 20.00     0.014 C 
HETATM    7  C7  UNL     1     -33.054   8.605   3.979  1.00 20.00     0.015 A 
HETATM    8  C8  UNL     1     -34.866   5.451   4.382  1.00 20.00    -0.014 C 
HETATM    9  C9  UNL     1     -32.546   7.187   4.015  1.00 20.00    -0.005 A 
HETATM   10  C10 UNL     1     -33.786   7.575   4.798  1.00 20.00    -0.036 A 
ENDROOT
TORSDOF 0
ENDMDL
MODEL 2
REMARK VINA RESULT:      -4.3      0.793      3.380
REMARK  0 active torsions:
REMARK  status: ('A' for Active; 'I' for Inactive)
ROOT
HETATM    1  C1  UNL     1     -32.229   6.479   3.204  1.00 20.00     0.001 C 
HETATM    2  C2  UNL     1     -32.561   7.970   3.413  1.00 20.00     0.005 C 
HETATM    3  C3  UNL     1     -33.123   7.910   5.934  1.00 20.00     0.005 C 
HETATM    4  C4  UNL     1     -33.819   6.703   6.599  1.00 20.00     0.006 C 
HETATM    5  C5  UNL     1     -33.479   5.583   3.135  1.00 20.00     0.010 C 
HETATM    6  C6  UNL     1     -34.870   7.395   4.161  1.00 20.00     0.014 C 
HETATM    7  C7  UNL     1     -35.190   4.978   5.093  1.00 20.00     0.015 A 
HETATM    8  C8  UNL     1     -33.635   8.237   4.500  1.00 20.00    -0.014 C 
HETATM    9  C9  UNL     1     -33.911   5.560   5.635  1.00 20.00    -0.005 A 
HETATM   10  C10 UNL     1     -34.409   5.959   4.259  1.00 20.00    -0.036 A 
ENDROOT
TORSDOF 0
ENDMDL
MODEL 3
REMARK VINA RESULT:      -4.1      0.952      2.296
REMARK  0 active torsions:
REMARK  status: ('A' for Active; 'I' for Inactive)
ROOT
HETATM    1  C1  UNL     1     -32.908   7.634   5.584  1.00 20.00     0.001 C 
HETATM    2  C2  UNL     1     -34.243   7.328   6.291  1.00 20.00     0.005 C 
HETATM    3  C3  UNL     1     -34.280   4.762   5.993  1.00 20.00     0.005 C 
HETATM    4  C4  UNL     1     -33.716   4.065   4.737  1.00 20.00     0.006 C 
HETATM    5  C5  UNL     1     -33.010   7.587   4.048  1.00 20.00     0.010 C 
HETATM    6  C6  UNL     1     -35.170   6.330   4.201  1.00 20.00     0.014 C 
HETATM    7  C7  UNL     1     -33.409   5.462   2.482  1.00 20.00     0.015 A 
HETATM    8  C8  UNL     1     -35.008   6.110   5.710  1.00 20.00    -0.014 C 
HETATM    9  C9  UNL     1     -32.996   5.056   3.873  1.00 20.00    -0.005 A 
HETATM   10  C10 UNL     1     -33.764   6.345   3.649  1.00 20.00    -0.036 A 
ENDROOT
TORSDOF 0
ENDMDL
MODEL 4
REMARK VINA RESULT:      -4.0      0.942      2.109
REMARK  0 active torsions:
REMARK  status: ('A' for Active; 'I' for Inactive)
ROOT
HETATM    1  C1  UNL     1     -33.490   4.215   5.203  1.00 20.00     0.001 C 
HETATM    2  C2  UNL     1     -33.865   4.481   3.732  1.00 20.00     0.005 C 
HETATM    3  C3  UNL     1     -32.742   6.789   3.439  1.00 20.00     0.005 C 
HETATM    4  C4  UNL     1     -32.670   7.827   4.580  1.00 20.00     0.006 C 
HETATM    5  C5  UNL     1     -34.349   5.012   6.202  1.00 20.00     0.010 C 
HETATM    6  C6  UNL     1     -35.093   6.555   4.375  1.00 20.00     0.014 C 
HETATM    7  C7  UNL     1     -34.368   7.647   6.633  1.00 20.00     0.015 A 
HETATM    8  C8  UNL     1     -34.071   5.980   3.388  1.00 20.00    -0.014 C 
HETATM    9  C9  UNL     1     -33.144   7.219   5.865  1.00 20.00    -0.005 A 
HETATM   10  C10 UNL     1     -34.440   6.441   5.733  1.00 20.00    -0.036 A 
ENDROOT
TORSDOF 0
ENDMDL
MODEL 5
REMARK VINA RESULT:      -3.9      8.599     10.107
REMARK  0 active torsions:
REMARK  status: ('A' for Active; 'I' for Inactive)
ROOT
HETATM    1  C1  UNL     1     -40.641   7.268  -0.125  1.00 20.00     0.001 C 
HETATM    2  C2  UNL     1     -41.862   8.109  -0.549  1.00 20.00     0.005 C 
HETATM    3  C3  UNL     1     -43.399   7.636   1.473  1.00 20.00     0.005 C 
HETATM    4  C4  UNL     1     -43.417   6.274   2.200  1.00 20.00     0.006 C 
HETATM    5  C5  UNL     1     -40.839   5.757  -0.342  1.00 20.00     0.010 C 
HETATM    6  C6  UNL     1     -43.315   6.081  -0.536  1.00 20.00     0.014 C 
HETATM    7  C7  UNL     1     -42.488   4.103   0.954  1.00 20.00     0.015 A 
HETATM    8  C8  UNL     1     -43.223   7.539  -0.071  1.00 20.00    -0.014 C 
HETATM    9  C9  UNL     1     -42.308   5.402   1.697  1.00 20.00    -0.005 A 
HETATM   10  C10 UNL     1     -42.196   5.365   0.184  1.00 20.00    -0.036 A 
ENDROOT
TORSDOF 0
ENDMDL
MODEL 6
REMARK VINA RESULT:      -3.7     12.474     14.010
REMARK  0 active torsions:
REMARK  status: ('A' for Active; 'I' for Inactive)
ROOT
HETATM    1  C1  UNL     1     -35.924  18.866  -2.730  1.00 20.00     0.001 C 
HETATM    2  C2  UNL     1     -35.488  18.908  -4.207  1.00 20.00     0.005 C 
HETATM    3  C3  UNL     1     -34.129  16.713  -4.290  1.00 20.00     0.005 C 
HETATM    4  C4  UNL     1     -33.298  16.206  -3.092  1.00 20.00     0.006 C 
HETATM    5  C5  UNL     1     -34.801  19.259  -1.752  1.00 20.00     0.010 C 
HETATM    6  C6  UNL     1     -33.084  18.905  -3.540  1.00 20.00     0.014 C 
HETATM    7  C7  UNL     1     -32.564  17.918  -1.180  1.00 20.00     0.015 A 
HETATM    8  C8  UNL     1     -34.106  18.258  -4.482  1.00 20.00    -0.014 C 
HETATM    9  C9  UNL     1     -33.571  17.044  -1.879  1.00 20.00    -0.005 A 
HETATM   10  C10 UNL     1     -33.539  18.536  -2.147  1.00 20.00    -0.036 A 
ENDROOT
TORSDOF 0
ENDMDL
MODEL 7
REMARK VINA RESULT:      -3.7      8.549      9.959
REMARK  0 active torsions:
REMARK  status: ('A' for Active; 'I' for Inactive)
ROOT
HETATM    1  C1  UNL     1     -43.408   4.730  -0.866  1.00 20.00     0.001 C 
HETATM    2  C2  UNL     1     -43.333   4.128   0.551  1.00 20.00     0.005 C 
HETATM    3  C3  UNL     1     -43.417   6.314   1.925  1.00 20.00     0.005 C 
HETATM    4  C4  UNL     1     -42.761   7.624   1.439  1.00 20.00     0.006 C 
HETATM    5  C5  UNL     1     -42.076   5.343  -1.336  1.00 20.00     0.010 C 
HETATM    6  C6  UNL     1     -41.231   5.385   1.021  1.00 20.00     0.014 C 
HETATM    7  C7  UNL     1     -40.846   7.529  -0.419  1.00 20.00     0.015 A 
HETATM    8  C8  UNL     1     -42.609   5.026   1.588  1.00 20.00    -0.014 C 
HETATM    9  C9  UNL     1     -42.285   7.473   0.026  1.00 20.00    -0.005 A 
HETATM   10  C10 UNL     1     -41.513   6.192  -0.226  1.00 20.00    -0.036 A 
ENDROOT
TORSDOF 0
ENDMDL
MODEL 8
REMARK VINA RESULT:      -3.4      8.484      9.528
REMARK  0 active torsions:
REMARK  status: ('A' for Active; 'I' for Inactive)
ROOT
HETATM    1  C1  UNL     1     -43.057   5.393   2.067  1.00 20.00     0.001 C 
HETATM    2  C2  UNL     1     -43.327   4.541   0.812  1.00 20.00     0.005 C 
HETATM    3  C3  UNL     1     -41.137   5.011  -0.475  1.00 20.00     0.005 C 
HETATM    4  C4  UNL     1     -40.418   6.376  -0.418  1.00 20.00     0.006 C 
HETATM    5  C5  UNL     1     -43.253   6.902   1.832  1.00 20.00     0.010 C 
HETATM    6  C6  UNL     1     -43.147   6.557  -0.647  1.00 20.00     0.014 C 
HETATM    7  C7  UNL     1     -41.774   8.548   0.337  1.00 20.00     0.015 A 
HETATM    8  C8  UNL     1     -42.692   5.102  -0.487  1.00 20.00    -0.014 C 
HETATM    9  C9  UNL     1     -41.054   7.255   0.616  1.00 20.00    -0.005 A 
HETATM   10  C10 UNL     1     -42.569   7.286   0.545  1.00 20.00    -0.036 A 
ENDROOT
TORSDOF 0
ENDMDL
MODEL 9
REMARK VINA RESULT:      -3.3     11.959     13.514
REMARK  0 active torsions:
REMARK  status: ('A' for Active; 'I' for Inactive)
ROOT
HETATM    1  C1  UNL     1     -27.466  -0.883  10.082  1.00 20.00     0.001 C 
HETATM    2  C2  UNL     1     -27.221  -0.338  11.503  1.00 20.00     0.005 C 
HETATM    3  C3  UNL     1     -24.747  -1.026  11.779  1.00 20.00     0.005 C 
HETATM    4  C4  UNL     1     -24.176  -2.326  11.175  1.00 20.00     0.006 C 
HETATM    5  C5  UNL     1     -27.652  -2.411  10.042  1.00 20.00     0.010 C 
HETATM    6  C6  UNL     1     -26.648  -2.621  12.327  1.00 20.00     0.014 C 
HETATM    7  C7  UNL     1     -25.834  -4.310  10.511  1.00 20.00     0.015 A 
HETATM    8  C8  UNL     1     -26.197  -1.156  12.332  1.00 20.00    -0.014 C 
HETATM    9  C9  UNL     1     -25.188  -2.970  10.276  1.00 20.00    -0.005 A 
HETATM   10  C10 UNL     1     -26.577  -3.053  10.881  1.00 20.00    -0.036 A 
ENDROOT
TORSDOF 0
ENDMDL
