MODEL 1
REMARK VINA RESULT:      -4.1      0.000      0.000
REMARK  1 active torsions:
REMARK  status: ('A' for Active; 'I' for Inactive)
REMARK    1  A    between atoms: C2_2  and  C4_4 
ROOT
HETATM    1  C1  UNL     1     -33.423   7.526   4.643  1.00 20.00    -0.010 C 
HETATM    2  C2  UNL     1     -33.723   6.305   4.174  1.00 20.00     0.021 C 
HETATM    3  C3  UNL     1     -32.383   8.461   4.116  1.00 20.00     0.037 C 
HETATM    4 CL5  UNL     1     -32.878   5.722   2.766  1.00 20.00    -0.088 Cl
ENDROOT
BRANCH   2   5
HETATM    5  C4  UNL     1     -34.765   5.370   4.702  1.00 20.00     0.165 C 
HETATM    6 CL6  UNL     1     -34.756   5.373   6.480  1.00 20.00    -0.125 Cl
ENDBRANCH   2   5
TORSDOF 1
ENDMDL
MODEL 2
REMARK VINA RESULT:      -4.1      0.988      2.455
REMARK  1 active torsions:
REMARK  status: ('A' for Active; 'I' for Inactive)
REMARK    1  A    between atoms: C2_2  and  C4_4 
ROOT
HETATM    1  C1  UNL     1     -32.897   7.715   4.238  1.00 20.00    -0.010 C 
HETATM    2  C2  UNL     1     -33.694   6.769   4.762  1.00 20.00     0.021 C 
HETATM    3  C3  UNL     1     -32.420   8.961   4.910  1.00 20.00     0.037 C 
HETATM    4 CL5  UNL     1     -34.210   6.937   6.417  1.00 20.00    -0.088 Cl
ENDROOT
BRANCH   2   5
HETATM    5  C4  UNL     1     -34.171   5.521   4.088  1.00 20.00     0.165 C 
HETATM    6 CL6  UNL     1     -33.110   5.111   2.722  1.00 20.00    -0.125 Cl
ENDBRANCH   2   5
TORSDOF 1
ENDMDL
MODEL 3
REMARK VINA RESULT:      -4.0      1.881      3.016
REMARK  1 active torsions:
REMARK  status: ('A' for Active; 'I' for Inactive)
REMARK    1  A    between atoms: C2_2  and  C4_4 
ROOT
HETATM    1  C1  UNL     1     -34.017   6.664   5.405  1.00 20.00    -0.010 C 
HETATM    2  C2  UNL     1     -33.370   6.732   4.231  1.00 20.00     0.021 C 
HETATM    3  C3  UNL     1     -34.799   5.506   5.935  1.00 20.00     0.037 C 
HETATM    4 CL5  UNL     1     -33.362   5.326   3.202  1.00 20.00    -0.088 Cl
ENDROOT
BRANCH   2   5
HETATM    5  C4  UNL     1     -32.586   7.892   3.701  1.00 20.00     0.165 C 
HETATM    6 CL6  UNL     1     -32.302   9.085   4.988  1.00 20.00    -0.125 Cl
ENDBRANCH   2   5
TORSDOF 1
ENDMDL
MODEL 4
REMARK VINA RESULT:      -3.9      2.023      3.123
REMARK  1 active torsions:
REMARK  status: ('A' for Active; 'I' for Inactive)
REMARK    1  A    between atoms: C2_2  and  C4_4 
ROOT
HETATM    1  C1  UNL     1     -33.821   6.641   5.091  1.00 20.00    -0.010 C 
HETATM    2  C2  UNL     1     -32.976   7.347   4.324  1.00 20.00     0.021 C 
HETATM    3  C3  UNL     1     -34.291   6.989   6.467  1.00 20.00     0.037 C 
HETATM    4 CL5  UNL     1     -32.378   8.869   4.925  1.00 20.00    -0.088 Cl
ENDROOT
BRANCH   2   5
HETATM    5  C4  UNL     1     -32.506   6.998   2.946  1.00 20.00     0.165 C 
HETATM    6 CL6  UNL     1     -32.880   5.299   2.578  1.00 20.00    -0.125 Cl
ENDBRANCH   2   5
TORSDOF 1
ENDMDL
MODEL 5
REMARK VINA RESULT:      -3.8      1.300      3.666
REMARK  1 active torsions:
REMARK  status: ('A' for Active; 'I' for Inactive)
REMARK    1  A    between atoms: C2_2  and  C4_4 
ROOT
HETATM    1  C1  UNL     1     -34.063   6.019   4.326  1.00 20.00    -0.010 C 
HETATM    2  C2  UNL     1     -33.622   7.130   4.937  1.00 20.00     0.021 C 
HETATM    3  C3  UNL     1     -34.874   4.921   4.934  1.00 20.00     0.037 C 
HETATM    4 CL5  UNL     1     -34.063   7.397   6.601  1.00 20.00    -0.088 Cl
ENDROOT
BRANCH   2   5
HETATM    5  C4  UNL     1     -32.810   8.230   4.327  1.00 20.00     0.165 C 
HETATM    6 CL6  UNL     1     -32.140   7.710   2.765  1.00 20.00    -0.125 Cl
ENDBRANCH   2   5
TORSDOF 1
ENDMDL
MODEL 6
REMARK VINA RESULT:      -3.8      1.229      1.329
REMARK  1 active torsions:
REMARK  status: ('A' for Active; 'I' for Inactive)
REMARK    1  A    between atoms: C2_2  and  C4_4 
ROOT
HETATM    1  C1  UNL     1     -32.955   8.296   4.574  1.00 20.00    -0.010 C 
HETATM    2  C2  UNL     1     -33.541   7.162   4.989  1.00 20.00     0.021 C 
HETATM    3  C3  UNL     1     -32.425   8.586   3.207  1.00 20.00     0.037 C 
HETATM    4 CL5  UNL     1     -33.787   5.881   3.835  1.00 20.00    -0.088 Cl
ENDROOT
BRANCH   2   5
HETATM    5  C4  UNL     1     -34.071   6.873   6.358  1.00 20.00     0.165 C 
HETATM    6 CL6  UNL     1     -34.785   5.246   6.414  1.00 20.00    -0.125 Cl
ENDBRANCH   2   5
TORSDOF 1
ENDMDL
MODEL 7
REMARK VINA RESULT:      -3.7      1.531      2.221
REMARK  1 active torsions:
REMARK  status: ('A' for Active; 'I' for Inactive)
REMARK    1  A    between atoms: C2_2  and  C4_4 
ROOT
HETATM    1  C1  UNL     1     -33.576   5.686   3.781  1.00 20.00    -0.010 C 
HETATM    2  C2  UNL     1     -33.379   6.825   4.464  1.00 20.00     0.021 C 
HETATM    3  C3  UNL     1     -32.945   5.296   2.484  1.00 20.00     0.037 C 
HETATM    4 CL5  UNL     1     -32.231   7.980   3.845  1.00 20.00    -0.088 Cl
ENDROOT
BRANCH   2   5
HETATM    5  C4  UNL     1     -34.012   7.216   5.763  1.00 20.00     0.165 C 
HETATM    6 CL6  UNL     1     -34.699   5.789   6.570  1.00 20.00    -0.125 Cl
ENDBRANCH   2   5
TORSDOF 1
ENDMDL
MODEL 8
REMARK VINA RESULT:      -3.7      1.983      3.011
REMARK  1 active torsions:
REMARK  status: ('A' for Active; 'I' for Inactive)
REMARK    1  A    between atoms: C2_2  and  C4_4 
ROOT
HETATM    1  C1  UNL     1     -32.969   6.379   3.407  1.00 20.00    -0.010 C 
HETATM    2  C2  UNL     1     -33.705   6.606   4.506  1.00 20.00     0.021 C 
HETATM    3  C3  UNL     1     -32.962   5.141   2.570  1.00 20.00     0.037 C 
HETATM    4 CL5  UNL     1     -34.831   5.381   5.023  1.00 20.00    -0.088 Cl
ENDROOT
BRANCH   2   5
HETATM    5  C4  UNL     1     -33.712   7.847   5.343  1.00 20.00     0.165 C 
HETATM    6 CL6  UNL     1     -32.351   8.900   4.899  1.00 20.00    -0.125 Cl
ENDBRANCH   2   5
TORSDOF 1
ENDMDL
MODEL 9
REMARK VINA RESULT:      -3.2      2.270      3.766
REMARK  1 active torsions:
REMARK  status: ('A' for Active; 'I' for Inactive)
REMARK    1  A    between atoms: C2_2  and  C4_4 
ROOT
HETATM    1  C1  UNL     1     -32.637   8.323   3.959  1.00 20.00    -0.010 C 
HETATM    2  C2  UNL     1     -32.481   7.605   2.835  1.00 20.00     0.021 C 
HETATM    3  C3  UNL     1     -33.091   7.820   5.291  1.00 20.00     0.037 C 
HETATM    4 CL5  UNL     1     -32.769   5.888   2.897  1.00 20.00    -0.088 Cl
ENDROOT
BRANCH   2   5
HETATM    5  C4  UNL     1     -32.026   8.109   1.502  1.00 20.00     0.165 C 
HETATM    6 CL6  UNL     1     -32.837   9.642   1.111  1.00 20.00    -0.125 Cl
ENDBRANCH   2   5
TORSDOF 1
ENDMDL
