MODEL 1
REMARK VINA RESULT:      -3.0      0.000      0.000
REMARK  0 active torsions:
REMARK  status: ('A' for Active; 'I' for Inactive)
ROOT
HETATM    1  C1  UNL     1     -34.620   5.710   6.244  1.00 20.00     0.128 C 
HETATM    2  C2  UNL     1     -34.627   5.136   4.867  1.00 20.00     0.234 C 
HETATM    3  N3  UNL     1     -34.115   6.881   6.425  1.00 20.00    -0.203 NA
HETATM    4  O4  UNL     1     -33.873   6.050   4.090  1.00 20.00    -0.295 OA
HETATM    5  S5  UNL     1     -33.582   7.453   4.943  1.00 20.00     0.137 SA
ENDROOT
TORSDOF 0
ENDMDL
MODEL 2
REMARK VINA RESULT:      -2.9      1.754      1.815
REMARK  0 active torsions:
REMARK  status: ('A' for Active; 'I' for Inactive)
ROOT
HETATM    1  C1  UNL     1     -34.117   6.885   6.416  1.00 20.00     0.128 C 
HETATM    2  C2  UNL     1     -33.414   7.420   5.214  1.00 20.00     0.234 C 
HETATM    3  N3  UNL     1     -34.743   5.763   6.320  1.00 20.00    -0.203 NA
HETATM    4  O4  UNL     1     -33.786   6.549   4.160  1.00 20.00    -0.295 OA
HETATM    5  S5  UNL     1     -34.559   5.197   4.755  1.00 20.00     0.137 SA
ENDROOT
TORSDOF 0
ENDMDL
MODEL 3
REMARK VINA RESULT:      -2.9      1.695      1.864
REMARK  0 active torsions:
REMARK  status: ('A' for Active; 'I' for Inactive)
ROOT
HETATM    1  C1  UNL     1     -34.636   5.440   6.235  1.00 20.00     0.128 C 
HETATM    2  C2  UNL     1     -34.046   6.810   6.221  1.00 20.00     0.234 C 
HETATM    3  N3  UNL     1     -34.656   4.761   5.140  1.00 20.00    -0.203 NA
HETATM    4  O4  UNL     1     -33.784   7.076   4.853  1.00 20.00    -0.295 OA
HETATM    5  S5  UNL     1     -33.954   5.693   3.938  1.00 20.00     0.137 SA
ENDROOT
TORSDOF 0
ENDMDL
MODEL 4
REMARK VINA RESULT:      -2.9      1.586      1.843
REMARK  0 active torsions:
REMARK  status: ('A' for Active; 'I' for Inactive)
ROOT
HETATM    1  C1  UNL     1     -34.544   5.079   4.916  1.00 20.00     0.128 C 
HETATM    2  C2  UNL     1     -34.648   5.485   6.348  1.00 20.00     0.234 C 
HETATM    3  N3  UNL     1     -34.050   5.915   4.068  1.00 20.00    -0.203 NA
HETATM    4  O4  UNL     1     -34.286   6.855   6.362  1.00 20.00    -0.295 OA
HETATM    5  S5  UNL     1     -33.637   7.312   4.896  1.00 20.00     0.137 SA
ENDROOT
TORSDOF 0
ENDMDL
MODEL 5
REMARK VINA RESULT:      -2.8      2.251      2.393
REMARK  0 active torsions:
REMARK  status: ('A' for Active; 'I' for Inactive)
ROOT
HETATM    1  C1  UNL     1     -33.567   7.332   5.166  1.00 20.00     0.128 C 
HETATM    2  C2  UNL     1     -34.166   7.014   6.495  1.00 20.00     0.234 C 
HETATM    3  N3  UNL     1     -33.736   6.501   4.195  1.00 20.00    -0.203 NA
HETATM    4  O4  UNL     1     -34.670   5.697   6.359  1.00 20.00    -0.295 OA
HETATM    5  S5  UNL     1     -34.652   5.218   4.762  1.00 20.00     0.137 SA
ENDROOT
TORSDOF 0
ENDMDL
MODEL 6
REMARK VINA RESULT:      -2.8      1.222      1.323
REMARK  0 active torsions:
REMARK  status: ('A' for Active; 'I' for Inactive)
ROOT
HETATM    1  C1  UNL     1     -34.605   4.911   5.129  1.00 20.00     0.128 C 
HETATM    2  C2  UNL     1     -34.090   5.732   3.994  1.00 20.00     0.234 C 
HETATM    3  N3  UNL     1     -34.610   5.422   6.312  1.00 20.00    -0.203 NA
HETATM    4  O4  UNL     1     -33.559   6.897   4.603  1.00 20.00    -0.295 OA
HETATM    5  S5  UNL     1     -33.996   6.977   6.210  1.00 20.00     0.137 SA
ENDROOT
TORSDOF 0
ENDMDL
MODEL 7
REMARK VINA RESULT:      -2.6      2.545      2.545
REMARK  0 active torsions:
REMARK  status: ('A' for Active; 'I' for Inactive)
ROOT
HETATM    1  C1  UNL     1     -32.634   8.430   4.543  1.00 20.00     0.128 C 
HETATM    2  C2  UNL     1     -32.238   7.489   3.455  1.00 20.00     0.234 C 
HETATM    3  N3  UNL     1     -33.568   8.080   5.357  1.00 20.00    -0.203 NA
HETATM    4  O4  UNL     1     -33.185   6.437   3.526  1.00 20.00    -0.295 OA
HETATM    5  S5  UNL     1     -34.094   6.551   4.919  1.00 20.00     0.137 SA
ENDROOT
TORSDOF 0
ENDMDL
MODEL 8
REMARK VINA RESULT:      -2.6      1.977      1.977
REMARK  0 active torsions:
REMARK  status: ('A' for Active; 'I' for Inactive)
ROOT
HETATM    1  C1  UNL     1     -33.546   7.743   5.482  1.00 20.00     0.128 C 
HETATM    2  C2  UNL     1     -34.132   6.541   4.819  1.00 20.00     0.234 C 
HETATM    3  N3  UNL     1     -32.600   8.382   4.885  1.00 20.00    -0.203 NA
HETATM    4  O4  UNL     1     -33.313   6.321   3.683  1.00 20.00    -0.295 OA
HETATM    5  S5  UNL     1     -32.294   7.615   3.427  1.00 20.00     0.137 SA
ENDROOT
TORSDOF 0
ENDMDL
MODEL 9
REMARK VINA RESULT:      -2.5      3.015      3.152
REMARK  0 active torsions:
REMARK  status: ('A' for Active; 'I' for Inactive)
ROOT
HETATM    1  C1  UNL     1     -32.267   7.676   3.597  1.00 20.00     0.128 C 
HETATM    2  C2  UNL     1     -32.496   8.589   4.756  1.00 20.00     0.234 C 
HETATM    3  N3  UNL     1     -32.993   6.617   3.490  1.00 20.00    -0.203 NA
HETATM    4  O4  UNL     1     -33.425   7.904   5.577  1.00 20.00    -0.295 OA
HETATM    5  S5  UNL     1     -34.060   6.584   4.780  1.00 20.00     0.137 SA
ENDROOT
TORSDOF 0
ENDMDL
