MODEL 1
REMARK VINA RESULT:      -4.4      0.000      0.000
REMARK  0 active torsions:
REMARK  status: ('A' for Active; 'I' for Inactive)
ROOT
HETATM    1  C1  UNL     1     -35.308   6.177   4.202  1.00 20.00     0.036 A 
HETATM    2  C2  UNL     1     -34.172   6.682   5.065  1.00 20.00    -0.025 A 
HETATM    3  C3  UNL     1     -33.978   5.461   4.155  1.00 20.00     0.041 A 
HETATM    4  C4  UNL     1     -34.271   6.480   6.558  1.00 20.00     0.016 C 
HETATM    5  C5  UNL     1     -33.548   8.007   4.694  1.00 20.00     0.016 C 
HETATM    6  C6  UNL     1     -33.886   4.073   4.725  1.00 20.00     0.033 C 
HETATM    7 CL7  UNL     1     -33.016   5.657   2.664  1.00 20.00    -0.119 Cl
ENDROOT
TORSDOF 0
ENDMDL
MODEL 2
REMARK VINA RESULT:      -4.2      1.752      3.182
REMARK  0 active torsions:
REMARK  status: ('A' for Active; 'I' for Inactive)
ROOT
HETATM    1  C1  UNL     1     -35.234   6.264   4.044  1.00 20.00     0.036 A 
HETATM    2  C2  UNL     1     -33.926   5.504   4.046  1.00 20.00    -0.025 A 
HETATM    3  C3  UNL     1     -34.099   6.763   4.909  1.00 20.00     0.041 A 
HETATM    4  C4  UNL     1     -33.064   5.571   2.809  1.00 20.00     0.016 C 
HETATM    5  C5  UNL     1     -33.911   4.140   4.697  1.00 20.00     0.016 C 
HETATM    6  C6  UNL     1     -33.428   8.056   4.539  1.00 20.00     0.033 C 
HETATM    7 CL7  UNL     1     -34.289   6.565   6.672  1.00 20.00    -0.119 Cl
ENDROOT
TORSDOF 0
ENDMDL
MODEL 3
REMARK VINA RESULT:      -4.1      1.400      1.604
REMARK  0 active torsions:
REMARK  status: ('A' for Active; 'I' for Inactive)
ROOT
HETATM    1  C1  UNL     1     -35.160   6.586   4.279  1.00 20.00     0.036 A 
HETATM    2  C2  UNL     1     -34.285   6.208   5.454  1.00 20.00    -0.025 A 
HETATM    3  C3  UNL     1     -33.684   6.356   4.049  1.00 20.00     0.041 A 
HETATM    4  C4  UNL     1     -34.448   4.829   6.046  1.00 20.00     0.016 C 
HETATM    5  C5  UNL     1     -34.027   7.267   6.501  1.00 20.00     0.016 C 
HETATM    6  C6  UNL     1     -33.258   5.152   3.256  1.00 20.00     0.033 C 
HETATM    7 CL7  UNL     1     -32.695   7.799   3.696  1.00 20.00    -0.119 Cl
ENDROOT
TORSDOF 0
ENDMDL
MODEL 4
REMARK VINA RESULT:      -4.0      1.597      2.424
REMARK  0 active torsions:
REMARK  status: ('A' for Active; 'I' for Inactive)
ROOT
HETATM    1  C1  UNL     1     -34.502   7.872   4.149  1.00 20.00     0.036 A 
HETATM    2  C2  UNL     1     -33.007   7.657   4.232  1.00 20.00    -0.025 A 
HETATM    3  C3  UNL     1     -33.971   6.738   4.996  1.00 20.00     0.041 A 
HETATM    4  C4  UNL     1     -32.186   8.665   4.998  1.00 20.00     0.016 C 
HETATM    5  C5  UNL     1     -32.305   7.151   2.993  1.00 20.00     0.016 C 
HETATM    6  C6  UNL     1     -34.111   6.828   6.490  1.00 20.00     0.033 C 
HETATM    7 CL7  UNL     1     -34.238   5.085   4.378  1.00 20.00    -0.119 Cl
ENDROOT
TORSDOF 0
ENDMDL
MODEL 5
REMARK VINA RESULT:      -3.4     16.649     17.429
REMARK  0 active torsions:
REMARK  status: ('A' for Active; 'I' for Inactive)
ROOT
HETATM    1  C1  UNL     1     -23.793  17.203  10.531  1.00 20.00     0.036 A 
HETATM    2  C2  UNL     1     -24.423  18.578  10.562  1.00 20.00    -0.025 A 
HETATM    3  C3  UNL     1     -22.940  18.391  10.913  1.00 20.00     0.041 A 
HETATM    4  C4  UNL     1     -25.409  18.883  11.664  1.00 20.00     0.016 C 
HETATM    5  C5  UNL     1     -24.813  19.198   9.239  1.00 20.00     0.016 C 
HETATM    6  C6  UNL     1     -22.457  18.504  12.332  1.00 20.00     0.033 C 
HETATM    7 CL7  UNL     1     -21.713  18.911   9.725  1.00 20.00    -0.119 Cl
ENDROOT
TORSDOF 0
ENDMDL
MODEL 6
REMARK VINA RESULT:      -3.4     16.468     17.489
REMARK  0 active torsions:
REMARK  status: ('A' for Active; 'I' for Inactive)
ROOT
HETATM    1  C1  UNL     1     -23.615  17.199  10.498  1.00 20.00     0.036 A 
HETATM    2  C2  UNL     1     -23.599  18.312  11.522  1.00 20.00    -0.025 A 
HETATM    3  C3  UNL     1     -23.584  18.633  10.021  1.00 20.00     0.041 A 
HETATM    4  C4  UNL     1     -22.341  18.513  12.332  1.00 20.00     0.016 C 
HETATM    5  C5  UNL     1     -24.857  18.536  12.330  1.00 20.00     0.016 C 
HETATM    6  C6  UNL     1     -22.340  19.141   9.347  1.00 20.00     0.033 C 
HETATM    7 CL7  UNL     1     -25.078  19.259   9.271  1.00 20.00    -0.119 Cl
ENDROOT
TORSDOF 0
ENDMDL
MODEL 7
REMARK VINA RESULT:      -3.3     16.066     16.966
REMARK  0 active torsions:
REMARK  status: ('A' for Active; 'I' for Inactive)
ROOT
HETATM    1  C1  UNL     1     -22.959  18.479  11.532  1.00 20.00     0.036 A 
HETATM    2  C2  UNL     1     -23.431  18.131  10.138  1.00 20.00    -0.025 A 
HETATM    3  C3  UNL     1     -24.247  17.704  11.367  1.00 20.00     0.041 A 
HETATM    4  C4  UNL     1     -22.660  17.087   9.366  1.00 20.00     0.016 C 
HETATM    5  C5  UNL     1     -23.920  19.262   9.263  1.00 20.00     0.016 C 
HETATM    6  C6  UNL     1     -24.287  16.270  11.813  1.00 20.00     0.033 C 
HETATM    7 CL7  UNL     1     -25.759  18.580  11.729  1.00 20.00    -0.119 Cl
ENDROOT
TORSDOF 0
ENDMDL
MODEL 8
REMARK VINA RESULT:      -3.2      8.540      9.451
REMARK  0 active torsions:
REMARK  status: ('A' for Active; 'I' for Inactive)
ROOT
HETATM    1  C1  UNL     1     -42.950   6.257  -0.611  1.00 20.00     0.036 A 
HETATM    2  C2  UNL     1     -41.595   6.649  -0.066  1.00 20.00    -0.025 A 
HETATM    3  C3  UNL     1     -42.695   6.135   0.874  1.00 20.00     0.041 A 
HETATM    4  C4  UNL     1     -41.234   8.114  -0.047  1.00 20.00     0.016 C 
HETATM    5  C5  UNL     1     -40.420   5.761  -0.409  1.00 20.00     0.016 C 
HETATM    6  C6  UNL     1     -43.417   7.067   1.807  1.00 20.00     0.033 C 
HETATM    7 CL7  UNL     1     -42.551   4.481   1.528  1.00 20.00    -0.119 Cl
ENDROOT
TORSDOF 0
ENDMDL
MODEL 9
REMARK VINA RESULT:      -3.2     16.499     17.435
REMARK  0 active torsions:
REMARK  status: ('A' for Active; 'I' for Inactive)
ROOT
HETATM    1  C1  UNL     1     -23.885  18.801   9.900  1.00 20.00     0.036 A 
HETATM    2  C2  UNL     1     -22.545  18.112   9.763  1.00 20.00    -0.025 A 
HETATM    3  C3  UNL     1     -23.408  17.899  11.015  1.00 20.00     0.041 A 
HETATM    4  C4  UNL     1     -21.298  18.958   9.861  1.00 20.00     0.016 C 
HETATM    5  C5  UNL     1     -22.427  17.013   8.732  1.00 20.00     0.016 C 
HETATM    6  C6  UNL     1     -23.032  18.520  12.332  1.00 20.00     0.033 C 
HETATM    7 CL7  UNL     1     -24.260  16.343  11.206  1.00 20.00    -0.119 Cl
ENDROOT
TORSDOF 0
ENDMDL
