MODEL 1
REMARK VINA RESULT:      -4.0      0.000      0.000
REMARK  3 active torsions:
REMARK  status: ('A' for Active; 'I' for Inactive)
REMARK    1  A    between atoms: C1_1  and  C7_7 
REMARK    2  A    between atoms: C2_2  and  C8_8 
REMARK    3  A    between atoms: C8_8  and  C9_9 
ROOT
HETATM    1  C1  UNL     1     -32.610   6.180   3.097  1.00 20.00     0.157 A 
HETATM    2  C2  UNL     1     -33.692   5.450   3.854  1.00 20.00     0.185 A 
HETATM    3  O10 UNL     1     -33.676   5.500   2.421  1.00 20.00    -0.372 OA
ENDROOT
BRANCH   2   4
HETATM    4  C8  UNL     1     -34.854   6.141   4.494  1.00 20.00     0.204 C 
HETATM    5  F11 UNL     1     -35.996   5.509   4.103  1.00 20.00    -0.246 F 
BRANCH   4   6
HETATM    6  C9  UNL     1     -34.794   6.175   6.029  1.00 20.00     0.014 C 
HETATM    7  C5  UNL     1     -34.024   7.386   6.559  1.00 20.00     0.012 C 
HETATM    8  C6  UNL     1     -34.146   4.892   6.554  1.00 20.00     0.012 C 
ENDBRANCH   4   6
ENDBRANCH   2   4
BRANCH   1   9
HETATM    9  C7  UNL     1     -32.598   7.656   2.914  1.00 20.00     0.009 C 
HETATM   10  C3  UNL     1     -31.803   8.368   4.026  1.00 20.00     0.012 C 
HETATM   11  C4  UNL     1     -32.021   8.063   1.544  1.00 20.00     0.012 C 
ENDBRANCH   1   9
TORSDOF 3
ENDMDL
MODEL 2
REMARK VINA RESULT:      -3.8      1.699      2.132
REMARK  3 active torsions:
REMARK  status: ('A' for Active; 'I' for Inactive)
REMARK    1  A    between atoms: C1_1  and  C7_7 
REMARK    2  A    between atoms: C2_2  and  C8_8 
REMARK    3  A    between atoms: C8_8  and  C9_9 
ROOT
HETATM    1  C1  UNL     1     -32.384   8.777   3.283  1.00 20.00     0.157 A 
HETATM    2  C2  UNL     1     -32.890   7.814   4.329  1.00 20.00     0.185 A 
HETATM    3  O10 UNL     1     -31.631   7.621   3.670  1.00 20.00    -0.372 OA
ENDROOT
BRANCH   2   4
HETATM    4  C8  UNL     1     -33.914   6.762   4.046  1.00 20.00     0.204 C 
HETATM    5  F11 UNL     1     -33.293   5.712   3.439  1.00 20.00    -0.246 F 
BRANCH   4   6
HETATM    6  C9  UNL     1     -34.655   6.259   5.295  1.00 20.00     0.014 C 
HETATM    7  C5  UNL     1     -34.163   6.931   6.579  1.00 20.00     0.012 C 
HETATM    8  C6  UNL     1     -34.493   4.742   5.422  1.00 20.00     0.012 C 
ENDBRANCH   4   6
ENDBRANCH   2   4
BRANCH   1   9
HETATM    9  C7  UNL     1     -32.857   8.770   1.872  1.00 20.00     0.009 C 
HETATM   10  C3  UNL     1     -33.074  10.196   1.330  1.00 20.00     0.012 C 
HETATM   11  C4  UNL     1     -31.881   8.022   0.941  1.00 20.00     0.012 C 
ENDBRANCH   1   9
TORSDOF 3
ENDMDL
MODEL 3
REMARK VINA RESULT:      -3.8     11.938     13.102
REMARK  3 active torsions:
REMARK  status: ('A' for Active; 'I' for Inactive)
REMARK    1  A    between atoms: C1_1  and  C7_7 
REMARK    2  A    between atoms: C2_2  and  C8_8 
REMARK    3  A    between atoms: C8_8  and  C9_9 
ROOT
HETATM    1  C1  UNL     1     -33.078  18.839  -1.744  1.00 20.00     0.157 A 
HETATM    2  C2  UNL     1     -33.388  18.017  -2.971  1.00 20.00     0.185 A 
HETATM    3  O10 UNL     1     -34.413  18.415  -2.051  1.00 20.00    -0.372 OA
ENDROOT
BRANCH   2   4
HETATM    4  C8  UNL     1     -33.154  16.541  -3.049  1.00 20.00     0.204 C 
HETATM    5  F11 UNL     1     -33.817  15.947  -2.017  1.00 20.00    -0.246 F 
BRANCH   4   6
HETATM    6  C9  UNL     1     -33.604  15.905  -4.373  1.00 20.00     0.014 C 
HETATM    7  C5  UNL     1     -34.749  16.676  -5.034  1.00 20.00     0.012 C 
HETATM    8  C6  UNL     1     -34.037  14.456  -4.136  1.00 20.00     0.012 C 
ENDBRANCH   4   6
ENDBRANCH   2   4
BRANCH   1   9
HETATM    9  C7  UNL     1     -32.511  18.260  -0.497  1.00 20.00     0.009 C 
HETATM   10  C3  UNL     1     -31.189  18.941  -0.094  1.00 20.00     0.012 C 
HETATM   11  C4  UNL     1     -33.501  18.348   0.682  1.00 20.00     0.012 C 
ENDBRANCH   1   9
TORSDOF 3
ENDMDL
MODEL 4
REMARK VINA RESULT:      -3.8     12.104     13.273
REMARK  3 active torsions:
REMARK  status: ('A' for Active; 'I' for Inactive)
REMARK    1  A    between atoms: C1_1  and  C7_7 
REMARK    2  A    between atoms: C2_2  and  C8_8 
REMARK    3  A    between atoms: C8_8  and  C9_9 
ROOT
HETATM    1  C1  UNL     1     -33.661  14.915  -5.246  1.00 20.00     0.157 A 
HETATM    2  C2  UNL     1     -33.118  15.381  -3.917  1.00 20.00     0.185 A 
HETATM    3  O10 UNL     1     -33.943  14.213  -4.028  1.00 20.00    -0.372 OA
ENDROOT
BRANCH   2   4
HETATM    4  C8  UNL     1     -33.720  16.503  -3.133  1.00 20.00     0.204 C 
HETATM    5  F11 UNL     1     -33.648  16.189  -1.809  1.00 20.00    -0.246 F 
BRANCH   4   6
HETATM    6  C9  UNL     1     -33.045  17.863  -3.369  1.00 20.00     0.014 C 
HETATM    7  C5  UNL     1     -32.665  18.563  -2.062  1.00 20.00     0.012 C 
HETATM    8  C6  UNL     1     -33.972  18.772  -4.181  1.00 20.00     0.012 C 
ENDBRANCH   4   6
ENDBRANCH   2   4
BRANCH   1   9
HETATM    9  C7  UNL     1     -34.846  15.529  -5.901  1.00 20.00     0.009 C 
HETATM   10  C3  UNL     1     -34.494  16.145  -7.270  1.00 20.00     0.012 C 
HETATM   11  C4  UNL     1     -35.992  14.514  -6.087  1.00 20.00     0.012 C 
ENDBRANCH   1   9
TORSDOF 3
ENDMDL
MODEL 5
REMARK VINA RESULT:      -3.7      2.133      3.971
REMARK  3 active torsions:
REMARK  status: ('A' for Active; 'I' for Inactive)
REMARK    1  A    between atoms: C1_1  and  C7_7 
REMARK    2  A    between atoms: C2_2  and  C8_8 
REMARK    3  A    between atoms: C8_8  and  C9_9 
ROOT
HETATM    1  C1  UNL     1     -34.214   5.404   6.227  1.00 20.00     0.157 A 
HETATM    2  C2  UNL     1     -33.662   6.802   6.365  1.00 20.00     0.185 A 
HETATM    3  O10 UNL     1     -34.954   6.446   6.877  1.00 20.00    -0.372 OA
ENDROOT
BRANCH   2   4
HETATM    4  C8  UNL     1     -33.681   7.803   5.254  1.00 20.00     0.204 C 
HETATM    5  F11 UNL     1     -34.189   8.971   5.739  1.00 20.00    -0.246 F 
BRANCH   4   6
HETATM    6  C9  UNL     1     -32.303   8.071   4.630  1.00 20.00     0.014 C 
HETATM    7  C5  UNL     1     -31.874   9.534   4.761  1.00 20.00     0.012 C 
HETATM    8  C6  UNL     1     -32.314   7.676   3.151  1.00 20.00     0.012 C 
ENDBRANCH   4   6
ENDBRANCH   2   4
BRANCH   1   9
HETATM    9  C7  UNL     1     -34.828   4.890   4.974  1.00 20.00     0.009 C 
HETATM   10  C3  UNL     1     -35.738   5.939   4.306  1.00 20.00     0.012 C 
HETATM   11  C4  UNL     1     -33.764   4.429   3.958  1.00 20.00     0.012 C 
ENDBRANCH   1   9
TORSDOF 3
ENDMDL
MODEL 6
REMARK VINA RESULT:      -3.6      2.075      2.691
REMARK  3 active torsions:
REMARK  status: ('A' for Active; 'I' for Inactive)
REMARK    1  A    between atoms: C1_1  and  C7_7 
REMARK    2  A    between atoms: C2_2  and  C8_8 
REMARK    3  A    between atoms: C8_8  and  C9_9 
ROOT
HETATM    1  C1  UNL     1     -32.967   8.563   3.502  1.00 20.00     0.157 A 
HETATM    2  C2  UNL     1     -33.586   8.260   4.844  1.00 20.00     0.185 A 
HETATM    3  O10 UNL     1     -32.387   9.038   4.724  1.00 20.00    -0.372 OA
ENDROOT
BRANCH   2   4
HETATM    4  C8  UNL     1     -33.416   6.950   5.547  1.00 20.00     0.204 C 
HETATM    5  F11 UNL     1     -32.785   7.180   6.733  1.00 20.00    -0.246 F 
BRANCH   4   6
HETATM    6  C9  UNL     1     -34.734   6.206   5.811  1.00 20.00     0.014 C 
HETATM    7  C5  UNL     1     -34.522   4.876   6.538  1.00 20.00     0.012 C 
HETATM    8  C6  UNL     1     -35.462   5.951   4.488  1.00 20.00     0.012 C 
ENDBRANCH   4   6
ENDBRANCH   2   4
BRANCH   1   9
HETATM    9  C7  UNL     1     -32.130   7.589   2.752  1.00 20.00     0.009 C 
HETATM   10  C3  UNL     1     -32.764   6.185   2.723  1.00 20.00     0.012 C 
HETATM   11  C4  UNL     1     -31.865   8.051   1.304  1.00 20.00     0.012 C 
ENDBRANCH   1   9
TORSDOF 3
ENDMDL
MODEL 7
REMARK VINA RESULT:      -3.4     12.442     13.560
REMARK  3 active torsions:
REMARK  status: ('A' for Active; 'I' for Inactive)
REMARK    1  A    between atoms: C1_1  and  C7_7 
REMARK    2  A    between atoms: C2_2  and  C8_8 
REMARK    3  A    between atoms: C8_8  and  C9_9 
ROOT
HETATM    1  C1  UNL     1     -34.803  16.875  -4.437  1.00 20.00     0.157 A 
HETATM    2  C2  UNL     1     -34.298  17.961  -3.520  1.00 20.00     0.185 A 
HETATM    3  O10 UNL     1     -34.430  18.168  -4.932  1.00 20.00    -0.372 OA
ENDROOT
BRANCH   2   4
HETATM    4  C8  UNL     1     -32.894  18.013  -3.006  1.00 20.00     0.204 C 
HETATM    5  F11 UNL     1     -32.401  19.263  -3.234  1.00 20.00    -0.246 F 
BRANCH   4   6
HETATM    6  C9  UNL     1     -32.762  17.682  -1.511  1.00 20.00     0.014 C 
HETATM    7  C5  UNL     1     -34.086  17.833  -0.758  1.00 20.00     0.012 C 
HETATM    8  C6  UNL     1     -31.706  18.586  -0.868  1.00 20.00     0.012 C 
ENDBRANCH   4   6
ENDBRANCH   2   4
BRANCH   1   9
HETATM    9  C7  UNL     1     -33.952  15.754  -4.917  1.00 20.00     0.009 C 
HETATM   10  C3  UNL     1     -34.131  14.485  -4.060  1.00 20.00     0.012 C 
HETATM   11  C4  UNL     1     -34.234  15.406  -6.393  1.00 20.00     0.012 C 
ENDBRANCH   1   9
TORSDOF 3
ENDMDL
MODEL 8
REMARK VINA RESULT:      -3.3     12.422     13.546
REMARK  3 active torsions:
REMARK  status: ('A' for Active; 'I' for Inactive)
REMARK    1  A    between atoms: C1_1  and  C7_7 
REMARK    2  A    between atoms: C2_2  and  C8_8 
REMARK    3  A    between atoms: C8_8  and  C9_9 
ROOT
HETATM    1  C1  UNL     1     -34.049  17.946  -4.500  1.00 20.00     0.157 A 
HETATM    2  C2  UNL     1     -33.229  17.882  -3.235  1.00 20.00     0.185 A 
HETATM    3  O10 UNL     1     -33.343  16.758  -4.118  1.00 20.00    -0.372 OA
ENDROOT
BRANCH   2   4
HETATM    4  C8  UNL     1     -33.828  17.679  -1.880  1.00 20.00     0.204 C 
HETATM    5  F11 UNL     1     -33.677  16.368  -1.537  1.00 20.00    -0.246 F 
BRANCH   4   6
HETATM    6  C9  UNL     1     -33.211  18.563  -0.785  1.00 20.00     0.014 C 
HETATM    7  C5  UNL     1     -31.691  18.406  -0.691  1.00 20.00     0.012 C 
HETATM    8  C6  UNL     1     -33.840  18.230   0.571  1.00 20.00     0.012 C 
ENDBRANCH   4   6
ENDBRANCH   2   4
BRANCH   1   9
HETATM    9  C7  UNL     1     -35.531  17.812  -4.518  1.00 20.00     0.009 C 
HETATM   10  C3  UNL     1     -36.218  19.082  -5.058  1.00 20.00     0.012 C 
HETATM   11  C4  UNL     1     -35.990  16.600  -5.352  1.00 20.00     0.012 C 
ENDBRANCH   1   9
TORSDOF 3
ENDMDL
MODEL 9
REMARK VINA RESULT:      -3.3     12.367     13.389
REMARK  3 active torsions:
REMARK  status: ('A' for Active; 'I' for Inactive)
REMARK    1  A    between atoms: C1_1  and  C7_7 
REMARK    2  A    between atoms: C2_2  and  C8_8 
REMARK    3  A    between atoms: C8_8  and  C9_9 
ROOT
HETATM    1  C1  UNL     1     -33.523  15.797  -3.412  1.00 20.00     0.157 A 
HETATM    2  C2  UNL     1     -33.838  14.864  -4.556  1.00 20.00     0.185 A 
HETATM    3  O10 UNL     1     -32.488  15.142  -4.158  1.00 20.00    -0.372 OA
ENDROOT
BRANCH   2   4
HETATM    4  C8  UNL     1     -34.198  15.342  -5.927  1.00 20.00     0.204 C 
HETATM    5  F11 UNL     1     -33.314  14.805  -6.814  1.00 20.00    -0.246 F 
BRANCH   4   6
HETATM    6  C9  UNL     1     -35.629  14.983  -6.358  1.00 20.00     0.014 C 
HETATM    7  C5  UNL     1     -36.432  16.207  -6.804  1.00 20.00     0.012 C 
HETATM    8  C6  UNL     1     -36.361  14.286  -5.208  1.00 20.00     0.012 C 
ENDBRANCH   4   6
ENDBRANCH   2   4
BRANCH   1   9
HETATM    9  C7  UNL     1     -33.541  17.279  -3.541  1.00 20.00     0.009 C 
HETATM   10  C3  UNL     1     -34.978  17.833  -3.615  1.00 20.00     0.012 C 
HETATM   11  C4  UNL     1     -32.797  17.967  -2.379  1.00 20.00     0.012 C 
ENDBRANCH   1   9
TORSDOF 3
ENDMDL
