MODEL 1
REMARK VINA RESULT:      -5.6      0.000      0.000
REMARK  2 active torsions:
REMARK  status: ('A' for Active; 'I' for Inactive)
REMARK    1  A    between atoms: C6_6  and  C8_8 
REMARK    2  A    between atoms: C7_7  and  C9_9 
ROOT
HETATM    1  C1  UNL     1     -34.397   6.526   6.521  1.00 20.00     0.005 C 
HETATM    2  C2  UNL     1     -34.418   4.992   6.318  1.00 20.00     0.005 C 
HETATM    3  C5  UNL     1     -35.343   5.933   4.395  1.00 20.00     0.010 C 
HETATM    4  C6  UNL     1     -34.582   7.077   5.098  1.00 20.00    -0.010 C 
HETATM    5  C7  UNL     1     -34.300   4.879   4.775  1.00 20.00    -0.010 C 
ENDROOT
BRANCH   4   6
HETATM    6  C8  UNL     1     -33.313   7.000   4.254  1.00 20.00    -0.006 C 
HETATM    7  C3  UNL     1     -32.611   7.083   2.872  1.00 20.00     0.006 C 
HETATM    8  C4  UNL     1     -31.501   7.870   3.703  1.00 20.00     0.006 C 
HETATM    9  C9  UNL     1     -32.734   8.456   4.454  1.00 20.00    -0.006 C 
ENDBRANCH   4   6
TORSDOF 2
ENDMDL
MODEL 2
REMARK VINA RESULT:      -4.7      0.610      3.745
REMARK  2 active torsions:
REMARK  status: ('A' for Active; 'I' for Inactive)
REMARK    1  A    between atoms: C6_6  and  C8_8 
REMARK    2  A    between atoms: C7_7  and  C9_9 
ROOT
HETATM    1  C1  UNL     1     -32.542   7.027   3.050  1.00 20.00     0.005 C 
HETATM    2  C2  UNL     1     -31.534   7.978   3.738  1.00 20.00     0.005 C 
HETATM    3  C5  UNL     1     -33.663   8.748   4.294  1.00 20.00     0.010 C 
HETATM    4  C6  UNL     1     -33.856   7.299   3.799  1.00 20.00    -0.010 C 
HETATM    5  C7  UNL     1     -32.334   8.434   4.986  1.00 20.00    -0.010 C 
ENDROOT
BRANCH   4   6
HETATM    6  C8  UNL     1     -33.912   6.640   5.174  1.00 20.00    -0.006 C 
HETATM    7  C3  UNL     1     -34.515   6.560   6.602  1.00 20.00     0.006 C 
HETATM    8  C4  UNL     1     -34.465   4.991   6.323  1.00 20.00     0.006 C 
HETATM    9  C9  UNL     1     -34.867   5.416   4.878  1.00 20.00    -0.006 C 
ENDBRANCH   4   6
TORSDOF 2
ENDMDL
MODEL 3
REMARK VINA RESULT:      -3.9      1.903      3.363
REMARK  2 active torsions:
REMARK  status: ('A' for Active; 'I' for Inactive)
REMARK    1  A    between atoms: C6_6  and  C8_8 
REMARK    2  A    between atoms: C7_7  and  C9_9 
ROOT
HETATM    1  C1  UNL     1     -32.952   6.185   3.364  1.00 20.00     0.005 C 
HETATM    2  C2  UNL     1     -33.954   6.701   4.425  1.00 20.00     0.005 C 
HETATM    3  C5  UNL     1     -32.160   8.190   4.420  1.00 20.00     0.010 C 
HETATM    4  C6  UNL     1     -32.057   7.405   3.096  1.00 20.00    -0.010 C 
HETATM    5  C7  UNL     1     -33.690   8.229   4.388  1.00 20.00    -0.010 C 
ENDROOT
BRANCH   4   6
HETATM    6  C8  UNL     1     -32.720   8.454   2.208  1.00 20.00    -0.006 C 
HETATM    7  C3  UNL     1     -32.837   9.924   1.723  1.00 20.00     0.006 C 
HETATM    8  C4  UNL     1     -32.992   9.233   0.294  1.00 20.00     0.006 C 
HETATM    9  C9  UNL     1     -31.929   8.241   0.857  1.00 20.00    -0.006 C 
ENDBRANCH   4   6
TORSDOF 2
ENDMDL
MODEL 4
REMARK VINA RESULT:      -3.8      0.837      2.069
REMARK  2 active torsions:
REMARK  status: ('A' for Active; 'I' for Inactive)
REMARK    1  A    between atoms: C6_6  and  C8_8 
REMARK    2  A    between atoms: C7_7  and  C9_9 
ROOT
HETATM    1  C1  UNL     1     -34.041   5.212   4.080  1.00 20.00     0.005 C 
HETATM    2  C2  UNL     1     -35.476   5.611   4.499  1.00 20.00     0.005 C 
HETATM    3  C5  UNL     1     -34.070   6.245   6.248  1.00 20.00     0.010 C 
HETATM    4  C6  UNL     1     -33.152   6.036   5.025  1.00 20.00    -0.010 C 
HETATM    5  C7  UNL     1     -35.208   6.836   5.411  1.00 20.00    -0.010 C 
ENDROOT
BRANCH   4   6
HETATM    6  C8  UNL     1     -33.045   7.504   4.622  1.00 20.00    -0.006 C 
HETATM    7  C3  UNL     1     -32.327   8.876   4.723  1.00 20.00     0.006 C 
HETATM    8  C4  UNL     1     -32.582   8.904   3.149  1.00 20.00     0.006 C 
HETATM    9  C9  UNL     1     -32.268   7.380   3.252  1.00 20.00    -0.006 C 
ENDBRANCH   4   6
TORSDOF 2
ENDMDL
MODEL 5
REMARK VINA RESULT:      -3.8      0.969      3.725
REMARK  2 active torsions:
REMARK  status: ('A' for Active; 'I' for Inactive)
REMARK    1  A    between atoms: C6_6  and  C8_8 
REMARK    2  A    between atoms: C7_7  and  C9_9 
ROOT
HETATM    1  C1  UNL     1     -32.951   9.292   3.862  1.00 20.00     0.005 C 
HETATM    2  C2  UNL     1     -32.664   9.067   2.358  1.00 20.00     0.005 C 
HETATM    3  C5  UNL     1     -31.531   7.388   3.513  1.00 20.00     0.010 C 
HETATM    4  C6  UNL     1     -32.576   7.946   4.502  1.00 20.00    -0.010 C 
HETATM    5  C7  UNL     1     -32.460   7.530   2.304  1.00 20.00    -0.010 C 
ENDROOT
BRANCH   4   6
HETATM    6  C8  UNL     1     -33.629   6.863   4.288  1.00 20.00    -0.006 C 
HETATM    7  C3  UNL     1     -34.001   5.368   4.107  1.00 20.00     0.006 C 
HETATM    8  C4  UNL     1     -35.209   5.754   5.074  1.00 20.00     0.006 C 
HETATM    9  C9  UNL     1     -34.133   6.642   5.769  1.00 20.00    -0.006 C 
ENDBRANCH   4   6
TORSDOF 2
ENDMDL
MODEL 6
REMARK VINA RESULT:      -3.6     12.121     13.448
REMARK  2 active torsions:
REMARK  status: ('A' for Active; 'I' for Inactive)
REMARK    1  A    between atoms: C6_6  and  C8_8 
REMARK    2  A    between atoms: C7_7  and  C9_9 
ROOT
HETATM    1  C1  UNL     1     -33.518  16.930  -1.884  1.00 20.00     0.005 C 
HETATM    2  C2  UNL     1     -34.486  18.137  -1.858  1.00 20.00     0.005 C 
HETATM    3  C5  UNL     1     -33.202  18.355  -3.791  1.00 20.00     0.010 C 
HETATM    4  C6  UNL     1     -33.044  16.886  -3.346  1.00 20.00    -0.010 C 
HETATM    5  C7  UNL     1     -34.672  18.424  -3.370  1.00 20.00    -0.010 C 
ENDROOT
BRANCH   4   6
HETATM    6  C8  UNL     1     -34.080  16.293  -4.296  1.00 20.00    -0.006 C 
HETATM    7  C3  UNL     1     -34.508  15.879  -5.730  1.00 20.00     0.006 C 
HETATM    8  C4  UNL     1     -35.094  14.603  -4.975  1.00 20.00     0.006 C 
HETATM    9  C9  UNL     1     -33.808  14.749  -4.106  1.00 20.00    -0.006 C 
ENDBRANCH   4   6
TORSDOF 2
ENDMDL
MODEL 7
REMARK VINA RESULT:      -3.5      8.969     10.130
REMARK  2 active torsions:
REMARK  status: ('A' for Active; 'I' for Inactive)
REMARK    1  A    between atoms: C6_6  and  C8_8 
REMARK    2  A    between atoms: C7_7  and  C9_9 
ROOT
HETATM    1  C1  UNL     1     -42.210  14.000   5.380  1.00 20.00     0.005 C 
HETATM    2  C2  UNL     1     -41.866  15.316   6.119  1.00 20.00     0.005 C 
HETATM    3  C5  UNL     1     -41.762  13.612   7.708  1.00 20.00     0.010 C 
HETATM    4  C6  UNL     1     -41.694  12.910   6.335  1.00 20.00    -0.010 C 
HETATM    5  C7  UNL     1     -40.926  14.808   7.243  1.00 20.00    -0.010 C 
ENDROOT
BRANCH   4   6
HETATM    6  C8  UNL     1     -40.178  12.740   6.290  1.00 20.00    -0.006 C 
HETATM    7  C3  UNL     1     -38.896  11.997   6.748  1.00 20.00     0.006 C 
HETATM    8  C4  UNL     1     -38.498  12.143   5.211  1.00 20.00     0.006 C 
HETATM    9  C9  UNL     1     -40.016  11.876   4.978  1.00 20.00    -0.006 C 
ENDBRANCH   4   6
TORSDOF 2
ENDMDL
MODEL 8
REMARK VINA RESULT:      -3.5     12.407     13.780
REMARK  2 active torsions:
REMARK  status: ('A' for Active; 'I' for Inactive)
REMARK    1  A    between atoms: C6_6  and  C8_8 
REMARK    2  A    between atoms: C7_7  and  C9_9 
ROOT
HETATM    1  C1  UNL     1     -36.176  17.191  -5.759  1.00 20.00     0.005 C 
HETATM    2  C2  UNL     1     -37.132  15.983  -5.607  1.00 20.00     0.005 C 
HETATM    3  C5  UNL     1     -35.182  15.171  -6.596  1.00 20.00     0.010 C 
HETATM    4  C6  UNL     1     -34.804  16.534  -5.978  1.00 20.00    -0.010 C 
HETATM    5  C7  UNL     1     -36.131  14.809  -5.450  1.00 20.00    -0.010 C 
ENDROOT
BRANCH   4   6
HETATM    6  C8  UNL     1     -34.186  15.988  -4.693  1.00 20.00    -0.006 C 
HETATM    7  C3  UNL     1     -32.974  15.383  -3.937  1.00 20.00     0.006 C 
HETATM    8  C4  UNL     1     -33.448  16.377  -2.783  1.00 20.00     0.006 C 
HETATM    9  C9  UNL     1     -33.757  17.330  -3.977  1.00 20.00    -0.006 C 
ENDBRANCH   4   6
TORSDOF 2
ENDMDL
MODEL 9
REMARK VINA RESULT:      -3.3     12.271     13.640
REMARK  2 active torsions:
REMARK  status: ('A' for Active; 'I' for Inactive)
REMARK    1  A    between atoms: C6_6  and  C8_8 
REMARK    2  A    between atoms: C7_7  and  C9_9 
ROOT
HETATM    1  C1  UNL     1     -24.227  -2.063  11.849  1.00 20.00     0.005 C 
HETATM    2  C2  UNL     1     -23.448  -2.502  10.586  1.00 20.00     0.005 C 
HETATM    3  C5  UNL     1     -25.194  -4.024  10.855  1.00 20.00     0.010 C 
HETATM    4  C6  UNL     1     -25.571  -2.797  11.711  1.00 20.00    -0.010 C 
HETATM    5  C7  UNL     1     -24.565  -3.176   9.746  1.00 20.00    -0.010 C 
ENDROOT
BRANCH   4   6
HETATM    6  C8  UNL     1     -26.510  -2.148  10.698  1.00 20.00    -0.006 C 
HETATM    7  C3  UNL     1     -27.916  -2.029  10.052  1.00 20.00     0.006 C 
HETATM    8  C4  UNL     1     -27.602  -0.468  10.123  1.00 20.00     0.006 C 
HETATM    9  C9  UNL     1     -26.939  -0.845  11.483  1.00 20.00    -0.006 C 
ENDBRANCH   4   6
TORSDOF 2
ENDMDL
