MODEL 1
REMARK VINA RESULT:      -5.2      0.000      0.000
REMARK  0 active torsions:
REMARK  status: ('A' for Active; 'I' for Inactive)
ROOT
HETATM    1  C1  UNL     1     -31.843   8.340   1.027  1.00 20.00     0.012 C 
HETATM    2  C2  UNL     1     -32.192   7.786   2.033  1.00 20.00    -0.113 C 
HETATM    3  C3  UNL     1     -33.430   8.062   4.152  1.00 20.00     0.020 C 
HETATM    4  C4  UNL     1     -33.736   7.430   5.511  1.00 20.00     0.041 C 
HETATM    5  C5  UNL     1     -33.446   5.859   2.925  1.00 20.00     0.052 C 
HETATM    6  C6  UNL     1     -32.621   7.106   3.267  1.00 20.00     0.067 C 
HETATM    7  C7  UNL     1     -34.083   5.247   4.134  1.00 20.00     0.158 A 
HETATM    8  C8  UNL     1     -34.268   6.027   5.416  1.00 20.00     0.084 A 
HETATM    9  C9  UNL     1     -34.468   5.291   6.702  1.00 20.00     0.049 C 
HETATM   10  O10 UNL     1     -35.342   5.855   4.486  1.00 20.00    -0.370 OA
ENDROOT
TORSDOF 0
ENDMDL
MODEL 2
REMARK VINA RESULT:      -4.2     11.833     13.297
REMARK  0 active torsions:
REMARK  status: ('A' for Active; 'I' for Inactive)
ROOT
HETATM    1  C1  UNL     1     -33.458  17.675  -0.826  1.00 20.00     0.012 C 
HETATM    2  C2  UNL     1     -33.458  17.311  -1.969  1.00 20.00    -0.113 C 
HETATM    3  C3  UNL     1     -33.750  15.361  -3.457  1.00 20.00     0.020 C 
HETATM    4  C4  UNL     1     -33.585  14.846  -4.888  1.00 20.00     0.041 C 
HETATM    5  C5  UNL     1     -34.490  17.661  -4.182  1.00 20.00     0.052 C 
HETATM    6  C6  UNL     1     -33.458  16.864  -3.373  1.00 20.00     0.067 C 
HETATM    7  C7  UNL     1     -34.684  17.110  -5.560  1.00 20.00     0.158 A 
HETATM    8  C8  UNL     1     -34.272  15.699  -5.917  1.00 20.00     0.084 A 
HETATM    9  C9  UNL     1     -34.050  15.340  -7.352  1.00 20.00     0.049 C 
HETATM   10  O10 UNL     1     -35.632  16.026  -5.615  1.00 20.00    -0.370 OA
ENDROOT
TORSDOF 0
ENDMDL
MODEL 3
REMARK VINA RESULT:      -4.0      1.595      4.141
REMARK  0 active torsions:
REMARK  status: ('A' for Active; 'I' for Inactive)
ROOT
HETATM    1  C1  UNL     1     -34.812   5.056   6.765  1.00 20.00     0.012 C 
HETATM    2  C2  UNL     1     -34.510   5.776   5.853  1.00 20.00    -0.113 C 
HETATM    3  C3  UNL     1     -33.296   7.837   5.239  1.00 20.00     0.020 C 
HETATM    4  C4  UNL     1     -33.047   8.855   4.124  1.00 20.00     0.041 C 
HETATM    5  C5  UNL     1     -33.376   5.868   3.666  1.00 20.00     0.052 C 
HETATM    6  C6  UNL     1     -34.139   6.660   4.735  1.00 20.00     0.067 C 
HETATM    7  C7  UNL     1     -32.792   6.752   2.608  1.00 20.00     0.158 A 
HETATM    8  C8  UNL     1     -32.588   8.234   2.834  1.00 20.00     0.084 A 
HETATM    9  C9  UNL     1     -32.449   9.145   1.657  1.00 20.00     0.049 C 
HETATM   10  O10 UNL     1     -31.509   7.303   2.967  1.00 20.00    -0.370 OA
ENDROOT
TORSDOF 0
ENDMDL
MODEL 4
REMARK VINA RESULT:      -4.0     12.343     12.916
REMARK  0 active torsions:
REMARK  status: ('A' for Active; 'I' for Inactive)
ROOT
HETATM    1  C1  UNL     1     -30.925  19.263   3.731  1.00 20.00     0.012 C 
HETATM    2  C2  UNL     1     -31.389  18.821   2.716  1.00 20.00    -0.113 C 
HETATM    3  C3  UNL     1     -33.329  18.906   1.190  1.00 20.00     0.020 C 
HETATM    4  C4  UNL     1     -34.010  18.233  -0.003  1.00 20.00     0.041 C 
HETATM    5  C5  UNL     1     -31.000  18.528   0.298  1.00 20.00     0.052 C 
HETATM    6  C6  UNL     1     -31.958  18.278   1.470  1.00 20.00     0.067 C 
HETATM    7  C7  UNL     1     -31.615  18.188  -1.024  1.00 20.00     0.158 A 
HETATM    8  C8  UNL     1     -33.113  18.074  -1.198  1.00 20.00     0.084 A 
HETATM    9  C9  UNL     1     -33.661  17.307  -2.359  1.00 20.00     0.049 C 
HETATM   10  O10 UNL     1     -32.406  19.258  -1.579  1.00 20.00    -0.370 OA
ENDROOT
TORSDOF 0
ENDMDL
MODEL 5
REMARK VINA RESULT:      -3.9     11.827     13.010
REMARK  0 active torsions:
REMARK  status: ('A' for Active; 'I' for Inactive)
ROOT
HETATM    1  C1  UNL     1     -32.343  18.147  -1.380  1.00 20.00     0.012 C 
HETATM    2  C2  UNL     1     -33.042  17.554  -2.154  1.00 20.00    -0.113 C 
HETATM    3  C3  UNL     1     -34.088  17.641  -4.390  1.00 20.00     0.020 C 
HETATM    4  C4  UNL     1     -35.111  16.981  -5.316  1.00 20.00     0.041 C 
HETATM    5  C5  UNL     1     -33.293  15.453  -3.420  1.00 20.00     0.052 C 
HETATM    6  C6  UNL     1     -33.900  16.825  -3.104  1.00 20.00     0.067 C 
HETATM    7  C7  UNL     1     -34.007  14.755  -4.536  1.00 20.00     0.158 A 
HETATM    8  C8  UNL     1     -34.886  15.508  -5.509  1.00 20.00     0.084 A 
HETATM    9  C9  UNL     1     -35.918  14.763  -6.295  1.00 20.00     0.049 C 
HETATM   10  O10 UNL     1     -33.543  15.145  -5.844  1.00 20.00    -0.370 OA
ENDROOT
TORSDOF 0
ENDMDL
MODEL 6
REMARK VINA RESULT:      -3.9     10.109     11.073
REMARK  0 active torsions:
REMARK  status: ('A' for Active; 'I' for Inactive)
ROOT
HETATM    1  C1  UNL     1     -39.293  11.763   4.506  1.00 20.00     0.012 C 
HETATM    2  C2  UNL     1     -40.031  12.398   5.208  1.00 20.00    -0.113 C 
HETATM    3  C3  UNL     1     -41.994  12.262   6.701  1.00 20.00     0.020 C 
HETATM    4  C4  UNL     1     -43.045  13.076   7.459  1.00 20.00     0.041 C 
HETATM    5  C5  UNL     1     -40.138  13.908   7.154  1.00 20.00     0.052 C 
HETATM    6  C6  UNL     1     -40.938  13.177   6.069  1.00 20.00     0.067 C 
HETATM    7  C7  UNL     1     -41.020  14.544   8.183  1.00 20.00     0.158 A 
HETATM    8  C8  UNL     1     -42.458  14.116   8.371  1.00 20.00     0.084 A 
HETATM    9  C9  UNL     1     -43.417  15.041   9.049  1.00 20.00     0.049 C 
HETATM   10  O10 UNL     1     -41.419  13.640   9.232  1.00 20.00    -0.370 OA
ENDROOT
TORSDOF 0
ENDMDL
MODEL 7
REMARK VINA RESULT:      -3.8     12.168     13.588
REMARK  0 active torsions:
REMARK  status: ('A' for Active; 'I' for Inactive)
ROOT
HETATM    1  C1  UNL     1     -31.557  18.846   0.283  1.00 20.00     0.012 C 
HETATM    2  C2  UNL     1     -32.001  18.543  -0.790  1.00 20.00    -0.113 C 
HETATM    3  C3  UNL     1     -33.267  16.821  -2.027  1.00 20.00     0.020 C 
HETATM    4  C4  UNL     1     -33.690  16.337  -3.416  1.00 20.00     0.041 C 
HETATM    5  C5  UNL     1     -33.498  19.262  -2.613  1.00 20.00     0.052 C 
HETATM    6  C6  UNL     1     -32.546  18.171  -2.107  1.00 20.00     0.067 C 
HETATM    7  C7  UNL     1     -34.242  18.846  -3.843  1.00 20.00     0.158 A 
HETATM    8  C8  UNL     1     -34.378  17.392  -4.236  1.00 20.00     0.084 A 
HETATM    9  C9  UNL     1     -34.705  17.041  -5.652  1.00 20.00     0.049 C 
HETATM   10  O10 UNL     1     -35.433  18.084  -3.561  1.00 20.00    -0.370 OA
ENDROOT
TORSDOF 0
ENDMDL
MODEL 8
REMARK VINA RESULT:      -3.7     10.164     11.037
REMARK  0 active torsions:
REMARK  status: ('A' for Active; 'I' for Inactive)
ROOT
HETATM    1  C1  UNL     1     -38.992  11.640   4.158  1.00 20.00     0.012 C 
HETATM    2  C2  UNL     1     -39.813  12.168   4.856  1.00 20.00    -0.113 C 
HETATM    3  C3  UNL     1     -40.147  13.491   6.915  1.00 20.00     0.020 C 
HETATM    4  C4  UNL     1     -41.187  14.022   7.904  1.00 20.00     0.041 C 
HETATM    5  C5  UNL     1     -41.625  13.840   4.902  1.00 20.00     0.052 C 
HETATM    6  C6  UNL     1     -40.820  12.817   5.713  1.00 20.00     0.067 C 
HETATM    7  C7  UNL     1     -42.518  14.678   5.764  1.00 20.00     0.158 A 
HETATM    8  C8  UNL     1     -42.290  14.807   7.254  1.00 20.00     0.084 A 
HETATM    9  C9  UNL     1     -43.416  15.249   8.133  1.00 20.00     0.049 C 
HETATM   10  O10 UNL     1     -41.849  15.818   6.341  1.00 20.00    -0.370 OA
ENDROOT
TORSDOF 0
ENDMDL
MODEL 9
REMARK VINA RESULT:      -3.7      9.966     10.837
REMARK  0 active torsions:
REMARK  status: ('A' for Active; 'I' for Inactive)
ROOT
HETATM    1  C1  UNL     1     -39.263  11.746   4.354  1.00 20.00     0.012 C 
HETATM    2  C2  UNL     1     -39.802  12.128   5.356  1.00 20.00    -0.113 C 
HETATM    3  C3  UNL     1     -40.174  14.086   6.815  1.00 20.00     0.020 C 
HETATM    4  C4  UNL     1     -40.707  14.549   8.173  1.00 20.00     0.041 C 
HETATM    5  C5  UNL     1     -41.974  12.347   6.503  1.00 20.00     0.052 C 
HETATM    6  C6  UNL     1     -40.463  12.597   6.586  1.00 20.00     0.067 C 
HETATM    7  C7  UNL     1     -42.722  12.991   7.629  1.00 20.00     0.158 A 
HETATM    8  C8  UNL     1     -42.119  14.112   8.445  1.00 20.00     0.084 A 
HETATM    9  C9  UNL     1     -42.670  14.410   9.803  1.00 20.00     0.049 C 
HETATM   10  O10 UNL     1     -43.043  14.375   7.385  1.00 20.00    -0.370 OA
ENDROOT
TORSDOF 0
ENDMDL
