MODEL 1
REMARK VINA RESULT:      -4.7      0.000      0.000
REMARK  4 active torsions:
REMARK  status: ('A' for Active; 'I' for Inactive)
REMARK    1  A    between atoms: C1_1  and  C7_7 
REMARK    2  A    between atoms: C1_1  and  C8_8 
REMARK    3  A    between atoms: C5_5  and  C6_6 
REMARK    4  A    between atoms: C6_6  and  C8_8 
ROOT
HETATM    1  C1  UNL     1     -33.546   7.336   4.753  1.00 20.00     0.148 C 
HETATM    2  O9  UNL     1     -33.821   8.343   5.406  1.00 20.00    -0.296 OA
ENDROOT
BRANCH   1   3
HETATM    3  C7  UNL     1     -34.268   6.008   4.976  1.00 20.00     0.049 C 
HETATM    4  C3  UNL     1     -35.653   6.020   4.333  1.00 20.00     0.017 C 
HETATM    5  C4  UNL     1     -34.366   5.714   6.468  1.00 20.00     0.017 C 
ENDBRANCH   1   3
BRANCH   1   6
HETATM    6  C8  UNL     1     -32.458   7.354   3.687  1.00 20.00     0.152 C 
HETATM    7 CL10 UNL     1     -32.688   5.883   2.702  1.00 20.00    -0.117 Cl
BRANCH   6   8
HETATM    8  C6  UNL     1     -32.543   8.598   2.804  1.00 20.00     0.027 C 
BRANCH   8   9
HETATM    9  C5  UNL     1     -32.161   8.299   1.351  1.00 20.00    -0.003 C 
HETATM   10  C2  UNL     1     -32.739   9.335   0.400  1.00 20.00     0.005 C 
ENDBRANCH   8   9
ENDBRANCH   6   8
ENDBRANCH   1   6
TORSDOF 4
ENDMDL
MODEL 2
REMARK VINA RESULT:      -4.2      1.557      1.618
REMARK  4 active torsions:
REMARK  status: ('A' for Active; 'I' for Inactive)
REMARK    1  A    between atoms: C1_1  and  C7_7 
REMARK    2  A    between atoms: C1_1  and  C8_8 
REMARK    3  A    between atoms: C5_5  and  C6_6 
REMARK    4  A    between atoms: C6_6  and  C8_8 
ROOT
HETATM    1  C1  UNL     1     -33.850   7.287   5.305  1.00 20.00     0.148 C 
HETATM    2  O9  UNL     1     -34.008   7.725   6.446  1.00 20.00    -0.296 OA
ENDROOT
BRANCH   1   3
HETATM    3  C7  UNL     1     -34.348   5.901   4.897  1.00 20.00     0.049 C 
HETATM    4  C3  UNL     1     -35.702   5.988   4.198  1.00 20.00     0.017 C 
HETATM    5  C4  UNL     1     -34.428   4.997   6.122  1.00 20.00     0.017 C 
ENDBRANCH   1   3
BRANCH   1   6
HETATM    6  C8  UNL     1     -33.138   8.101   4.234  1.00 20.00     0.152 C 
HETATM    7 CL10 UNL     1     -32.085   9.260   5.094  1.00 20.00    -0.117 Cl
BRANCH   6   8
HETATM    8  C6  UNL     1     -32.302   7.220   3.306  1.00 20.00     0.027 C 
BRANCH   8   9
HETATM    9  C5  UNL     1     -32.232   7.787   1.885  1.00 20.00    -0.003 C 
HETATM   10  C2  UNL     1     -32.823   9.186   1.815  1.00 20.00     0.005 C 
ENDBRANCH   8   9
ENDBRANCH   6   8
ENDBRANCH   1   6
TORSDOF 4
ENDMDL
MODEL 3
REMARK VINA RESULT:      -4.0      1.826      2.056
REMARK  4 active torsions:
REMARK  status: ('A' for Active; 'I' for Inactive)
REMARK    1  A    between atoms: C1_1  and  C7_7 
REMARK    2  A    between atoms: C1_1  and  C8_8 
REMARK    3  A    between atoms: C5_5  and  C6_6 
REMARK    4  A    between atoms: C6_6  and  C8_8 
ROOT
HETATM    1  C1  UNL     1     -33.334   6.819   3.918  1.00 20.00     0.148 C 
HETATM    2  O9  UNL     1     -32.730   5.914   3.341  1.00 20.00    -0.296 OA
ENDROOT
BRANCH   1   3
HETATM    3  C7  UNL     1     -34.421   6.532   4.952  1.00 20.00     0.049 C 
HETATM    4  C3  UNL     1     -33.933   6.844   6.364  1.00 20.00     0.017 C 
HETATM    5  C4  UNL     1     -34.871   5.080   4.843  1.00 20.00     0.017 C 
ENDBRANCH   1   3
BRANCH   1   6
HETATM    6  C8  UNL     1     -33.036   8.284   3.625  1.00 20.00     0.152 C 
HETATM    7 CL10 UNL     1     -32.083   8.894   5.006  1.00 20.00    -0.117 Cl
BRANCH   6   8
HETATM    8  C6  UNL     1     -32.251   8.459   2.325  1.00 20.00     0.027 C 
BRANCH   8   9
HETATM    9  C5  UNL     1     -32.874   9.522   1.416  1.00 20.00    -0.003 C 
HETATM   10  C2  UNL     1     -32.834   9.097  -0.044  1.00 20.00     0.005 C 
ENDBRANCH   8   9
ENDBRANCH   6   8
ENDBRANCH   1   6
TORSDOF 4
ENDMDL
MODEL 4
REMARK VINA RESULT:      -3.8      9.686     10.392
REMARK  4 active torsions:
REMARK  status: ('A' for Active; 'I' for Inactive)
REMARK    1  A    between atoms: C1_1  and  C7_7 
REMARK    2  A    between atoms: C1_1  and  C8_8 
REMARK    3  A    between atoms: C5_5  and  C6_6 
REMARK    4  A    between atoms: C6_6  and  C8_8 
ROOT
HETATM    1  C1  UNL     1     -41.999  12.997   6.500  1.00 20.00     0.148 C 
HETATM    2  O9  UNL     1     -42.487  12.071   7.151  1.00 20.00    -0.296 OA
ENDROOT
BRANCH   1   3
HETATM    3  C7  UNL     1     -42.859  13.913   5.631  1.00 20.00     0.049 C 
HETATM    4  C3  UNL     1     -42.102  14.355   4.382  1.00 20.00     0.017 C 
HETATM    5  C4  UNL     1     -43.316  15.119   6.443  1.00 20.00     0.017 C 
ENDBRANCH   1   3
BRANCH   1   6
HETATM    6  C8  UNL     1     -40.502  13.276   6.517  1.00 20.00     0.152 C 
HETATM    7 CL10 UNL     1     -40.153  14.073   8.077  1.00 20.00    -0.117 Cl
BRANCH   6   8
HETATM    8  C6  UNL     1     -39.680  11.994   6.385  1.00 20.00     0.027 C 
BRANCH   8   9
HETATM    9  C5  UNL     1     -38.587  12.119   5.320  1.00 20.00    -0.003 C 
HETATM   10  C2  UNL     1     -39.092  11.684   3.953  1.00 20.00     0.005 C 
ENDBRANCH   8   9
ENDBRANCH   6   8
ENDBRANCH   1   6
TORSDOF 4
ENDMDL
MODEL 5
REMARK VINA RESULT:      -3.8     11.535     12.333
REMARK  4 active torsions:
REMARK  status: ('A' for Active; 'I' for Inactive)
REMARK    1  A    between atoms: C1_1  and  C7_7 
REMARK    2  A    between atoms: C1_1  and  C8_8 
REMARK    3  A    between atoms: C5_5  and  C6_6 
REMARK    4  A    between atoms: C6_6  and  C8_8 
ROOT
HETATM    1  C1  UNL     1     -32.840  18.674  -1.911  1.00 20.00     0.148 C 
HETATM    2  O9  UNL     1     -32.169  19.263  -2.759  1.00 20.00    -0.296 OA
ENDROOT
BRANCH   1   3
HETATM    3  C7  UNL     1     -32.640  18.914  -0.415  1.00 20.00     0.049 C 
HETATM    4  C3  UNL     1     -31.230  18.525   0.021  1.00 20.00     0.017 C 
HETATM    5  C4  UNL     1     -33.686  18.141   0.379  1.00 20.00     0.017 C 
ENDBRANCH   1   3
BRANCH   1   6
HETATM    6  C8  UNL     1     -33.906  17.660  -2.305  1.00 20.00     0.152 C 
HETATM    7 CL10 UNL     1     -34.785  18.362  -3.693  1.00 20.00    -0.117 Cl
BRANCH   6   8
HETATM    8  C6  UNL     1     -33.298  16.313  -2.694  1.00 20.00     0.027 C 
BRANCH   8   9
HETATM    9  C5  UNL     1     -33.681  15.900  -4.118  1.00 20.00    -0.003 C 
HETATM   10  C2  UNL     1     -34.055  14.427  -4.187  1.00 20.00     0.005 C 
ENDBRANCH   8   9
ENDBRANCH   6   8
ENDBRANCH   1   6
TORSDOF 4
ENDMDL
MODEL 6
REMARK VINA RESULT:      -3.8      2.143      2.720
REMARK  4 active torsions:
REMARK  status: ('A' for Active; 'I' for Inactive)
REMARK    1  A    between atoms: C1_1  and  C7_7 
REMARK    2  A    between atoms: C1_1  and  C8_8 
REMARK    3  A    between atoms: C5_5  and  C6_6 
REMARK    4  A    between atoms: C6_6  and  C8_8 
ROOT
HETATM    1  C1  UNL     1     -33.836   5.089   4.171  1.00 20.00     0.148 C 
HETATM    2  O9  UNL     1     -34.019   3.888   4.374  1.00 20.00    -0.296 OA
ENDROOT
BRANCH   1   3
HETATM    3  C7  UNL     1     -34.710   6.159   4.824  1.00 20.00     0.049 C 
HETATM    4  C3  UNL     1     -34.771   5.971   6.338  1.00 20.00     0.017 C 
HETATM    5  C4  UNL     1     -36.107   6.129   4.217  1.00 20.00     0.017 C 
ENDBRANCH   1   3
BRANCH   1   6
HETATM    6  C8  UNL     1     -32.729   5.578   3.247  1.00 20.00     0.152 C 
HETATM    7 CL10 UNL     1     -32.900   4.665   1.722  1.00 20.00    -0.117 Cl
BRANCH   6   8
HETATM    8  C6  UNL     1     -32.831   7.079   2.976  1.00 20.00     0.027 C 
BRANCH   8   9
HETATM    9  C5  UNL     1     -31.768   7.874   3.739  1.00 20.00    -0.003 C 
HETATM   10  C2  UNL     1     -32.396   8.758   4.806  1.00 20.00     0.005 C 
ENDBRANCH   8   9
ENDBRANCH   6   8
ENDBRANCH   1   6
TORSDOF 4
ENDMDL
MODEL 7
REMARK VINA RESULT:      -3.7      2.034      4.605
REMARK  4 active torsions:
REMARK  status: ('A' for Active; 'I' for Inactive)
REMARK    1  A    between atoms: C1_1  and  C7_7 
REMARK    2  A    between atoms: C1_1  and  C8_8 
REMARK    3  A    between atoms: C5_5  and  C6_6 
REMARK    4  A    between atoms: C6_6  and  C8_8 
ROOT
HETATM    1  C1  UNL     1     -33.125   6.073   3.221  1.00 20.00     0.148 C 
HETATM    2  O9  UNL     1     -33.056   5.101   2.467  1.00 20.00    -0.296 OA
ENDROOT
BRANCH   1   3
HETATM    3  C7  UNL     1     -32.160   7.252   3.107  1.00 20.00     0.049 C 
HETATM    4  C3  UNL     1     -32.411   8.276   4.212  1.00 20.00     0.017 C 
HETATM    5  C4  UNL     1     -32.288   7.896   1.732  1.00 20.00     0.017 C 
ENDBRANCH   1   3
BRANCH   1   6
HETATM    6  C8  UNL     1     -34.176   6.151   4.321  1.00 20.00     0.152 C 
HETATM    7 CL10 UNL     1     -35.756   6.301   3.502  1.00 20.00    -0.117 Cl
BRANCH   6   8
HETATM    8  C6  UNL     1     -34.162   4.911   5.214  1.00 20.00     0.027 C 
BRANCH   8   9
HETATM    9  C5  UNL     1     -34.422   5.258   6.683  1.00 20.00    -0.003 C 
HETATM   10  C2  UNL     1     -34.410   6.763   6.909  1.00 20.00     0.005 C 
ENDBRANCH   8   9
ENDBRANCH   6   8
ENDBRANCH   1   6
TORSDOF 4
ENDMDL
MODEL 8
REMARK VINA RESULT:      -3.7      2.490      4.145
REMARK  4 active torsions:
REMARK  status: ('A' for Active; 'I' for Inactive)
REMARK    1  A    between atoms: C1_1  and  C7_7 
REMARK    2  A    between atoms: C1_1  and  C8_8 
REMARK    3  A    between atoms: C5_5  and  C6_6 
REMARK    4  A    between atoms: C6_6  and  C8_8 
ROOT
HETATM    1  C1  UNL     1     -33.810   4.996   4.032  1.00 20.00     0.148 C 
HETATM    2  O9  UNL     1     -34.067   3.858   4.427  1.00 20.00    -0.296 OA
ENDROOT
BRANCH   1   3
HETATM    3  C7  UNL     1     -32.737   5.261   2.977  1.00 20.00     0.049 C 
HETATM    4  C3  UNL     1     -32.498   6.758   2.799  1.00 20.00     0.017 C 
HETATM    5  C4  UNL     1     -33.140   4.616   1.656  1.00 20.00     0.017 C 
ENDBRANCH   1   3
BRANCH   1   6
HETATM    6  C8  UNL     1     -34.543   6.212   4.584  1.00 20.00     0.152 C 
HETATM    7 CL10 UNL     1     -36.237   6.076   4.032  1.00 20.00    -0.117 Cl
BRANCH   6   8
HETATM    8  C6  UNL     1     -34.490   6.268   6.110  1.00 20.00     0.027 C 
BRANCH   8   9
HETATM    9  C5  UNL     1     -33.734   7.501   6.614  1.00 20.00    -0.003 C 
HETATM   10  C2  UNL     1     -33.499   8.504   5.495  1.00 20.00     0.005 C 
ENDBRANCH   8   9
ENDBRANCH   6   8
ENDBRANCH   1   6
TORSDOF 4
ENDMDL
MODEL 9
REMARK VINA RESULT:      -3.7     10.101     10.758
REMARK  4 active torsions:
REMARK  status: ('A' for Active; 'I' for Inactive)
REMARK    1  A    between atoms: C1_1  and  C7_7 
REMARK    2  A    between atoms: C1_1  and  C8_8 
REMARK    3  A    between atoms: C5_5  and  C6_6 
REMARK    4  A    between atoms: C6_6  and  C8_8 
ROOT
HETATM    1  C1  UNL     1     -41.578  14.111   7.627  1.00 20.00     0.148 C 
HETATM    2  O9  UNL     1     -42.644  14.107   8.244  1.00 20.00    -0.296 OA
ENDROOT
BRANCH   1   3
HETATM    3  C7  UNL     1     -40.437  15.058   7.995  1.00 20.00     0.049 C 
HETATM    4  C3  UNL     1     -40.184  15.055   9.501  1.00 20.00     0.017 C 
HETATM    5  C4  UNL     1     -40.751  16.465   7.502  1.00 20.00     0.017 C 
ENDBRANCH   1   3
BRANCH   1   6
HETATM    6  C8  UNL     1     -41.339  13.175   6.450  1.00 20.00     0.152 C 
HETATM    7 CL10 UNL     1     -41.850  14.060   4.986  1.00 20.00    -0.117 Cl
BRANCH   6   8
HETATM    8  C6  UNL     1     -39.870  12.767   6.332  1.00 20.00     0.027 C 
BRANCH   8   9
HETATM    9  C5  UNL     1     -39.695  11.473   5.533  1.00 20.00    -0.003 C 
HETATM   10  C2  UNL     1     -39.062  11.739   4.176  1.00 20.00     0.005 C 
ENDBRANCH   8   9
ENDBRANCH   6   8
ENDBRANCH   1   6
TORSDOF 4
ENDMDL
