MODEL 1
REMARK VINA RESULT:      -4.4      0.000      0.000
REMARK  0 active torsions:
REMARK  status: ('A' for Active; 'I' for Inactive)
ROOT
HETATM    1  C1  UNL     1     -32.791   8.662   2.521  1.00 20.00     0.083 C 
HETATM    2  C2  UNL     1     -34.943   6.531   4.463  1.00 20.00    -0.003 A 
HETATM    3  C3  UNL     1     -34.729   6.002   5.744  1.00 20.00    -0.011 A 
HETATM    4  C4  UNL     1     -34.201   7.246   5.547  1.00 20.00    -0.006 A 
HETATM    5  C5  UNL     1     -34.055   5.687   3.862  1.00 20.00    -0.016 C 
HETATM    6  C6  UNL     1     -32.496   7.199   2.418  1.00 20.00     0.052 C 
HETATM    7  C7  UNL     1     -34.365   4.663   5.050  1.00 20.00     0.023 C 
HETATM    8  C8  UNL     1     -32.320   8.822   4.834  1.00 20.00     0.153 C 
HETATM    9  C9  UNL     1     -32.729   7.382   5.007  1.00 20.00     0.022 C 
HETATM   10  C10 UNL     1     -32.579   6.458   3.751  1.00 20.00     0.007 C 
HETATM   11  N11 UNL     1     -32.719   9.395   3.569  1.00 20.00    -0.305 NA
ENDROOT
TORSDOF 0
ENDMDL
MODEL 2
REMARK VINA RESULT:      -4.4      1.724      3.534
REMARK  0 active torsions:
REMARK  status: ('A' for Active; 'I' for Inactive)
ROOT
HETATM    1  C1  UNL     1     -34.018   4.761   5.506  1.00 20.00     0.083 C 
HETATM    2  C2  UNL     1     -32.026   7.451   4.188  1.00 20.00    -0.003 A 
HETATM    3  C3  UNL     1     -32.276   8.830   4.231  1.00 20.00    -0.011 A 
HETATM    4  C4  UNL     1     -32.711   8.139   5.325  1.00 20.00    -0.006 A 
HETATM    5  C5  UNL     1     -32.975   7.212   3.237  1.00 20.00    -0.016 C 
HETATM    6  C6  UNL     1     -34.421   5.242   4.148  1.00 20.00     0.052 C 
HETATM    7  C7  UNL     1     -32.740   8.718   2.755  1.00 20.00     0.023 C 
HETATM    8  C8  UNL     1     -34.472   6.804   6.610  1.00 20.00     0.153 C 
HETATM    9  C9  UNL     1     -34.170   7.549   5.334  1.00 20.00     0.022 C 
HETATM   10  C10 UNL     1     -34.390   6.761   3.999  1.00 20.00     0.007 C 
HETATM   11  N11 UNL     1     -34.034   5.426   6.601  1.00 20.00    -0.305 NA
ENDROOT
TORSDOF 0
ENDMDL
MODEL 3
REMARK VINA RESULT:      -4.2      1.871      3.490
REMARK  0 active torsions:
REMARK  status: ('A' for Active; 'I' for Inactive)
ROOT
HETATM    1  C1  UNL     1     -33.598   4.259   4.298  1.00 20.00     0.083 C 
HETATM    2  C2  UNL     1     -32.423   7.608   4.886  1.00 20.00    -0.003 A 
HETATM    3  C3  UNL     1     -33.139   8.812   4.827  1.00 20.00    -0.011 A 
HETATM    4  C4  UNL     1     -33.861   7.742   5.274  1.00 20.00    -0.006 A 
HETATM    5  C5  UNL     1     -32.388   7.451   3.531  1.00 20.00    -0.016 C 
HETATM    6  C6  UNL     1     -33.206   5.018   3.071  1.00 20.00     0.052 C 
HETATM    7  C7  UNL     1     -32.491   9.044   3.437  1.00 20.00     0.023 C 
HETATM    8  C8  UNL     1     -35.367   5.710   4.902  1.00 20.00     0.153 C 
HETATM    9  C9  UNL     1     -34.643   6.853   4.236  1.00 20.00     0.022 C 
HETATM   10  C10 UNL     1     -33.662   6.475   3.075  1.00 20.00     0.007 C 
HETATM   11  N11 UNL     1     -34.543   4.542   5.116  1.00 20.00    -0.305 NA
ENDROOT
TORSDOF 0
ENDMDL
MODEL 4
REMARK VINA RESULT:      -4.2      8.860      9.884
REMARK  0 active torsions:
REMARK  status: ('A' for Active; 'I' for Inactive)
ROOT
HETATM    1  C1  UNL     1     -42.577  13.179   7.654  1.00 20.00     0.083 C 
HETATM    2  C2  UNL     1     -39.893  11.527   5.920  1.00 20.00    -0.003 A 
HETATM    3  C3  UNL     1     -38.640  12.038   5.554  1.00 20.00    -0.011 A 
HETATM    4  C4  UNL     1     -39.131  12.527   6.730  1.00 20.00    -0.006 A 
HETATM    5  C5  UNL     1     -40.564  12.222   4.957  1.00 20.00    -0.016 C 
HETATM    6  C6  UNL     1     -42.540  13.410   6.177  1.00 20.00     0.052 C 
HETATM    7  C7  UNL     1     -39.203  12.193   4.117  1.00 20.00     0.023 C 
HETATM    8  C8  UNL     1     -40.492  14.207   8.094  1.00 20.00     0.153 C 
HETATM    9  C9  UNL     1     -40.024  13.824   6.713  1.00 20.00     0.022 C 
HETATM   10  C10 UNL     1     -41.135  13.641   5.625  1.00 20.00     0.007 C 
HETATM   11  N11 UNL     1     -41.693  13.521   8.515  1.00 20.00    -0.305 NA
ENDROOT
TORSDOF 0
ENDMDL
MODEL 5
REMARK VINA RESULT:      -4.0      1.382      2.468
REMARK  0 active torsions:
REMARK  status: ('A' for Active; 'I' for Inactive)
ROOT
HETATM    1  C1  UNL     1     -31.920   7.628   3.551  1.00 20.00     0.083 C 
HETATM    2  C2  UNL     1     -33.383   5.672   6.192  1.00 20.00    -0.003 A 
HETATM    3  C3  UNL     1     -34.580   4.941   6.183  1.00 20.00    -0.011 A 
HETATM    4  C4  UNL     1     -33.918   4.965   4.989  1.00 20.00    -0.006 A 
HETATM    5  C5  UNL     1     -34.011   6.882   6.256  1.00 20.00    -0.016 C 
HETATM    6  C6  UNL     1     -32.950   8.338   4.371  1.00 20.00     0.052 C 
HETATM    7  C7  UNL     1     -35.218   6.115   6.972  1.00 20.00     0.023 C 
HETATM    8  C8  UNL     1     -33.400   5.988   2.704  1.00 20.00     0.153 C 
HETATM    9  C9  UNL     1     -34.234   6.109   3.955  1.00 20.00     0.022 C 
HETATM   10  C10 UNL     1     -34.168   7.482   4.707  1.00 20.00     0.007 C 
HETATM   11  N11 UNL     1     -32.094   6.597   2.811  1.00 20.00    -0.305 NA
ENDROOT
TORSDOF 0
ENDMDL
MODEL 6
REMARK VINA RESULT:      -3.7     10.360     11.484
REMARK  0 active torsions:
REMARK  status: ('A' for Active; 'I' for Inactive)
ROOT
HETATM    1  C1  UNL     1     -42.418  13.851   9.695  1.00 20.00     0.083 C 
HETATM    2  C2  UNL     1     -41.630  12.708   6.377  1.00 20.00    -0.003 A 
HETATM    3  C3  UNL     1     -40.675  13.209   5.481  1.00 20.00    -0.011 A 
HETATM    4  C4  UNL     1     -40.315  13.284   6.796  1.00 20.00    -0.006 A 
HETATM    5  C5  UNL     1     -42.486  13.756   6.199  1.00 20.00    -0.016 C 
HETATM    6  C6  UNL     1     -43.104  14.590   8.591  1.00 20.00     0.052 C 
HETATM    7  C7  UNL     1     -41.843  13.914   4.743  1.00 20.00     0.023 C 
HETATM    8  C8  UNL     1     -40.227  14.474   9.057  1.00 20.00     0.153 C 
HETATM    9  C9  UNL     1     -40.684  14.572   7.623  1.00 20.00     0.022 C 
HETATM   10  C10 UNL     1     -42.202  14.884   7.394  1.00 20.00     0.007 C 
HETATM   11  N11 UNL     1     -41.159  13.786   9.922  1.00 20.00    -0.305 NA
ENDROOT
TORSDOF 0
ENDMDL
MODEL 7
REMARK VINA RESULT:      -3.7     12.091     13.222
REMARK  0 active torsions:
REMARK  status: ('A' for Active; 'I' for Inactive)
ROOT
HETATM    1  C1  UNL     1     -34.860  16.314  -4.703  1.00 20.00     0.083 C 
HETATM    2  C2  UNL     1     -34.471  18.199  -1.665  1.00 20.00    -0.003 A 
HETATM    3  C3  UNL     1     -33.583  19.250  -1.392  1.00 20.00    -0.011 A 
HETATM    4  C4  UNL     1     -34.037  19.208  -2.679  1.00 20.00    -0.006 A 
HETATM    5  C5  UNL     1     -33.501  17.241  -1.616  1.00 20.00    -0.016 C 
HETATM    6  C6  UNL     1     -33.775  15.833  -3.794  1.00 20.00     0.052 C 
HETATM    7  C7  UNL     1     -32.712  18.220  -0.627  1.00 20.00     0.023 C 
HETATM    8  C8  UNL     1     -33.888  18.432  -5.110  1.00 20.00     0.153 C 
HETATM    9  C9  UNL     1     -33.235  18.382  -3.753  1.00 20.00     0.022 C 
HETATM   10  C10 UNL     1     -32.954  16.957  -3.166  1.00 20.00     0.007 C 
HETATM   11  N11 UNL     1     -34.931  17.448  -5.294  1.00 20.00    -0.305 NA
ENDROOT
TORSDOF 0
ENDMDL
MODEL 8
REMARK VINA RESULT:      -3.6     11.610     13.305
REMARK  0 active torsions:
REMARK  status: ('A' for Active; 'I' for Inactive)
ROOT
HETATM    1  C1  UNL     1     -34.387  16.338  -7.504  1.00 20.00     0.083 C 
HETATM    2  C2  UNL     1     -32.982  15.966  -4.214  1.00 20.00    -0.003 A 
HETATM    3  C3  UNL     1     -33.602  15.511  -3.042  1.00 20.00    -0.011 A 
HETATM    4  C4  UNL     1     -34.043  14.913  -4.187  1.00 20.00    -0.006 A 
HETATM    5  C5  UNL     1     -33.618  17.173  -4.195  1.00 20.00    -0.016 C 
HETATM    6  C6  UNL     1     -34.623  17.489  -6.581  1.00 20.00     0.052 C 
HETATM    7  C7  UNL     1     -33.710  16.996  -2.608  1.00 20.00     0.023 C 
HETATM    8  C8  UNL     1     -35.593  14.764  -6.214  1.00 20.00     0.153 C 
HETATM    9  C9  UNL     1     -35.256  15.543  -4.968  1.00 20.00     0.022 C 
HETATM   10  C10 UNL     1     -34.978  17.073  -5.155  1.00 20.00     0.007 C 
HETATM   11  N11 UNL     1     -34.803  15.134  -7.367  1.00 20.00    -0.305 NA
ENDROOT
TORSDOF 0
ENDMDL
MODEL 9
REMARK VINA RESULT:      -3.6     12.537     13.648
REMARK  0 active torsions:
REMARK  status: ('A' for Active; 'I' for Inactive)
ROOT
HETATM    1  C1  UNL     1     -24.084  -2.862  10.400  1.00 20.00     0.083 C 
HETATM    2  C2  UNL     1     -27.292  -1.269  10.078  1.00 20.00    -0.003 A 
HETATM    3  C3  UNL     1     -28.160  -0.832  11.090  1.00 20.00    -0.011 A 
HETATM    4  C4  UNL     1     -26.833  -0.714  11.389  1.00 20.00    -0.006 A 
HETATM    5  C5  UNL     1     -27.569  -2.590  10.280  1.00 20.00    -0.016 C 
HETATM    6  C6  UNL     1     -25.259  -3.782  10.486  1.00 20.00     0.052 C 
HETATM    7  C7  UNL     1     -28.994  -2.112  10.828  1.00 20.00     0.023 C 
HETATM    8  C8  UNL     1     -24.633  -1.613  12.332  1.00 20.00     0.153 C 
HETATM    9  C9  UNL     1     -26.093  -1.910  12.096  1.00 20.00     0.022 C 
HETATM   10  C10 UNL     1     -26.419  -3.224  11.308  1.00 20.00     0.007 C 
HETATM   11  N11 UNL     1     -23.787  -1.906  11.198  1.00 20.00    -0.305 NA
ENDROOT
TORSDOF 0
ENDMDL
