MODEL 1
REMARK VINA RESULT:      -5.0      0.000      0.000
REMARK  4 active torsions:
REMARK  status: ('A' for Active; 'I' for Inactive)
REMARK    1  A    between atoms: C1_1  and  C6_6 
REMARK    2  A    between atoms: C2_2  and  C7_7 
REMARK    3  A    between atoms: C6_6  and  C8_8 
REMARK    4  A    between atoms: C7_7  and  C9_9 
ROOT
HETATM    1  C1  UNL     1     -33.674   7.542   5.541  1.00 20.00    -0.107 C 
HETATM    2  C2  UNL     1     -33.150   8.122   4.629  1.00 20.00    -0.106 C 
ENDROOT
BRANCH   2   3
HETATM    3  C7  UNL     1     -32.510   8.822   3.505  1.00 20.00     0.097 C 
BRANCH   3   4
HETATM    4  C9  UNL     1     -31.987   7.878   2.409  1.00 20.00    -0.012 C 
HETATM    5  C4  UNL     1     -32.272   8.408   1.001  1.00 20.00     0.010 C 
HETATM    6  C5  UNL     1     -32.521   6.452   2.565  1.00 20.00     0.010 C 
ENDBRANCH   3   4
ENDBRANCH   2   3
BRANCH   1   7
HETATM    7  C6  UNL     1     -34.316   6.821   6.647  1.00 20.00     0.093 C 
BRANCH   7   8
HETATM    8  C8  UNL     1     -34.501   5.336   6.337  1.00 20.00     0.007 C 
HETATM    9  C3  UNL     1     -34.905   5.075   4.892  1.00 20.00     0.006 C 
ENDBRANCH   7   8
ENDBRANCH   1   7
TORSDOF 4
ENDMDL
MODEL 2
REMARK VINA RESULT:      -4.6      0.984      4.789
REMARK  4 active torsions:
REMARK  status: ('A' for Active; 'I' for Inactive)
REMARK    1  A    between atoms: C1_1  and  C6_6 
REMARK    2  A    between atoms: C2_2  and  C7_7 
REMARK    3  A    between atoms: C6_6  and  C8_8 
REMARK    4  A    between atoms: C7_7  and  C9_9 
ROOT
HETATM    1  C1  UNL     1     -32.656   7.941   3.671  1.00 20.00    -0.107 C 
HETATM    2  C2  UNL     1     -33.177   7.700   4.726  1.00 20.00    -0.106 C 
ENDROOT
BRANCH   2   3
HETATM    3  C7  UNL     1     -33.826   7.404   6.012  1.00 20.00     0.097 C 
BRANCH   3   4
HETATM    4  C9  UNL     1     -34.728   6.159   5.975  1.00 20.00    -0.012 C 
HETATM    5  C4  UNL     1     -34.017   4.910   6.502  1.00 20.00     0.010 C 
HETATM    6  C5  UNL     1     -35.308   5.901   4.582  1.00 20.00     0.010 C 
ENDBRANCH   3   4
ENDBRANCH   2   3
BRANCH   1   7
HETATM    7  C6  UNL     1     -32.032   8.235   2.374  1.00 20.00     0.093 C 
BRANCH   7   8
HETATM    8  C8  UNL     1     -32.773   9.336   1.615  1.00 20.00     0.007 C 
HETATM    9  C3  UNL     1     -32.765   9.127   0.106  1.00 20.00     0.006 C 
ENDBRANCH   7   8
ENDBRANCH   1   7
TORSDOF 4
ENDMDL
MODEL 3
REMARK VINA RESULT:      -4.6      0.905      4.207
REMARK  4 active torsions:
REMARK  status: ('A' for Active; 'I' for Inactive)
REMARK    1  A    between atoms: C1_1  and  C6_6 
REMARK    2  A    between atoms: C2_2  and  C7_7 
REMARK    3  A    between atoms: C6_6  and  C8_8 
REMARK    4  A    between atoms: C7_7  and  C9_9 
ROOT
HETATM    1  C1  UNL     1     -33.028   8.087   5.319  1.00 20.00    -0.107 C 
HETATM    2  C2  UNL     1     -33.643   7.185   5.819  1.00 20.00    -0.106 C 
ENDROOT
BRANCH   2   3
HETATM    3  C7  UNL     1     -34.386   6.073   6.430  1.00 20.00     0.097 C 
BRANCH   3   4
HETATM    4  C9  UNL     1     -34.984   5.094   5.405  1.00 20.00    -0.012 C 
HETATM    5  C4  UNL     1     -33.917   4.210   4.755  1.00 20.00     0.010 C 
HETATM    6  C5  UNL     1     -35.816   5.807   4.336  1.00 20.00     0.010 C 
ENDBRANCH   3   4
ENDBRANCH   2   3
BRANCH   1   7
HETATM    7  C6  UNL     1     -32.265   9.181   4.705  1.00 20.00     0.093 C 
BRANCH   7   8
HETATM    8  C8  UNL     1     -32.291   9.116   3.178  1.00 20.00     0.007 C 
HETATM    9  C3  UNL     1     -32.220   7.693   2.640  1.00 20.00     0.006 C 
ENDBRANCH   7   8
ENDBRANCH   1   7
TORSDOF 4
ENDMDL
MODEL 4
REMARK VINA RESULT:      -4.5      0.717      1.344
REMARK  4 active torsions:
REMARK  status: ('A' for Active; 'I' for Inactive)
REMARK    1  A    between atoms: C1_1  and  C6_6 
REMARK    2  A    between atoms: C2_2  and  C7_7 
REMARK    3  A    between atoms: C6_6  and  C8_8 
REMARK    4  A    between atoms: C7_7  and  C9_9 
ROOT
HETATM    1  C1  UNL     1     -33.652   7.551   5.684  1.00 20.00    -0.107 C 
HETATM    2  C2  UNL     1     -33.127   8.230   4.844  1.00 20.00    -0.106 C 
ENDROOT
BRANCH   2   3
HETATM    3  C7  UNL     1     -32.479   9.050   3.810  1.00 20.00     0.097 C 
BRANCH   3   4
HETATM    4  C9  UNL     1     -32.873   8.659   2.375  1.00 20.00    -0.012 C 
HETATM    5  C4  UNL     1     -32.080   7.455   1.862  1.00 20.00     0.010 C 
HETATM    6  C5  UNL     1     -32.760   9.833   1.400  1.00 20.00     0.010 C 
ENDBRANCH   3   4
ENDBRANCH   2   3
BRANCH   1   7
HETATM    7  C6  UNL     1     -34.287   6.709   6.706  1.00 20.00     0.093 C 
BRANCH   7   8
HETATM    8  C8  UNL     1     -34.549   5.290   6.203  1.00 20.00     0.007 C 
HETATM    9  C3  UNL     1     -34.881   5.236   4.718  1.00 20.00     0.006 C 
ENDBRANCH   7   8
ENDBRANCH   1   7
TORSDOF 4
ENDMDL
MODEL 5
REMARK VINA RESULT:      -4.5      0.818      2.325
REMARK  4 active torsions:
REMARK  status: ('A' for Active; 'I' for Inactive)
REMARK    1  A    between atoms: C1_1  and  C6_6 
REMARK    2  A    between atoms: C2_2  and  C7_7 
REMARK    3  A    between atoms: C6_6  and  C8_8 
REMARK    4  A    between atoms: C7_7  and  C9_9 
ROOT
HETATM    1  C1  UNL     1     -33.874   5.668   3.978  1.00 20.00    -0.107 C 
HETATM    2  C2  UNL     1     -33.109   6.242   3.250  1.00 20.00    -0.106 C 
ENDROOT
BRANCH   2   3
HETATM    3  C7  UNL     1     -32.182   6.951   2.357  1.00 20.00     0.097 C 
BRANCH   3   4
HETATM    4  C9  UNL     1     -32.062   8.454   2.661  1.00 20.00    -0.012 C 
HETATM    5  C4  UNL     1     -32.437   8.786   4.108  1.00 20.00     0.010 C 
HETATM    6  C5  UNL     1     -32.869   9.313   1.685  1.00 20.00     0.010 C 
ENDBRANCH   3   4
ENDBRANCH   2   3
BRANCH   1   7
HETATM    7  C6  UNL     1     -34.820   4.978   4.864  1.00 20.00     0.093 C 
BRANCH   7   8
HETATM    8  C8  UNL     1     -34.596   5.333   6.334  1.00 20.00     0.007 C 
HETATM    9  C3  UNL     1     -34.289   6.808   6.551  1.00 20.00     0.006 C 
ENDBRANCH   7   8
ENDBRANCH   1   7
TORSDOF 4
ENDMDL
MODEL 6
REMARK VINA RESULT:      -4.1     11.655     12.414
REMARK  4 active torsions:
REMARK  status: ('A' for Active; 'I' for Inactive)
REMARK    1  A    between atoms: C1_1  and  C6_6 
REMARK    2  A    between atoms: C2_2  and  C7_7 
REMARK    3  A    between atoms: C6_6  and  C8_8 
REMARK    4  A    between atoms: C7_7  and  C9_9 
ROOT
HETATM    1  C1  UNL     1     -33.450  16.704  -2.313  1.00 20.00    -0.107 C 
HETATM    2  C2  UNL     1     -33.507  15.916  -3.217  1.00 20.00    -0.106 C 
ENDROOT
BRANCH   2   3
HETATM    3  C7  UNL     1     -33.565  14.949  -4.324  1.00 20.00     0.097 C 
BRANCH   3   4
HETATM    4  C9  UNL     1     -34.633  15.284  -5.379  1.00 20.00    -0.012 C 
HETATM    5  C4  UNL     1     -35.836  14.340  -5.308  1.00 20.00     0.010 C 
HETATM    6  C5  UNL     1     -34.059  15.317  -6.798  1.00 20.00     0.010 C 
ENDBRANCH   3   4
ENDBRANCH   2   3
BRANCH   1   7
HETATM    7  C6  UNL     1     -33.365  17.664  -1.204  1.00 20.00     0.093 C 
BRANCH   7   8
HETATM    8  C8  UNL     1     -32.153  18.586  -1.332  1.00 20.00     0.007 C 
HETATM    9  C3  UNL     1     -31.254  18.562  -0.104  1.00 20.00     0.006 C 
ENDBRANCH   7   8
ENDBRANCH   1   7
TORSDOF 4
ENDMDL
MODEL 7
REMARK VINA RESULT:      -4.0      1.303      4.909
REMARK  4 active torsions:
REMARK  status: ('A' for Active; 'I' for Inactive)
REMARK    1  A    between atoms: C1_1  and  C6_6 
REMARK    2  A    between atoms: C2_2  and  C7_7 
REMARK    3  A    between atoms: C6_6  and  C8_8 
REMARK    4  A    between atoms: C7_7  and  C9_9 
ROOT
HETATM    1  C1  UNL     1     -32.523   6.921   2.920  1.00 20.00    -0.107 C 
HETATM    2  C2  UNL     1     -33.031   5.929   3.367  1.00 20.00    -0.106 C 
ENDROOT
BRANCH   2   3
HETATM    3  C7  UNL     1     -33.663   4.718   3.913  1.00 20.00     0.097 C 
BRANCH   3   4
HETATM    4  C9  UNL     1     -34.824   5.012   4.879  1.00 20.00    -0.012 C 
HETATM    5  C4  UNL     1     -35.771   6.086   4.341  1.00 20.00     0.010 C 
HETATM    6  C5  UNL     1     -34.334   5.380   6.282  1.00 20.00     0.010 C 
ENDBRANCH   3   4
ENDBRANCH   2   3
BRANCH   1   7
HETATM    7  C6  UNL     1     -31.916   8.140   2.370  1.00 20.00     0.093 C 
BRANCH   7   8
HETATM    8  C8  UNL     1     -32.094   8.240   0.855  1.00 20.00     0.007 C 
HETATM    9  C3  UNL     1     -32.811   9.511   0.421  1.00 20.00     0.006 C 
ENDBRANCH   7   8
ENDBRANCH   1   7
TORSDOF 4
ENDMDL
MODEL 8
REMARK VINA RESULT:      -3.8     11.467     12.320
REMARK  4 active torsions:
REMARK  status: ('A' for Active; 'I' for Inactive)
REMARK    1  A    between atoms: C1_1  and  C6_6 
REMARK    2  A    between atoms: C2_2  and  C7_7 
REMARK    3  A    between atoms: C6_6  and  C8_8 
REMARK    4  A    between atoms: C7_7  and  C9_9 
ROOT
HETATM    1  C1  UNL     1     -33.318  16.431  -2.841  1.00 20.00    -0.107 C 
HETATM    2  C2  UNL     1     -33.686  15.536  -3.551  1.00 20.00    -0.106 C 
ENDROOT
BRANCH   2   3
HETATM    3  C7  UNL     1     -34.148  14.439  -4.415  1.00 20.00     0.097 C 
BRANCH   3   4
HETATM    4  C9  UNL     1     -34.909  14.916  -5.664  1.00 20.00    -0.012 C 
HETATM    5  C4  UNL     1     -33.966  15.343  -6.791  1.00 20.00     0.010 C 
HETATM    6  C5  UNL     1     -35.909  16.031  -5.346  1.00 20.00     0.010 C 
ENDBRANCH   3   4
ENDBRANCH   2   3
BRANCH   1   7
HETATM    7  C6  UNL     1     -32.881  17.526  -1.964  1.00 20.00     0.093 C 
BRANCH   7   8
HETATM    8  C8  UNL     1     -33.901  17.829  -0.868  1.00 20.00     0.007 C 
HETATM    9  C3  UNL     1     -33.259  18.305   0.429  1.00 20.00     0.006 C 
ENDBRANCH   7   8
ENDBRANCH   1   7
TORSDOF 4
ENDMDL
MODEL 9
REMARK VINA RESULT:      -3.7     11.451     12.637
REMARK  4 active torsions:
REMARK  status: ('A' for Active; 'I' for Inactive)
REMARK    1  A    between atoms: C1_1  and  C6_6 
REMARK    2  A    between atoms: C2_2  and  C7_7 
REMARK    3  A    between atoms: C6_6  and  C8_8 
REMARK    4  A    between atoms: C7_7  and  C9_9 
ROOT
HETATM    1  C1  UNL     1     -33.344  16.432  -3.257  1.00 20.00    -0.107 C 
HETATM    2  C2  UNL     1     -33.151  17.517  -2.780  1.00 20.00    -0.106 C 
ENDROOT
BRANCH   2   3
HETATM    3  C7  UNL     1     -32.907  18.848  -2.205  1.00 20.00     0.097 C 
BRANCH   3   4
HETATM    4  C9  UNL     1     -32.692  18.833  -0.682  1.00 20.00    -0.012 C 
HETATM    5  C4  UNL     1     -31.272  18.409  -0.300  1.00 20.00     0.010 C 
HETATM    6  C5  UNL     1     -33.726  17.967   0.043  1.00 20.00     0.010 C 
ENDBRANCH   3   4
ENDBRANCH   2   3
BRANCH   1   7
HETATM    7  C6  UNL     1     -33.571  15.108  -3.852  1.00 20.00     0.093 C 
BRANCH   7   8
HETATM    8  C8  UNL     1     -34.641  15.143  -4.943  1.00 20.00     0.007 C 
HETATM    9  C3  UNL     1     -34.057  15.125  -6.350  1.00 20.00     0.006 C 
ENDBRANCH   7   8
ENDBRANCH   1   7
TORSDOF 4
ENDMDL
