MODEL 1
REMARK VINA RESULT:      -3.9      0.000      0.000
REMARK  2 active torsions:
REMARK  status: ('A' for Active; 'I' for Inactive)
REMARK    1  A    between atoms: C1_1  and  C2_2 
REMARK    2  A    between atoms: C1_1  and  C3_3 
ROOT
HETATM    1  C2  UNL     1     -41.710  13.785   5.267  1.00 20.00     0.043 A 
HETATM    2  C4  UNL     1     -42.859  13.576   6.120  1.00 20.00     0.013 A 
HETATM    3  C5  UNL     1     -41.978  14.812   6.269  1.00 20.00    -0.023 A 
HETATM    4  C8  UNL     1     -42.938  12.507   7.155  1.00 20.00     0.012 C 
HETATM    5  C9  UNL     1     -42.535  16.121   5.764  1.00 20.00     0.017 C 
HETATM    6  C10 UNL     1     -41.088  14.967   7.478  1.00 20.00     0.017 C 
ENDROOT
BRANCH   1   7
HETATM    7  C1  UNL     1     -40.659  13.031   5.237  1.00 20.00    -0.159 C 
BRANCH   7   8
HETATM    8  C3  UNL     1     -39.599  12.269   5.207  1.00 20.00     0.022 C 
HETATM    9  C6  UNL     1     -39.082  11.662   3.934  1.00 20.00     0.029 C 
HETATM   10  C7  UNL     1     -38.808  11.946   6.442  1.00 20.00     0.029 C 
ENDBRANCH   7   8
ENDBRANCH   1   7
TORSDOF 2
ENDMDL
MODEL 2
REMARK VINA RESULT:      -3.8     10.384     12.202
REMARK  2 active torsions:
REMARK  status: ('A' for Active; 'I' for Inactive)
REMARK    1  A    between atoms: C1_1  and  C2_2 
REMARK    2  A    between atoms: C1_1  and  C3_3 
ROOT
HETATM    1  C2  UNL     1     -33.258  17.073  -1.931  1.00 20.00     0.043 A 
HETATM    2  C4  UNL     1     -32.676  18.397  -1.908  1.00 20.00     0.013 A 
HETATM    3  C5  UNL     1     -34.016  18.110  -1.239  1.00 20.00    -0.023 A 
HETATM    4  C8  UNL     1     -32.540  19.263  -3.112  1.00 20.00     0.012 C 
HETATM    5  C9  UNL     1     -34.034  18.042   0.270  1.00 20.00     0.017 C 
HETATM    6  C10 UNL     1     -35.292  18.661  -1.828  1.00 20.00     0.017 C 
ENDROOT
BRANCH   1   7
HETATM    7  C1  UNL     1     -33.647  16.451  -2.996  1.00 20.00    -0.159 C 
BRANCH   7   8
HETATM    8  C3  UNL     1     -34.041  15.824  -4.072  1.00 20.00     0.022 C 
HETATM    9  C6  UNL     1     -34.044  14.325  -4.172  1.00 20.00     0.029 C 
HETATM   10  C7  UNL     1     -34.528  16.550  -5.292  1.00 20.00     0.029 C 
ENDBRANCH   7   8
ENDBRANCH   1   7
TORSDOF 2
ENDMDL
MODEL 3
REMARK VINA RESULT:      -3.5      1.341      3.880
REMARK  2 active torsions:
REMARK  status: ('A' for Active; 'I' for Inactive)
REMARK    1  A    between atoms: C1_1  and  C2_2 
REMARK    2  A    between atoms: C1_1  and  C3_3 
ROOT
HETATM    1  C2  UNL     1     -40.301  13.253   6.734  1.00 20.00     0.043 A 
HETATM    2  C4  UNL     1     -41.342  12.266   6.546  1.00 20.00     0.013 A 
HETATM    3  C5  UNL     1     -40.734  13.010   5.362  1.00 20.00    -0.023 A 
HETATM    4  C8  UNL     1     -42.753  12.457   6.985  1.00 20.00     0.012 C 
HETATM    5  C9  UNL     1     -39.781  12.239   4.479  1.00 20.00     0.017 C 
HETATM    6  C10 UNL     1     -41.547  14.036   4.612  1.00 20.00     0.017 C 
ENDROOT
BRANCH   1   7
HETATM    7  C1  UNL     1     -40.442  14.370   7.372  1.00 20.00    -0.159 C 
BRANCH   7   8
HETATM    8  C3  UNL     1     -40.584  15.497   8.017  1.00 20.00     0.022 C 
HETATM    9  C6  UNL     1     -40.372  15.606   9.500  1.00 20.00     0.029 C 
HETATM   10  C7  UNL     1     -40.965  16.774   7.326  1.00 20.00     0.029 C 
ENDBRANCH   7   8
ENDBRANCH   1   7
TORSDOF 2
ENDMDL
MODEL 4
REMARK VINA RESULT:      -3.4      1.731      3.440
REMARK  2 active torsions:
REMARK  status: ('A' for Active; 'I' for Inactive)
REMARK    1  A    between atoms: C1_1  and  C2_2 
REMARK    2  A    between atoms: C1_1  and  C3_3 
ROOT
HETATM    1  C2  UNL     1     -40.261  14.188   8.332  1.00 20.00     0.043 A 
HETATM    2  C4  UNL     1     -40.311  15.589   8.689  1.00 20.00     0.013 A 
HETATM    3  C5  UNL     1     -41.295  14.587   9.283  1.00 20.00    -0.023 A 
HETATM    4  C8  UNL     1     -40.722  16.669   7.748  1.00 20.00     0.012 C 
HETATM    5  C9  UNL     1     -41.082  14.181  10.722  1.00 20.00     0.017 C 
HETATM    6  C10 UNL     1     -42.749  14.620   8.879  1.00 20.00     0.017 C 
ENDROOT
BRANCH   1   7
HETATM    7  C1  UNL     1     -40.481  13.714   7.149  1.00 20.00    -0.159 C 
BRANCH   7   8
HETATM    8  C3  UNL     1     -40.704  13.236   5.954  1.00 20.00     0.022 C 
HETATM    9  C6  UNL     1     -41.684  13.866   5.006  1.00 20.00     0.029 C 
HETATM   10  C7  UNL     1     -39.993  12.021   5.431  1.00 20.00     0.029 C 
ENDBRANCH   7   8
ENDBRANCH   1   7
TORSDOF 2
ENDMDL
MODEL 5
REMARK VINA RESULT:      -3.3     10.923     12.643
REMARK  2 active torsions:
REMARK  status: ('A' for Active; 'I' for Inactive)
REMARK    1  A    between atoms: C1_1  and  C2_2 
REMARK    2  A    between atoms: C1_1  and  C3_3 
ROOT
HETATM    1  C2  UNL     1     -32.915  18.298  -3.212  1.00 20.00     0.043 A 
HETATM    2  C4  UNL     1     -33.313  17.140  -3.982  1.00 20.00     0.013 A 
HETATM    3  C5  UNL     1     -34.210  18.369  -3.882  1.00 20.00    -0.023 A 
HETATM    4  C8  UNL     1     -33.669  15.826  -3.378  1.00 20.00     0.012 C 
HETATM    5  C9  UNL     1     -34.294  19.263  -5.096  1.00 20.00     0.017 C 
HETATM    6  C10 UNL     1     -35.496  18.308  -3.094  1.00 20.00     0.017 C 
ENDROOT
BRANCH   1   7
HETATM    7  C1  UNL     1     -32.739  18.313  -1.930  1.00 20.00    -0.159 C 
BRANCH   7   8
HETATM    8  C3  UNL     1     -32.561  18.327  -0.636  1.00 20.00     0.022 C 
HETATM    9  C6  UNL     1     -33.693  18.139   0.332  1.00 20.00     0.029 C 
HETATM   10  C7  UNL     1     -31.209  18.527  -0.014  1.00 20.00     0.029 C 
ENDBRANCH   7   8
ENDBRANCH   1   7
TORSDOF 2
ENDMDL
MODEL 6
REMARK VINA RESULT:      -3.3      1.101      2.349
REMARK  2 active torsions:
REMARK  status: ('A' for Active; 'I' for Inactive)
REMARK    1  A    between atoms: C1_1  and  C2_2 
REMARK    2  A    between atoms: C1_1  and  C3_3 
ROOT
HETATM    1  C2  UNL     1     -40.896  13.887   6.883  1.00 20.00     0.043 A 
HETATM    2  C4  UNL     1     -42.025  14.568   6.287  1.00 20.00     0.013 A 
HETATM    3  C5  UNL     1     -42.222  13.482   7.340  1.00 20.00    -0.023 A 
HETATM    4  C8  UNL     1     -42.435  14.402   4.865  1.00 20.00     0.012 C 
HETATM    5  C9  UNL     1     -42.626  13.929   8.725  1.00 20.00     0.017 C 
HETATM    6  C10 UNL     1     -42.801  12.144   6.951  1.00 20.00     0.017 C 
ENDROOT
BRANCH   1   7
HETATM    7  C1  UNL     1     -40.064  13.129   6.246  1.00 20.00    -0.159 C 
BRANCH   7   8
HETATM    8  C3  UNL     1     -39.225  12.363   5.602  1.00 20.00     0.022 C 
HETATM    9  C6  UNL     1     -37.836  12.093   6.106  1.00 20.00     0.029 C 
HETATM   10  C7  UNL     1     -39.583  11.688   4.309  1.00 20.00     0.029 C 
ENDBRANCH   7   8
ENDBRANCH   1   7
TORSDOF 2
ENDMDL
MODEL 7
REMARK VINA RESULT:      -3.2     10.959     12.236
REMARK  2 active torsions:
REMARK  status: ('A' for Active; 'I' for Inactive)
REMARK    1  A    between atoms: C1_1  and  C2_2 
REMARK    2  A    between atoms: C1_1  and  C3_3 
ROOT
HETATM    1  C2  UNL     1     -33.633  17.425  -1.570  1.00 20.00     0.043 A 
HETATM    2  C4  UNL     1     -34.788  17.914  -2.292  1.00 20.00     0.013 A 
HETATM    3  C5  UNL     1     -33.449  17.701  -2.992  1.00 20.00    -0.023 A 
HETATM    4  C8  UNL     1     -35.387  19.262  -2.081  1.00 20.00     0.012 C 
HETATM    5  C9  UNL     1     -33.330  16.503  -3.903  1.00 20.00     0.017 C 
HETATM    6  C10 UNL     1     -32.637  18.887  -3.453  1.00 20.00     0.017 C 
ENDROOT
BRANCH   1   7
HETATM    7  C1  UNL     1     -33.039  18.052  -0.607  1.00 20.00    -0.159 C 
BRANCH   7   8
HETATM    8  C3  UNL     1     -32.439  18.685   0.365  1.00 20.00     0.022 C 
HETATM    9  C6  UNL     1     -33.189  19.263   1.531  1.00 20.00     0.029 C 
HETATM   10  C7  UNL     1     -30.950  18.880   0.397  1.00 20.00     0.029 C 
ENDBRANCH   7   8
ENDBRANCH   1   7
TORSDOF 2
ENDMDL
MODEL 8
REMARK VINA RESULT:      -3.2      9.468     10.440
REMARK  2 active torsions:
REMARK  status: ('A' for Active; 'I' for Inactive)
REMARK    1  A    between atoms: C1_1  and  C2_2 
REMARK    2  A    between atoms: C1_1  and  C3_3 
ROOT
HETATM    1  C2  UNL     1     -33.806   8.221   3.974  1.00 20.00     0.043 A 
HETATM    2  C4  UNL     1     -32.758   9.133   4.373  1.00 20.00     0.013 A 
HETATM    3  C5  UNL     1     -32.705   8.406   3.034  1.00 20.00    -0.023 A 
HETATM    4  C8  UNL     1     -31.801   8.861   5.482  1.00 20.00     0.012 C 
HETATM    5  C9  UNL     1     -33.002   9.218   1.796  1.00 20.00     0.017 C 
HETATM    6  C10 UNL     1     -31.690   7.313   2.804  1.00 20.00     0.017 C 
ENDROOT
BRANCH   1   7
HETATM    7  C1  UNL     1     -34.094   7.111   4.574  1.00 20.00    -0.159 C 
BRANCH   7   8
HETATM    8  C3  UNL     1     -34.384   5.991   5.179  1.00 20.00     0.022 C 
HETATM    9  C6  UNL     1     -34.352   4.665   4.474  1.00 20.00     0.029 C 
HETATM   10  C7  UNL     1     -34.767   5.939   6.630  1.00 20.00     0.029 C 
ENDBRANCH   7   8
ENDBRANCH   1   7
TORSDOF 2
ENDMDL
MODEL 9
REMARK VINA RESULT:      -3.1     20.325     23.309
REMARK  2 active torsions:
REMARK  status: ('A' for Active; 'I' for Inactive)
REMARK    1  A    between atoms: C1_1  and  C2_2 
REMARK    2  A    between atoms: C1_1  and  C3_3 
ROOT
HETATM    1  C2  UNL     1     -25.067  -2.810  10.088  1.00 20.00     0.043 A 
HETATM    2  C4  UNL     1     -24.032  -2.317  10.969  1.00 20.00     0.013 A 
HETATM    3  C5  UNL     1     -24.406  -3.795  10.938  1.00 20.00    -0.023 A 
HETATM    4  C8  UNL     1     -24.293  -1.438  12.143  1.00 20.00     0.012 C 
HETATM    5  C9  UNL     1     -23.441  -4.737  10.258  1.00 20.00     0.017 C 
HETATM    6  C10 UNL     1     -25.128  -4.419  12.108  1.00 20.00     0.017 C 
ENDROOT
BRANCH   1   7
HETATM    7  C1  UNL     1     -26.318  -2.487  10.157  1.00 20.00    -0.159 C 
BRANCH   7   8
HETATM    8  C3  UNL     1     -27.581  -2.162  10.226  1.00 20.00     0.022 C 
HETATM    9  C6  UNL     1     -28.034  -0.747  10.452  1.00 20.00     0.029 C 
HETATM   10  C7  UNL     1     -28.680  -3.174  10.080  1.00 20.00     0.029 C 
ENDBRANCH   7   8
ENDBRANCH   1   7
TORSDOF 2
ENDMDL
