MODEL 1
REMARK VINA RESULT:      -4.2      0.000      0.000
REMARK  0 active torsions:
REMARK  status: ('A' for Active; 'I' for Inactive)
ROOT
HETATM    1  C1  UNL     1     -42.939   4.921   0.768  1.00 20.00     0.005 C 
HETATM    2  C2  UNL     1     -43.286   7.262   1.554  1.00 20.00     0.005 C 
HETATM    3  C3  UNL     1     -43.018   5.209  -0.745  1.00 20.00     0.005 C 
HETATM    4  C4  UNL     1     -43.417   7.918   0.165  1.00 20.00     0.005 C 
HETATM    5  C5  UNL     1     -40.653   5.759  -0.416  1.00 20.00     0.010 C 
HETATM    6  C6  UNL     1     -40.972   7.918   0.309  1.00 20.00     0.010 C 
HETATM    7  C7  UNL     1     -42.278   6.088   1.539  1.00 20.00    -0.010 C 
HETATM    8  C8  UNL     1     -41.921   6.204  -1.163  1.00 20.00    -0.010 C 
HETATM    9  C9  UNL     1     -42.141   7.692  -0.665  1.00 20.00    -0.010 C 
HETATM   10  C10 UNL     1     -40.886   6.508   0.900  1.00 20.00    -0.010 C 
ENDROOT
TORSDOF 0
ENDMDL
MODEL 2
REMARK VINA RESULT:      -4.1      0.529      2.707
REMARK  0 active torsions:
REMARK  status: ('A' for Active; 'I' for Inactive)
ROOT
HETATM    1  C1  UNL     1     -40.948   8.389  -0.037  1.00 20.00     0.005 C 
HETATM    2  C2  UNL     1     -43.417   8.186   0.246  1.00 20.00     0.005 C 
HETATM    3  C3  UNL     1     -40.541   7.541   1.185  1.00 20.00     0.005 C 
HETATM    4  C4  UNL     1     -43.398   7.306   1.511  1.00 20.00     0.005 C 
HETATM    5  C5  UNL     1     -40.868   5.708  -0.408  1.00 20.00     0.010 C 
HETATM    6  C6  UNL     1     -43.146   5.521  -0.147  1.00 20.00     0.010 C 
HETATM    7  C7  UNL     1     -42.240   7.854  -0.700  1.00 20.00    -0.010 C 
HETATM    8  C8  UNL     1     -41.095   6.110   1.059  1.00 20.00    -0.010 C 
HETATM    9  C9  UNL     1     -42.663   5.981   1.239  1.00 20.00    -0.010 C 
HETATM   10  C10 UNL     1     -42.147   6.299  -1.009  1.00 20.00    -0.010 C 
ENDROOT
TORSDOF 0
ENDMDL
MODEL 3
REMARK VINA RESULT:      -4.0      0.636      2.678
REMARK  0 active torsions:
REMARK  status: ('A' for Active; 'I' for Inactive)
ROOT
HETATM    1  C1  UNL     1     -43.376   4.670   0.645  1.00 20.00     0.005 C 
HETATM    2  C2  UNL     1     -41.943   5.366  -1.273  1.00 20.00     0.005 C 
HETATM    3  C3  UNL     1     -42.399   5.059   1.772  1.00 20.00     0.005 C 
HETATM    4  C4  UNL     1     -40.741   5.866  -0.448  1.00 20.00     0.005 C 
HETATM    5  C5  UNL     1     -43.417   7.261   1.430  1.00 20.00     0.010 C 
HETATM    6  C6  UNL     1     -42.096   7.904  -0.340  1.00 20.00     0.010 C 
HETATM    7  C7  UNL     1     -43.285   5.643  -0.554  1.00 20.00    -0.010 C 
HETATM    8  C8  UNL     1     -42.077   6.563   1.713  1.00 20.00    -0.010 C 
HETATM    9  C9  UNL     1     -41.166   7.006   0.495  1.00 20.00    -0.010 C 
HETATM   10  C10 UNL     1     -43.413   7.159  -0.098  1.00 20.00    -0.010 C 
ENDROOT
TORSDOF 0
ENDMDL
MODEL 4
REMARK VINA RESULT:      -3.3     19.194     20.606
REMARK  0 active torsions:
REMARK  status: ('A' for Active; 'I' for Inactive)
ROOT
HETATM    1  C1  UNL     1     -27.182  -0.211  11.509  1.00 20.00     0.005 C 
HETATM    2  C2  UNL     1     -25.427  -1.968  11.735  1.00 20.00     0.005 C 
HETATM    3  C3  UNL     1     -27.667  -0.599  10.098  1.00 20.00     0.005 C 
HETATM    4  C4  UNL     1     -25.636  -2.633  10.361  1.00 20.00     0.005 C 
HETATM    5  C5  UNL     1     -29.016  -2.199  11.374  1.00 20.00     0.010 C 
HETATM    6  C6  UNL     1     -27.398  -3.819  11.582  1.00 20.00     0.010 C 
HETATM    7  C7  UNL     1     -26.758  -1.452  12.330  1.00 20.00    -0.010 C 
HETATM    8  C8  UNL     1     -28.190  -2.047  10.085  1.00 20.00    -0.010 C 
HETATM    9  C9  UNL     1     -27.076  -3.163  10.229  1.00 20.00    -0.010 C 
HETATM   10  C10 UNL     1     -27.883  -2.574  12.332  1.00 20.00    -0.010 C 
ENDROOT
TORSDOF 0
ENDMDL
MODEL 5
REMARK VINA RESULT:      -3.2     19.090     20.450
REMARK  0 active torsions:
REMARK  status: ('A' for Active; 'I' for Inactive)
ROOT
HETATM    1  C1  UNL     1     -27.040  -3.953  11.225  1.00 20.00     0.005 C 
HETATM    2  C2  UNL     1     -25.538  -1.962  11.233  1.00 20.00     0.005 C 
HETATM    3  C3  UNL     1     -28.009  -3.472  12.324  1.00 20.00     0.005 C 
HETATM    4  C4  UNL     1     -26.271  -1.168  12.332  1.00 20.00     0.005 C 
HETATM    5  C5  UNL     1     -29.045  -2.317  10.427  1.00 20.00     0.010 C 
HETATM    6  C6  UNL     1     -27.660  -0.480  10.435  1.00 20.00     0.010 C 
HETATM    7  C7  UNL     1     -26.524  -2.777  10.362  1.00 20.00    -0.010 C 
HETATM    8  C8  UNL     1     -28.680  -2.150  11.912  1.00 20.00    -0.010 C 
HETATM    9  C9  UNL     1     -27.726  -0.884  11.917  1.00 20.00    -0.010 C 
HETATM   10  C10 UNL     1     -27.713  -1.879   9.812  1.00 20.00    -0.010 C 
ENDROOT
TORSDOF 0
ENDMDL
MODEL 6
REMARK VINA RESULT:      -3.2     19.249     20.646
REMARK  0 active torsions:
REMARK  status: ('A' for Active; 'I' for Inactive)
ROOT
HETATM    1  C1  UNL     1     -27.617  -0.495  10.459  1.00 20.00     0.005 C 
HETATM    2  C2  UNL     1     -28.948  -2.603  10.479  1.00 20.00     0.005 C 
HETATM    3  C3  UNL     1     -27.241  -0.487  11.954  1.00 20.00     0.005 C 
HETATM    4  C4  UNL     1     -28.781  -2.927  11.976  1.00 20.00     0.005 C 
HETATM    5  C5  UNL     1     -25.456  -1.967  11.162  1.00 20.00     0.010 C 
HETATM    6  C6  UNL     1     -26.684  -3.912  11.180  1.00 20.00     0.010 C 
HETATM    7  C7  UNL     1     -27.683  -1.933   9.893  1.00 20.00    -0.010 C 
HETATM    8  C8  UNL     1     -26.447  -1.754  12.319  1.00 20.00    -0.010 C 
HETATM    9  C9  UNL     1     -27.292  -3.094  12.332  1.00 20.00    -0.010 C 
HETATM   10  C10 UNL     1     -26.367  -2.760  10.221  1.00 20.00    -0.010 C 
ENDROOT
TORSDOF 0
ENDMDL
MODEL 7
REMARK VINA RESULT:      -3.2     18.961     20.228
REMARK  0 active torsions:
REMARK  status: ('A' for Active; 'I' for Inactive)
ROOT
HETATM    1  C1  UNL     1     -26.277  -2.536  10.267  1.00 20.00     0.005 C 
HETATM    2  C2  UNL     1     -27.962  -0.713  10.508  1.00 20.00     0.005 C 
HETATM    3  C3  UNL     1     -26.267  -2.990  11.740  1.00 20.00     0.005 C 
HETATM    4  C4  UNL     1     -28.218  -0.881  12.019  1.00 20.00     0.005 C 
HETATM    5  C5  UNL     1     -28.209  -4.287  10.998  1.00 20.00     0.010 C 
HETATM    6  C6  UNL     1     -29.763  -2.606  11.220  1.00 20.00     0.010 C 
HETATM    7  C7  UNL     1     -27.684  -2.071   9.821  1.00 20.00    -0.010 C 
HETATM    8  C8  UNL     1     -27.669  -3.454  12.173  1.00 20.00    -0.010 C 
HETATM    9  C9  UNL     1     -28.740  -2.296  12.326  1.00 20.00    -0.010 C 
HETATM   10  C10 UNL     1     -28.800  -3.149  10.160  1.00 20.00    -0.010 C 
ENDROOT
TORSDOF 0
ENDMDL
MODEL 8
REMARK VINA RESULT:      -3.1      8.889     10.312
REMARK  0 active torsions:
REMARK  status: ('A' for Active; 'I' for Inactive)
ROOT
HETATM    1  C1  UNL     1     -42.405  14.369   5.000  1.00 20.00     0.005 C 
HETATM    2  C2  UNL     1     -41.928  16.004   6.821  1.00 20.00     0.005 C 
HETATM    3  C3  UNL     1     -41.157  13.486   5.197  1.00 20.00     0.005 C 
HETATM    4  C4  UNL     1     -40.606  15.378   7.305  1.00 20.00     0.005 C 
HETATM    5  C5  UNL     1     -42.580  12.449   6.901  1.00 20.00     0.010 C 
HETATM    6  C6  UNL     1     -42.141  13.957   8.581  1.00 20.00     0.010 C 
HETATM    7  C7  UNL     1     -42.930  14.927   6.344  1.00 20.00    -0.010 C 
HETATM    8  C8  UNL     1     -41.135  12.891   6.616  1.00 20.00    -0.010 C 
HETATM    9  C9  UNL     1     -40.832  13.929   7.774  1.00 20.00    -0.010 C 
HETATM   10  C10 UNL     1     -43.129  13.780   7.425  1.00 20.00    -0.010 C 
ENDROOT
TORSDOF 0
ENDMDL
MODEL 9
REMARK VINA RESULT:      -3.1      8.937     10.417
REMARK  0 active torsions:
REMARK  status: ('A' for Active; 'I' for Inactive)
ROOT
HETATM    1  C1  UNL     1     -42.226  14.071   8.795  1.00 20.00     0.005 C 
HETATM    2  C2  UNL     1     -42.724  12.388   7.024  1.00 20.00     0.005 C 
HETATM    3  C3  UNL     1     -40.737  14.281   8.453  1.00 20.00     0.005 C 
HETATM    4  C4  UNL     1     -41.314  12.334   6.403  1.00 20.00     0.005 C 
HETATM    5  C5  UNL     1     -41.684  15.845   6.821  1.00 20.00     0.010 C 
HETATM    6  C6  UNL     1     -42.144  14.293   5.188  1.00 20.00     0.010 C 
HETATM    7  C7  UNL     1     -43.073  13.809   7.527  1.00 20.00    -0.010 C 
HETATM    8  C8  UNL     1     -40.580  14.790   7.009  1.00 20.00    -0.010 C 
HETATM    9  C9  UNL     1     -40.896  13.722   5.883  1.00 20.00    -0.010 C 
HETATM   10  C10 UNL     1     -42.827  14.912   6.411  1.00 20.00    -0.010 C 
ENDROOT
TORSDOF 0
ENDMDL
