MODEL 1
REMARK VINA RESULT:      -4.3      0.000      0.000
REMARK  2 active torsions:
REMARK  status: ('A' for Active; 'I' for Inactive)
REMARK    1  A    between atoms: C7_7  and  C9_9 
REMARK    2  A    between atoms: C8_8  and  C10_10 
ROOT
HETATM    1  C1  UNL     1     -21.357  17.800   7.421  1.00 20.00     0.012 C 
HETATM    2  C2  UNL     1     -22.034  18.383   8.224  1.00 20.00    -0.112 C 
HETATM    3  C6  UNL     1     -22.844  19.079   9.182  1.00 20.00     0.074 A 
HETATM    4  C9  UNL     1     -23.825  18.270  10.004  1.00 20.00     0.015 A 
HETATM    5  C10 UNL     1     -24.327  19.197   8.907  1.00 20.00     0.015 A 
ENDROOT
BRANCH   4   6
HETATM    6  C7  UNL     1     -24.564  18.766  11.256  1.00 20.00     0.014 C 
HETATM    7  C3  UNL     1     -25.619  17.784  11.731  1.00 20.00    -0.025 C 
HETATM    8  C4  UNL     1     -24.973  16.688  12.164  1.00 20.00    -0.025 C 
HETATM    9  C8  UNL     1     -23.489  16.942  11.975  1.00 20.00     0.014 C 
HETATM   10  C5  UNL     1     -23.505  18.445  12.332  1.00 20.00     0.018 C 
ENDBRANCH   4   6
TORSDOF 2
ENDMDL
MODEL 2
REMARK VINA RESULT:      -4.2     17.672     19.286
REMARK  2 active torsions:
REMARK  status: ('A' for Active; 'I' for Inactive)
REMARK    1  A    between atoms: C7_7  and  C9_9 
REMARK    2  A    between atoms: C8_8  and  C10_10 
ROOT
HETATM    1  C1  UNL     1     -33.553  17.181  -1.579  1.00 20.00     0.012 C 
HETATM    2  C2  UNL     1     -33.405  16.613  -2.627  1.00 20.00    -0.112 C 
HETATM    3  C6  UNL     1     -33.229  15.934  -3.879  1.00 20.00     0.074 A 
HETATM    4  C9  UNL     1     -34.442  15.755  -4.766  1.00 20.00     0.015 A 
HETATM    5  C10 UNL     1     -33.845  14.562  -4.036  1.00 20.00     0.015 A 
ENDROOT
BRANCH   4   6
HETATM    6  C7  UNL     1     -34.416  15.321  -6.240  1.00 20.00     0.014 C 
HETATM    7  C3  UNL     1     -35.784  14.901  -6.744  1.00 20.00    -0.025 C 
HETATM    8  C4  UNL     1     -36.556  16.001  -6.756  1.00 20.00    -0.025 C 
HETATM    9  C8  UNL     1     -35.700  17.151  -6.260  1.00 20.00     0.014 C 
HETATM   10  C5  UNL     1     -34.377  16.706  -6.922  1.00 20.00     0.018 C 
ENDBRANCH   4   6
TORSDOF 2
ENDMDL
MODEL 3
REMARK VINA RESULT:      -4.1     15.339     16.355
REMARK  2 active torsions:
REMARK  status: ('A' for Active; 'I' for Inactive)
REMARK    1  A    between atoms: C7_7  and  C9_9 
REMARK    2  A    between atoms: C8_8  and  C10_10 
ROOT
HETATM    1  C1  UNL     1     -31.751   9.895   5.099  1.00 20.00     0.012 C 
HETATM    2  C2  UNL     1     -32.396   9.073   4.506  1.00 20.00    -0.112 C 
HETATM    3  C6  UNL     1     -33.168   8.091   3.799  1.00 20.00     0.074 A 
HETATM    4  C9  UNL     1     -33.171   6.674   4.330  1.00 20.00     0.015 A 
HETATM    5  C10 UNL     1     -32.424   7.009   3.048  1.00 20.00     0.015 A 
ENDROOT
BRANCH   4   6
HETATM    6  C7  UNL     1     -34.137   5.560   3.899  1.00 20.00     0.014 C 
HETATM    7  C3  UNL     1     -33.980   4.303   4.734  1.00 20.00    -0.025 C 
HETATM    8  C4  UNL     1     -34.386   4.603   5.980  1.00 20.00    -0.025 C 
HETATM    9  C8  UNL     1     -34.812   6.059   5.971  1.00 20.00     0.014 C 
HETATM   10  C5  UNL     1     -35.437   6.068   4.558  1.00 20.00     0.018 C 
ENDBRANCH   4   6
TORSDOF 2
ENDMDL
MODEL 4
REMARK VINA RESULT:      -4.0     15.089     15.969
REMARK  2 active torsions:
REMARK  status: ('A' for Active; 'I' for Inactive)
REMARK    1  A    between atoms: C7_7  and  C9_9 
REMARK    2  A    between atoms: C8_8  and  C10_10 
ROOT
HETATM    1  C1  UNL     1     -32.918   9.522   1.411  1.00 20.00     0.012 C 
HETATM    2  C2  UNL     1     -32.620   8.886   2.385  1.00 20.00    -0.112 C 
HETATM    3  C6  UNL     1     -32.265   8.125   3.549  1.00 20.00     0.074 A 
HETATM    4  C9  UNL     1     -33.382   7.637   4.446  1.00 20.00     0.015 A 
HETATM    5  C10 UNL     1     -32.469   8.764   4.905  1.00 20.00     0.015 A 
ENDROOT
BRANCH   4   6
HETATM    6  C7  UNL     1     -33.241   6.588   5.560  1.00 20.00     0.014 C 
HETATM    7  C3  UNL     1     -34.538   6.369   6.316  1.00 20.00    -0.025 C 
HETATM    8  C4  UNL     1     -35.404   5.800   5.459  1.00 20.00    -0.025 C 
HETATM    9  C8  UNL     1     -34.682   5.643   4.135  1.00 20.00     0.014 C 
HETATM   10  C5  UNL     1     -33.292   5.297   4.714  1.00 20.00     0.018 C 
ENDBRANCH   4   6
TORSDOF 2
ENDMDL
MODEL 5
REMARK VINA RESULT:      -3.8     17.546     19.066
REMARK  2 active torsions:
REMARK  status: ('A' for Active; 'I' for Inactive)
REMARK    1  A    between atoms: C7_7  and  C9_9 
REMARK    2  A    between atoms: C8_8  and  C10_10 
ROOT
HETATM    1  C1  UNL     1     -38.858  11.575   4.030  1.00 20.00     0.012 C 
HETATM    2  C2  UNL     1     -39.635  11.910   4.883  1.00 20.00    -0.112 C 
HETATM    3  C6  UNL     1     -40.563  12.310   5.902  1.00 20.00     0.074 A 
HETATM    4  C9  UNL     1     -41.070  13.735   5.880  1.00 20.00     0.015 A 
HETATM    5  C10 UNL     1     -40.087  13.290   6.952  1.00 20.00     0.015 A 
ENDROOT
BRANCH   4   6
HETATM    6  C7  UNL     1     -42.260  14.274   6.689  1.00 20.00     0.014 C 
HETATM    7  C3  UNL     1     -42.399  15.781   6.581  1.00 20.00    -0.025 C 
HETATM    8  C4  UNL     1     -42.736  16.057   5.310  1.00 20.00    -0.025 C 
HETATM    9  C8  UNL     1     -42.820  14.732   4.574  1.00 20.00     0.014 C 
HETATM   10  C5  UNL     1     -43.416  13.906   5.735  1.00 20.00     0.018 C 
ENDBRANCH   4   6
TORSDOF 2
ENDMDL
MODEL 6
REMARK VINA RESULT:      -3.7     16.144     17.029
REMARK  2 active torsions:
REMARK  status: ('A' for Active; 'I' for Inactive)
REMARK    1  A    between atoms: C7_7  and  C9_9 
REMARK    2  A    between atoms: C8_8  and  C10_10 
ROOT
HETATM    1  C1  UNL     1     -31.812   8.205   1.542  1.00 20.00     0.012 C 
HETATM    2  C2  UNL     1     -32.527   7.310   1.904  1.00 20.00    -0.112 C 
HETATM    3  C6  UNL     1     -33.380   6.241   2.336  1.00 20.00     0.074 A 
HETATM    4  C9  UNL     1     -33.314   5.823   3.789  1.00 20.00     0.015 A 
HETATM    5  C10 UNL     1     -32.737   4.923   2.707  1.00 20.00     0.015 A 
ENDROOT
BRANCH   4   6
HETATM    6  C7  UNL     1     -34.325   4.915   4.505  1.00 20.00     0.014 C 
HETATM    7  C3  UNL     1     -34.078   4.839   6.000  1.00 20.00    -0.025 C 
HETATM    8  C4  UNL     1     -34.338   6.057   6.506  1.00 20.00    -0.025 C 
HETATM    9  C8  UNL     1     -34.758   6.940   5.346  1.00 20.00     0.014 C 
HETATM   10  C5  UNL     1     -35.541   5.865   4.560  1.00 20.00     0.018 C 
ENDBRANCH   4   6
TORSDOF 2
ENDMDL
MODEL 7
REMARK VINA RESULT:      -3.7     16.977     18.264
REMARK  2 active torsions:
REMARK  status: ('A' for Active; 'I' for Inactive)
REMARK    1  A    between atoms: C7_7  and  C9_9 
REMARK    2  A    between atoms: C8_8  and  C10_10 
ROOT
HETATM    1  C1  UNL     1     -39.149  11.779   4.873  1.00 20.00     0.012 C 
HETATM    2  C2  UNL     1     -40.065  12.439   5.283  1.00 20.00    -0.112 C 
HETATM    3  C6  UNL     1     -41.159  13.228   5.773  1.00 20.00     0.074 A 
HETATM    4  C9  UNL     1     -41.201  13.541   7.253  1.00 20.00     0.015 A 
HETATM    5  C10 UNL     1     -42.187  12.550   6.652  1.00 20.00     0.015 A 
ENDROOT
BRANCH   4   6
HETATM    6  C7  UNL     1     -42.109  14.586   7.920  1.00 20.00     0.014 C 
HETATM    7  C3  UNL     1     -42.278  14.340   9.408  1.00 20.00    -0.025 C 
HETATM    8  C4  UNL     1     -41.082  14.553   9.983  1.00 20.00    -0.025 C 
HETATM    9  C8  UNL     1     -40.119  14.940   8.876  1.00 20.00     0.014 C 
HETATM   10  C5  UNL     1     -41.117  15.764   8.032  1.00 20.00     0.018 C 
ENDBRANCH   4   6
TORSDOF 2
ENDMDL
MODEL 8
REMARK VINA RESULT:      -3.6     19.563     20.796
REMARK  2 active torsions:
REMARK  status: ('A' for Active; 'I' for Inactive)
REMARK    1  A    between atoms: C7_7  and  C9_9 
REMARK    2  A    between atoms: C8_8  and  C10_10 
ROOT
HETATM    1  C1  UNL     1     -23.189  -3.243   7.836  1.00 20.00     0.012 C 
HETATM    2  C2  UNL     1     -23.750  -3.328   8.895  1.00 20.00    -0.112 C 
HETATM    3  C6  UNL     1     -24.421  -3.430  10.159  1.00 20.00     0.074 A 
HETATM    4  C9  UNL     1     -25.435  -2.364  10.513  1.00 20.00     0.015 A 
HETATM    5  C10 UNL     1     -24.091  -2.407  11.223  1.00 20.00     0.015 A 
ENDROOT
BRANCH   4   6
HETATM    6  C7  UNL     1     -26.449  -2.442  11.664  1.00 20.00     0.014 C 
HETATM    7  C3  UNL     1     -27.119  -1.108  11.936  1.00 20.00    -0.025 C 
HETATM    8  C4  UNL     1     -27.882  -0.823  10.867  1.00 20.00    -0.025 C 
HETATM    9  C8  UNL     1     -27.718  -1.968   9.885  1.00 20.00     0.014 C 
HETATM   10  C5  UNL     1     -27.633  -3.104  10.928  1.00 20.00     0.018 C 
ENDBRANCH   4   6
TORSDOF 2
ENDMDL
MODEL 9
REMARK VINA RESULT:      -3.4     23.714     24.782
REMARK  2 active torsions:
REMARK  status: ('A' for Active; 'I' for Inactive)
REMARK    1  A    between atoms: C7_7  and  C9_9 
REMARK    2  A    between atoms: C8_8  and  C10_10 
ROOT
HETATM    1  C1  UNL     1     -42.954   3.484  -2.624  1.00 20.00     0.012 C 
HETATM    2  C2  UNL     1     -43.161   4.182  -1.669  1.00 20.00    -0.112 C 
HETATM    3  C6  UNL     1     -43.408   5.016  -0.527  1.00 20.00     0.074 A 
HETATM    4  C9  UNL     1     -42.251   5.815   0.031  1.00 20.00     0.015 A 
HETATM    5  C10 UNL     1     -42.789   4.614   0.793  1.00 20.00     0.015 A 
ENDROOT
BRANCH   4   6
HETATM    6  C7  UNL     1     -42.364   6.962   1.047  1.00 20.00     0.014 C 
HETATM    7  C3  UNL     1     -41.045   7.682   1.258  1.00 20.00    -0.025 C 
HETATM    8  C4  UNL     1     -40.750   8.311   0.108  1.00 20.00    -0.025 C 
HETATM    9  C8  UNL     1     -41.873   8.010  -0.866  1.00 20.00     0.014 C 
HETATM   10  C5  UNL     1     -43.028   8.036   0.159  1.00 20.00     0.018 C 
ENDBRANCH   4   6
TORSDOF 2
ENDMDL
