MODEL 1
REMARK VINA RESULT:      -5.4      0.000      0.000
REMARK  1 active torsions:
REMARK  status: ('A' for Active; 'I' for Inactive)
REMARK    1  A    between atoms: C4_4  and  O11_11 
ROOT
HETATM    1  C1  UNL     1     -34.080   6.051   6.473  1.00 20.00    -0.021 C 
HETATM    2  C2  UNL     1     -34.227   4.796   6.019  1.00 20.00    -0.025 C 
HETATM    3  C3  UNL     1     -33.414   6.830   4.246  1.00 20.00    -0.043 C 
HETATM    4  C4  UNL     1     -32.561   7.764   3.817  1.00 20.00     0.045 C 
HETATM    5  C5  UNL     1     -33.559   5.415   3.695  1.00 20.00     0.046 C 
HETATM    6  C6  UNL     1     -35.581   6.149   4.719  1.00 20.00     0.022 C 
HETATM    7  C7  UNL     1     -34.454   6.982   5.342  1.00 20.00     0.040 C 
HETATM    8  C8  UNL     1     -34.713   4.891   4.586  1.00 20.00     0.013 C 
HETATM    9  C9  UNL     1     -32.470   9.137   4.404  1.00 20.00     0.076 C 
ENDROOT
BRANCH   4  10
HETATM   10  O11 UNL     1     -31.697   7.490   2.773  1.00 20.00    -0.360 OA
HETATM   11  C10 UNL     1     -32.108   8.079   1.565  1.00 20.00     0.209 C 
ENDBRANCH   4  10
TORSDOF 1
ENDMDL
MODEL 2
REMARK VINA RESULT:      -4.1     15.412     16.305
REMARK  1 active torsions:
REMARK  status: ('A' for Active; 'I' for Inactive)
REMARK    1  A    between atoms: C4_4  and  O11_11 
ROOT
HETATM    1  C1  UNL     1     -24.122  16.479  11.897  1.00 20.00    -0.021 C 
HETATM    2  C2  UNL     1     -25.343  17.035  11.955  1.00 20.00    -0.025 C 
HETATM    3  C3  UNL     1     -23.443  18.037  10.131  1.00 20.00    -0.043 C 
HETATM    4  C4  UNL     1     -22.639  17.929   9.070  1.00 20.00     0.045 C 
HETATM    5  C5  UNL     1     -24.821  18.689  10.160  1.00 20.00     0.046 C 
HETATM    6  C6  UNL     1     -23.808  18.729  12.315  1.00 20.00     0.022 C 
HETATM    7  C7  UNL     1     -23.145  17.578  11.548  1.00 20.00     0.040 C 
HETATM    8  C8  UNL     1     -25.177  18.513  11.657  1.00 20.00     0.013 C 
HETATM    9  C9  UNL     1     -21.294  17.275   9.111  1.00 20.00     0.076 C 
ENDROOT
BRANCH   4  10
HETATM   10  O11 UNL     1     -23.032  18.436   7.845  1.00 20.00    -0.360 OA
HETATM   11  C10 UNL     1     -21.940  18.716   7.005  1.00 20.00     0.209 C 
ENDBRANCH   4  10
TORSDOF 1
ENDMDL
MODEL 3
REMARK VINA RESULT:      -3.9     12.143     13.422
REMARK  1 active torsions:
REMARK  status: ('A' for Active; 'I' for Inactive)
REMARK    1  A    between atoms: C4_4  and  O11_11 
ROOT
HETATM    1  C1  UNL     1     -33.687  17.399  -1.129  1.00 20.00    -0.021 C 
HETATM    2  C2  UNL     1     -34.450  18.504  -1.151  1.00 20.00    -0.025 C 
HETATM    3  C3  UNL     1     -33.936  17.122  -3.552  1.00 20.00    -0.043 C 
HETATM    4  C4  UNL     1     -34.013  16.054  -4.351  1.00 20.00     0.045 C 
HETATM    5  C5  UNL     1     -34.815  18.366  -3.616  1.00 20.00     0.046 C 
HETATM    6  C6  UNL     1     -32.705  18.858  -2.628  1.00 20.00     0.022 C 
HETATM    7  C7  UNL     1     -32.930  17.353  -2.437  1.00 20.00     0.040 C 
HETATM    8  C8  UNL     1     -34.192  19.202  -2.471  1.00 20.00     0.013 C 
HETATM    9  C9  UNL     1     -33.115  14.863  -4.234  1.00 20.00     0.076 C 
ENDROOT
BRANCH   4  10
HETATM   10  O11 UNL     1     -34.960  16.005  -5.357  1.00 20.00    -0.360 OA
HETATM   11  C10 UNL     1     -34.517  15.281  -6.477  1.00 20.00     0.209 C 
ENDBRANCH   4  10
TORSDOF 1
ENDMDL
MODEL 4
REMARK VINA RESULT:      -3.8     12.010     13.489
REMARK  1 active torsions:
REMARK  status: ('A' for Active; 'I' for Inactive)
REMARK    1  A    between atoms: C4_4  and  O11_11 
ROOT
HETATM    1  C1  UNL     1     -32.540  19.263  -2.440  1.00 20.00    -0.021 C 
HETATM    2  C2  UNL     1     -32.229  18.595  -1.318  1.00 20.00    -0.025 C 
HETATM    3  C3  UNL     1     -33.916  17.393  -3.228  1.00 20.00    -0.043 C 
HETATM    4  C4  UNL     1     -34.177  16.890  -4.437  1.00 20.00     0.045 C 
HETATM    5  C5  UNL     1     -33.577  16.599  -1.971  1.00 20.00     0.046 C 
HETATM    6  C6  UNL     1     -34.537  18.708  -1.420  1.00 20.00     0.022 C 
HETATM    7  C7  UNL     1     -33.945  18.858  -2.826  1.00 20.00     0.040 C 
HETATM    8  C8  UNL     1     -33.434  17.752  -0.948  1.00 20.00     0.013 C 
HETATM    9  C9  UNL     1     -34.504  17.729  -5.632  1.00 20.00     0.076 C 
ENDROOT
BRANCH   4  10
HETATM   10  O11 UNL     1     -34.155  15.523  -4.642  1.00 20.00    -0.360 OA
HETATM   11  C10 UNL     1     -34.042  15.184  -6.001  1.00 20.00     0.209 C 
ENDBRANCH   4  10
TORSDOF 1
ENDMDL
MODEL 5
REMARK VINA RESULT:      -3.8     11.921     13.276
REMARK  1 active torsions:
REMARK  status: ('A' for Active; 'I' for Inactive)
REMARK    1  A    between atoms: C4_4  and  O11_11 
ROOT
HETATM    1  C1  UNL     1     -36.045  16.296  -5.696  1.00 20.00    -0.021 C 
HETATM    2  C2  UNL     1     -36.206  14.980  -5.481  1.00 20.00    -0.025 C 
HETATM    3  C3  UNL     1     -34.003  16.316  -4.339  1.00 20.00    -0.043 C 
HETATM    4  C4  UNL     1     -33.450  17.219  -3.525  1.00 20.00     0.045 C 
HETATM    5  C5  UNL     1     -34.157  14.824  -4.064  1.00 20.00     0.046 C 
HETATM    6  C6  UNL     1     -34.103  15.264  -6.404  1.00 20.00     0.022 C 
HETATM    7  C7  UNL     1     -34.558  16.565  -5.731  1.00 20.00     0.040 C 
HETATM    8  C8  UNL     1     -34.822  14.368  -5.386  1.00 20.00     0.013 C 
HETATM    9  C9  UNL     1     -33.330  18.674  -3.858  1.00 20.00     0.076 C 
ENDROOT
BRANCH   4  10
HETATM   10  O11 UNL     1     -32.947  16.834  -2.297  1.00 20.00    -0.360 OA
HETATM   11  C10 UNL     1     -33.633  17.428  -1.224  1.00 20.00     0.209 C 
ENDBRANCH   4  10
TORSDOF 1
ENDMDL
MODEL 6
REMARK VINA RESULT:      -3.7     12.364     13.307
REMARK  1 active torsions:
REMARK  status: ('A' for Active; 'I' for Inactive)
REMARK    1  A    between atoms: C4_4  and  O11_11 
ROOT
HETATM    1  C1  UNL     1     -32.704  19.091  -2.540  1.00 20.00    -0.021 C 
HETATM    2  C2  UNL     1     -34.037  19.248  -2.584  1.00 20.00    -0.025 C 
HETATM    3  C3  UNL     1     -32.796  18.566  -0.148  1.00 20.00    -0.043 C 
HETATM    4  C4  UNL     1     -31.974  18.805   0.877  1.00 20.00     0.045 C 
HETATM    5  C5  UNL     1     -34.310  18.745  -0.154  1.00 20.00     0.046 C 
HETATM    6  C6  UNL     1     -33.631  17.124  -1.761  1.00 20.00     0.022 C 
HETATM    7  C7  UNL     1     -32.413  18.021  -1.513  1.00 20.00     0.040 C 
HETATM    8  C8  UNL     1     -34.636  18.271  -1.592  1.00 20.00     0.013 C 
HETATM    9  C9  UNL     1     -30.492  18.607   0.817  1.00 20.00     0.076 C 
ENDROOT
BRANCH   4  10
HETATM   10  O11 UNL     1     -32.477  19.262   2.082  1.00 20.00    -0.360 OA
HETATM   11  C10 UNL     1     -31.511  19.263   3.102  1.00 20.00     0.209 C 
ENDBRANCH   4  10
TORSDOF 1
ENDMDL
MODEL 7
REMARK VINA RESULT:      -3.7     15.543     16.720
REMARK  1 active torsions:
REMARK  status: ('A' for Active; 'I' for Inactive)
REMARK    1  A    between atoms: C4_4  and  O11_11 
ROOT
HETATM    1  C1  UNL     1     -21.293  18.155   9.984  1.00 20.00    -0.021 C 
HETATM    2  C2  UNL     1     -21.426  19.149   9.090  1.00 20.00    -0.025 C 
HETATM    3  C3  UNL     1     -23.724  17.857  10.085  1.00 20.00    -0.043 C 
HETATM    4  C4  UNL     1     -24.567  17.513  11.062  1.00 20.00     0.045 C 
HETATM    5  C5  UNL     1     -23.916  18.987   9.080  1.00 20.00     0.046 C 
HETATM    6  C6  UNL     1     -22.488  17.294   8.204  1.00 20.00     0.022 C 
HETATM    7  C7  UNL     1     -22.415  17.173   9.731  1.00 20.00     0.040 C 
HETATM    8  C8  UNL     1     -22.632  18.822   8.231  1.00 20.00     0.013 C 
HETATM    9  C9  UNL     1     -24.317  16.389  12.017  1.00 20.00     0.076 C 
ENDROOT
BRANCH   4  10
HETATM   10  O11 UNL     1     -25.750  18.207  11.237  1.00 20.00    -0.360 OA
HETATM   11  C10 UNL     1     -25.701  19.088  12.331  1.00 20.00     0.209 C 
ENDBRANCH   4  10
TORSDOF 1
ENDMDL
MODEL 8
REMARK VINA RESULT:      -3.7      9.718     10.667
REMARK  1 active torsions:
REMARK  status: ('A' for Active; 'I' for Inactive)
REMARK    1  A    between atoms: C4_4  and  O11_11 
ROOT
HETATM    1  C1  UNL     1     -42.465  13.480   7.906  1.00 20.00    -0.021 C 
HETATM    2  C2  UNL     1     -43.417  14.144   7.230  1.00 20.00    -0.025 C 
HETATM    3  C3  UNL     1     -40.983  13.523   5.953  1.00 20.00    -0.043 C 
HETATM    4  C4  UNL     1     -40.077  12.670   5.470  1.00 20.00     0.045 C 
HETATM    5  C5  UNL     1     -42.043  14.269   5.150  1.00 20.00     0.046 C 
HETATM    6  C6  UNL     1     -41.503  15.440   7.153  1.00 20.00     0.022 C 
HETATM    7  C7  UNL     1     -41.130  13.973   7.397  1.00 20.00     0.040 C 
HETATM    8  C8  UNL     1     -42.714  15.091   6.278  1.00 20.00     0.013 C 
HETATM    9  C9  UNL     1     -39.061  11.970   6.316  1.00 20.00     0.076 C 
ENDROOT
BRANCH   4  10
HETATM   10  O11 UNL     1     -40.038  12.389   4.116  1.00 20.00    -0.360 OA
HETATM   11  C10 UNL     1     -38.922  11.612   3.760  1.00 20.00     0.209 C 
ENDBRANCH   4  10
TORSDOF 1
ENDMDL
MODEL 9
REMARK VINA RESULT:      -3.6     11.871     13.221
REMARK  1 active torsions:
REMARK  status: ('A' for Active; 'I' for Inactive)
REMARK    1  A    between atoms: C4_4  and  O11_11 
ROOT
HETATM    1  C1  UNL     1     -28.117  -1.106  12.288  1.00 20.00    -0.021 C 
HETATM    2  C2  UNL     1     -28.940  -1.777  11.465  1.00 20.00    -0.025 C 
HETATM    3  C3  UNL     1     -26.156  -1.880  11.036  1.00 20.00    -0.043 C 
HETATM    4  C4  UNL     1     -24.909  -2.200  11.389  1.00 20.00     0.045 C 
HETATM    5  C5  UNL     1     -27.057  -2.663  10.087  1.00 20.00     0.046 C 
HETATM    6  C6  UNL     1     -27.669  -0.362  10.148  1.00 20.00     0.022 C 
HETATM    7  C7  UNL     1     -26.936  -0.648  11.464  1.00 20.00     0.040 C 
HETATM    8  C8  UNL     1     -28.311  -1.754  10.086  1.00 20.00     0.013 C 
HETATM    9  C9  UNL     1     -24.077  -1.384  12.329  1.00 20.00     0.076 C 
ENDROOT
BRANCH   4  10
HETATM   10  O11 UNL     1     -24.311  -3.338  10.882  1.00 20.00    -0.360 OA
HETATM   11  C10 UNL     1     -23.115  -3.059  10.199  1.00 20.00     0.209 C 
ENDBRANCH   4  10
TORSDOF 1
ENDMDL
