MODEL 1
REMARK VINA RESULT:      -3.9      0.000      0.000
REMARK  5 active torsions:
REMARK  status: ('A' for Active; 'I' for Inactive)
REMARK    1  A    between atoms: C1_1  and  O9_9 
REMARK    2  A    between atoms: C5_5  and  C6_6 
REMARK    3  A    between atoms: C6_6  and  C7_7 
REMARK    4  A    between atoms: C7_7  and  C8_8 
REMARK    5  A    between atoms: C8_8  and  O9_9 
ROOT
HETATM    1  C4  UNL     1     -32.104   9.328   5.186  1.00 20.00     0.040 C 
HETATM    2  C8  UNL     1     -33.004   8.411   4.368  1.00 20.00     0.125 C 
ENDROOT
BRANCH   2   3
HETATM    3  C7  UNL     1     -34.172   7.822   5.165  1.00 20.00     0.032 C 
BRANCH   3   4
HETATM    4  C6  UNL     1     -33.731   6.929   6.324  1.00 20.00     0.002 C 
BRANCH   4   5
HETATM    5  C5  UNL     1     -34.495   5.604   6.326  1.00 20.00    -0.004 C 
HETATM    6  C3  UNL     1     -35.191   5.361   4.996  1.00 20.00     0.005 C 
ENDBRANCH   4   5
ENDBRANCH   3   4
ENDBRANCH   2   3
BRANCH   2   7
HETATM    7  O9  UNL     1     -32.213   7.334   3.866  1.00 20.00    -0.340 OA
BRANCH   7   8
HETATM    8  C1  UNL     1     -32.412   6.845   2.623  1.00 20.00     0.109 C 
HETATM    9  C2  UNL     1     -32.798   5.410   2.448  1.00 20.00     0.089 C 
HETATM   10  S10 UNL     1     -32.204   7.905   1.355  1.00 20.00    -0.058 SA
ENDBRANCH   7   8
ENDBRANCH   2   7
TORSDOF 5
ENDMDL
MODEL 2
REMARK VINA RESULT:      -3.6      9.690     10.895
REMARK  5 active torsions:
REMARK  status: ('A' for Active; 'I' for Inactive)
REMARK    1  A    between atoms: C1_1  and  O9_9 
REMARK    2  A    between atoms: C5_5  and  C6_6 
REMARK    3  A    between atoms: C6_6  and  C7_7 
REMARK    4  A    between atoms: C7_7  and  C8_8 
REMARK    5  A    between atoms: C8_8  and  O9_9 
ROOT
HETATM    1  C4  UNL     1     -42.975  12.621   7.384  1.00 20.00     0.040 C 
HETATM    2  C8  UNL     1     -41.750  13.440   6.997  1.00 20.00     0.125 C 
ENDROOT
BRANCH   2   3
HETATM    3  C7  UNL     1     -41.030  12.919   5.750  1.00 20.00     0.032 C 
BRANCH   3   4
HETATM    4  C6  UNL     1     -39.984  11.847   6.053  1.00 20.00     0.002 C 
BRANCH   4   5
HETATM    5  C5  UNL     1     -38.706  12.075   5.244  1.00 20.00    -0.004 C 
HETATM    6  C3  UNL     1     -38.880  11.651   3.794  1.00 20.00     0.005 C 
ENDBRANCH   4   5
ENDBRANCH   3   4
ENDBRANCH   2   3
BRANCH   2   7
HETATM    7  O9  UNL     1     -40.832  13.420   8.089  1.00 20.00    -0.340 OA
BRANCH   7   8
HETATM    8  C1  UNL     1     -40.656  14.508   8.870  1.00 20.00     0.109 C 
HETATM    9  C2  UNL     1     -40.343  15.828   8.237  1.00 20.00     0.089 C 
HETATM   10  S10 UNL     1     -40.801  14.286  10.515  1.00 20.00    -0.058 SA
ENDBRANCH   7   8
ENDBRANCH   2   7
TORSDOF 5
ENDMDL
MODEL 3
REMARK VINA RESULT:      -3.4      2.374      4.302
REMARK  5 active torsions:
REMARK  status: ('A' for Active; 'I' for Inactive)
REMARK    1  A    between atoms: C1_1  and  O9_9 
REMARK    2  A    between atoms: C5_5  and  C6_6 
REMARK    3  A    between atoms: C6_6  and  C7_7 
REMARK    4  A    between atoms: C7_7  and  C8_8 
REMARK    5  A    between atoms: C8_8  and  O9_9 
ROOT
HETATM    1  C4  UNL     1     -32.173   9.055   4.941  1.00 20.00     0.040 C 
HETATM    2  C8  UNL     1     -32.557   7.817   4.140  1.00 20.00     0.125 C 
ENDROOT
BRANCH   2   3
HETATM    3  C7  UNL     1     -32.432   8.000   2.624  1.00 20.00     0.032 C 
BRANCH   3   4
HETATM    4  C6  UNL     1     -32.815   9.400   2.145  1.00 20.00     0.002 C 
BRANCH   4   5
HETATM    5  C5  UNL     1     -32.809   9.485   0.618  1.00 20.00    -0.004 C 
HETATM    6  C3  UNL     1     -32.096   8.294  -0.004  1.00 20.00     0.005 C 
ENDBRANCH   4   5
ENDBRANCH   3   4
ENDBRANCH   2   3
BRANCH   2   7
HETATM    7  O9  UNL     1     -33.912   7.487   4.444  1.00 20.00    -0.340 OA
BRANCH   7   8
HETATM    8  C1  UNL     1     -34.216   6.387   5.165  1.00 20.00     0.109 C 
HETATM    9  C2  UNL     1     -34.391   6.501   6.647  1.00 20.00     0.089 C 
HETATM   10  S10 UNL     1     -34.372   4.956   4.326  1.00 20.00    -0.058 SA
ENDBRANCH   7   8
ENDBRANCH   2   7
TORSDOF 5
ENDMDL
MODEL 4
REMARK VINA RESULT:      -3.4      1.160      2.729
REMARK  5 active torsions:
REMARK  status: ('A' for Active; 'I' for Inactive)
REMARK    1  A    between atoms: C1_1  and  O9_9 
REMARK    2  A    between atoms: C5_5  and  C6_6 
REMARK    3  A    between atoms: C6_6  and  C7_7 
REMARK    4  A    between atoms: C7_7  and  C8_8 
REMARK    5  A    between atoms: C8_8  and  O9_9 
ROOT
HETATM    1  C4  UNL     1     -32.831   4.675   2.549  1.00 20.00     0.040 C 
HETATM    2  C8  UNL     1     -32.885   5.962   3.362  1.00 20.00     0.125 C 
ENDROOT
BRANCH   2   3
HETATM    3  C7  UNL     1     -34.279   6.291   3.905  1.00 20.00     0.032 C 
BRANCH   3   4
HETATM    4  C6  UNL     1     -34.870   5.183   4.778  1.00 20.00     0.002 C 
BRANCH   4   5
HETATM    5  C5  UNL     1     -34.490   5.373   6.247  1.00 20.00    -0.004 C 
HETATM    6  C3  UNL     1     -34.265   6.840   6.580  1.00 20.00     0.005 C 
ENDBRANCH   4   5
ENDBRANCH   3   4
ENDBRANCH   2   3
BRANCH   2   7
HETATM    7  O9  UNL     1     -32.462   7.040   2.527  1.00 20.00    -0.340 OA
BRANCH   7   8
HETATM    8  C1  UNL     1     -32.491   8.316   2.969  1.00 20.00     0.109 C 
HETATM    9  C2  UNL     1     -32.133   8.612   4.391  1.00 20.00     0.089 C 
HETATM   10  S10 UNL     1     -32.936   9.484   1.867  1.00 20.00    -0.058 SA
ENDBRANCH   7   8
ENDBRANCH   2   7
TORSDOF 5
ENDMDL
MODEL 5
REMARK VINA RESULT:      -3.3     11.775     12.559
REMARK  5 active torsions:
REMARK  status: ('A' for Active; 'I' for Inactive)
REMARK    1  A    between atoms: C1_1  and  O9_9 
REMARK    2  A    between atoms: C5_5  and  C6_6 
REMARK    3  A    between atoms: C6_6  and  C7_7 
REMARK    4  A    between atoms: C7_7  and  C8_8 
REMARK    5  A    between atoms: C8_8  and  O9_9 
ROOT
HETATM    1  C4  UNL     1     -32.903  19.063  -3.178  1.00 20.00     0.040 C 
HETATM    2  C8  UNL     1     -33.670  17.786  -2.856  1.00 20.00     0.125 C 
ENDROOT
BRANCH   2   3
HETATM    3  C7  UNL     1     -33.566  17.358  -1.389  1.00 20.00     0.032 C 
BRANCH   3   4
HETATM    4  C6  UNL     1     -33.656  18.525  -0.405  1.00 20.00     0.002 C 
BRANCH   4   5
HETATM    5  C5  UNL     1     -32.556  18.443   0.654  1.00 20.00    -0.004 C 
HETATM    6  C3  UNL     1     -31.173  18.562   0.032  1.00 20.00     0.005 C 
ENDBRANCH   4   5
ENDBRANCH   3   4
ENDBRANCH   2   3
BRANCH   2   7
HETATM    7  O9  UNL     1     -33.154  16.734  -3.670  1.00 20.00    -0.340 OA
BRANCH   7   8
HETATM    8  C1  UNL     1     -33.976  15.958  -4.408  1.00 20.00     0.109 C 
HETATM    9  C2  UNL     1     -33.965  14.474  -4.211  1.00 20.00     0.089 C 
HETATM   10  S10 UNL     1     -34.959  16.734  -5.507  1.00 20.00    -0.058 SA
ENDBRANCH   7   8
ENDBRANCH   2   7
TORSDOF 5
ENDMDL
MODEL 6
REMARK VINA RESULT:      -3.3     11.992     12.847
REMARK  5 active torsions:
REMARK  status: ('A' for Active; 'I' for Inactive)
REMARK    1  A    between atoms: C1_1  and  O9_9 
REMARK    2  A    between atoms: C5_5  and  C6_6 
REMARK    3  A    between atoms: C6_6  and  C7_7 
REMARK    4  A    between atoms: C7_7  and  C8_8 
REMARK    5  A    between atoms: C8_8  and  O9_9 
ROOT
HETATM    1  C4  UNL     1     -33.963  18.017  -4.566  1.00 20.00     0.040 C 
HETATM    2  C8  UNL     1     -34.101  16.603  -4.015  1.00 20.00     0.125 C 
ENDROOT
BRANCH   2   3
HETATM    3  C7  UNL     1     -33.287  16.355  -2.741  1.00 20.00     0.032 C 
BRANCH   3   4
HETATM    4  C6  UNL     1     -33.628  17.318  -1.604  1.00 20.00     0.002 C 
BRANCH   4   5
HETATM    5  C5  UNL     1     -32.398  18.113  -1.163  1.00 20.00    -0.004 C 
HETATM    6  C3  UNL     1     -32.515  18.564   0.284  1.00 20.00     0.005 C 
ENDBRANCH   4   5
ENDBRANCH   3   4
ENDBRANCH   2   3
BRANCH   2   7
HETATM    7  O9  UNL     1     -33.660  15.686  -5.017  1.00 20.00    -0.340 OA
BRANCH   7   8
HETATM    8  C1  UNL     1     -34.479  15.306  -6.022  1.00 20.00     0.109 C 
HETATM    9  C2  UNL     1     -34.069  15.551  -7.440  1.00 20.00     0.089 C 
HETATM   10  S10 UNL     1     -35.916  14.582  -5.589  1.00 20.00    -0.058 SA
ENDBRANCH   7   8
ENDBRANCH   2   7
TORSDOF 5
ENDMDL
MODEL 7
REMARK VINA RESULT:      -3.2     12.087     12.901
REMARK  5 active torsions:
REMARK  status: ('A' for Active; 'I' for Inactive)
REMARK    1  A    between atoms: C1_1  and  O9_9 
REMARK    2  A    between atoms: C5_5  and  C6_6 
REMARK    3  A    between atoms: C6_6  and  C7_7 
REMARK    4  A    between atoms: C7_7  and  C8_8 
REMARK    5  A    between atoms: C8_8  and  O9_9 
ROOT
HETATM    1  C4  UNL     1     -33.356  18.559  -4.111  1.00 20.00     0.040 C 
HETATM    2  C8  UNL     1     -32.989  17.858  -2.809  1.00 20.00     0.125 C 
ENDROOT
BRANCH   2   3
HETATM    3  C7  UNL     1     -33.503  16.418  -2.718  1.00 20.00     0.032 C 
BRANCH   3   4
HETATM    4  C6  UNL     1     -33.033  15.529  -3.869  1.00 20.00     0.002 C 
BRANCH   4   5
HETATM    5  C5  UNL     1     -34.217  14.881  -4.589  1.00 20.00    -0.004 C 
HETATM    6  C3  UNL     1     -34.118  15.060  -6.096  1.00 20.00     0.005 C 
ENDBRANCH   4   5
ENDBRANCH   3   4
ENDBRANCH   2   3
BRANCH   2   7
HETATM    7  O9  UNL     1     -33.543  18.603  -1.725  1.00 20.00    -0.340 OA
BRANCH   7   8
HETATM    8  C1  UNL     1     -32.942  18.625  -0.516  1.00 20.00     0.109 C 
HETATM    9  C2  UNL     1     -31.450  18.534  -0.432  1.00 20.00     0.089 C 
HETATM   10  S10 UNL     1     -33.934  18.752   0.816  1.00 20.00    -0.058 SA
ENDBRANCH   7   8
ENDBRANCH   2   7
TORSDOF 5
ENDMDL
MODEL 8
REMARK VINA RESULT:      -3.2     12.083     12.610
REMARK  5 active torsions:
REMARK  status: ('A' for Active; 'I' for Inactive)
REMARK    1  A    between atoms: C1_1  and  O9_9 
REMARK    2  A    between atoms: C5_5  and  C6_6 
REMARK    3  A    between atoms: C6_6  and  C7_7 
REMARK    4  A    between atoms: C7_7  and  C8_8 
REMARK    5  A    between atoms: C8_8  and  O9_9 
ROOT
HETATM    1  C4  UNL     1     -34.075  17.716  -0.825  1.00 20.00     0.040 C 
HETATM    2  C8  UNL     1     -32.735  17.825  -1.541  1.00 20.00     0.125 C 
ENDROOT
BRANCH   2   3
HETATM    3  C7  UNL     1     -31.840  18.947  -1.006  1.00 20.00     0.032 C 
BRANCH   3   4
HETATM    4  C6  UNL     1     -30.833  18.475   0.042  1.00 20.00     0.002 C 
BRANCH   4   5
HETATM    5  C5  UNL     1     -31.315  18.796   1.458  1.00 20.00    -0.004 C 
HETATM    6  C3  UNL     1     -30.206  18.605   2.481  1.00 20.00     0.005 C 
ENDBRANCH   4   5
ENDBRANCH   3   4
ENDBRANCH   2   3
BRANCH   2   7
HETATM    7  O9  UNL     1     -32.984  18.069  -2.925  1.00 20.00    -0.340 OA
BRANCH   7   8
HETATM    8  C1  UNL     1     -33.639  17.164  -3.684  1.00 20.00     0.109 C 
HETATM    9  C2  UNL     1     -33.168  15.744  -3.712  1.00 20.00     0.089 C 
HETATM   10  S10 UNL     1     -34.950  17.717  -4.551  1.00 20.00    -0.058 SA
ENDBRANCH   7   8
ENDBRANCH   2   7
TORSDOF 5
ENDMDL
MODEL 9
REMARK VINA RESULT:      -3.2     12.105     13.280
REMARK  5 active torsions:
REMARK  status: ('A' for Active; 'I' for Inactive)
REMARK    1  A    between atoms: C1_1  and  O9_9 
REMARK    2  A    between atoms: C5_5  and  C6_6 
REMARK    3  A    between atoms: C6_6  and  C7_7 
REMARK    4  A    between atoms: C7_7  and  C8_8 
REMARK    5  A    between atoms: C8_8  and  O9_9 
ROOT
HETATM    1  C4  UNL     1     -33.505  14.846  -4.096  1.00 20.00     0.040 C 
HETATM    2  C8  UNL     1     -33.467  16.338  -3.789  1.00 20.00     0.125 C 
ENDROOT
BRANCH   2   3
HETATM    3  C7  UNL     1     -33.442  16.659  -2.292  1.00 20.00     0.032 C 
BRANCH   3   4
HETATM    4  C6  UNL     1     -32.920  18.061  -1.978  1.00 20.00     0.002 C 
BRANCH   4   5
HETATM    5  C5  UNL     1     -32.670  18.237  -0.479  1.00 20.00    -0.004 C 
HETATM    6  C3  UNL     1     -31.207  18.537  -0.189  1.00 20.00     0.005 C 
ENDBRANCH   4   5
ENDBRANCH   3   4
ENDBRANCH   2   3
BRANCH   2   7
HETATM    7  O9  UNL     1     -34.625  16.944  -4.361  1.00 20.00    -0.340 OA
BRANCH   7   8
HETATM    8  C1  UNL     1     -34.539  17.679  -5.492  1.00 20.00     0.109 C 
HETATM    9  C2  UNL     1     -33.930  19.045  -5.440  1.00 20.00     0.089 C 
HETATM   10  S10 UNL     1     -35.136  16.989  -6.885  1.00 20.00    -0.058 SA
ENDBRANCH   7   8
ENDBRANCH   2   7
TORSDOF 5
ENDMDL
