MODEL 1
REMARK VINA RESULT:      -3.5      0.000      0.000
REMARK  2 active torsions:
REMARK  status: ('A' for Active; 'I' for Inactive)
REMARK    1  A    between atoms: C5_5  and  C6_6 
REMARK    2  A    between atoms: C5_5  and  O8_8 
ROOT
HETATM    1  C1  UNL     1     -32.624   8.301   3.212  1.00 20.00     0.228 C 
HETATM    2  N7  UNL     1     -32.663   9.210   2.494  1.00 20.00    -0.164 NA
HETATM    3  O8  UNL     1     -32.570   7.252   4.033  1.00 20.00    -0.283 OA
ENDROOT
BRANCH   3   4
HETATM    4  C5  UNL     1     -33.694   7.246   4.905  1.00 20.00     0.198 C 
BRANCH   4   5
HETATM    5  C6  UNL     1     -34.436   5.895   4.842  1.00 20.00    -0.029 C 
HETATM    6  C2  UNL     1     -35.848   6.090   4.265  1.00 20.00     0.016 C 
HETATM    7  C3  UNL     1     -34.544   5.317   6.262  1.00 20.00     0.016 C 
HETATM    8  C4  UNL     1     -33.667   4.905   3.950  1.00 20.00     0.016 C 
ENDBRANCH   4   5
ENDBRANCH   3   4
TORSDOF 2
ENDMDL
MODEL 2
REMARK VINA RESULT:      -3.4      0.034      1.531
REMARK  2 active torsions:
REMARK  status: ('A' for Active; 'I' for Inactive)
REMARK    1  A    between atoms: C5_5  and  C6_6 
REMARK    2  A    between atoms: C5_5  and  O8_8 
ROOT
HETATM    1  C1  UNL     1     -32.618   8.276   3.186  1.00 20.00     0.228 C 
HETATM    2  N7  UNL     1     -32.644   9.178   2.457  1.00 20.00    -0.164 NA
HETATM    3  O8  UNL     1     -32.578   7.237   4.018  1.00 20.00    -0.283 OA
ENDROOT
BRANCH   3   4
HETATM    4  C5  UNL     1     -33.718   7.238   4.870  1.00 20.00     0.198 C 
BRANCH   4   5
HETATM    5  C6  UNL     1     -34.441   5.877   4.829  1.00 20.00    -0.029 C 
HETATM    6  C2  UNL     1     -33.673   4.894   3.930  1.00 20.00     0.016 C 
HETATM    7  C3  UNL     1     -35.856   6.080   4.265  1.00 20.00     0.016 C 
HETATM    8  C4  UNL     1     -34.541   5.283   6.244  1.00 20.00     0.016 C 
ENDBRANCH   4   5
ENDBRANCH   3   4
TORSDOF 2
ENDMDL
MODEL 3
REMARK VINA RESULT:      -3.4      0.032      1.539
REMARK  2 active torsions:
REMARK  status: ('A' for Active; 'I' for Inactive)
REMARK    1  A    between atoms: C5_5  and  C6_6 
REMARK    2  A    between atoms: C5_5  and  O8_8 
ROOT
HETATM    1  C1  UNL     1     -32.623   8.280   3.186  1.00 20.00     0.228 C 
HETATM    2  N7  UNL     1     -32.651   9.180   2.456  1.00 20.00    -0.164 NA
HETATM    3  O8  UNL     1     -32.581   7.241   4.020  1.00 20.00    -0.283 OA
ENDROOT
BRANCH   3   4
HETATM    4  C5  UNL     1     -33.717   7.246   4.877  1.00 20.00     0.198 C 
BRANCH   4   5
HETATM    5  C6  UNL     1     -34.445   5.888   4.838  1.00 20.00    -0.029 C 
HETATM    6  C2  UNL     1     -34.537   5.293   6.253  1.00 20.00     0.016 C 
HETATM    7  C3  UNL     1     -33.659   4.925   3.934  1.00 20.00     0.016 C 
HETATM    8  C4  UNL     1     -35.867   6.060   4.277  1.00 20.00     0.016 C 
ENDBRANCH   4   5
ENDBRANCH   3   4
TORSDOF 2
ENDMDL
MODEL 4
REMARK VINA RESULT:      -3.1     11.971     12.878
REMARK  2 active torsions:
REMARK  status: ('A' for Active; 'I' for Inactive)
REMARK    1  A    between atoms: C5_5  and  C6_6 
REMARK    2  A    between atoms: C5_5  and  O8_8 
ROOT
HETATM    1  C1  UNL     1     -33.680  15.244  -3.928  1.00 20.00     0.228 C 
HETATM    2  N7  UNL     1     -34.049  14.185  -4.219  1.00 20.00    -0.164 NA
HETATM    3  O8  UNL     1     -33.253  16.464  -3.603  1.00 20.00    -0.283 OA
ENDROOT
BRANCH   3   4
HETATM    4  C5  UNL     1     -33.373  16.676  -2.202  1.00 20.00     0.198 C 
BRANCH   4   5
HETATM    5  C6  UNL     1     -33.173  18.163  -1.848  1.00 20.00    -0.029 C 
HETATM    6  C2  UNL     1     -34.419  18.711  -1.132  1.00 20.00     0.016 C 
HETATM    7  C3  UNL     1     -32.943  18.959  -3.143  1.00 20.00     0.016 C 
HETATM    8  C4  UNL     1     -31.954  18.334  -0.926  1.00 20.00     0.016 C 
ENDBRANCH   4   5
ENDBRANCH   3   4
TORSDOF 2
ENDMDL
MODEL 5
REMARK VINA RESULT:      -3.1     10.014     10.750
REMARK  2 active torsions:
REMARK  status: ('A' for Active; 'I' for Inactive)
REMARK    1  A    between atoms: C5_5  and  C6_6 
REMARK    2  A    between atoms: C5_5  and  O8_8 
ROOT
HETATM    1  C1  UNL     1     -40.248  14.631   9.244  1.00 20.00     0.228 C 
HETATM    2  N7  UNL     1     -40.197  15.490  10.021  1.00 20.00    -0.164 NA
HETATM    3  O8  UNL     1     -40.305  13.636   8.360  1.00 20.00    -0.283 OA
ENDROOT
BRANCH   3   4
HETATM    4  C5  UNL     1     -40.454  14.151   7.042  1.00 20.00     0.198 C 
BRANCH   4   5
HETATM    5  C6  UNL     1     -41.137  13.121   6.120  1.00 20.00    -0.029 C 
HETATM    6  C2  UNL     1     -40.134  12.033   5.703  1.00 20.00     0.016 C 
HETATM    7  C3  UNL     1     -41.656  13.840   4.865  1.00 20.00     0.016 C 
HETATM    8  C4  UNL     1     -42.319  12.455   6.846  1.00 20.00     0.016 C 
ENDBRANCH   4   5
ENDBRANCH   3   4
TORSDOF 2
ENDMDL
MODEL 6
REMARK VINA RESULT:      -3.1     12.239     13.006
REMARK  2 active torsions:
REMARK  status: ('A' for Active; 'I' for Inactive)
REMARK    1  A    between atoms: C5_5  and  C6_6 
REMARK    2  A    between atoms: C5_5  and  O8_8 
ROOT
HETATM    1  C1  UNL     1     -30.752  18.913   0.224  1.00 20.00     0.228 C 
HETATM    2  N7  UNL     1     -30.273  19.263   1.220  1.00 20.00    -0.164 NA
HETATM    3  O8  UNL     1     -31.294  18.504  -0.923  1.00 20.00    -0.283 OA
ENDROOT
BRANCH   3   4
HETATM    4  C5  UNL     1     -32.494  19.219  -1.188  1.00 20.00     0.198 C 
BRANCH   4   5
HETATM    5  C6  UNL     1     -33.720  18.286  -1.128  1.00 20.00    -0.029 C 
HETATM    6  C2  UNL     1     -34.050  17.935   0.332  1.00 20.00     0.016 C 
HETATM    7  C3  UNL     1     -33.403  16.995  -1.900  1.00 20.00     0.016 C 
HETATM    8  C4  UNL     1     -34.943  18.968  -1.764  1.00 20.00     0.016 C 
ENDBRANCH   4   5
ENDBRANCH   3   4
TORSDOF 2
ENDMDL
MODEL 7
REMARK VINA RESULT:      -3.1     15.394     16.174
REMARK  2 active torsions:
REMARK  status: ('A' for Active; 'I' for Inactive)
REMARK    1  A    between atoms: C5_5  and  C6_6 
REMARK    2  A    between atoms: C5_5  and  O8_8 
ROOT
HETATM    1  C1  UNL     1     -25.290  19.227   8.020  1.00 20.00     0.228 C 
HETATM    2  N7  UNL     1     -26.228  19.263   7.339  1.00 20.00    -0.164 NA
HETATM    3  O8  UNL     1     -24.206  19.188   8.793  1.00 20.00    -0.283 OA
ENDROOT
BRANCH   3   4
HETATM    4  C5  UNL     1     -24.558  18.835  10.125  1.00 20.00     0.198 C 
BRANCH   4   5
HETATM    5  C6  UNL     1     -23.528  17.860  10.730  1.00 20.00    -0.029 C 
HETATM    6  C2  UNL     1     -24.217  16.549  11.147  1.00 20.00     0.016 C 
HETATM    7  C3  UNL     1     -22.889  18.511  11.967  1.00 20.00     0.016 C 
HETATM    8  C4  UNL     1     -22.429  17.540   9.703  1.00 20.00     0.016 C 
ENDBRANCH   4   5
ENDBRANCH   3   4
TORSDOF 2
ENDMDL
MODEL 8
REMARK VINA RESULT:      -3.1     12.252     13.026
REMARK  2 active torsions:
REMARK  status: ('A' for Active; 'I' for Inactive)
REMARK    1  A    between atoms: C5_5  and  C6_6 
REMARK    2  A    between atoms: C5_5  and  O8_8 
ROOT
HETATM    1  C1  UNL     1     -30.722  18.922   0.318  1.00 20.00     0.228 C 
HETATM    2  N7  UNL     1     -30.238  19.261   1.315  1.00 20.00    -0.164 NA
HETATM    3  O8  UNL     1     -31.271  18.526  -0.830  1.00 20.00    -0.283 OA
ENDROOT
BRANCH   3   4
HETATM    4  C5  UNL     1     -32.458  19.263  -1.094  1.00 20.00     0.198 C 
BRANCH   4   5
HETATM    5  C6  UNL     1     -33.700  18.350  -1.042  1.00 20.00    -0.029 C 
HETATM    6  C2  UNL     1     -33.438  17.051  -1.824  1.00 20.00     0.016 C 
HETATM    7  C3  UNL     1     -34.891  19.088  -1.672  1.00 20.00     0.016 C 
HETATM    8  C4  UNL     1     -34.039  17.993   0.415  1.00 20.00     0.016 C 
ENDBRANCH   4   5
ENDBRANCH   3   4
TORSDOF 2
ENDMDL
MODEL 9
REMARK VINA RESULT:      -3.0      9.191      9.953
REMARK  2 active torsions:
REMARK  status: ('A' for Active; 'I' for Inactive)
REMARK    1  A    between atoms: C5_5  and  C6_6 
REMARK    2  A    between atoms: C5_5  and  O8_8 
ROOT
HETATM    1  C1  UNL     1     -39.482  11.749   5.143  1.00 20.00     0.228 C 
HETATM    2  N7  UNL     1     -38.927  11.631   4.131  1.00 20.00    -0.164 NA
HETATM    3  O8  UNL     1     -40.120  11.874   6.306  1.00 20.00    -0.283 OA
ENDROOT
BRANCH   3   4
HETATM    4  C5  UNL     1     -40.304  13.247   6.627  1.00 20.00     0.198 C 
BRANCH   4   5
HETATM    5  C6  UNL     1     -41.801  13.618   6.633  1.00 20.00    -0.029 C 
HETATM    6  C2  UNL     1     -42.222  14.150   5.252  1.00 20.00     0.016 C 
HETATM    7  C3  UNL     1     -42.042  14.707   7.690  1.00 20.00     0.016 C 
HETATM    8  C4  UNL     1     -42.655  12.385   6.972  1.00 20.00     0.016 C 
ENDBRANCH   4   5
ENDBRANCH   3   4
TORSDOF 2
ENDMDL
