MODEL 1
REMARK VINA RESULT:      -6.1      0.000      0.000
REMARK  0 active torsions:
REMARK  status: ('A' for Active; 'I' for Inactive)
ROOT
HETATM    1  C1  UNL     1     -33.739   5.388   3.851  1.00 20.00     0.023 C 
HETATM    2  C2  UNL     1     -32.495   8.648   2.834  1.00 20.00     0.017 A 
HETATM    3  C3  UNL     1     -32.936   8.550   5.316  1.00 20.00     0.012 C 
HETATM    4  C4  UNL     1     -34.663   4.847   4.872  1.00 20.00     0.110 C 
HETATM    5  C5  UNL     1     -32.417   7.461   3.397  1.00 20.00     0.010 A 
HETATM    6  C6  UNL     1     -32.170   8.708   4.219  1.00 20.00    -0.008 A 
HETATM    7  C7  UNL     1     -33.445   6.672   4.043  1.00 20.00    -0.061 C 
HETATM    8  C8  UNL     1     -34.115   6.542   6.400  1.00 20.00     0.158 C 
HETATM    9  C9  UNL     1     -33.969   7.470   5.196  1.00 20.00     0.040 C 
HETATM   10  N10 UNL     1     -34.886   5.331   6.048  1.00 20.00    -0.301 NA
ENDROOT
TORSDOF 0
ENDMDL
MODEL 2
REMARK VINA RESULT:      -6.1      1.736      3.857
REMARK  0 active torsions:
REMARK  status: ('A' for Active; 'I' for Inactive)
ROOT
HETATM    1  C1  UNL     1     -32.732   8.120   4.906  1.00 20.00     0.023 C 
HETATM    2  C2  UNL     1     -35.132   6.059   6.696  1.00 20.00     0.017 A 
HETATM    3  C3  UNL     1     -34.243   4.889   4.645  1.00 20.00     0.012 C 
HETATM    4  C4  UNL     1     -32.318   8.336   3.502  1.00 20.00     0.110 C 
HETATM    5  C5  UNL     1     -33.933   6.418   6.289  1.00 20.00     0.010 A 
HETATM    6  C6  UNL     1     -34.462   5.037   5.966  1.00 20.00    -0.008 A 
HETATM    7  C7  UNL     1     -33.526   7.062   5.058  1.00 20.00    -0.061 C 
HETATM    8  C8  UNL     1     -32.769   6.105   2.929  1.00 20.00     0.158 C 
HETATM    9  C9  UNL     1     -33.923   6.166   3.926  1.00 20.00     0.040 C 
HETATM   10  N10 UNL     1     -32.319   7.462   2.552  1.00 20.00    -0.301 NA
ENDROOT
TORSDOF 0
ENDMDL
MODEL 3
REMARK VINA RESULT:      -6.0      0.763      2.010
REMARK  0 active torsions:
REMARK  status: ('A' for Active; 'I' for Inactive)
ROOT
HETATM    1  C1  UNL     1     -34.403   6.652   6.239  1.00 20.00     0.023 C 
HETATM    2  C2  UNL     1     -32.064   9.094   4.907  1.00 20.00     0.017 A 
HETATM    3  C3  UNL     1     -32.717   7.384   3.171  1.00 20.00     0.012 C 
HETATM    4  C4  UNL     1     -34.707   5.218   6.042  1.00 20.00     0.110 C 
HETATM    5  C5  UNL     1     -33.240   8.525   5.059  1.00 20.00     0.010 A 
HETATM    6  C6  UNL     1     -32.618   8.627   3.682  1.00 20.00    -0.008 A 
HETATM    7  C7  UNL     1     -33.573   7.140   5.319  1.00 20.00    -0.061 C 
HETATM    8  C8  UNL     1     -34.099   5.305   3.776  1.00 20.00     0.158 C 
HETATM    9  C9  UNL     1     -33.037   6.325   4.183  1.00 20.00     0.040 C 
HETATM   10  N10 UNL     1     -34.582   4.543   4.948  1.00 20.00    -0.301 NA
ENDROOT
TORSDOF 0
ENDMDL
MODEL 4
REMARK VINA RESULT:      -5.6      1.818      3.398
REMARK  0 active torsions:
REMARK  status: ('A' for Active; 'I' for Inactive)
ROOT
HETATM    1  C1  UNL     1     -33.281   5.815   3.014  1.00 20.00     0.023 C 
HETATM    2  C2  UNL     1     -34.524   4.897   6.303  1.00 20.00     0.017 A 
HETATM    3  C3  UNL     1     -34.069   7.373   6.135  1.00 20.00     0.012 C 
HETATM    4  C4  UNL     1     -32.351   6.815   2.443  1.00 20.00     0.110 C 
HETATM    5  C5  UNL     1     -34.601   5.427   5.102  1.00 20.00     0.010 A 
HETATM    6  C6  UNL     1     -34.840   6.285   6.326  1.00 20.00    -0.008 A 
HETATM    7  C7  UNL     1     -33.571   6.045   4.293  1.00 20.00    -0.061 C 
HETATM    8  C8  UNL     1     -32.887   8.394   4.096  1.00 20.00     0.158 C 
HETATM    9  C9  UNL     1     -33.038   7.217   5.057  1.00 20.00     0.040 C 
HETATM   10  N10 UNL     1     -32.121   8.003   2.893  1.00 20.00    -0.301 NA
ENDROOT
TORSDOF 0
ENDMDL
MODEL 5
REMARK VINA RESULT:      -5.6      1.609      3.414
REMARK  0 active torsions:
REMARK  status: ('A' for Active; 'I' for Inactive)
ROOT
HETATM    1  C1  UNL     1     -32.556   7.290   3.278  1.00 20.00     0.023 C 
HETATM    2  C2  UNL     1     -34.093   4.259   4.565  1.00 20.00     0.017 A 
HETATM    3  C3  UNL     1     -34.668   6.268   5.977  1.00 20.00     0.012 C 
HETATM    4  C4  UNL     1     -32.009   8.550   3.828  1.00 20.00     0.110 C 
HETATM    5  C5  UNL     1     -34.077   5.426   3.957  1.00 20.00     0.010 A 
HETATM    6  C6  UNL     1     -34.945   5.218   5.180  1.00 20.00    -0.008 A 
HETATM    7  C7  UNL     1     -33.225   6.575   4.180  1.00 20.00    -0.061 C 
HETATM    8  C8  UNL     1     -33.540   8.546   5.607  1.00 20.00     0.158 C 
HETATM    9  C9  UNL     1     -33.430   7.023   5.594  1.00 20.00     0.040 C 
HETATM   10  N10 UNL     1     -32.407   9.168   4.890  1.00 20.00    -0.301 NA
ENDROOT
TORSDOF 0
ENDMDL
MODEL 6
REMARK VINA RESULT:      -5.0      1.568      2.696
REMARK  0 active torsions:
REMARK  status: ('A' for Active; 'I' for Inactive)
ROOT
HETATM    1  C1  UNL     1     -32.536   6.659   3.187  1.00 20.00     0.023 C 
HETATM    2  C2  UNL     1     -33.995   8.632   5.867  1.00 20.00     0.017 A 
HETATM    3  C3  UNL     1     -34.528   6.179   6.118  1.00 20.00     0.012 C 
HETATM    4  C4  UNL     1     -32.876   5.435   2.429  1.00 20.00     0.110 C 
HETATM    5  C5  UNL     1     -33.137   7.789   5.335  1.00 20.00     0.010 A 
HETATM    6  C6  UNL     1     -34.000   7.358   6.502  1.00 20.00    -0.008 A 
HETATM    7  C7  UNL     1     -33.315   6.847   4.250  1.00 20.00    -0.061 C 
HETATM    8  C8  UNL     1     -33.960   4.479   4.278  1.00 20.00     0.158 C 
HETATM    9  C9  UNL     1     -34.398   5.893   4.651  1.00 20.00     0.040 C 
HETATM   10  N10 UNL     1     -33.530   4.410   2.865  1.00 20.00    -0.301 NA
ENDROOT
TORSDOF 0
ENDMDL
MODEL 7
REMARK VINA RESULT:      -4.4     12.181     13.100
REMARK  0 active torsions:
REMARK  status: ('A' for Active; 'I' for Inactive)
ROOT
HETATM    1  C1  UNL     1     -33.395  15.115  -4.055  1.00 20.00     0.023 C 
HETATM    2  C2  UNL     1     -32.808  17.735  -1.605  1.00 20.00     0.017 A 
HETATM    3  C3  UNL     1     -34.787  18.261  -3.079  1.00 20.00     0.012 C 
HETATM    4  C4  UNL     1     -33.901  15.016  -5.441  1.00 20.00     0.110 C 
HETATM    5  C5  UNL     1     -33.441  16.706  -2.127  1.00 20.00     0.010 A 
HETATM    6  C6  UNL     1     -34.171  18.013  -1.907  1.00 20.00    -0.008 A 
HETATM    7  C7  UNL     1     -33.591  16.315  -3.513  1.00 20.00    -0.061 C 
HETATM    8  C8  UNL     1     -35.355  16.833  -5.138  1.00 20.00     0.158 C 
HETATM    9  C9  UNL     1     -34.288  17.432  -4.225  1.00 20.00     0.040 C 
HETATM   10  N10 UNL     1     -34.787  15.773  -5.997  1.00 20.00    -0.301 NA
ENDROOT
TORSDOF 0
ENDMDL
MODEL 8
REMARK VINA RESULT:      -4.1     12.343     13.560
REMARK  0 active torsions:
REMARK  status: ('A' for Active; 'I' for Inactive)
ROOT
HETATM    1  C1  UNL     1     -35.732  17.430  -5.429  1.00 20.00     0.023 C 
HETATM    2  C2  UNL     1     -33.421  16.376  -2.829  1.00 20.00     0.017 A 
HETATM    3  C3  UNL     1     -33.733  14.587  -4.581  1.00 20.00     0.012 C 
HETATM    4  C4  UNL     1     -36.735  16.797  -6.313  1.00 20.00     0.110 C 
HETATM    5  C5  UNL     1     -33.760  16.787  -4.032  1.00 20.00     0.010 A 
HETATM    6  C6  UNL     1     -33.024  15.476  -3.857  1.00 20.00    -0.008 A 
HETATM    7  C7  UNL     1     -34.972  16.545  -4.787  1.00 20.00    -0.061 C 
HETATM    8  C8  UNL     1     -35.515  14.794  -6.419  1.00 20.00     0.158 C 
HETATM    9  C9  UNL     1     -35.099  15.065  -4.975  1.00 20.00     0.040 C 
HETATM   10  N10 UNL     1     -36.699  15.598  -6.791  1.00 20.00    -0.301 NA
ENDROOT
TORSDOF 0
ENDMDL
MODEL 9
REMARK VINA RESULT:      -4.0     12.067     13.449
REMARK  0 active torsions:
REMARK  status: ('A' for Active; 'I' for Inactive)
ROOT
HETATM    1  C1  UNL     1     -32.963  16.994  -2.316  1.00 20.00     0.023 C 
HETATM    2  C2  UNL     1     -34.383  14.250  -4.231  1.00 20.00     0.017 A 
HETATM    3  C3  UNL     1     -34.373  16.401  -5.549  1.00 20.00     0.012 C 
HETATM    4  C4  UNL     1     -33.158  18.456  -2.203  1.00 20.00     0.110 C 
HETATM    5  C5  UNL     1     -33.461  15.131  -3.908  1.00 20.00     0.010 A 
HETATM    6  C6  UNL     1     -34.042  15.118  -5.306  1.00 20.00    -0.008 A 
HETATM    7  C7  UNL     1     -33.602  16.462  -3.356  1.00 20.00    -0.061 C 
HETATM    8  C8  UNL     1     -33.749  18.646  -4.466  1.00 20.00     0.158 C 
HETATM    9  C9  UNL     1     -34.402  17.272  -4.328  1.00 20.00     0.040 C 
HETATM   10  N10 UNL     1     -33.524  19.263  -3.142  1.00 20.00    -0.301 NA
ENDROOT
TORSDOF 0
ENDMDL
