MODEL 1
REMARK VINA RESULT:      -4.7      0.000      0.000
REMARK  0 active torsions:
REMARK  status: ('A' for Active; 'I' for Inactive)
ROOT
HETATM    1  C1  UNL     1     -33.447   7.704   5.334  1.00 20.00     0.411 C 
HETATM    2  C2  UNL     1     -34.526   6.003   6.312  1.00 20.00     0.368 C 
HETATM    3  C3  UNL     1     -34.502   5.779   4.824  1.00 20.00     0.199 C 
HETATM    4  C4  UNL     1     -35.816   6.142   4.137  1.00 20.00     0.070 C 
HETATM    5  O5  UNL     1     -32.827   8.748   5.199  1.00 20.00    -0.229 OA
HETATM    6  O6  UNL     1     -34.197   7.379   6.432  1.00 20.00    -0.257 OA
HETATM    7  O7  UNL     1     -33.492   6.697   4.407  1.00 20.00    -0.265 OA
HETATM    8  F8  UNL     1     -33.537   5.312   6.933  1.00 20.00    -0.214 F 
HETATM    9 CL9  UNL     1     -34.025   4.124   4.396  1.00 20.00    -0.082 Cl
ENDROOT
TORSDOF 0
ENDMDL
MODEL 2
REMARK VINA RESULT:      -4.4      1.382      1.660
REMARK  0 active torsions:
REMARK  status: ('A' for Active; 'I' for Inactive)
ROOT
HETATM    1  C1  UNL     1     -32.877   7.295   3.766  1.00 20.00     0.411 C 
HETATM    2  C2  UNL     1     -34.001   7.389   5.700  1.00 20.00     0.368 C 
HETATM    3  C3  UNL     1     -34.378   6.126   4.975  1.00 20.00     0.199 C 
HETATM    4  C4  UNL     1     -35.721   6.219   4.255  1.00 20.00     0.070 C 
HETATM    5  O5  UNL     1     -32.115   7.602   2.862  1.00 20.00    -0.229 OA
HETATM    6  O6  UNL     1     -33.391   8.171   4.684  1.00 20.00    -0.257 OA
HETATM    7  O7  UNL     1     -33.338   6.027   4.002  1.00 20.00    -0.265 OA
HETATM    8  F8  UNL     1     -33.047   7.157   6.636  1.00 20.00    -0.214 F 
HETATM    9 CL9  UNL     1     -34.349   4.702   6.034  1.00 20.00    -0.082 Cl
ENDROOT
TORSDOF 0
ENDMDL
MODEL 3
REMARK VINA RESULT:      -4.0     16.149     16.691
REMARK  0 active torsions:
REMARK  status: ('A' for Active; 'I' for Inactive)
ROOT
HETATM    1  C1  UNL     1     -22.324  17.402   9.481  1.00 20.00     0.411 C 
HETATM    2  C2  UNL     1     -22.834  18.565  11.324  1.00 20.00     0.368 C 
HETATM    3  C3  UNL     1     -24.095  17.976  10.751  1.00 20.00     0.199 C 
HETATM    4  C4  UNL     1     -24.926  18.980   9.957  1.00 20.00     0.070 C 
HETATM    5  O5  UNL     1     -21.666  16.895   8.585  1.00 20.00    -0.229 OA
HETATM    6  O6  UNL     1     -21.915  18.459  10.248  1.00 20.00    -0.257 OA
HETATM    7  O7  UNL     1     -23.576  16.993   9.856  1.00 20.00    -0.265 OA
HETATM    8  F8  UNL     1     -22.343  17.800  12.331  1.00 20.00    -0.214 F 
HETATM    9 CL9  UNL     1     -25.100  17.194  11.988  1.00 20.00    -0.082 Cl
ENDROOT
TORSDOF 0
ENDMDL
MODEL 4
REMARK VINA RESULT:      -4.0     13.124     13.658
REMARK  0 active torsions:
REMARK  status: ('A' for Active; 'I' for Inactive)
ROOT
HETATM    1  C1  UNL     1     -35.213  13.884  -4.510  1.00 20.00     0.411 C 
HETATM    2  C2  UNL     1     -33.435  15.237  -4.359  1.00 20.00     0.368 C 
HETATM    3  C3  UNL     1     -34.350  15.748  -5.439  1.00 20.00     0.199 C 
HETATM    4  C4  UNL     1     -33.883  15.387  -6.847  1.00 20.00     0.070 C 
HETATM    5  O5  UNL     1     -35.978  12.960  -4.282  1.00 20.00    -0.229 OA
HETATM    6  O6  UNL     1     -33.890  13.908  -4.157  1.00 20.00    -0.257 OA
HETATM    7  O7  UNL     1     -35.557  15.042  -5.156  1.00 20.00    -0.265 OA
HETATM    8  F8  UNL     1     -33.634  15.896  -3.189  1.00 20.00    -0.214 F 
HETATM    9 CL9  UNL     1     -34.632  17.496  -5.318  1.00 20.00    -0.082 Cl
ENDROOT
TORSDOF 0
ENDMDL
MODEL 5
REMARK VINA RESULT:      -3.8      2.154      2.650
REMARK  0 active torsions:
REMARK  status: ('A' for Active; 'I' for Inactive)
ROOT
HETATM    1  C1  UNL     1     -32.820   8.348   3.853  1.00 20.00     0.411 C 
HETATM    2  C2  UNL     1     -32.963   6.115   3.901  1.00 20.00     0.368 C 
HETATM    3  C3  UNL     1     -34.045   6.694   4.772  1.00 20.00     0.199 C 
HETATM    4  C4  UNL     1     -33.712   6.648   6.261  1.00 20.00     0.070 C 
HETATM    5  O5  UNL     1     -32.429   9.471   3.569  1.00 20.00    -0.229 OA
HETATM    6  O6  UNL     1     -32.074   7.207   3.726  1.00 20.00    -0.257 OA
HETATM    7  O7  UNL     1     -34.065   8.056   4.344  1.00 20.00    -0.265 OA
HETATM    8  F8  UNL     1     -33.436   5.798   2.669  1.00 20.00    -0.214 F 
HETATM    9 CL9  UNL     1     -35.627   5.947   4.475  1.00 20.00    -0.082 Cl
ENDROOT
TORSDOF 0
ENDMDL
MODEL 6
REMARK VINA RESULT:      -3.6     15.792     16.559
REMARK  0 active torsions:
REMARK  status: ('A' for Active; 'I' for Inactive)
ROOT
HETATM    1  C1  UNL     1     -24.659  17.570  11.203  1.00 20.00     0.411 C 
HETATM    2  C2  UNL     1     -23.867  19.039   9.711  1.00 20.00     0.368 C 
HETATM    3  C3  UNL     1     -22.803  18.016  10.003  1.00 20.00     0.199 C 
HETATM    4  C4  UNL     1     -21.736  18.513  10.974  1.00 20.00     0.070 C 
HETATM    5  O5  UNL     1     -25.425  17.014  11.975  1.00 20.00    -0.229 OA
HETATM    6  O6  UNL     1     -24.779  18.868  10.785  1.00 20.00    -0.257 OA
HETATM    7  O7  UNL     1     -23.559  16.983  10.635  1.00 20.00    -0.265 OA
HETATM    8  F8  UNL     1     -24.545  18.738   8.574  1.00 20.00    -0.214 F 
HETATM    9 CL9  UNL     1     -22.043  17.388   8.528  1.00 20.00    -0.082 Cl
ENDROOT
TORSDOF 0
ENDMDL
MODEL 7
REMARK VINA RESULT:      -3.6      9.290     10.261
REMARK  0 active torsions:
REMARK  status: ('A' for Active; 'I' for Inactive)
ROOT
HETATM    1  C1  UNL     1     -42.385   5.304  -1.221  1.00 20.00     0.411 C 
HETATM    2  C2  UNL     1     -41.286   6.086   0.566  1.00 20.00     0.368 C 
HETATM    3  C3  UNL     1     -42.495   6.947   0.318  1.00 20.00     0.199 C 
HETATM    4  C4  UNL     1     -42.169   8.261  -0.387  1.00 20.00     0.070 C 
HETATM    5  O5  UNL     1     -42.675   4.601  -2.177  1.00 20.00    -0.229 OA
HETATM    6  O6  UNL     1     -41.140   5.382  -0.658  1.00 20.00    -0.257 OA
HETATM    7  O7  UNL     1     -43.261   6.126  -0.563  1.00 20.00    -0.265 OA
HETATM    8  F8  UNL     1     -41.528   5.156   1.523  1.00 20.00    -0.214 F 
HETATM    9 CL9  UNL     1     -43.417   7.262   1.801  1.00 20.00    -0.082 Cl
ENDROOT
TORSDOF 0
ENDMDL
MODEL 8
REMARK VINA RESULT:      -3.5      9.560     10.410
REMARK  0 active torsions:
REMARK  status: ('A' for Active; 'I' for Inactive)
ROOT
HETATM    1  C1  UNL     1     -42.699   5.602  -0.926  1.00 20.00     0.411 C 
HETATM    2  C2  UNL     1     -42.671   7.762  -0.338  1.00 20.00     0.368 C 
HETATM    3  C3  UNL     1     -42.117   6.938   0.793  1.00 20.00     0.199 C 
HETATM    4  C4  UNL     1     -43.120   6.703   1.919  1.00 20.00     0.070 C 
HETATM    5  O5  UNL     1     -42.870   4.594  -1.594  1.00 20.00    -0.229 OA
HETATM    6  O6  UNL     1     -43.332   6.797  -1.142  1.00 20.00    -0.257 OA
HETATM    7  O7  UNL     1     -41.850   5.695   0.144  1.00 20.00    -0.265 OA
HETATM    8  F8  UNL     1     -41.679   8.288  -1.100  1.00 20.00    -0.214 F 
HETATM    9 CL9  UNL     1     -40.611   7.612   1.447  1.00 20.00    -0.082 Cl
ENDROOT
TORSDOF 0
ENDMDL
MODEL 9
REMARK VINA RESULT:      -3.4      9.116      9.586
REMARK  0 active torsions:
REMARK  status: ('A' for Active; 'I' for Inactive)
ROOT
HETATM    1  C1  UNL     1     -41.379   7.904   0.158  1.00 20.00     0.411 C 
HETATM    2  C2  UNL     1     -43.325   6.944   0.710  1.00 20.00     0.368 C 
HETATM    3  C3  UNL     1     -42.322   5.869   0.387  1.00 20.00     0.199 C 
HETATM    4  C4  UNL     1     -42.494   5.282  -1.012  1.00 20.00     0.070 C 
HETATM    5  O5  UNL     1     -40.543   8.767  -0.061  1.00 20.00    -0.229 OA
HETATM    6  O6  UNL     1     -42.732   8.110   0.158  1.00 20.00    -0.257 OA
HETATM    7  O7  UNL     1     -41.093   6.594   0.437  1.00 20.00    -0.265 OA
HETATM    8  F8  UNL     1     -43.416   7.151   2.048  1.00 20.00    -0.214 F 
HETATM    9 CL9  UNL     1     -42.306   4.572   1.597  1.00 20.00    -0.082 Cl
ENDROOT
TORSDOF 0
ENDMDL
