MODEL 1
REMARK VINA RESULT:      -3.6      0.000      0.000
REMARK  1 active torsions:
REMARK  status: ('A' for Active; 'I' for Inactive)
REMARK    1  A    between atoms: C1_1  and  C8_8 
ROOT
HETATM    1  C1  UNL     1     -33.794  16.368  -3.847  1.00 20.00     0.069 C 
HETATM    2  C2  UNL     1     -34.598  14.484  -4.808  1.00 20.00     0.169 C 
HETATM    3  C3  UNL     1     -34.814  15.467  -5.967  1.00 20.00     0.025 C 
HETATM    4  C4  UNL     1     -36.165  15.264  -6.646  1.00 20.00     0.029 C 
HETATM    5  C5  UNL     1     -33.676  15.395  -6.990  1.00 20.00     0.029 C 
HETATM    6  N9  UNL     1     -33.714  15.082  -3.783  1.00 20.00    -0.285 NA
HETATM    7  S10 UNL     1     -34.760  17.074  -5.116  1.00 20.00    -0.104 SA
ENDROOT
BRANCH   1   8
HETATM    8  C8  UNL     1     -33.072  17.285  -2.920  1.00 20.00     0.036 C 
HETATM    9  C6  UNL     1     -33.126  18.723  -3.436  1.00 20.00     0.016 C 
HETATM   10  C7  UNL     1     -33.645  17.199  -1.505  1.00 20.00     0.016 C 
ENDBRANCH   1   8
TORSDOF 1
ENDMDL
MODEL 2
REMARK VINA RESULT:      -3.5     11.993     13.001
REMARK  1 active torsions:
REMARK  status: ('A' for Active; 'I' for Inactive)
REMARK    1  A    between atoms: C1_1  and  C8_8 
ROOT
HETATM    1  C1  UNL     1     -32.762   6.949   3.466  1.00 20.00     0.069 C 
HETATM    2  C2  UNL     1     -33.609   4.894   3.894  1.00 20.00     0.169 C 
HETATM    3  C3  UNL     1     -34.465   5.723   4.862  1.00 20.00     0.025 C 
HETATM    4  C4  UNL     1     -34.624   5.039   6.216  1.00 20.00     0.029 C 
HETATM    5  C5  UNL     1     -35.832   6.062   4.260  1.00 20.00     0.029 C 
HETATM    6  N9  UNL     1     -32.906   5.779   2.939  1.00 20.00    -0.285 NA
HETATM    7  S10 UNL     1     -33.483   7.247   5.026  1.00 20.00    -0.104 SA
ENDROOT
BRANCH   1   8
HETATM    8  C8  UNL     1     -32.049   8.071   2.795  1.00 20.00     0.036 C 
HETATM    9  C6  UNL     1     -32.210   7.980   1.277  1.00 20.00     0.016 C 
HETATM   10  C7  UNL     1     -32.548   9.424   3.307  1.00 20.00     0.016 C 
ENDBRANCH   1   8
TORSDOF 1
ENDMDL
MODEL 3
REMARK VINA RESULT:      -3.4     11.778     13.374
REMARK  1 active torsions:
REMARK  status: ('A' for Active; 'I' for Inactive)
REMARK    1  A    between atoms: C1_1  and  C8_8 
ROOT
HETATM    1  C1  UNL     1     -40.207  12.850   6.194  1.00 20.00     0.069 C 
HETATM    2  C2  UNL     1     -41.248  14.234   7.651  1.00 20.00     0.169 C 
HETATM    3  C3  UNL     1     -42.302  14.208   6.536  1.00 20.00     0.025 C 
HETATM    4  C4  UNL     1     -42.881  15.592   6.262  1.00 20.00     0.029 C 
HETATM    5  C5  UNL     1     -43.417  13.202   6.835  1.00 20.00     0.029 C 
HETATM    6  N9  UNL     1     -40.254  13.157   7.447  1.00 20.00    -0.285 NA
HETATM    7  S10 UNL     1     -41.331  13.626   5.110  1.00 20.00    -0.104 SA
ENDROOT
BRANCH   1   8
HETATM    8  C8  UNL     1     -39.273  11.835   5.630  1.00 20.00     0.036 C 
HETATM    9  C6  UNL     1     -39.404  11.771   4.108  1.00 20.00     0.016 C 
HETATM   10  C7  UNL     1     -37.828  12.135   6.032  1.00 20.00     0.016 C 
ENDBRANCH   1   8
TORSDOF 1
ENDMDL
MODEL 4
REMARK VINA RESULT:      -3.3     12.662     14.542
REMARK  1 active torsions:
REMARK  status: ('A' for Active; 'I' for Inactive)
REMARK    1  A    between atoms: C1_1  and  C8_8 
ROOT
HETATM    1  C1  UNL     1     -40.678  13.794   7.285  1.00 20.00     0.069 C 
HETATM    2  C2  UNL     1     -40.234  14.898   9.211  1.00 20.00     0.169 C 
HETATM    3  C3  UNL     1     -41.417  15.738   8.708  1.00 20.00     0.025 C 
HETATM    4  C4  UNL     1     -41.180  17.233   8.897  1.00 20.00     0.029 C 
HETATM    5  C5  UNL     1     -42.733  15.309   9.363  1.00 20.00     0.029 C 
HETATM    6  N9  UNL     1     -40.137  13.634   8.447  1.00 20.00    -0.285 NA
HETATM    7  S10 UNL     1     -41.457  15.314   6.938  1.00 20.00    -0.104 SA
ENDROOT
BRANCH   1   8
HETATM    8  C8  UNL     1     -40.708  12.733   6.239  1.00 20.00     0.036 C 
HETATM    9  C6  UNL     1     -41.118  13.321   4.889  1.00 20.00     0.016 C 
HETATM   10  C7  UNL     1     -39.354  12.030   6.131  1.00 20.00     0.016 C 
ENDBRANCH   1   8
TORSDOF 1
ENDMDL
MODEL 5
REMARK VINA RESULT:      -3.2      2.308      2.991
REMARK  1 active torsions:
REMARK  status: ('A' for Active; 'I' for Inactive)
REMARK    1  A    between atoms: C1_1  and  C8_8 
ROOT
HETATM    1  C1  UNL     1     -33.613  18.050  -1.944  1.00 20.00     0.069 C 
HETATM    2  C2  UNL     1     -33.844  16.676  -3.728  1.00 20.00     0.169 C 
HETATM    3  C3  UNL     1     -34.709  17.852  -4.204  1.00 20.00     0.025 C 
HETATM    4  C4  UNL     1     -36.001  17.382  -4.864  1.00 20.00     0.029 C 
HETATM    5  C5  UNL     1     -33.930  18.784  -5.138  1.00 20.00     0.029 C 
HETATM    6  N9  UNL     1     -33.031  17.076  -2.558  1.00 20.00    -0.285 NA
HETATM    7  S10 UNL     1     -35.063  18.719  -2.644  1.00 20.00    -0.104 SA
ENDROOT
BRANCH   1   8
HETATM    8  C8  UNL     1     -33.090  18.663  -0.691  1.00 20.00     0.036 C 
HETATM    9  C6  UNL     1     -33.832  18.113   0.528  1.00 20.00     0.016 C 
HETATM   10  C7  UNL     1     -31.584  18.432  -0.553  1.00 20.00     0.016 C 
ENDBRANCH   1   8
TORSDOF 1
ENDMDL
MODEL 6
REMARK VINA RESULT:      -3.2      1.615      4.421
REMARK  1 active torsions:
REMARK  status: ('A' for Active; 'I' for Inactive)
REMARK    1  A    between atoms: C1_1  and  C8_8 
ROOT
HETATM    1  C1  UNL     1     -34.537  16.594  -4.702  1.00 20.00     0.069 C 
HETATM    2  C2  UNL     1     -35.190  18.096  -3.140  1.00 20.00     0.169 C 
HETATM    3  C3  UNL     1     -33.774  17.800  -2.625  1.00 20.00     0.025 C 
HETATM    4  C4  UNL     1     -33.735  17.650  -1.108  1.00 20.00     0.029 C 
HETATM    5  C5  UNL     1     -32.770  18.858  -3.093  1.00 20.00     0.029 C 
HETATM    6  N9  UNL     1     -35.360  17.570  -4.512  1.00 20.00    -0.285 NA
HETATM    7  S10 UNL     1     -33.400  16.214  -3.436  1.00 20.00    -0.104 SA
ENDROOT
BRANCH   1   8
HETATM    8  C8  UNL     1     -34.477  15.801  -5.962  1.00 20.00     0.036 C 
HETATM    9  C6  UNL     1     -35.612  14.777  -6.007  1.00 20.00     0.016 C 
HETATM   10  C7  UNL     1     -34.529  16.714  -7.188  1.00 20.00     0.016 C 
ENDBRANCH   1   8
TORSDOF 1
ENDMDL
MODEL 7
REMARK VINA RESULT:      -3.2      2.147      2.920
REMARK  1 active torsions:
REMARK  status: ('A' for Active; 'I' for Inactive)
REMARK    1  A    between atoms: C1_1  and  C8_8 
ROOT
HETATM    1  C1  UNL     1     -34.562  17.022  -4.495  1.00 20.00     0.069 C 
HETATM    2  C2  UNL     1     -36.278  18.427  -4.942  1.00 20.00     0.169 C 
HETATM    3  C3  UNL     1     -36.599  17.313  -5.948  1.00 20.00     0.025 C 
HETATM    4  C4  UNL     1     -37.025  17.870  -7.303  1.00 20.00     0.029 C 
HETATM    5  C5  UNL     1     -37.653  16.345  -5.403  1.00 20.00     0.029 C 
HETATM    6  N9  UNL     1     -35.267  17.965  -3.966  1.00 20.00    -0.285 NA
HETATM    7  S10 UNL     1     -35.001  16.452  -6.083  1.00 20.00    -0.104 SA
ENDROOT
BRANCH   1   8
HETATM    8  C8  UNL     1     -33.418  16.363  -3.803  1.00 20.00     0.036 C 
HETATM    9  C6  UNL     1     -33.459  16.651  -2.302  1.00 20.00     0.016 C 
HETATM   10  C7  UNL     1     -33.415  14.855  -4.060  1.00 20.00     0.016 C 
ENDBRANCH   1   8
TORSDOF 1
ENDMDL
MODEL 8
REMARK VINA RESULT:      -3.1      1.642      2.370
REMARK  1 active torsions:
REMARK  status: ('A' for Active; 'I' for Inactive)
REMARK    1  A    between atoms: C1_1  and  C8_8 
ROOT
HETATM    1  C1  UNL     1     -34.112  17.680  -3.919  1.00 20.00     0.069 C 
HETATM    2  C2  UNL     1     -34.659  17.539  -6.111  1.00 20.00     0.169 C 
HETATM    3  C3  UNL     1     -34.672  16.046  -5.754  1.00 20.00     0.025 C 
HETATM    4  C4  UNL     1     -34.009  15.193  -6.831  1.00 20.00     0.029 C 
HETATM    5  C5  UNL     1     -36.090  15.547  -5.461  1.00 20.00     0.029 C 
HETATM    6  N9  UNL     1     -34.634  18.363  -4.882  1.00 20.00    -0.285 NA
HETATM    7  S10 UNL     1     -33.693  16.014  -4.220  1.00 20.00    -0.104 SA
ENDROOT
BRANCH   1   8
HETATM    8  C8  UNL     1     -33.888  18.226  -2.551  1.00 20.00     0.036 C 
HETATM    9  C6  UNL     1     -33.581  17.098  -1.565  1.00 20.00     0.016 C 
HETATM   10  C7  UNL     1     -32.762  19.261  -2.550  1.00 20.00     0.016 C 
ENDBRANCH   1   8
TORSDOF 1
ENDMDL
MODEL 9
REMARK VINA RESULT:      -3.1     13.201     14.664
REMARK  1 active torsions:
REMARK  status: ('A' for Active; 'I' for Inactive)
REMARK    1  A    between atoms: C1_1  and  C8_8 
ROOT
HETATM    1  C1  UNL     1     -41.730  14.078   8.535  1.00 20.00     0.069 C 
HETATM    2  C2  UNL     1     -42.376  12.693   6.865  1.00 20.00     0.169 C 
HETATM    3  C3  UNL     1     -41.204  13.396   6.166  1.00 20.00     0.025 C 
HETATM    4  C4  UNL     1     -41.532  13.761   4.722  1.00 20.00     0.029 C 
HETATM    5  C5  UNL     1     -39.921  12.563   6.238  1.00 20.00     0.029 C 
HETATM    6  N9  UNL     1     -42.348  12.965   8.319  1.00 20.00    -0.285 NA
HETATM    7  S10 UNL     1     -41.006  14.898   7.177  1.00 20.00    -0.104 SA
ENDROOT
BRANCH   1   8
HETATM    8  C8  UNL     1     -41.564  14.678   9.888  1.00 20.00     0.036 C 
HETATM    9  C6  UNL     1     -41.905  13.658  10.975  1.00 20.00     0.016 C 
HETATM   10  C7  UNL     1     -40.144  15.214  10.081  1.00 20.00     0.016 C 
ENDBRANCH   1   8
TORSDOF 1
ENDMDL
