MODEL 1
REMARK VINA RESULT:      -3.7      0.000      0.000
REMARK  4 active torsions:
REMARK  status: ('A' for Active; 'I' for Inactive)
REMARK    1  A    between atoms: C1_1  and  O8_8 
REMARK    2  A    between atoms: C5_5  and  C6_6 
REMARK    3  A    between atoms: C6_6  and  C7_7 
REMARK    4  A    between atoms: C7_7  and  O8_8 
ROOT
HETATM    1  C4  UNL     1     -32.911   4.623   2.080  1.00 20.00     0.040 C 
HETATM    2  C7  UNL     1     -33.475   5.596   3.105  1.00 20.00     0.125 C 
ENDROOT
BRANCH   2   3
HETATM    3  C6  UNL     1     -34.153   4.861   4.266  1.00 20.00     0.032 C 
BRANCH   3   4
HETATM    4  C5  UNL     1     -35.067   5.783   5.078  1.00 20.00    -0.002 C 
HETATM    5  C3  UNL     1     -34.481   6.078   6.450  1.00 20.00     0.005 C 
ENDBRANCH   3   4
ENDBRANCH   2   3
BRANCH   2   6
HETATM    6  O8  UNL     1     -32.413   6.411   3.595  1.00 20.00    -0.340 OA
BRANCH   6   7
HETATM    7  C1  UNL     1     -32.370   7.736   3.331  1.00 20.00     0.109 C 
HETATM    8  C2  UNL     1     -32.262   8.200   1.913  1.00 20.00     0.089 C 
HETATM    9  S9  UNL     1     -32.442   8.770   4.635  1.00 20.00    -0.058 SA
ENDBRANCH   6   7
ENDBRANCH   2   6
TORSDOF 4
ENDMDL
MODEL 2
REMARK VINA RESULT:      -3.4     12.269     12.903
REMARK  4 active torsions:
REMARK  status: ('A' for Active; 'I' for Inactive)
REMARK    1  A    between atoms: C1_1  and  O8_8 
REMARK    2  A    between atoms: C5_5  and  C6_6 
REMARK    3  A    between atoms: C6_6  and  C7_7 
REMARK    4  A    between atoms: C7_7  and  O8_8 
ROOT
HETATM    1  C4  UNL     1     -33.912  18.211   0.029  1.00 20.00     0.040 C 
HETATM    2  C7  UNL     1     -32.874  18.222  -1.084  1.00 20.00     0.125 C 
ENDROOT
BRANCH   2   3
HETATM    3  C6  UNL     1     -31.461  18.437  -0.533  1.00 20.00     0.032 C 
BRANCH   3   4
HETATM    4  C5  UNL     1     -31.474  19.105   0.844  1.00 20.00    -0.002 C 
HETATM    5  C3  UNL     1     -30.641  18.324   1.849  1.00 20.00     0.005 C 
ENDBRANCH   3   4
ENDBRANCH   2   3
BRANCH   2   6
HETATM    6  O8  UNL     1     -32.944  16.983  -1.786  1.00 20.00    -0.340 OA
BRANCH   6   7
HETATM    7  C1  UNL     1     -33.301  16.937  -3.089  1.00 20.00     0.109 C 
HETATM    8  C2  UNL     1     -33.486  15.610  -3.753  1.00 20.00     0.089 C 
HETATM    9  S9  UNL     1     -33.511  18.395  -3.867  1.00 20.00    -0.058 SA
ENDBRANCH   6   7
ENDBRANCH   2   6
TORSDOF 4
ENDMDL
MODEL 3
REMARK VINA RESULT:      -3.4      1.681      2.872
REMARK  4 active torsions:
REMARK  status: ('A' for Active; 'I' for Inactive)
REMARK    1  A    between atoms: C1_1  and  O8_8 
REMARK    2  A    between atoms: C5_5  and  C6_6 
REMARK    3  A    between atoms: C6_6  and  C7_7 
REMARK    4  A    between atoms: C7_7  and  O8_8 
ROOT
HETATM    1  C4  UNL     1     -32.273   9.012   5.191  1.00 20.00     0.040 C 
HETATM    2  C7  UNL     1     -32.928   7.646   5.041  1.00 20.00     0.125 C 
ENDROOT
BRANCH   2   3
HETATM    3  C6  UNL     1     -34.022   7.429   6.091  1.00 20.00     0.032 C 
BRANCH   3   4
HETATM    4  C5  UNL     1     -34.173   5.954   6.471  1.00 20.00    -0.002 C 
HETATM    5  C3  UNL     1     -35.007   5.199   5.448  1.00 20.00     0.005 C 
ENDBRANCH   3   4
ENDBRANCH   2   3
BRANCH   2   6
HETATM    6  O8  UNL     1     -33.479   7.544   3.731  1.00 20.00    -0.340 OA
BRANCH   6   7
HETATM    7  C1  UNL     1     -32.794   6.948   2.729  1.00 20.00     0.109 C 
HETATM    8  C2  UNL     1     -32.725   5.455   2.674  1.00 20.00     0.089 C 
HETATM    9  S9  UNL     1     -32.066   7.947   1.613  1.00 20.00    -0.058 SA
ENDBRANCH   6   7
ENDBRANCH   2   6
TORSDOF 4
ENDMDL
MODEL 4
REMARK VINA RESULT:      -3.4     10.078     11.101
REMARK  4 active torsions:
REMARK  status: ('A' for Active; 'I' for Inactive)
REMARK    1  A    between atoms: C1_1  and  O8_8 
REMARK    2  A    between atoms: C5_5  and  C6_6 
REMARK    3  A    between atoms: C6_6  and  C7_7 
REMARK    4  A    between atoms: C7_7  and  O8_8 
ROOT
HETATM    1  C4  UNL     1     -41.930  14.100   5.077  1.00 20.00     0.040 C 
HETATM    2  C7  UNL     1     -41.274  13.534   6.329  1.00 20.00     0.125 C 
ENDROOT
BRANCH   2   3
HETATM    3  C6  UNL     1     -40.673  12.149   6.072  1.00 20.00     0.032 C 
BRANCH   3   4
HETATM    4  C5  UNL     1     -39.215  12.229   5.610  1.00 20.00    -0.002 C 
HETATM    5  C3  UNL     1     -39.053  11.712   4.189  1.00 20.00     0.005 C 
ENDBRANCH   3   4
ENDBRANCH   2   3
BRANCH   2   6
HETATM    6  O8  UNL     1     -40.259  14.437   6.760  1.00 20.00    -0.340 OA
BRANCH   6   7
HETATM    7  C1  UNL     1     -40.429  15.209   7.856  1.00 20.00     0.109 C 
HETATM    8  C2  UNL     1     -40.294  14.597   9.214  1.00 20.00     0.089 C 
HETATM    9  S9  UNL     1     -40.785  16.816   7.601  1.00 20.00    -0.058 SA
ENDBRANCH   6   7
ENDBRANCH   2   6
TORSDOF 4
ENDMDL
MODEL 5
REMARK VINA RESULT:      -3.3      1.520      2.947
REMARK  4 active torsions:
REMARK  status: ('A' for Active; 'I' for Inactive)
REMARK    1  A    between atoms: C1_1  and  O8_8 
REMARK    2  A    between atoms: C5_5  and  C6_6 
REMARK    3  A    between atoms: C6_6  and  C7_7 
REMARK    4  A    between atoms: C7_7  and  O8_8 
ROOT
HETATM    1  C4  UNL     1     -34.356   6.863   6.626  1.00 20.00     0.040 C 
HETATM    2  C7  UNL     1     -33.887   6.610   5.200  1.00 20.00     0.125 C 
ENDROOT
BRANCH   2   3
HETATM    3  C6  UNL     1     -34.757   5.562   4.499  1.00 20.00     0.032 C 
BRANCH   3   4
HETATM    4  C5  UNL     1     -33.925   4.407   3.934  1.00 20.00    -0.002 C 
HETATM    5  C3  UNL     1     -33.089   4.854   2.745  1.00 20.00     0.005 C 
ENDBRANCH   3   4
ENDBRANCH   2   3
BRANCH   2   6
HETATM    6  O8  UNL     1     -33.925   7.840   4.481  1.00 20.00    -0.340 OA
BRANCH   6   7
HETATM    7  C1  UNL     1     -32.789   8.442   4.064  1.00 20.00     0.109 C 
HETATM    8  C2  UNL     1     -31.993   9.258   5.032  1.00 20.00     0.089 C 
HETATM    9  S9  UNL     1     -32.358   8.223   2.470  1.00 20.00    -0.058 SA
ENDBRANCH   6   7
ENDBRANCH   2   6
TORSDOF 4
ENDMDL
MODEL 6
REMARK VINA RESULT:      -3.3      1.953      4.209
REMARK  4 active torsions:
REMARK  status: ('A' for Active; 'I' for Inactive)
REMARK    1  A    between atoms: C1_1  and  O8_8 
REMARK    2  A    between atoms: C5_5  and  C6_6 
REMARK    3  A    between atoms: C6_6  and  C7_7 
REMARK    4  A    between atoms: C7_7  and  O8_8 
ROOT
HETATM    1  C4  UNL     1     -32.577   5.970   2.590  1.00 20.00     0.040 C 
HETATM    2  C7  UNL     1     -32.613   7.157   3.543  1.00 20.00     0.125 C 
ENDROOT
BRANCH   2   3
HETATM    3  C6  UNL     1     -32.282   8.468   2.821  1.00 20.00     0.032 C 
BRANCH   3   4
HETATM    4  C5  UNL     1     -32.085   8.264   1.317  1.00 20.00    -0.002 C 
HETATM    5  C3  UNL     1     -32.755   9.368   0.514  1.00 20.00     0.005 C 
ENDBRANCH   3   4
ENDBRANCH   2   3
BRANCH   2   6
HETATM    6  O8  UNL     1     -33.911   7.234   4.128  1.00 20.00    -0.340 OA
BRANCH   6   7
HETATM    7  C1  UNL     1     -34.199   6.583   5.276  1.00 20.00     0.109 C 
HETATM    8  C2  UNL     1     -33.951   7.261   6.587  1.00 20.00     0.089 C 
HETATM    9  S9  UNL     1     -34.820   5.044   5.137  1.00 20.00    -0.058 SA
ENDBRANCH   6   7
ENDBRANCH   2   6
TORSDOF 4
ENDMDL
MODEL 7
REMARK VINA RESULT:      -3.3      2.249      4.589
REMARK  4 active torsions:
REMARK  status: ('A' for Active; 'I' for Inactive)
REMARK    1  A    between atoms: C1_1  and  O8_8 
REMARK    2  A    between atoms: C5_5  and  C6_6 
REMARK    3  A    between atoms: C6_6  and  C7_7 
REMARK    4  A    between atoms: C7_7  and  O8_8 
ROOT
HETATM    1  C4  UNL     1     -32.109   9.146   4.794  1.00 20.00     0.040 C 
HETATM    2  C7  UNL     1     -32.961   8.219   3.938  1.00 20.00     0.125 C 
ENDROOT
BRANCH   2   3
HETATM    3  C6  UNL     1     -32.435   8.139   2.501  1.00 20.00     0.032 C 
BRANCH   3   4
HETATM    4  C5  UNL     1     -32.824   9.370   1.676  1.00 20.00    -0.002 C 
HETATM    5  C3  UNL     1     -32.678   9.107   0.185  1.00 20.00     0.005 C 
ENDBRANCH   3   4
ENDBRANCH   2   3
BRANCH   2   6
HETATM    6  O8  UNL     1     -32.965   6.923   4.531  1.00 20.00    -0.340 OA
BRANCH   6   7
HETATM    7  C1  UNL     1     -34.025   6.485   5.245  1.00 20.00     0.109 C 
HETATM    8  C2  UNL     1     -34.243   7.004   6.631  1.00 20.00     0.089 C 
HETATM    9  S9  UNL     1     -35.026   5.374   4.509  1.00 20.00    -0.058 SA
ENDBRANCH   6   7
ENDBRANCH   2   6
TORSDOF 4
ENDMDL
MODEL 8
REMARK VINA RESULT:      -3.2     12.041     12.946
REMARK  4 active torsions:
REMARK  status: ('A' for Active; 'I' for Inactive)
REMARK    1  A    between atoms: C1_1  and  O8_8 
REMARK    2  A    between atoms: C5_5  and  C6_6 
REMARK    3  A    between atoms: C6_6  and  C7_7 
REMARK    4  A    between atoms: C7_7  and  O8_8 
ROOT
HETATM    1  C4  UNL     1     -32.928  18.976  -3.211  1.00 20.00     0.040 C 
HETATM    2  C7  UNL     1     -33.141  18.156  -1.947  1.00 20.00     0.125 C 
ENDROOT
BRANCH   2   3
HETATM    3  C6  UNL     1     -33.405  16.682  -2.270  1.00 20.00     0.032 C 
BRANCH   3   4
HETATM    4  C5  UNL     1     -33.570  16.442  -3.773  1.00 20.00    -0.002 C 
HETATM    5  C3  UNL     1     -33.228  15.009  -4.148  1.00 20.00     0.005 C 
ENDBRANCH   3   4
ENDBRANCH   2   3
BRANCH   2   6
HETATM    6  O8  UNL     1     -31.985  18.278  -1.122  1.00 20.00    -0.340 OA
BRANCH   6   7
HETATM    7  C1  UNL     1     -32.093  18.567   0.194  1.00 20.00     0.109 C 
HETATM    8  C2  UNL     1     -30.891  18.439   1.075  1.00 20.00     0.089 C 
HETATM    9  S9  UNL     1     -33.590  19.052   0.741  1.00 20.00    -0.058 SA
ENDBRANCH   6   7
ENDBRANCH   2   6
TORSDOF 4
ENDMDL
MODEL 9
REMARK VINA RESULT:      -3.2     10.488     11.390
REMARK  4 active torsions:
REMARK  status: ('A' for Active; 'I' for Inactive)
REMARK    1  A    between atoms: C1_1  and  O8_8 
REMARK    2  A    between atoms: C5_5  and  C6_6 
REMARK    3  A    between atoms: C6_6  and  C7_7 
REMARK    4  A    between atoms: C7_7  and  O8_8 
ROOT
HETATM    1  C4  UNL     1     -39.489  12.114   6.024  1.00 20.00     0.040 C 
HETATM    2  C7  UNL     1     -40.444  13.130   6.637  1.00 20.00     0.125 C 
ENDROOT
BRANCH   2   3
HETATM    3  C6  UNL     1     -41.893  12.634   6.599  1.00 20.00     0.032 C 
BRANCH   3   4
HETATM    4  C5  UNL     1     -42.837  13.660   5.966  1.00 20.00    -0.002 C 
HETATM    5  C3  UNL     1     -42.182  14.364   4.787  1.00 20.00     0.005 C 
ENDBRANCH   3   4
ENDBRANCH   2   3
BRANCH   2   6
HETATM    6  O8  UNL     1     -40.046  13.378   7.983  1.00 20.00    -0.340 OA
BRANCH   6   7
HETATM    7  C1  UNL     1     -40.370  14.533   8.606  1.00 20.00     0.109 C 
HETATM    8  C2  UNL     1     -40.362  15.813   7.832  1.00 20.00     0.089 C 
HETATM    9  S9  UNL     1     -40.761  14.435  10.222  1.00 20.00    -0.058 SA
ENDBRANCH   6   7
ENDBRANCH   2   6
TORSDOF 4
ENDMDL
