MODEL 1
REMARK VINA RESULT:      -3.9      0.000      0.000
REMARK  5 active torsions:
REMARK  status: ('A' for Active; 'I' for Inactive)
REMARK    1  A    between atoms: C1_1  and  C5_5 
REMARK    2  A    between atoms: C1_1  and  S10_10 
REMARK    3  A    between atoms: C5_5  and  C8_8 
REMARK    4  A    between atoms: C6_6  and  C7_7 
REMARK    5  A    between atoms: C7_7  and  S10_10 
ROOT
HETATM    1  C1  UNL     1     -33.037   5.894   3.041  1.00 20.00     0.186 C 
HETATM    2  O9  UNL     1     -32.791   4.862   2.428  1.00 20.00    -0.286 OA
ENDROOT
BRANCH   1   3
HETATM    3  C5  UNL     1     -32.105   7.091   3.107  1.00 20.00     0.094 C 
BRANCH   3   4
HETATM    4  C8  UNL     1     -32.829   8.403   3.452  1.00 20.00    -0.015 C 
HETATM    5  C3  UNL     1     -32.184   9.050   4.680  1.00 20.00     0.010 C 
HETATM    6  C4  UNL     1     -32.800   9.382   2.277  1.00 20.00     0.010 C 
ENDBRANCH   3   4
ENDBRANCH   1   3
BRANCH   1   7
HETATM    7  S10 UNL     1     -34.562   6.149   3.899  1.00 20.00    -0.093 SA
BRANCH   7   8
HETATM    8  C7  UNL     1     -34.502   4.791   5.088  1.00 20.00     0.082 C 
BRANCH   8   9
HETATM    9  C6  UNL     1     -34.444   5.331   6.513  1.00 20.00     0.006 C 
HETATM   10  C2  UNL     1     -34.228   6.837   6.520  1.00 20.00     0.006 C 
ENDBRANCH   8   9
ENDBRANCH   7   8
ENDBRANCH   1   7
TORSDOF 5
ENDMDL
MODEL 2
REMARK VINA RESULT:      -3.8      2.122      2.975
REMARK  5 active torsions:
REMARK  status: ('A' for Active; 'I' for Inactive)
REMARK    1  A    between atoms: C1_1  and  C5_5 
REMARK    2  A    between atoms: C1_1  and  S10_10 
REMARK    3  A    between atoms: C5_5  and  C8_8 
REMARK    4  A    between atoms: C6_6  and  C7_7 
REMARK    5  A    between atoms: C7_7  and  S10_10 
ROOT
HETATM    1  C1  UNL     1     -32.491   8.591   4.791  1.00 20.00     0.186 C 
HETATM    2  O9  UNL     1     -32.003   9.560   5.361  1.00 20.00    -0.286 OA
ENDROOT
BRANCH   1   3
HETATM    3  C5  UNL     1     -31.747   7.724   3.792  1.00 20.00     0.094 C 
BRANCH   3   4
HETATM    4  C8  UNL     1     -32.630   7.255   2.623  1.00 20.00    -0.015 C 
HETATM    5  C3  UNL     1     -32.139   7.874   1.314  1.00 20.00     0.010 C 
HETATM    6  C4  UNL     1     -32.633   5.729   2.504  1.00 20.00     0.010 C 
ENDBRANCH   3   4
ENDBRANCH   1   3
BRANCH   1   7
HETATM    7  S10 UNL     1     -34.140   8.035   5.107  1.00 20.00    -0.093 SA
BRANCH   7   8
HETATM    8  C7  UNL     1     -33.833   6.812   6.400  1.00 20.00     0.082 C 
BRANCH   8   9
HETATM    9  C6  UNL     1     -34.565   5.511   6.088  1.00 20.00     0.006 C 
HETATM   10  C2  UNL     1     -35.324   5.611   4.773  1.00 20.00     0.006 C 
ENDBRANCH   8   9
ENDBRANCH   7   8
ENDBRANCH   1   7
TORSDOF 5
ENDMDL
MODEL 3
REMARK VINA RESULT:      -3.7      2.283      4.867
REMARK  5 active torsions:
REMARK  status: ('A' for Active; 'I' for Inactive)
REMARK    1  A    between atoms: C1_1  and  C5_5 
REMARK    2  A    between atoms: C1_1  and  S10_10 
REMARK    3  A    between atoms: C5_5  and  C8_8 
REMARK    4  A    between atoms: C6_6  and  C7_7 
REMARK    5  A    between atoms: C7_7  and  S10_10 
ROOT
HETATM    1  C1  UNL     1     -32.798   8.253   4.917  1.00 20.00     0.186 C 
HETATM    2  O9  UNL     1     -32.196   9.235   5.334  1.00 20.00    -0.286 OA
ENDROOT
BRANCH   1   3
HETATM    3  C5  UNL     1     -33.987   7.620   5.617  1.00 20.00     0.094 C 
BRANCH   3   4
HETATM    4  C8  UNL     1     -34.207   6.149   5.224  1.00 20.00    -0.015 C 
HETATM    5  C3  UNL     1     -34.251   5.273   6.478  1.00 20.00     0.010 C 
HETATM    6  C4  UNL     1     -35.500   5.973   4.424  1.00 20.00     0.010 C 
ENDBRANCH   3   4
ENDBRANCH   1   3
BRANCH   1   7
HETATM    7  S10 UNL     1     -32.387   7.466   3.388  1.00 20.00    -0.093 SA
BRANCH   7   8
HETATM    8  C7  UNL     1     -32.544   8.857   2.247  1.00 20.00     0.082 C 
BRANCH   8   9
HETATM    9  C6  UNL     1     -32.103   8.451   0.846  1.00 20.00     0.006 C 
HETATM   10  C2  UNL     1     -33.001   9.072  -0.214  1.00 20.00     0.006 C 
ENDBRANCH   8   9
ENDBRANCH   7   8
ENDBRANCH   1   7
TORSDOF 5
ENDMDL
MODEL 4
REMARK VINA RESULT:      -3.6      9.832     10.637
REMARK  5 active torsions:
REMARK  status: ('A' for Active; 'I' for Inactive)
REMARK    1  A    between atoms: C1_1  and  C5_5 
REMARK    2  A    between atoms: C1_1  and  S10_10 
REMARK    3  A    between atoms: C5_5  and  C8_8 
REMARK    4  A    between atoms: C6_6  and  C7_7 
REMARK    5  A    between atoms: C7_7  and  S10_10 
ROOT
HETATM    1  C1  UNL     1     -41.728  13.099   6.420  1.00 20.00     0.186 C 
HETATM    2  O9  UNL     1     -42.202  12.109   6.964  1.00 20.00    -0.286 OA
ENDROOT
BRANCH   1   3
HETATM    3  C5  UNL     1     -40.753  13.049   5.258  1.00 20.00     0.094 C 
BRANCH   3   4
HETATM    4  C8  UNL     1     -39.788  11.853   5.329  1.00 20.00    -0.015 C 
HETATM    5  C3  UNL     1     -39.075  11.676   3.987  1.00 20.00     0.010 C 
HETATM    6  C4  UNL     1     -38.756  12.034   6.443  1.00 20.00     0.010 C 
ENDBRANCH   3   4
ENDBRANCH   1   3
BRANCH   1   7
HETATM    7  S10 UNL     1     -42.171  14.745   6.891  1.00 20.00    -0.093 SA
BRANCH   7   8
HETATM    8  C7  UNL     1     -40.620  15.304   7.629  1.00 20.00     0.082 C 
BRANCH   8   9
HETATM    9  C6  UNL     1     -40.265  14.446   8.838  1.00 20.00     0.006 C 
HETATM   10  C2  UNL     1     -40.205  15.285  10.107  1.00 20.00     0.006 C 
ENDBRANCH   8   9
ENDBRANCH   7   8
ENDBRANCH   1   7
TORSDOF 5
ENDMDL
MODEL 5
REMARK VINA RESULT:      -3.5     11.897     12.934
REMARK  5 active torsions:
REMARK  status: ('A' for Active; 'I' for Inactive)
REMARK    1  A    between atoms: C1_1  and  C5_5 
REMARK    2  A    between atoms: C1_1  and  S10_10 
REMARK    3  A    between atoms: C5_5  and  C8_8 
REMARK    4  A    between atoms: C6_6  and  C7_7 
REMARK    5  A    between atoms: C7_7  and  S10_10 
ROOT
HETATM    1  C1  UNL     1     -33.912  14.783  -4.434  1.00 20.00     0.186 C 
HETATM    2  O9  UNL     1     -34.406  13.782  -3.929  1.00 20.00    -0.286 OA
ENDROOT
BRANCH   1   3
HETATM    3  C5  UNL     1     -33.013  15.757  -3.694  1.00 20.00     0.094 C 
BRANCH   3   4
HETATM    4  C8  UNL     1     -33.763  16.990  -3.163  1.00 20.00    -0.015 C 
HETATM    5  C3  UNL     1     -33.560  17.116  -1.652  1.00 20.00     0.010 C 
HETATM    6  C4  UNL     1     -33.293  18.271  -3.856  1.00 20.00     0.010 C 
ENDBRANCH   3   4
ENDBRANCH   1   3
BRANCH   1   7
HETATM    7  S10 UNL     1     -34.144  15.202  -6.136  1.00 20.00    -0.093 SA
BRANCH   7   8
HETATM    8  C7  UNL     1     -35.902  14.833  -6.329  1.00 20.00     0.082 C 
BRANCH   8   9
HETATM    9  C6  UNL     1     -36.749  15.897  -5.640  1.00 20.00     0.006 C 
HETATM   10  C2  UNL     1     -36.253  17.295  -5.975  1.00 20.00     0.006 C 
ENDBRANCH   8   9
ENDBRANCH   7   8
ENDBRANCH   1   7
TORSDOF 5
ENDMDL
MODEL 6
REMARK VINA RESULT:      -3.4      2.205      4.615
REMARK  5 active torsions:
REMARK  status: ('A' for Active; 'I' for Inactive)
REMARK    1  A    between atoms: C1_1  and  C5_5 
REMARK    2  A    between atoms: C1_1  and  S10_10 
REMARK    3  A    between atoms: C5_5  and  C8_8 
REMARK    4  A    between atoms: C6_6  and  C7_7 
REMARK    5  A    between atoms: C7_7  and  S10_10 
ROOT
HETATM    1  C1  UNL     1     -33.746   7.675   5.206  1.00 20.00     0.186 C 
HETATM    2  O9  UNL     1     -34.030   7.975   6.360  1.00 20.00    -0.286 OA
ENDROOT
BRANCH   1   3
HETATM    3  C5  UNL     1     -34.568   6.738   4.340  1.00 20.00     0.094 C 
BRANCH   3   4
HETATM    4  C8  UNL     1     -34.789   5.358   4.982  1.00 20.00    -0.015 C 
HETATM    5  C3  UNL     1     -33.951   4.303   4.257  1.00 20.00     0.010 C 
HETATM    6  C4  UNL     1     -34.429   5.371   6.469  1.00 20.00     0.010 C 
ENDBRANCH   3   4
ENDBRANCH   1   3
BRANCH   1   7
HETATM    7  S10 UNL     1     -32.343   8.350   4.368  1.00 20.00    -0.093 SA
BRANCH   7   8
HETATM    8  C7  UNL     1     -32.237   7.234   2.952  1.00 20.00     0.082 C 
BRANCH   8   9
HETATM    9  C6  UNL     1     -32.145   8.027   1.653  1.00 20.00     0.006 C 
HETATM   10  C2  UNL     1     -32.838   9.376   1.784  1.00 20.00     0.006 C 
ENDBRANCH   8   9
ENDBRANCH   7   8
ENDBRANCH   1   7
TORSDOF 5
ENDMDL
MODEL 7
REMARK VINA RESULT:      -3.3     11.951     12.684
REMARK  5 active torsions:
REMARK  status: ('A' for Active; 'I' for Inactive)
REMARK    1  A    between atoms: C1_1  and  C5_5 
REMARK    2  A    between atoms: C1_1  and  S10_10 
REMARK    3  A    between atoms: C5_5  and  C8_8 
REMARK    4  A    between atoms: C6_6  and  C7_7 
REMARK    5  A    between atoms: C7_7  and  S10_10 
ROOT
HETATM    1  C1  UNL     1     -33.494  16.745  -3.468  1.00 20.00     0.186 C 
HETATM    2  O9  UNL     1     -33.555  17.774  -4.130  1.00 20.00    -0.286 OA
ENDROOT
BRANCH   1   3
HETATM    3  C5  UNL     1     -33.483  16.705  -1.951  1.00 20.00     0.094 C 
BRANCH   3   4
HETATM    4  C8  UNL     1     -33.298  18.092  -1.311  1.00 20.00    -0.015 C 
HETATM    5  C3  UNL     1     -34.075  18.169   0.005  1.00 20.00     0.010 C 
HETATM    6  C4  UNL     1     -31.821  18.397  -1.058  1.00 20.00     0.010 C 
ENDBRANCH   3   4
ENDBRANCH   1   3
BRANCH   1   7
HETATM    7  S10 UNL     1     -33.466  15.140  -4.209  1.00 20.00    -0.093 SA
BRANCH   7   8
HETATM    8  C7  UNL     1     -34.298  15.484  -5.775  1.00 20.00     0.082 C 
BRANCH   8   9
HETATM    9  C6  UNL     1     -35.648  14.779  -5.828  1.00 20.00     0.006 C 
HETATM   10  C2  UNL     1     -35.798  13.794  -4.678  1.00 20.00     0.006 C 
ENDBRANCH   8   9
ENDBRANCH   7   8
ENDBRANCH   1   7
TORSDOF 5
ENDMDL
MODEL 8
REMARK VINA RESULT:      -3.3     12.097     12.777
REMARK  5 active torsions:
REMARK  status: ('A' for Active; 'I' for Inactive)
REMARK    1  A    between atoms: C1_1  and  C5_5 
REMARK    2  A    between atoms: C1_1  and  S10_10 
REMARK    3  A    between atoms: C5_5  and  C8_8 
REMARK    4  A    between atoms: C6_6  and  C7_7 
REMARK    5  A    between atoms: C7_7  and  S10_10 
ROOT
HETATM    1  C1  UNL     1     -34.393  17.889  -2.564  1.00 20.00     0.186 C 
HETATM    2  O9  UNL     1     -35.347  18.611  -2.297  1.00 20.00    -0.286 OA
ENDROOT
BRANCH   1   3
HETATM    3  C5  UNL     1     -33.380  17.402  -1.544  1.00 20.00     0.094 C 
BRANCH   3   4
HETATM    4  C8  UNL     1     -32.886  18.514  -0.604  1.00 20.00    -0.015 C 
HETATM    5  C3  UNL     1     -33.572  18.392   0.758  1.00 20.00     0.010 C 
HETATM    6  C4  UNL     1     -31.367  18.459  -0.424  1.00 20.00     0.010 C 
ENDBRANCH   3   4
ENDBRANCH   1   3
BRANCH   1   7
HETATM    7  S10 UNL     1     -34.100  17.267  -4.193  1.00 20.00    -0.093 SA
BRANCH   7   8
HETATM    8  C7  UNL     1     -33.184  15.758  -3.809  1.00 20.00     0.082 C 
BRANCH   8   9
HETATM    9  C6  UNL     1     -34.014  14.528  -4.158  1.00 20.00     0.006 C 
HETATM   10  C2  UNL     1     -34.986  14.824  -5.290  1.00 20.00     0.006 C 
ENDBRANCH   8   9
ENDBRANCH   7   8
ENDBRANCH   1   7
TORSDOF 5
ENDMDL
MODEL 9
REMARK VINA RESULT:      -3.3      2.221      3.185
REMARK  5 active torsions:
REMARK  status: ('A' for Active; 'I' for Inactive)
REMARK    1  A    between atoms: C1_1  and  C5_5 
REMARK    2  A    between atoms: C1_1  and  S10_10 
REMARK    3  A    between atoms: C5_5  and  C8_8 
REMARK    4  A    between atoms: C6_6  and  C7_7 
REMARK    5  A    between atoms: C7_7  and  S10_10 
ROOT
HETATM    1  C1  UNL     1     -34.194   7.163   6.131  1.00 20.00     0.186 C 
HETATM    2  O9  UNL     1     -34.147   7.842   7.150  1.00 20.00    -0.286 OA
ENDROOT
BRANCH   1   3
HETATM    3  C5  UNL     1     -33.937   7.701   4.735  1.00 20.00     0.094 C 
BRANCH   3   4
HETATM    4  C8  UNL     1     -32.454   8.006   4.468  1.00 20.00    -0.015 C 
HETATM    5  C3  UNL     1     -32.169   7.944   2.966  1.00 20.00     0.010 C 
HETATM    6  C4  UNL     1     -32.060   9.381   5.013  1.00 20.00     0.010 C 
ENDBRANCH   3   4
ENDBRANCH   1   3
BRANCH   1   7
HETATM    7  S10 UNL     1     -34.519   5.425   6.161  1.00 20.00    -0.093 SA
BRANCH   7   8
HETATM    8  C7  UNL     1     -34.797   5.112   4.405  1.00 20.00     0.082 C 
BRANCH   8   9
HETATM    9  C6  UNL     1     -33.703   4.211   3.843  1.00 20.00     0.006 C 
HETATM   10  C2  UNL     1     -33.081   4.817   2.594  1.00 20.00     0.006 C 
ENDBRANCH   8   9
ENDBRANCH   7   8
ENDBRANCH   1   7
TORSDOF 5
ENDMDL
