MODEL 1
REMARK VINA RESULT:      -3.6      0.000      0.000
REMARK  0 active torsions:
REMARK  status: ('A' for Active; 'I' for Inactive)
ROOT
HETATM    1  C1  UNL     1     -35.401   5.925   4.402  1.00 20.00     0.177 A 
HETATM    2  C2  UNL     1     -34.063   5.281   4.352  1.00 20.00     0.218 A 
HETATM    3  O3  UNL     1     -33.823   7.990   4.561  1.00 20.00    -0.226 OA
HETATM    4  O4  UNL     1     -34.372   6.620   6.695  1.00 20.00    -0.226 OA
HETATM    5  S5  UNL     1     -34.014   6.771   5.306  1.00 20.00     0.165 S 
HETATM    6 CL6  UNL     1     -33.184   5.232   2.845  1.00 20.00    -0.107 Cl
ENDROOT
TORSDOF 0
ENDMDL
MODEL 2
REMARK VINA RESULT:      -3.3      2.410      2.733
REMARK  0 active torsions:
REMARK  status: ('A' for Active; 'I' for Inactive)
ROOT
HETATM    1  C1  UNL     1     -35.455   6.160   4.445  1.00 20.00     0.177 A 
HETATM    2  C2  UNL     1     -34.050   6.644   4.485  1.00 20.00     0.218 A 
HETATM    3  O3  UNL     1     -34.636   5.193   6.719  1.00 20.00    -0.226 OA
HETATM    4  O4  UNL     1     -34.109   3.929   4.515  1.00 20.00    -0.226 OA
HETATM    5  S5  UNL     1     -34.216   5.105   5.343  1.00 20.00     0.165 S 
HETATM    6 CL6  UNL     1     -33.653   8.070   5.409  1.00 20.00    -0.107 Cl
ENDROOT
TORSDOF 0
ENDMDL
MODEL 3
REMARK VINA RESULT:      -3.2      2.607      2.645
REMARK  0 active torsions:
REMARK  status: ('A' for Active; 'I' for Inactive)
ROOT
HETATM    1  C1  UNL     1     -33.954   6.426   6.108  1.00 20.00     0.177 A 
HETATM    2  C2  UNL     1     -33.888   7.566   5.156  1.00 20.00     0.218 A 
HETATM    3  O3  UNL     1     -33.453   5.202   3.865  1.00 20.00    -0.226 OA
HETATM    4  O4  UNL     1     -35.890   5.871   4.452  1.00 20.00    -0.226 OA
HETATM    5  S5  UNL     1     -34.470   6.100   4.352  1.00 20.00     0.165 S 
HETATM    6 CL6  UNL     1     -32.334   8.208   4.685  1.00 20.00    -0.107 Cl
ENDROOT
TORSDOF 0
ENDMDL
MODEL 4
REMARK VINA RESULT:      -3.0      9.299      9.618
REMARK  0 active torsions:
REMARK  status: ('A' for Active; 'I' for Inactive)
ROOT
HETATM    1  C1  UNL     1     -41.659   7.822  -0.337  1.00 20.00     0.177 A 
HETATM    2  C2  UNL     1     -41.872   7.111   0.950  1.00 20.00     0.218 A 
HETATM    3  O3  UNL     1     -42.907   5.678  -1.128  1.00 20.00    -0.226 OA
HETATM    4  O4  UNL     1     -40.347   5.601  -0.714  1.00 20.00    -0.226 OA
HETATM    5  S5  UNL     1     -41.704   5.964  -0.388  1.00 20.00     0.165 S 
HETATM    6 CL6  UNL     1     -43.417   7.225   1.754  1.00 20.00    -0.107 Cl
ENDROOT
TORSDOF 0
ENDMDL
MODEL 5
REMARK VINA RESULT:      -3.0      2.673      2.733
REMARK  0 active torsions:
REMARK  status: ('A' for Active; 'I' for Inactive)
ROOT
HETATM    1  C1  UNL     1     -33.403   6.318   3.524  1.00 20.00     0.177 A 
HETATM    2  C2  UNL     1     -33.349   6.730   4.951  1.00 20.00     0.218 A 
HETATM    3  O3  UNL     1     -35.894   6.057   4.237  1.00 20.00    -0.226 OA
HETATM    4  O4  UNL     1     -34.200   4.159   4.749  1.00 20.00    -0.226 OA
HETATM    5  S5  UNL     1     -34.627   5.535   4.684  1.00 20.00     0.165 S 
HETATM    6 CL6  UNL     1     -33.811   8.352   5.400  1.00 20.00    -0.107 Cl
ENDROOT
TORSDOF 0
ENDMDL
MODEL 6
REMARK VINA RESULT:      -2.9      2.733      2.806
REMARK  0 active torsions:
REMARK  status: ('A' for Active; 'I' for Inactive)
ROOT
HETATM    1  C1  UNL     1     -34.436   8.044   5.042  1.00 20.00     0.177 A 
HETATM    2  C2  UNL     1     -33.731   7.172   6.017  1.00 20.00     0.218 A 
HETATM    3  O3  UNL     1     -33.093   6.475   3.457  1.00 20.00    -0.226 OA
HETATM    4  O4  UNL     1     -31.933   8.543   4.512  1.00 20.00    -0.226 OA
HETATM    5  S5  UNL     1     -32.777   7.374   4.539  1.00 20.00     0.165 S 
HETATM    6 CL6  UNL     1     -34.371   5.589   6.380  1.00 20.00    -0.107 Cl
ENDROOT
TORSDOF 0
ENDMDL
MODEL 7
REMARK VINA RESULT:      -2.9     17.213     17.440
REMARK  0 active torsions:
REMARK  status: ('A' for Active; 'I' for Inactive)
ROOT
HETATM    1  C1  UNL     1     -23.687  17.402  10.101  1.00 20.00     0.177 A 
HETATM    2  C2  UNL     1     -22.900  18.590  10.521  1.00 20.00     0.218 A 
HETATM    3  O3  UNL     1     -21.411  16.965   8.913  1.00 20.00    -0.226 OA
HETATM    4  O4  UNL     1     -23.155  18.543   7.818  1.00 20.00    -0.226 OA
HETATM    5  S5  UNL     1     -22.389  18.024   8.924  1.00 20.00     0.165 S 
HETATM    6 CL6  UNL     1     -21.774  18.454  11.848  1.00 20.00    -0.107 Cl
ENDROOT
TORSDOF 0
ENDMDL
MODEL 8
REMARK VINA RESULT:      -2.9      9.088      9.280
REMARK  0 active torsions:
REMARK  status: ('A' for Active; 'I' for Inactive)
ROOT
HETATM    1  C1  UNL     1     -40.757   5.781  -0.482  1.00 20.00     0.177 A 
HETATM    2  C2  UNL     1     -40.941   6.888   0.492  1.00 20.00     0.218 A 
HETATM    3  O3  UNL     1     -43.251   6.416  -0.881  1.00 20.00    -0.226 OA
HETATM    4  O4  UNL     1     -42.621   4.835   1.077  1.00 20.00    -0.226 OA
HETATM    5  S5  UNL     1     -42.454   6.002   0.246  1.00 20.00     0.165 S 
HETATM    6 CL6  UNL     1     -40.852   8.543  -0.055  1.00 20.00    -0.107 Cl
ENDROOT
TORSDOF 0
ENDMDL
MODEL 9
REMARK VINA RESULT:      -2.8     13.512     14.022
REMARK  0 active torsions:
REMARK  status: ('A' for Active; 'I' for Inactive)
ROOT
HETATM    1  C1  UNL     1     -34.870  16.268  -6.151  1.00 20.00     0.177 A 
HETATM    2  C2  UNL     1     -34.212  15.006  -5.719  1.00 20.00     0.218 A 
HETATM    3  O3  UNL     1     -36.905  14.887  -5.296  1.00 20.00    -0.226 OA
HETATM    4  O4  UNL     1     -36.003  14.502  -7.698  1.00 20.00    -0.226 OA
HETATM    5  S5  UNL     1     -35.865  14.702  -6.277  1.00 20.00     0.165 S 
HETATM    6 CL6  UNL     1     -33.848  14.757  -4.031  1.00 20.00    -0.107 Cl
ENDROOT
TORSDOF 0
ENDMDL
