MODEL 1
REMARK VINA RESULT:      -4.0      0.000      0.000
REMARK  2 active torsions:
REMARK  status: ('A' for Active; 'I' for Inactive)
REMARK    1  A    between atoms: C1_1  and  C2_2 
REMARK    2  A    between atoms: C1_1  and  C3_3 
ROOT
HETATM    1  C2  UNL     1     -33.295  17.067  -1.839  1.00 20.00     0.043 A 
HETATM    2  C4  UNL     1     -34.058  18.096  -1.168  1.00 20.00     0.013 A 
HETATM    3  C5  UNL     1     -32.679  18.387  -1.749  1.00 20.00    -0.023 A 
HETATM    4  C8  UNL     1     -35.310  18.691  -1.718  1.00 20.00     0.012 C 
HETATM    5  C9  UNL     1     -32.539  19.263  -2.971  1.00 20.00     0.017 C 
HETATM    6  C10 UNL     1     -31.537  18.535  -0.772  1.00 20.00     0.017 C 
ENDROOT
BRANCH   1   7
HETATM    7  C1  UNL     1     -33.644  16.481  -2.939  1.00 20.00    -0.159 C 
BRANCH   7   8
HETATM    8  C3  UNL     1     -33.997  15.891  -4.049  1.00 20.00     0.022 C 
HETATM    9  C6  UNL     1     -34.018  14.396  -4.191  1.00 20.00     0.029 C 
HETATM   10  C7  UNL     1     -34.413  16.661  -5.270  1.00 20.00     0.029 C 
ENDBRANCH   7   8
ENDBRANCH   1   7
TORSDOF 2
ENDMDL
MODEL 2
REMARK VINA RESULT:      -3.8     11.228     12.409
REMARK  2 active torsions:
REMARK  status: ('A' for Active; 'I' for Inactive)
REMARK    1  A    between atoms: C1_1  and  C2_2 
REMARK    2  A    between atoms: C1_1  and  C3_3 
ROOT
HETATM    1  C2  UNL     1     -41.515  12.660   6.428  1.00 20.00     0.043 A 
HETATM    2  C4  UNL     1     -42.473  13.615   5.917  1.00 20.00     0.013 A 
HETATM    3  C5  UNL     1     -41.753  13.848   7.240  1.00 20.00    -0.023 A 
HETATM    4  C8  UNL     1     -42.239  14.457   4.708  1.00 20.00     0.012 C 
HETATM    5  C9  UNL     1     -40.707  14.932   7.354  1.00 20.00     0.017 C 
HETATM    6  C10 UNL     1     -42.555  13.655   8.504  1.00 20.00     0.017 C 
ENDROOT
BRANCH   1   7
HETATM    7  C1  UNL     1     -40.393  12.357   5.861  1.00 20.00    -0.159 C 
BRANCH   7   8
HETATM    8  C3  UNL     1     -39.259  12.052   5.289  1.00 20.00     0.022 C 
HETATM    9  C6  UNL     1     -39.179  11.593   3.861  1.00 20.00     0.029 C 
HETATM   10  C7  UNL     1     -37.946  12.141   6.012  1.00 20.00     0.029 C 
ENDBRANCH   7   8
ENDBRANCH   1   7
TORSDOF 2
ENDMDL
MODEL 3
REMARK VINA RESULT:      -3.3     12.142     13.259
REMARK  2 active torsions:
REMARK  status: ('A' for Active; 'I' for Inactive)
REMARK    1  A    between atoms: C1_1  and  C2_2 
REMARK    2  A    between atoms: C1_1  and  C3_3 
ROOT
HETATM    1  C2  UNL     1     -40.285  15.168   7.663  1.00 20.00     0.043 A 
HETATM    2  C4  UNL     1     -40.193  15.429   9.082  1.00 20.00     0.013 A 
HETATM    3  C5  UNL     1     -41.154  16.213   8.195  1.00 20.00    -0.023 A 
HETATM    4  C8  UNL     1     -40.654  14.475  10.132  1.00 20.00     0.012 C 
HETATM    5  C9  UNL     1     -42.644  15.997   8.315  1.00 20.00     0.017 C 
HETATM    6  C10 UNL     1     -40.779  17.637   7.865  1.00 20.00     0.017 C 
ENDROOT
BRANCH   1   7
HETATM    7  C1  UNL     1     -40.692  14.058   7.137  1.00 20.00    -0.159 C 
BRANCH   7   8
HETATM    8  C3  UNL     1     -41.102  12.938   6.605  1.00 20.00     0.022 C 
HETATM    9  C6  UNL     1     -42.486  12.402   6.834  1.00 20.00     0.029 C 
HETATM   10  C7  UNL     1     -40.225  12.102   5.718  1.00 20.00     0.029 C 
ENDBRANCH   7   8
ENDBRANCH   1   7
TORSDOF 2
ENDMDL
MODEL 4
REMARK VINA RESULT:      -3.3     11.120     12.378
REMARK  2 active torsions:
REMARK  status: ('A' for Active; 'I' for Inactive)
REMARK    1  A    between atoms: C1_1  and  C2_2 
REMARK    2  A    between atoms: C1_1  and  C3_3 
ROOT
HETATM    1  C2  UNL     1     -40.861  13.920   6.812  1.00 20.00     0.043 A 
HETATM    2  C4  UNL     1     -42.181  13.534   7.261  1.00 20.00     0.013 A 
HETATM    3  C5  UNL     1     -41.991  14.603   6.191  1.00 20.00    -0.023 A 
HETATM    4  C8  UNL     1     -42.796  12.205   6.979  1.00 20.00     0.012 C 
HETATM    5  C9  UNL     1     -42.377  14.319   4.758  1.00 20.00     0.017 C 
HETATM    6  C10 UNL     1     -42.224  16.037   6.601  1.00 20.00     0.017 C 
ENDROOT
BRANCH   1   7
HETATM    7  C1  UNL     1     -40.029  13.144   6.196  1.00 20.00    -0.159 C 
BRANCH   7   8
HETATM    8  C3  UNL     1     -39.190  12.360   5.575  1.00 20.00     0.022 C 
HETATM    9  C6  UNL     1     -39.538  11.673   4.285  1.00 20.00     0.029 C 
HETATM   10  C7  UNL     1     -37.809  12.088   6.098  1.00 20.00     0.029 C 
ENDBRANCH   7   8
ENDBRANCH   1   7
TORSDOF 2
ENDMDL
MODEL 5
REMARK VINA RESULT:      -3.2     11.308     12.957
REMARK  2 active torsions:
REMARK  status: ('A' for Active; 'I' for Inactive)
REMARK    1  A    between atoms: C1_1  and  C2_2 
REMARK    2  A    between atoms: C1_1  and  C3_3 
ROOT
HETATM    1  C2  UNL     1     -40.836  13.910   5.881  1.00 20.00     0.043 A 
HETATM    2  C4  UNL     1     -41.685  12.739   5.880  1.00 20.00     0.013 A 
HETATM    3  C5  UNL     1     -40.174  12.619   5.721  1.00 20.00    -0.023 A 
HETATM    4  C8  UNL     1     -42.416  12.244   7.082  1.00 20.00     0.012 C 
HETATM    5  C9  UNL     1     -39.338  12.033   6.834  1.00 20.00     0.017 C 
HETATM    6  C10 UNL     1     -39.650  12.294   4.343  1.00 20.00     0.017 C 
ENDROOT
BRANCH   1   7
HETATM    7  C1  UNL     1     -40.676  14.710   6.884  1.00 20.00    -0.159 C 
BRANCH   7   8
HETATM    8  C3  UNL     1     -40.513  15.519   7.897  1.00 20.00     0.022 C 
HETATM    9  C6  UNL     1     -40.674  17.007   7.769  1.00 20.00     0.029 C 
HETATM   10  C7  UNL     1     -40.156  15.024   9.269  1.00 20.00     0.029 C 
ENDBRANCH   7   8
ENDBRANCH   1   7
TORSDOF 2
ENDMDL
MODEL 6
REMARK VINA RESULT:      -3.2     24.156     25.397
REMARK  2 active torsions:
REMARK  status: ('A' for Active; 'I' for Inactive)
REMARK    1  A    between atoms: C1_1  and  C2_2 
REMARK    2  A    between atoms: C1_1  and  C3_3 
ROOT
HETATM    1  C2  UNL     1     -25.433  -3.090  10.090  1.00 20.00     0.043 A 
HETATM    2  C4  UNL     1     -24.919  -4.057  11.034  1.00 20.00     0.013 A 
HETATM    3  C5  UNL     1     -24.199  -2.737  10.785  1.00 20.00    -0.023 A 
HETATM    4  C8  UNL     1     -25.585  -4.386  12.328  1.00 20.00     0.012 C 
HETATM    5  C9  UNL     1     -24.188  -1.666  11.850  1.00 20.00     0.017 C 
HETATM    6  C10 UNL     1     -22.927  -2.789   9.975  1.00 20.00     0.017 C 
ENDROOT
BRANCH   1   7
HETATM    7  C1  UNL     1     -26.559  -2.464  10.206  1.00 20.00    -0.159 C 
BRANCH   7   8
HETATM    8  C3  UNL     1     -27.695  -1.831  10.322  1.00 20.00     0.022 C 
HETATM    9  C6  UNL     1     -28.989  -2.547  10.583  1.00 20.00     0.029 C 
HETATM   10  C7  UNL     1     -27.797  -0.336  10.209  1.00 20.00     0.029 C 
ENDBRANCH   7   8
ENDBRANCH   1   7
TORSDOF 2
ENDMDL
MODEL 7
REMARK VINA RESULT:      -3.2      1.934      5.070
REMARK  2 active torsions:
REMARK  status: ('A' for Active; 'I' for Inactive)
REMARK    1  A    between atoms: C1_1  and  C2_2 
REMARK    2  A    between atoms: C1_1  and  C3_3 
ROOT
HETATM    1  C2  UNL     1     -35.638  16.374  -5.472  1.00 20.00     0.043 A 
HETATM    2  C4  UNL     1     -36.082  15.000  -5.533  1.00 20.00     0.013 A 
HETATM    3  C5  UNL     1     -35.342  15.643  -6.700  1.00 20.00    -0.023 A 
HETATM    4  C8  UNL     1     -35.499  13.903  -4.709  1.00 20.00     0.012 C 
HETATM    5  C9  UNL     1     -33.930  15.219  -7.029  1.00 20.00     0.017 C 
HETATM    6  C10 UNL     1     -36.157  16.006  -7.917  1.00 20.00     0.017 C 
ENDROOT
BRANCH   1   7
HETATM    7  C1  UNL     1     -34.754  16.833  -4.646  1.00 20.00    -0.159 C 
BRANCH   7   8
HETATM    8  C3  UNL     1     -33.861  17.296  -3.813  1.00 20.00     0.022 C 
HETATM    9  C6  UNL     1     -33.380  16.503  -2.632  1.00 20.00     0.029 C 
HETATM   10  C7  UNL     1     -33.241  18.655  -3.974  1.00 20.00     0.029 C 
ENDBRANCH   7   8
ENDBRANCH   1   7
TORSDOF 2
ENDMDL
MODEL 8
REMARK VINA RESULT:      -3.1     23.825     25.157
REMARK  2 active torsions:
REMARK  status: ('A' for Active; 'I' for Inactive)
REMARK    1  A    between atoms: C1_1  and  C2_2 
REMARK    2  A    between atoms: C1_1  and  C3_3 
ROOT
HETATM    1  C2  UNL     1     -26.842  -2.669  10.087  1.00 20.00     0.043 A 
HETATM    2  C4  UNL     1     -27.824  -1.623   9.907  1.00 20.00     0.013 A 
HETATM    3  C5  UNL     1     -28.108  -2.828  10.797  1.00 20.00    -0.023 A 
HETATM    4  C8  UNL     1     -27.668  -0.239  10.441  1.00 20.00     0.012 C 
HETATM    5  C9  UNL     1     -28.182  -2.663  12.296  1.00 20.00     0.017 C 
HETATM    6  C10 UNL     1     -29.058  -3.871  10.261  1.00 20.00     0.017 C 
ENDROOT
BRANCH   1   7
HETATM    7  C1  UNL     1     -25.687  -2.516  10.649  1.00 20.00    -0.159 C 
BRANCH   7   8
HETATM    8  C3  UNL     1     -24.521  -2.361  11.215  1.00 20.00     0.022 C 
HETATM    9  C6  UNL     1     -23.312  -3.146  10.791  1.00 20.00     0.029 C 
HETATM   10  C7  UNL     1     -24.294  -1.382  12.332  1.00 20.00     0.029 C 
ENDBRANCH   7   8
ENDBRANCH   1   7
TORSDOF 2
ENDMDL
MODEL 9
REMARK VINA RESULT:      -3.1     11.789     13.179
REMARK  2 active torsions:
REMARK  status: ('A' for Active; 'I' for Inactive)
REMARK    1  A    between atoms: C1_1  and  C2_2 
REMARK    2  A    between atoms: C1_1  and  C3_3 
ROOT
HETATM    1  C2  UNL     1     -33.622   5.808   4.423  1.00 20.00     0.043 A 
HETATM    2  C4  UNL     1     -35.041   5.543   4.511  1.00 20.00     0.013 A 
HETATM    3  C5  UNL     1     -34.213   5.837   5.756  1.00 20.00    -0.023 A 
HETATM    4  C8  UNL     1     -36.090   6.469   3.997  1.00 20.00     0.012 C 
HETATM    5  C9  UNL     1     -34.394   7.141   6.497  1.00 20.00     0.017 C 
HETATM    6  C10 UNL     1     -33.895   4.673   6.663  1.00 20.00     0.017 C 
ENDROOT
BRANCH   1   7
HETATM    7  C1  UNL     1     -33.092   6.823   3.821  1.00 20.00    -0.159 C 
BRANCH   7   8
HETATM    8  C3  UNL     1     -32.556   7.848   3.214  1.00 20.00     0.022 C 
HETATM    9  C6  UNL     1     -32.304   9.153   3.914  1.00 20.00     0.029 C 
HETATM   10  C7  UNL     1     -32.146   7.801   1.770  1.00 20.00     0.029 C 
ENDBRANCH   7   8
ENDBRANCH   1   7
TORSDOF 2
ENDMDL
