MODEL 1
REMARK VINA RESULT:      -4.7      0.000      0.000
REMARK  0 active torsions:
REMARK  status: ('A' for Active; 'I' for Inactive)
ROOT
HETATM    1  C1  UNL     1     -32.543   9.090   4.793  1.00 20.00     0.010 A 
HETATM    2  C2  UNL     1     -32.073   7.918   3.973  1.00 20.00     0.010 A 
HETATM    3  C3  UNL     1     -34.221   4.837   4.848  1.00 20.00     0.010 A 
HETATM    4  C4  UNL     1     -35.235   5.228   5.888  1.00 20.00     0.010 A 
HETATM    5  C5  UNL     1     -33.213   6.918   6.152  1.00 20.00     0.019 C 
HETATM    6  C6  UNL     1     -34.612   7.449   4.588  1.00 20.00     0.019 C 
HETATM    7  C7  UNL     1     -33.210   7.760   4.937  1.00 20.00    -0.038 A 
HETATM    8  C8  UNL     1     -34.269   6.242   5.368  1.00 20.00    -0.038 A 
ENDROOT
TORSDOF 0
ENDMDL
MODEL 2
REMARK VINA RESULT:      -4.7      0.029      3.411
REMARK  0 active torsions:
REMARK  status: ('A' for Active; 'I' for Inactive)
ROOT
HETATM    1  C1  UNL     1     -35.215   5.243   5.927  1.00 20.00     0.010 A 
HETATM    2  C2  UNL     1     -34.207   4.843   4.883  1.00 20.00     0.010 A 
HETATM    3  C3  UNL     1     -32.066   7.917   3.970  1.00 20.00     0.010 A 
HETATM    4  C4  UNL     1     -32.530   9.095   4.782  1.00 20.00     0.010 A 
HETATM    5  C5  UNL     1     -34.600   7.454   4.604  1.00 20.00     0.019 C 
HETATM    6  C6  UNL     1     -33.191   6.934   6.163  1.00 20.00     0.019 C 
HETATM    7  C7  UNL     1     -34.251   6.252   5.391  1.00 20.00    -0.038 A 
HETATM    8  C8  UNL     1     -33.195   7.767   4.942  1.00 20.00    -0.038 A 
ENDROOT
TORSDOF 0
ENDMDL
MODEL 3
REMARK VINA RESULT:      -4.6      0.950      3.435
REMARK  0 active torsions:
REMARK  status: ('A' for Active; 'I' for Inactive)
ROOT
HETATM    1  C1  UNL     1     -35.132   5.292   5.423  1.00 20.00     0.010 A 
HETATM    2  C2  UNL     1     -34.075   5.746   6.393  1.00 20.00     0.010 A 
HETATM    3  C3  UNL     1     -32.044   8.603   4.786  1.00 20.00     0.010 A 
HETATM    4  C4  UNL     1     -32.587   8.874   3.409  1.00 20.00     0.010 A 
HETATM    5  C5  UNL     1     -33.194   6.357   3.965  1.00 20.00     0.019 C 
HETATM    6  C6  UNL     1     -34.575   7.804   4.793  1.00 20.00     0.019 C 
HETATM    7  C7  UNL     1     -34.197   6.398   5.050  1.00 20.00    -0.038 A 
HETATM    8  C8  UNL     1     -33.197   7.806   4.257  1.00 20.00    -0.038 A 
ENDROOT
TORSDOF 0
ENDMDL
MODEL 4
REMARK VINA RESULT:      -4.6      0.954      1.401
REMARK  0 active torsions:
REMARK  status: ('A' for Active; 'I' for Inactive)
ROOT
HETATM    1  C1  UNL     1     -32.580   8.829   3.343  1.00 20.00     0.010 A 
HETATM    2  C2  UNL     1     -32.041   8.602   4.730  1.00 20.00     0.010 A 
HETATM    3  C3  UNL     1     -34.076   5.797   6.421  1.00 20.00     0.010 A 
HETATM    4  C4  UNL     1     -35.130   5.312   5.464  1.00 20.00     0.010 A 
HETATM    5  C5  UNL     1     -34.572   7.803   4.755  1.00 20.00     0.019 C 
HETATM    6  C6  UNL     1     -33.188   6.330   3.978  1.00 20.00     0.019 C 
HETATM    7  C7  UNL     1     -33.192   7.788   4.225  1.00 20.00    -0.038 A 
HETATM    8  C8  UNL     1     -34.195   6.405   5.058  1.00 20.00    -0.038 A 
ENDROOT
TORSDOF 0
ENDMDL
MODEL 5
REMARK VINA RESULT:      -4.0      1.758      3.088
REMARK  0 active torsions:
REMARK  status: ('A' for Active; 'I' for Inactive)
ROOT
HETATM    1  C1  UNL     1     -35.107   5.764   6.727  1.00 20.00     0.010 A 
HETATM    2  C2  UNL     1     -33.939   6.668   6.438  1.00 20.00     0.010 A 
HETATM    3  C3  UNL     1     -32.651   5.953   2.875  1.00 20.00     0.010 A 
HETATM    4  C4  UNL     1     -33.493   4.868   2.260  1.00 20.00     0.010 A 
HETATM    5  C5  UNL     1     -33.655   4.537   4.882  1.00 20.00     0.019 C 
HETATM    6  C6  UNL     1     -35.007   6.032   4.093  1.00 20.00     0.019 C 
HETATM    7  C7  UNL     1     -34.413   5.694   5.404  1.00 20.00    -0.038 A 
HETATM    8  C8  UNL     1     -33.779   5.341   3.647  1.00 20.00    -0.038 A 
ENDROOT
TORSDOF 0
ENDMDL
MODEL 6
REMARK VINA RESULT:      -3.9     14.759     15.999
REMARK  0 active torsions:
REMARK  status: ('A' for Active; 'I' for Inactive)
ROOT
HETATM    1  C1  UNL     1     -21.979  19.143   9.240  1.00 20.00     0.010 A 
HETATM    2  C2  UNL     1     -21.877  17.642   9.229  1.00 20.00     0.010 A 
HETATM    3  C3  UNL     1     -24.463  16.194  11.696  1.00 20.00     0.010 A 
HETATM    4  C4  UNL     1     -25.220  17.328  12.332  1.00 20.00     0.010 A 
HETATM    5  C5  UNL     1     -22.879  18.321  11.591  1.00 20.00     0.019 C 
HETATM    6  C6  UNL     1     -24.346  18.233  10.002  1.00 20.00     0.019 C 
HETATM    7  C7  UNL     1     -22.875  18.325  10.113  1.00 20.00    -0.038 A 
HETATM    8  C8  UNL     1     -24.150  17.612  11.328  1.00 20.00    -0.038 A 
ENDROOT
TORSDOF 0
ENDMDL
MODEL 7
REMARK VINA RESULT:      -3.9      1.730      2.791
REMARK  0 active torsions:
REMARK  status: ('A' for Active; 'I' for Inactive)
ROOT
HETATM    1  C1  UNL     1     -33.428   4.923   2.229  1.00 20.00     0.010 A 
HETATM    2  C2  UNL     1     -32.612   6.023   2.854  1.00 20.00     0.010 A 
HETATM    3  C3  UNL     1     -33.940   6.700   6.410  1.00 20.00     0.010 A 
HETATM    4  C4  UNL     1     -35.091   5.772   6.687  1.00 20.00     0.010 A 
HETATM    5  C5  UNL     1     -34.979   6.051   4.056  1.00 20.00     0.019 C 
HETATM    6  C6  UNL     1     -33.603   4.581   4.849  1.00 20.00     0.019 C 
HETATM    7  C7  UNL     1     -33.733   5.386   3.617  1.00 20.00    -0.038 A 
HETATM    8  C8  UNL     1     -34.387   5.719   5.370  1.00 20.00    -0.038 A 
ENDROOT
TORSDOF 0
ENDMDL
MODEL 8
REMARK VINA RESULT:      -3.5     12.322     13.268
REMARK  0 active torsions:
REMARK  status: ('A' for Active; 'I' for Inactive)
ROOT
HETATM    1  C1  UNL     1     -34.190  16.864  -3.700  1.00 20.00     0.010 A 
HETATM    2  C2  UNL     1     -32.847  16.256  -3.399  1.00 20.00     0.010 A 
HETATM    3  C3  UNL     1     -31.235  18.171  -0.466  1.00 20.00     0.010 A 
HETATM    4  C4  UNL     1     -32.169  19.263  -0.023  1.00 20.00     0.010 A 
HETATM    5  C5  UNL     1     -32.751  18.772  -2.559  1.00 20.00     0.019 C 
HETATM    6  C6  UNL     1     -33.680  17.409  -1.159  1.00 20.00     0.019 C 
HETATM    7  C7  UNL     1     -33.346  17.420  -2.598  1.00 20.00    -0.038 A 
HETATM    8  C8  UNL     1     -32.552  18.363  -1.152  1.00 20.00    -0.038 A 
ENDROOT
TORSDOF 0
ENDMDL
MODEL 9
REMARK VINA RESULT:      -3.5      8.772     10.137
REMARK  0 active torsions:
REMARK  status: ('A' for Active; 'I' for Inactive)
ROOT
HETATM    1  C1  UNL     1     -42.812   4.272   1.456  1.00 20.00     0.010 A 
HETATM    2  C2  UNL     1     -43.417   4.752   0.164  1.00 20.00     0.010 A 
HETATM    3  C3  UNL     1     -41.814   8.126  -0.791  1.00 20.00     0.010 A 
HETATM    4  C4  UNL     1     -40.802   8.501   0.258  1.00 20.00     0.010 A 
HETATM    5  C5  UNL     1     -42.550   6.907   1.448  1.00 20.00     0.019 C 
HETATM    6  C6  UNL     1     -41.013   5.863   0.339  1.00 20.00     0.019 C 
HETATM    7  C7  UNL     1     -42.366   5.566   0.855  1.00 20.00    -0.038 A 
HETATM    8  C8  UNL     1     -41.575   7.229   0.384  1.00 20.00    -0.038 A 
ENDROOT
TORSDOF 0
ENDMDL
