MODEL 1
REMARK VINA RESULT:      -3.8      0.000      0.000
REMARK  1 active torsions:
REMARK  status: ('A' for Active; 'I' for Inactive)
REMARK    1  A    between atoms: C1_1  and  C5_5 
ROOT
HETATM    1  C3  UNL     1     -33.959  18.238  -4.919  1.00 20.00     0.207 C 
HETATM    2  C4  UNL     1     -35.648  16.532  -4.978  1.00 20.00     0.208 C 
HETATM    3  C5  UNL     1     -33.316  17.314  -3.881  1.00 20.00     0.267 C 
HETATM    4  C6  UNL     1     -34.497  15.523  -5.119  1.00 20.00     0.172 C 
HETATM    5  C8  UNL     1     -34.962  14.150  -4.609  1.00 20.00     0.051 C 
HETATM    6  C9  UNL     1     -34.079  15.380  -6.596  1.00 20.00     0.051 C 
HETATM    7  N10 UNL     1     -33.333  15.912  -4.306  1.00 20.00     0.104 N 
HETATM    8  O11 UNL     1     -35.271  17.858  -5.333  1.00 20.00    -0.386 OA
HETATM    9  H28 UNL     1     -32.470  15.697  -4.821  1.00 20.00     0.318 HD
ENDROOT
BRANCH   3  10
HETATM   10  C1  UNL     1     -33.911  17.488  -2.515  1.00 20.00     0.006 C 
HETATM   11  C2  UNL     1     -33.188  17.714  -1.408  1.00 20.00    -0.033 C 
HETATM   12  C7  UNL     1     -33.780  17.887  -0.049  1.00 20.00     0.036 C 
ENDBRANCH   3  10
TORSDOF 1
ENDMDL
MODEL 2
REMARK VINA RESULT:      -3.7      1.641      2.697
REMARK  1 active torsions:
REMARK  status: ('A' for Active; 'I' for Inactive)
REMARK    1  A    between atoms: C1_1  and  C5_5 
ROOT
HETATM    1  C3  UNL     1     -33.986  15.100  -6.223  1.00 20.00     0.207 C 
HETATM    2  C4  UNL     1     -34.779  17.361  -6.390  1.00 20.00     0.208 C 
HETATM    3  C5  UNL     1     -34.465  15.229  -4.774  1.00 20.00     0.267 C 
HETATM    4  C6  UNL     1     -36.069  16.864  -5.718  1.00 20.00     0.172 C 
HETATM    5  C8  UNL     1     -36.761  18.044  -5.017  1.00 20.00     0.051 C 
HETATM    6  C9  UNL     1     -37.037  16.281  -6.766  1.00 20.00     0.051 C 
HETATM    7  N10 UNL     1     -35.786  15.855  -4.684  1.00 20.00     0.104 N 
HETATM    8  O11 UNL     1     -34.019  16.310  -6.978  1.00 20.00    -0.386 OA
HETATM    9  H28 UNL     1     -36.514  15.130  -4.707  1.00 20.00     0.318 HD
ENDROOT
BRANCH   3  10
HETATM   10  C1  UNL     1     -33.461  15.923  -3.901  1.00 20.00     0.006 C 
HETATM   11  C2  UNL     1     -33.784  16.638  -2.813  1.00 20.00    -0.033 C 
HETATM   12  C7  UNL     1     -32.786  17.329  -1.945  1.00 20.00     0.036 C 
ENDBRANCH   3  10
TORSDOF 1
ENDMDL
MODEL 3
REMARK VINA RESULT:      -3.7     11.579     13.648
REMARK  1 active torsions:
REMARK  status: ('A' for Active; 'I' for Inactive)
REMARK    1  A    between atoms: C1_1  and  C5_5 
ROOT
HETATM    1  C3  UNL     1     -42.558  12.819   6.724  1.00 20.00     0.207 C 
HETATM    2  C4  UNL     1     -42.303  15.166   6.286  1.00 20.00     0.208 C 
HETATM    3  C5  UNL     1     -41.041  12.875   6.928  1.00 20.00     0.267 C 
HETATM    4  C6  UNL     1     -41.472  15.226   7.577  1.00 20.00     0.172 C 
HETATM    5  C8  UNL     1     -40.519  16.430   7.511  1.00 20.00     0.051 C 
HETATM    6  C9  UNL     1     -42.388  15.395   8.806  1.00 20.00     0.051 C 
HETATM    7  N10 UNL     1     -40.637  14.025   7.740  1.00 20.00     0.104 N 
HETATM    8  O11 UNL     1     -43.143  14.018   6.218  1.00 20.00    -0.386 OA
HETATM    9  H28 UNL     1     -40.614  13.756   8.731  1.00 20.00     0.318 HD
ENDROOT
BRANCH   3  10
HETATM   10  C1  UNL     1     -40.289  12.819   5.630  1.00 20.00     0.006 C 
HETATM   11  C2  UNL     1     -39.607  11.744   5.208  1.00 20.00    -0.033 C 
HETATM   12  C7  UNL     1     -38.859  11.688   3.918  1.00 20.00     0.036 C 
ENDBRANCH   3  10
TORSDOF 1
ENDMDL
MODEL 4
REMARK VINA RESULT:      -3.6     11.848     13.789
REMARK  1 active torsions:
REMARK  status: ('A' for Active; 'I' for Inactive)
REMARK    1  A    between atoms: C1_1  and  C5_5 
ROOT
HETATM    1  C3  UNL     1     -42.680  15.000   5.822  1.00 20.00     0.207 C 
HETATM    2  C4  UNL     1     -40.958  15.846   7.267  1.00 20.00     0.208 C 
HETATM    3  C5  UNL     1     -42.097  13.641   6.221  1.00 20.00     0.267 C 
HETATM    4  C6  UNL     1     -41.444  14.817   8.301  1.00 20.00     0.172 C 
HETATM    5  C8  UNL     1     -40.296  14.490   9.268  1.00 20.00     0.051 C 
HETATM    6  C9  UNL     1     -42.624  15.383   9.116  1.00 20.00     0.051 C 
HETATM    7  N10 UNL     1     -41.841  13.552   7.660  1.00 20.00     0.104 N 
HETATM    8  O11 UNL     1     -41.931  16.130   6.266  1.00 20.00    -0.386 OA
HETATM    9  H28 UNL     1     -42.670  13.174   8.136  1.00 20.00     0.318 HD
ENDROOT
BRANCH   3  10
HETATM   10  C1  UNL     1     -40.881  13.283   5.417  1.00 20.00     0.006 C 
HETATM   11  C2  UNL     1     -40.181  12.151   5.585  1.00 20.00    -0.033 C 
HETATM   12  C7  UNL     1     -38.972  11.795   4.786  1.00 20.00     0.036 C 
ENDBRANCH   3  10
TORSDOF 1
ENDMDL
MODEL 5
REMARK VINA RESULT:      -3.6     12.306     13.826
REMARK  1 active torsions:
REMARK  status: ('A' for Active; 'I' for Inactive)
REMARK    1  A    between atoms: C1_1  and  C5_5 
ROOT
HETATM    1  C3  UNL     1     -42.050  15.291   7.575  1.00 20.00     0.207 C 
HETATM    2  C4  UNL     1     -42.075  12.937   7.101  1.00 20.00     0.208 C 
HETATM    3  C5  UNL     1     -40.557  15.045   7.811  1.00 20.00     0.267 C 
HETATM    4  C6  UNL     1     -40.866  13.197   6.189  1.00 20.00     0.172 C 
HETATM    5  C8  UNL     1     -40.052  11.902   6.045  1.00 20.00     0.051 C 
HETATM    6  C9  UNL     1     -41.328  13.643   4.788  1.00 20.00     0.051 C 
HETATM    7  N10 UNL     1     -39.964  14.210   6.763  1.00 20.00     0.104 N 
HETATM    8  O11 UNL     1     -42.830  14.113   7.373  1.00 20.00    -0.386 OA
HETATM    9  H28 UNL     1     -39.599  14.807   6.011  1.00 20.00     0.318 HD
ENDROOT
BRANCH   3  10
HETATM   10  C1  UNL     1     -40.278  14.500   9.180  1.00 20.00     0.006 C 
HETATM   11  C2  UNL     1     -40.482  15.187  10.314  1.00 20.00    -0.033 C 
HETATM   12  C7  UNL     1     -40.205  14.644  11.676  1.00 20.00     0.036 C 
ENDBRANCH   3  10
TORSDOF 1
ENDMDL
MODEL 6
REMARK VINA RESULT:      -3.5     11.839     13.824
REMARK  1 active torsions:
REMARK  status: ('A' for Active; 'I' for Inactive)
REMARK    1  A    between atoms: C1_1  and  C5_5 
ROOT
HETATM    1  C3  UNL     1     -42.108  13.512   7.857  1.00 20.00     0.207 C 
HETATM    2  C4  UNL     1     -42.343  15.646   6.781  1.00 20.00     0.208 C 
HETATM    3  C5  UNL     1     -40.616  13.752   7.607  1.00 20.00     0.267 C 
HETATM    4  C6  UNL     1     -41.241  16.146   7.728  1.00 20.00     0.172 C 
HETATM    5  C8  UNL     1     -40.537  17.355   7.093  1.00 20.00     0.051 C 
HETATM    6  C9  UNL     1     -41.843  16.584   9.078  1.00 20.00     0.051 C 
HETATM    7  N10 UNL     1     -40.212  15.117   7.952  1.00 20.00     0.104 N 
HETATM    8  O11 UNL     1     -42.981  14.461   7.246  1.00 20.00    -0.386 OA
HETATM    9  H28 UNL     1     -39.905  15.149   8.932  1.00 20.00     0.318 HD
ENDROOT
BRANCH   3  10
HETATM   10  C1  UNL     1     -40.205  13.388   6.210  1.00 20.00     0.006 C 
HETATM   11  C2  UNL     1     -39.643  12.216   5.878  1.00 20.00    -0.033 C 
HETATM   12  C7  UNL     1     -39.235  11.853   4.490  1.00 20.00     0.036 C 
ENDBRANCH   3  10
TORSDOF 1
ENDMDL
MODEL 7
REMARK VINA RESULT:      -3.4      1.101      1.280
REMARK  1 active torsions:
REMARK  status: ('A' for Active; 'I' for Inactive)
REMARK    1  A    between atoms: C1_1  and  C5_5 
ROOT
HETATM    1  C3  UNL     1     -35.062  18.150  -5.962  1.00 20.00     0.207 C 
HETATM    2  C4  UNL     1     -36.560  16.398  -5.290  1.00 20.00     0.208 C 
HETATM    3  C5  UNL     1     -34.059  17.379  -5.097  1.00 20.00     0.267 C 
HETATM    4  C6  UNL     1     -35.448  15.415  -5.688  1.00 20.00     0.172 C 
HETATM    5  C8  UNL     1     -35.631  14.101  -4.912  1.00 20.00     0.051 C 
HETATM    6  C9  UNL     1     -35.512  15.105  -7.197  1.00 20.00     0.051 C 
HETATM    7  N10 UNL     1     -34.115  15.936  -5.342  1.00 20.00     0.104 N 
HETATM    8  O11 UNL     1     -36.408  17.682  -5.887  1.00 20.00    -0.386 OA
HETATM    9  H28 UNL     1     -33.448  15.686  -6.083  1.00 20.00     0.318 HD
ENDROOT
BRANCH   3  10
HETATM   10  C1  UNL     1     -34.200  17.701  -3.638  1.00 20.00     0.006 C 
HETATM   11  C2  UNL     1     -33.527  17.068  -2.665  1.00 20.00    -0.033 C 
HETATM   12  C7  UNL     1     -33.666  17.388  -1.215  1.00 20.00     0.036 C 
ENDBRANCH   3  10
TORSDOF 1
ENDMDL
MODEL 8
REMARK VINA RESULT:      -3.3     12.581     14.629
REMARK  1 active torsions:
REMARK  status: ('A' for Active; 'I' for Inactive)
REMARK    1  A    between atoms: C1_1  and  C5_5 
ROOT
HETATM    1  C3  UNL     1     -40.348  15.722   7.696  1.00 20.00     0.207 C 
HETATM    2  C4  UNL     1     -40.845  14.411   9.645  1.00 20.00     0.208 C 
HETATM    3  C5  UNL     1     -41.179  14.652   6.983  1.00 20.00     0.267 C 
HETATM    4  C6  UNL     1     -42.309  14.432   9.177  1.00 20.00     0.172 C 
HETATM    5  C8  UNL     1     -43.045  13.216   9.760  1.00 20.00     0.051 C 
HETATM    6  C9  UNL     1     -43.016  15.712   9.666  1.00 20.00     0.051 C 
HETATM    7  N10 UNL     1     -42.410  14.335   7.711  1.00 20.00     0.104 N 
HETATM    8  O11 UNL     1     -40.062  15.449   9.067  1.00 20.00    -0.386 OA
HETATM    9  H28 UNL     1     -43.172  14.940   7.381  1.00 20.00     0.318 HD
ENDROOT
BRANCH   3  10
HETATM   10  C1  UNL     1     -40.381  13.418   6.679  1.00 20.00     0.006 C 
HETATM   11  C2  UNL     1     -40.363  12.816   5.480  1.00 20.00    -0.033 C 
HETATM   12  C7  UNL     1     -39.569  11.589   5.178  1.00 20.00     0.036 C 
ENDBRANCH   3  10
TORSDOF 1
ENDMDL
MODEL 9
REMARK VINA RESULT:      -3.3     24.578     25.689
REMARK  1 active torsions:
REMARK  status: ('A' for Active; 'I' for Inactive)
REMARK    1  A    between atoms: C1_1  and  C5_5 
ROOT
HETATM    1  C3  UNL     1     -26.534  -4.137  11.415  1.00 20.00     0.207 C 
HETATM    2  C4  UNL     1     -28.008  -2.755  10.118  1.00 20.00     0.208 C 
HETATM    3  C5  UNL     1     -25.509  -3.050  11.078  1.00 20.00     0.267 C 
HETATM    4  C6  UNL     1     -27.495  -1.574  10.956  1.00 20.00     0.172 C 
HETATM    5  C8  UNL     1     -27.675  -0.271  10.160  1.00 20.00     0.051 C 
HETATM    6  C9  UNL     1     -28.289  -1.456  12.272  1.00 20.00     0.051 C 
HETATM    7  N10 UNL     1     -26.058  -1.703  11.250  1.00 20.00     0.104 N 
HETATM    8  O11 UNL     1     -27.785  -4.017  10.739  1.00 20.00    -0.386 OA
HETATM    9  H28 UNL     1     -25.875  -1.375  12.207  1.00 20.00     0.318 HD
ENDROOT
BRANCH   3  10
HETATM   10  C1  UNL     1     -24.909  -3.235   9.714  1.00 20.00     0.006 C 
HETATM   11  C2  UNL     1     -23.610  -3.050   9.439  1.00 20.00    -0.033 C 
HETATM   12  C7  UNL     1     -23.013  -3.234   8.084  1.00 20.00     0.036 C 
ENDBRANCH   3  10
TORSDOF 1
ENDMDL
