MODEL 1
REMARK VINA RESULT:      -6.9      0.000      0.000
REMARK  1 active torsions:
REMARK  status: ('A' for Active; 'I' for Inactive)
REMARK    1  A    between atoms: C9_9  and  O10_10 
ROOT
HETATM    1  C1  UNL     1     -33.184   8.327   5.199  1.00 20.00     0.053 A 
HETATM    2  C2  UNL     1     -33.151   6.370   3.158  1.00 20.00     0.055 A 
HETATM    3  C3  UNL     1     -33.796   7.098   5.378  1.00 20.00    -0.046 A 
HETATM    4  C4  UNL     1     -33.781   6.127   4.368  1.00 20.00    -0.020 A 
HETATM    5  C5  UNL     1     -32.537   8.573   3.986  1.00 20.00     0.155 A 
HETATM    6  C6  UNL     1     -32.521   7.603   2.973  1.00 20.00     0.155 A 
HETATM    7  C7  UNL     1     -34.574   6.622   6.566  1.00 20.00     0.042 C 
HETATM    8  C8  UNL     1     -34.593   5.107   6.318  1.00 20.00     0.041 C 
HETATM    9  C9  UNL     1     -34.554   4.915   4.792  1.00 20.00     0.152 C 
HETATM   10  F11 UNL     1     -31.931   9.752   3.785  1.00 20.00    -0.203 F 
HETATM   11  F12 UNL     1     -31.902   7.865   1.815  1.00 20.00    -0.203 F 
ENDROOT
BRANCH   9  12
HETATM   12  O10 UNL     1     -33.891   3.714   4.450  1.00 20.00    -0.391 OA
HETATM   13  H20 UNL     1     -33.712   3.747   3.494  1.00 20.00     0.210 HD
ENDBRANCH   9  12
TORSDOF 1
ENDMDL
MODEL 2
REMARK VINA RESULT:      -5.8      2.928      3.979
REMARK  1 active torsions:
REMARK  status: ('A' for Active; 'I' for Inactive)
REMARK    1  A    between atoms: C9_9  and  O10_10 
ROOT
HETATM    1  C1  UNL     1     -34.013   7.050   6.007  1.00 20.00     0.053 A 
HETATM    2  C2  UNL     1     -33.327   5.727   3.603  1.00 20.00     0.055 A 
HETATM    3  C3  UNL     1     -33.234   7.672   5.047  1.00 20.00    -0.046 A 
HETATM    4  C4  UNL     1     -32.893   7.018   3.855  1.00 20.00    -0.020 A 
HETATM    5  C5  UNL     1     -34.464   5.753   5.754  1.00 20.00     0.155 A 
HETATM    6  C6  UNL     1     -34.123   5.096   4.562  1.00 20.00     0.155 A 
HETATM    7  C7  UNL     1     -32.610   9.032   5.109  1.00 20.00     0.042 C 
HETATM    8  C8  UNL     1     -32.276   9.270   3.629  1.00 20.00     0.041 C 
HETATM    9  C9  UNL     1     -32.004   7.886   3.015  1.00 20.00     0.152 C 
HETATM   10  F11 UNL     1     -35.224   5.125   6.663  1.00 20.00    -0.203 F 
HETATM   11  F12 UNL     1     -34.561   3.849   4.345  1.00 20.00    -0.203 F 
ENDROOT
BRANCH   9  12
HETATM   12  O10 UNL     1     -32.370   7.857   1.650  1.00 20.00    -0.391 OA
HETATM   13  H20 UNL     1     -32.873   8.670   1.469  1.00 20.00     0.210 HD
ENDBRANCH   9  12
TORSDOF 1
ENDMDL
MODEL 3
REMARK VINA RESULT:      -5.6      1.468      2.137
REMARK  1 active torsions:
REMARK  status: ('A' for Active; 'I' for Inactive)
REMARK    1  A    between atoms: C9_9  and  O10_10 
ROOT
HETATM    1  C1  UNL     1     -32.619   7.944   3.522  1.00 20.00     0.053 A 
HETATM    2  C2  UNL     1     -33.680   5.330   3.718  1.00 20.00     0.055 A 
HETATM    3  C3  UNL     1     -33.371   7.559   4.618  1.00 20.00    -0.046 A 
HETATM    4  C4  UNL     1     -33.898   6.265   4.717  1.00 20.00    -0.020 A 
HETATM    5  C5  UNL     1     -32.384   7.003   2.517  1.00 20.00     0.155 A 
HETATM    6  C6  UNL     1     -32.911   5.706   2.614  1.00 20.00     0.155 A 
HETATM    7  C7  UNL     1     -33.782   8.395   5.790  1.00 20.00     0.042 C 
HETATM    8  C8  UNL     1     -34.193   7.310   6.796  1.00 20.00     0.041 C 
HETATM    9  C9  UNL     1     -34.713   6.123   5.967  1.00 20.00     0.152 C 
HETATM   10  F11 UNL     1     -31.655   7.344   1.445  1.00 20.00    -0.203 F 
HETATM   11  F12 UNL     1     -32.680   4.822   1.634  1.00 20.00    -0.203 F 
ENDROOT
BRANCH   9  12
HETATM   12  O10 UNL     1     -34.465   4.898   6.628  1.00 20.00    -0.391 OA
HETATM   13  H20 UNL     1     -35.247   4.700   7.171  1.00 20.00     0.210 HD
ENDBRANCH   9  12
TORSDOF 1
ENDMDL
MODEL 4
REMARK VINA RESULT:      -5.5      1.329      2.448
REMARK  1 active torsions:
REMARK  status: ('A' for Active; 'I' for Inactive)
REMARK    1  A    between atoms: C9_9  and  O10_10 
ROOT
HETATM    1  C1  UNL     1     -32.976   6.283   2.784  1.00 20.00     0.053 A 
HETATM    2  C2  UNL     1     -32.969   8.080   4.969  1.00 20.00     0.055 A 
HETATM    3  C3  UNL     1     -33.461   5.902   4.023  1.00 20.00    -0.046 A 
HETATM    4  C4  UNL     1     -33.458   6.791   5.107  1.00 20.00    -0.020 A 
HETATM    5  C5  UNL     1     -32.494   7.585   2.634  1.00 20.00     0.155 A 
HETATM    6  C6  UNL     1     -32.489   8.476   3.718  1.00 20.00     0.155 A 
HETATM    7  C7  UNL     1     -33.989   4.562   4.432  1.00 20.00     0.042 C 
HETATM    8  C8  UNL     1     -34.730   4.921   5.728  1.00 20.00     0.041 C 
HETATM    9  C9  UNL     1     -33.983   6.118   6.340  1.00 20.00     0.152 C 
HETATM   10  F11 UNL     1     -32.023   7.986   1.445  1.00 20.00    -0.203 F 
HETATM   11  F12 UNL     1     -32.014   9.718   3.553  1.00 20.00    -0.203 F 
ENDROOT
BRANCH   9  12
HETATM   12  O10 UNL     1     -34.867   6.950   7.064  1.00 20.00    -0.391 OA
HETATM   13  H20 UNL     1     -35.164   6.447   7.842  1.00 20.00     0.210 HD
ENDBRANCH   9  12
TORSDOF 1
ENDMDL
MODEL 5
REMARK VINA RESULT:      -5.3      1.243      2.638
REMARK  1 active torsions:
REMARK  status: ('A' for Active; 'I' for Inactive)
REMARK    1  A    between atoms: C9_9  and  O10_10 
ROOT
HETATM    1  C1  UNL     1     -32.329   7.704   3.240  1.00 20.00     0.053 A 
HETATM    2  C2  UNL     1     -33.976   7.244   5.492  1.00 20.00     0.055 A 
HETATM    3  C3  UNL     1     -32.884   6.458   3.476  1.00 20.00    -0.046 A 
HETATM    4  C4  UNL     1     -33.701   6.228   4.592  1.00 20.00    -0.020 A 
HETATM    5  C5  UNL     1     -32.612   8.736   4.137  1.00 20.00     0.155 A 
HETATM    6  C6  UNL     1     -33.430   8.508   5.255  1.00 20.00     0.155 A 
HETATM    7  C7  UNL     1     -32.696   5.202   2.683  1.00 20.00     0.042 C 
HETATM    8  C8  UNL     1     -33.870   4.354   3.192  1.00 20.00     0.041 C 
HETATM    9  C9  UNL     1     -34.128   4.792   4.643  1.00 20.00     0.152 C 
HETATM   10  F11 UNL     1     -32.093   9.955   3.933  1.00 20.00    -0.203 F 
HETATM   11  F12 UNL     1     -33.681   9.510   6.107  1.00 20.00    -0.203 F 
ENDROOT
BRANCH   9  12
HETATM   12  O10 UNL     1     -35.494   4.656   4.979  1.00 20.00    -0.391 OA
HETATM   13  H20 UNL     1     -35.613   3.762   5.344  1.00 20.00     0.210 HD
ENDBRANCH   9  12
TORSDOF 1
ENDMDL
MODEL 6
REMARK VINA RESULT:      -5.1      3.006      4.408
REMARK  1 active torsions:
REMARK  status: ('A' for Active; 'I' for Inactive)
REMARK    1  A    between atoms: C9_9  and  O10_10 
ROOT
HETATM    1  C1  UNL     1     -34.397   4.957   4.876  1.00 20.00     0.053 A 
HETATM    2  C2  UNL     1     -33.621   7.608   5.487  1.00 20.00     0.055 A 
HETATM    3  C3  UNL     1     -33.665   5.712   3.976  1.00 20.00    -0.046 A 
HETATM    4  C4  UNL     1     -33.280   7.026   4.277  1.00 20.00    -0.020 A 
HETATM    5  C5  UNL     1     -34.734   5.533   6.103  1.00 20.00     0.155 A 
HETATM    6  C6  UNL     1     -34.350   6.849   6.406  1.00 20.00     0.155 A 
HETATM    7  C7  UNL     1     -33.223   5.327   2.599  1.00 20.00     0.042 C 
HETATM    8  C8  UNL     1     -32.138   6.380   2.333  1.00 20.00     0.041 C 
HETATM    9  C9  UNL     1     -32.547   7.636   3.120  1.00 20.00     0.152 C 
HETATM   10  F11 UNL     1     -35.438   4.826   6.998  1.00 20.00    -0.203 F 
HETATM   11  F12 UNL     1     -34.691   7.383   7.586  1.00 20.00    -0.203 F 
ENDROOT
BRANCH   9  12
HETATM   12  O10 UNL     1     -31.410   8.366   3.537  1.00 20.00    -0.391 OA
HETATM   13  H20 UNL     1     -30.670   8.095   2.967  1.00 20.00     0.210 HD
ENDBRANCH   9  12
TORSDOF 1
ENDMDL
MODEL 7
REMARK VINA RESULT:      -5.1      2.007      3.037
REMARK  1 active torsions:
REMARK  status: ('A' for Active; 'I' for Inactive)
REMARK    1  A    between atoms: C9_9  and  O10_10 
ROOT
HETATM    1  C1  UNL     1     -33.691   4.799   3.722  1.00 20.00     0.053 A 
HETATM    2  C2  UNL     1     -32.693   7.445   3.792  1.00 20.00     0.055 A 
HETATM    3  C3  UNL     1     -33.872   5.601   4.835  1.00 20.00    -0.046 A 
HETATM    4  C4  UNL     1     -33.378   6.912   4.872  1.00 20.00    -0.020 A 
HETATM    5  C5  UNL     1     -33.011   5.333   2.625  1.00 20.00     0.155 A 
HETATM    6  C6  UNL     1     -32.516   6.646   2.660  1.00 20.00     0.155 A 
HETATM    7  C7  UNL     1     -34.530   5.241   6.131  1.00 20.00     0.042 C 
HETATM    8  C8  UNL     1     -34.782   6.632   6.730  1.00 20.00     0.041 C 
HETATM    9  C9  UNL     1     -33.661   7.543   6.202  1.00 20.00     0.152 C 
HETATM   10  F11 UNL     1     -32.824   4.583   1.530  1.00 20.00    -0.203 F 
HETATM   11  F12 UNL     1     -31.860   7.134   1.599  1.00 20.00    -0.203 F 
ENDROOT
BRANCH   9  12
HETATM   12  O10 UNL     1     -34.111   8.877   6.073  1.00 20.00    -0.391 OA
HETATM   13  H20 UNL     1     -34.947   8.852   5.576  1.00 20.00     0.210 HD
ENDBRANCH   9  12
TORSDOF 1
ENDMDL
MODEL 8
REMARK VINA RESULT:      -4.9     12.033     13.161
REMARK  1 active torsions:
REMARK  status: ('A' for Active; 'I' for Inactive)
REMARK    1  A    between atoms: C9_9  and  O10_10 
ROOT
HETATM    1  C1  UNL     1     -35.204  18.083  -3.804  1.00 20.00     0.053 A 
HETATM    2  C2  UNL     1     -33.259  16.242  -2.894  1.00 20.00     0.055 A 
HETATM    3  C3  UNL     1     -34.820  17.006  -4.584  1.00 20.00    -0.046 A 
HETATM    4  C4  UNL     1     -33.857  16.093  -4.135  1.00 20.00    -0.020 A 
HETATM    5  C5  UNL     1     -34.615  18.233  -2.547  1.00 20.00     0.155 A 
HETATM    6  C6  UNL     1     -33.649  17.319  -2.095  1.00 20.00     0.155 A 
HETATM    7  C7  UNL     1     -35.280  16.662  -5.967  1.00 20.00     0.042 C 
HETATM    8  C8  UNL     1     -34.836  15.196  -6.068  1.00 20.00     0.041 C 
HETATM    9  C9  UNL     1     -33.585  15.057  -5.184  1.00 20.00     0.152 C 
HETATM   10  F11 UNL     1     -34.969  19.263  -1.766  1.00 20.00    -0.203 F 
HETATM   11  F12 UNL     1     -33.092  17.488  -0.889  1.00 20.00    -0.203 F 
ENDROOT
BRANCH   9  12
HETATM   12  O10 UNL     1     -33.494  13.757  -4.637  1.00 20.00    -0.391 OA
HETATM   13  H20 UNL     1     -32.725  13.325  -5.048  1.00 20.00     0.210 HD
ENDBRANCH   9  12
TORSDOF 1
ENDMDL
MODEL 9
REMARK VINA RESULT:      -4.8      2.713      3.720
REMARK  1 active torsions:
REMARK  status: ('A' for Active; 'I' for Inactive)
REMARK    1  A    between atoms: C9_9  and  O10_10 
ROOT
HETATM    1  C1  UNL     1     -34.229   5.441   5.045  1.00 20.00     0.053 A 
HETATM    2  C2  UNL     1     -32.533   6.549   3.072  1.00 20.00     0.055 A 
HETATM    3  C3  UNL     1     -33.757   6.738   5.155  1.00 20.00    -0.046 A 
HETATM    4  C4  UNL     1     -32.916   7.288   4.179  1.00 20.00    -0.020 A 
HETATM    5  C5  UNL     1     -33.857   4.694   3.925  1.00 20.00     0.155 A 
HETATM    6  C6  UNL     1     -33.014   5.244   2.946  1.00 20.00     0.155 A 
HETATM    7  C7  UNL     1     -33.988   7.708   6.271  1.00 20.00     0.042 C 
HETATM    8  C8  UNL     1     -33.585   9.029   5.601  1.00 20.00     0.041 C 
HETATM    9  C9  UNL     1     -32.507   8.679   4.561  1.00 20.00     0.152 C 
HETATM   10  F11 UNL     1     -34.302   3.437   3.787  1.00 20.00    -0.203 F 
HETATM   11  F12 UNL     1     -32.664   4.506   1.885  1.00 20.00    -0.203 F 
ENDROOT
BRANCH   9  12
HETATM   12  O10 UNL     1     -32.555   9.568   3.463  1.00 20.00    -0.391 OA
HETATM   13  H20 UNL     1     -31.709   9.487   2.990  1.00 20.00     0.210 HD
ENDBRANCH   9  12
TORSDOF 1
ENDMDL
