MODEL 1
REMARK VINA RESULT:      -4.0      0.000      0.000
REMARK  2 active torsions:
REMARK  status: ('A' for Active; 'I' for Inactive)
REMARK    1  A    between atoms: C1_1  and  C2_2 
REMARK    2  A    between atoms: C2_2  and  C3_3 
ROOT
HETATM    1  C2  UNL     1     -34.038   5.947   4.346  1.00 20.00     0.205 C 
HETATM    2 CL7  UNL     1     -35.795   6.193   3.986  1.00 20.00    -0.092 Cl
HETATM    3 CL8  UNL     1     -33.330   5.168   2.874  1.00 20.00    -0.092 Cl
ENDROOT
BRANCH   1   4
HETATM    4  C1  UNL     1     -33.937   4.972   5.531  1.00 20.00     0.164 C 
HETATM    5 CL6  UNL     1     -34.974   5.404   6.916  1.00 20.00    -0.127 Cl
ENDBRANCH   1   4
BRANCH   1   6
HETATM    6  C3  UNL     1     -33.365   7.315   4.544  1.00 20.00     0.355 C 
HETATM    7  F4  UNL     1     -34.281   8.314   4.444  1.00 20.00    -0.184 F 
HETATM    8  F5  UNL     1     -32.861   7.403   5.806  1.00 20.00    -0.184 F 
HETATM    9 CL9  UNL     1     -32.051   7.642   3.389  1.00 20.00    -0.045 Cl
ENDBRANCH   1   6
TORSDOF 2
ENDMDL
MODEL 2
REMARK VINA RESULT:      -4.0      1.787      2.819
REMARK  2 active torsions:
REMARK  status: ('A' for Active; 'I' for Inactive)
REMARK    1  A    between atoms: C1_1  and  C2_2 
REMARK    2  A    between atoms: C2_2  and  C3_3 
ROOT
HETATM    1  C2  UNL     1     -34.154   6.040   4.754  1.00 20.00     0.205 C 
HETATM    2 CL7  UNL     1     -33.868   4.298   5.158  1.00 20.00    -0.092 Cl
HETATM    3 CL8  UNL     1     -35.880   6.153   4.223  1.00 20.00    -0.092 Cl
ENDROOT
BRANCH   1   4
HETATM    4  C1  UNL     1     -33.237   6.401   3.574  1.00 20.00     0.164 C 
HETATM    5 CL6  UNL     1     -32.847   5.024   2.511  1.00 20.00    -0.127 Cl
ENDBRANCH   1   4
BRANCH   1   6
HETATM    6  C3  UNL     1     -33.979   6.889   6.024  1.00 20.00     0.355 C 
HETATM    7  F4  UNL     1     -35.028   6.704   6.868  1.00 20.00    -0.184 F 
HETATM    8  F5  UNL     1     -32.878   6.473   6.709  1.00 20.00    -0.184 F 
HETATM    9 CL9  UNL     1     -33.818   8.632   5.704  1.00 20.00    -0.045 Cl
ENDBRANCH   1   6
TORSDOF 2
ENDMDL
MODEL 3
REMARK VINA RESULT:      -3.9      0.558      2.194
REMARK  2 active torsions:
REMARK  status: ('A' for Active; 'I' for Inactive)
REMARK    1  A    between atoms: C1_1  and  C2_2 
REMARK    2  A    between atoms: C2_2  and  C3_3 
ROOT
HETATM    1  C2  UNL     1     -34.299   5.951   4.809  1.00 20.00     0.205 C 
HETATM    2 CL7  UNL     1     -34.668   5.482   6.519  1.00 20.00    -0.092 Cl
HETATM    3 CL8  UNL     1     -35.899   6.205   4.004  1.00 20.00    -0.092 Cl
ENDROOT
BRANCH   1   4
HETATM    4  C1  UNL     1     -33.582   4.764   4.145  1.00 20.00     0.164 C 
HETATM    5 CL6  UNL     1     -33.256   4.993   2.407  1.00 20.00    -0.127 Cl
ENDBRANCH   1   4
BRANCH   1   6
HETATM    6  C3  UNL     1     -33.534   7.285   4.804  1.00 20.00     0.355 C 
HETATM    7  F4  UNL     1     -34.396   8.327   4.664  1.00 20.00    -0.184 F 
HETATM    8  F5  UNL     1     -32.924   7.471   6.008  1.00 20.00    -0.184 F 
HETATM    9 CL9  UNL     1     -32.303   7.401   3.525  1.00 20.00    -0.045 Cl
ENDBRANCH   1   6
TORSDOF 2
ENDMDL
MODEL 4
REMARK VINA RESULT:      -3.8      1.954      2.922
REMARK  2 active torsions:
REMARK  status: ('A' for Active; 'I' for Inactive)
REMARK    1  A    between atoms: C1_1  and  C2_2 
REMARK    2  A    between atoms: C2_2  and  C3_3 
ROOT
HETATM    1  C2  UNL     1     -34.358   5.897   4.668  1.00 20.00     0.205 C 
HETATM    2 CL7  UNL     1     -36.045   6.152   4.062  1.00 20.00    -0.092 Cl
HETATM    3 CL8  UNL     1     -33.400   7.322   4.096  1.00 20.00    -0.092 Cl
ENDROOT
BRANCH   1   4
HETATM    4  C1  UNL     1     -33.812   4.622   4.002  1.00 20.00     0.164 C 
HETATM    5 CL6  UNL     1     -32.830   4.927   2.546  1.00 20.00    -0.127 Cl
ENDBRANCH   1   4
BRANCH   1   6
HETATM    6  C3  UNL     1     -34.366   5.900   6.206  1.00 20.00     0.355 C 
HETATM    7  F4  UNL     1     -35.539   5.401   6.676  1.00 20.00    -0.184 F 
HETATM    8  F5  UNL     1     -33.396   5.066   6.673  1.00 20.00    -0.184 F 
HETATM    9 CL9  UNL     1     -34.115   7.510   6.920  1.00 20.00    -0.045 Cl
ENDBRANCH   1   6
TORSDOF 2
ENDMDL
MODEL 5
REMARK VINA RESULT:      -3.6      8.488      9.451
REMARK  2 active torsions:
REMARK  status: ('A' for Active; 'I' for Inactive)
REMARK    1  A    between atoms: C1_1  and  C2_2 
REMARK    2  A    between atoms: C2_2  and  C3_3 
ROOT
HETATM    1  C2  UNL     1     -42.703   7.235   0.352  1.00 20.00     0.205 C 
HETATM    2 CL7  UNL     1     -43.417   8.771  -0.286  1.00 20.00    -0.092 Cl
HETATM    3 CL8  UNL     1     -43.392   5.904  -0.661  1.00 20.00    -0.092 Cl
ENDROOT
BRANCH   1   4
HETATM    4  C1  UNL     1     -43.184   7.066   1.803  1.00 20.00     0.164 C 
HETATM    5 CL6  UNL     1     -43.331   5.368   2.325  1.00 20.00    -0.127 Cl
ENDBRANCH   1   4
BRANCH   1   6
HETATM    6  C3  UNL     1     -41.179   7.263   0.149  1.00 20.00     0.355 C 
HETATM    7  F4  UNL     1     -40.829   8.275  -0.689  1.00 20.00    -0.184 F 
HETATM    8  F5  UNL     1     -40.561   7.535   1.332  1.00 20.00    -0.184 F 
HETATM    9 CL9  UNL     1     -40.514   5.745  -0.498  1.00 20.00    -0.045 Cl
ENDBRANCH   1   6
TORSDOF 2
ENDMDL
MODEL 6
REMARK VINA RESULT:      -3.6      8.582      9.606
REMARK  2 active torsions:
REMARK  status: ('A' for Active; 'I' for Inactive)
REMARK    1  A    between atoms: C1_1  and  C2_2 
REMARK    2  A    between atoms: C2_2  and  C3_3 
ROOT
HETATM    1  C2  UNL     1     -42.415   6.113   0.583  1.00 20.00     0.205 C 
HETATM    2 CL7  UNL     1     -42.134   4.564   1.478  1.00 20.00    -0.092 Cl
HETATM    3 CL8  UNL     1     -43.170   7.248   1.772  1.00 20.00    -0.092 Cl
ENDROOT
BRANCH   1   4
HETATM    4  C1  UNL     1     -43.417   5.823  -0.547  1.00 20.00     0.164 C 
HETATM    5 CL6  UNL     1     -43.397   4.135  -1.120  1.00 20.00    -0.127 Cl
ENDBRANCH   1   4
BRANCH   1   6
HETATM    6  C3  UNL     1     -41.061   6.697   0.145  1.00 20.00     0.355 C 
HETATM    7  F4  UNL     1     -40.207   6.761   1.200  1.00 20.00    -0.184 F 
HETATM    8  F5  UNL     1     -40.470   5.864  -0.757  1.00 20.00    -0.184 F 
HETATM    9 CL9  UNL     1     -41.180   8.317  -0.579  1.00 20.00    -0.045 Cl
ENDBRANCH   1   6
TORSDOF 2
ENDMDL
MODEL 7
REMARK VINA RESULT:      -3.5      2.046      3.509
REMARK  2 active torsions:
REMARK  status: ('A' for Active; 'I' for Inactive)
REMARK    1  A    between atoms: C1_1  and  C2_2 
REMARK    2  A    between atoms: C2_2  and  C3_3 
ROOT
HETATM    1  C2  UNL     1     -33.881   6.934   4.904  1.00 20.00     0.205 C 
HETATM    2 CL7  UNL     1     -34.875   8.417   4.599  1.00 20.00    -0.092 Cl
HETATM    3 CL8  UNL     1     -33.164   7.143   6.552  1.00 20.00    -0.092 Cl
ENDROOT
BRANCH   1   4
HETATM    4  C1  UNL     1     -32.752   6.908   3.861  1.00 20.00     0.164 C 
HETATM    5 CL6  UNL     1     -32.426   8.490   3.105  1.00 20.00    -0.127 Cl
ENDBRANCH   1   4
BRANCH   1   6
HETATM    6  C3  UNL     1     -34.802   5.703   4.926  1.00 20.00     0.355 C 
HETATM    7  F4  UNL     1     -35.174   5.411   6.200  1.00 20.00    -0.184 F 
HETATM    8  F5  UNL     1     -35.958   5.980   4.260  1.00 20.00    -0.184 F 
HETATM    9 CL9  UNL     1     -34.072   4.248   4.208  1.00 20.00    -0.045 Cl
ENDBRANCH   1   6
TORSDOF 2
ENDMDL
MODEL 8
REMARK VINA RESULT:      -3.5      8.733      9.776
REMARK  2 active torsions:
REMARK  status: ('A' for Active; 'I' for Inactive)
REMARK    1  A    between atoms: C1_1  and  C2_2 
REMARK    2  A    between atoms: C2_2  and  C3_3 
ROOT
HETATM    1  C2  UNL     1     -42.110   5.857   0.301  1.00 20.00     0.205 C 
HETATM    2 CL7  UNL     1     -40.524   5.688  -0.557  1.00 20.00    -0.092 Cl
HETATM    3 CL8  UNL     1     -42.060   4.685   1.679  1.00 20.00    -0.092 Cl
ENDROOT
BRANCH   1   4
HETATM    4  C1  UNL     1     -43.217   5.436  -0.680  1.00 20.00     0.164 C 
HETATM    5 CL6  UNL     1     -42.667   4.326  -1.963  1.00 20.00    -0.127 Cl
ENDBRANCH   1   4
BRANCH   1   6
HETATM    6  C3  UNL     1     -42.226   7.279   0.875  1.00 20.00     0.355 C 
HETATM    7  F4  UNL     1     -43.023   7.283   1.975  1.00 20.00    -0.184 F 
HETATM    8  F5  UNL     1     -41.005   7.705   1.302  1.00 20.00    -0.184 F 
HETATM    9 CL9  UNL     1     -42.864   8.469  -0.284  1.00 20.00    -0.045 Cl
ENDBRANCH   1   6
TORSDOF 2
ENDMDL
MODEL 9
REMARK VINA RESULT:      -3.5      1.813      3.231
REMARK  2 active torsions:
REMARK  status: ('A' for Active; 'I' for Inactive)
REMARK    1  A    between atoms: C1_1  and  C2_2 
REMARK    2  A    between atoms: C2_2  and  C3_3 
ROOT
HETATM    1  C2  UNL     1     -34.373   6.197   4.455  1.00 20.00     0.205 C 
HETATM    2 CL7  UNL     1     -33.521   5.110   3.285  1.00 20.00    -0.092 Cl
HETATM    3 CL8  UNL     1     -36.117   6.183   3.973  1.00 20.00    -0.092 Cl
ENDROOT
BRANCH   1   4
HETATM    4  C1  UNL     1     -33.809   7.616   4.269  1.00 20.00     0.164 C 
HETATM    5 CL6  UNL     1     -32.161   7.658   3.591  1.00 20.00    -0.127 Cl
ENDBRANCH   1   4
BRANCH   1   6
HETATM    6  C3  UNL     1     -34.255   5.608   5.871  1.00 20.00     0.355 C 
HETATM    7  F4  UNL     1     -35.481   5.514   6.450  1.00 20.00    -0.184 F 
HETATM    8  F5  UNL     1     -33.781   4.333   5.802  1.00 20.00    -0.184 F 
HETATM    9 CL9  UNL     1     -33.196   6.545   6.951  1.00 20.00    -0.045 Cl
ENDBRANCH   1   6
TORSDOF 2
ENDMDL
