MODEL 1
REMARK VINA RESULT:      -4.2      0.000      0.000
REMARK  3 active torsions:
REMARK  status: ('A' for Active; 'I' for Inactive)
REMARK    1  A    between atoms: C1_1  and  C3_3 
REMARK    2  A    between atoms: C2_2  and  C4_4 
REMARK    3  A    between atoms: C5_5  and  C6_6 
ROOT
HETATM    1  C3  UNL     1     -33.154  17.013  -1.835  1.00 20.00     0.010 C 
HETATM    2  C5  UNL     1     -32.592  18.234  -1.832  1.00 20.00    -0.017 C 
HETATM    3  C7  UNL     1     -32.624  19.262  -2.920  1.00 20.00     0.052 C 
ENDROOT
BRANCH   1   4
HETATM    4  C1  UNL     1     -33.882  16.414  -2.933  1.00 20.00     0.004 C 
HETATM    5  C2  UNL     1     -33.316  15.544  -3.781  1.00 20.00     0.041 C 
BRANCH   5   6
HETATM    6  C4  UNL     1     -34.126  14.982  -4.880  1.00 20.00     0.258 C 
HETATM    7  O9  UNL     1     -33.787  15.083  -6.052  1.00 20.00    -0.302 OA
ENDBRANCH   5   6
ENDBRANCH   1   4
BRANCH   2   8
HETATM    8  C6  UNL     1     -31.887  18.616  -0.567  1.00 20.00     0.151 C 
HETATM    9  C8  UNL     1     -32.726  18.767   0.674  1.00 20.00     0.096 C 
HETATM   10  O10 UNL     1     -30.669  18.780  -0.541  1.00 20.00    -0.293 OA
ENDBRANCH   2   8
TORSDOF 3
ENDMDL
MODEL 2
REMARK VINA RESULT:      -4.2      2.410      5.947
REMARK  3 active torsions:
REMARK  status: ('A' for Active; 'I' for Inactive)
REMARK    1  A    between atoms: C1_1  and  C3_3 
REMARK    2  A    between atoms: C2_2  and  C4_4 
REMARK    3  A    between atoms: C5_5  and  C6_6 
ROOT
HETATM    1  C3  UNL     1     -31.430  18.766  -0.370  1.00 20.00     0.010 C 
HETATM    2  C5  UNL     1     -32.660  18.294  -0.640  1.00 20.00    -0.017 C 
HETATM    3  C7  UNL     1     -33.803  18.116   0.311  1.00 20.00     0.052 C 
ENDROOT
BRANCH   1   4
HETATM    4  C1  UNL     1     -30.938  19.165   0.932  1.00 20.00     0.004 C 
HETATM    5  C2  UNL     1     -30.397  18.292   1.793  1.00 20.00     0.041 C 
BRANCH   5   6
HETATM    6  C4  UNL     1     -29.924  18.779   3.105  1.00 20.00     0.258 C 
HETATM    7  O9  UNL     1     -28.862  18.408   3.589  1.00 20.00    -0.302 OA
ENDBRANCH   5   6
ENDBRANCH   1   4
BRANCH   2   8
HETATM    8  C6  UNL     1     -32.916  17.947  -2.073  1.00 20.00     0.151 C 
HETATM    9  C8  UNL     1     -33.459  16.573  -2.366  1.00 20.00     0.096 C 
HETATM   10  O10 UNL     1     -32.709  18.758  -2.972  1.00 20.00    -0.293 OA
ENDBRANCH   2   8
TORSDOF 3
ENDMDL
MODEL 3
REMARK VINA RESULT:      -4.1      1.519      5.357
REMARK  3 active torsions:
REMARK  status: ('A' for Active; 'I' for Inactive)
REMARK    1  A    between atoms: C1_1  and  C3_3 
REMARK    2  A    between atoms: C2_2  and  C4_4 
REMARK    3  A    between atoms: C5_5  and  C6_6 
ROOT
HETATM    1  C3  UNL     1     -33.303  16.282  -2.844  1.00 20.00     0.010 C 
HETATM    2  C5  UNL     1     -33.937  16.339  -4.028  1.00 20.00    -0.017 C 
HETATM    3  C7  UNL     1     -34.483  17.550  -4.719  1.00 20.00     0.052 C 
ENDROOT
BRANCH   1   4
HETATM    4  C1  UNL     1     -33.053  17.399  -1.957  1.00 20.00     0.004 C 
HETATM    5  C2  UNL     1     -33.742  17.583  -0.823  1.00 20.00     0.041 C 
BRANCH   5   6
HETATM    6  C4  UNL     1     -33.430  18.752   0.024  1.00 20.00     0.258 C 
HETATM    7  O9  UNL     1     -32.779  18.649   1.056  1.00 20.00    -0.302 OA
ENDBRANCH   5   6
ENDBRANCH   1   4
BRANCH   2   8
HETATM    8  C6  UNL     1     -34.071  15.035  -4.750  1.00 20.00     0.151 C 
HETATM    9  C8  UNL     1     -34.048  15.071  -6.256  1.00 20.00     0.096 C 
HETATM   10  O10 UNL     1     -34.178  13.975  -4.137  1.00 20.00    -0.293 OA
ENDBRANCH   2   8
TORSDOF 3
ENDMDL
MODEL 4
REMARK VINA RESULT:      -4.0      1.258      5.434
REMARK  3 active torsions:
REMARK  status: ('A' for Active; 'I' for Inactive)
REMARK    1  A    between atoms: C1_1  and  C3_3 
REMARK    2  A    between atoms: C2_2  and  C4_4 
REMARK    3  A    between atoms: C5_5  and  C6_6 
ROOT
HETATM    1  C3  UNL     1     -33.962  17.077  -3.213  1.00 20.00     0.010 C 
HETATM    2  C5  UNL     1     -33.809  16.120  -4.145  1.00 20.00    -0.017 C 
HETATM    3  C7  UNL     1     -32.854  14.967  -4.128  1.00 20.00     0.052 C 
ENDROOT
BRANCH   1   4
HETATM    4  C1  UNL     1     -33.186  17.214  -1.999  1.00 20.00     0.004 C 
HETATM    5  C2  UNL     1     -32.515  18.334  -1.698  1.00 20.00     0.041 C 
BRANCH   5   6
HETATM    6  C4  UNL     1     -31.742  18.392  -0.442  1.00 20.00     0.258 C 
HETATM    7  O9  UNL     1     -30.559  18.708  -0.423  1.00 20.00    -0.302 OA
ENDBRANCH   5   6
ENDBRANCH   1   4
BRANCH   2   8
HETATM    8  C6  UNL     1     -34.739  16.206  -5.316  1.00 20.00     0.151 C 
HETATM    9  C8  UNL     1     -34.396  15.389  -6.533  1.00 20.00     0.096 C 
HETATM   10  O10 UNL     1     -35.751  16.902  -5.275  1.00 20.00    -0.293 OA
ENDBRANCH   2   8
TORSDOF 3
ENDMDL
MODEL 5
REMARK VINA RESULT:      -3.9     11.496     12.124
REMARK  3 active torsions:
REMARK  status: ('A' for Active; 'I' for Inactive)
REMARK    1  A    between atoms: C1_1  and  C3_3 
REMARK    2  A    between atoms: C2_2  and  C4_4 
REMARK    3  A    between atoms: C5_5  and  C6_6 
ROOT
HETATM    1  C3  UNL     1     -32.934   7.707   4.263  1.00 20.00     0.010 C 
HETATM    2  C5  UNL     1     -33.668   6.634   4.603  1.00 20.00    -0.017 C 
HETATM    3  C7  UNL     1     -34.027   5.459   3.747  1.00 20.00     0.052 C 
ENDROOT
BRANCH   1   4
HETATM    4  C1  UNL     1     -32.365   7.971   2.958  1.00 20.00     0.004 C 
HETATM    5  C2  UNL     1     -32.933   8.814   2.084  1.00 20.00     0.041 C 
BRANCH   5   6
HETATM    6  C4  UNL     1     -32.293   9.024   0.770  1.00 20.00     0.258 C 
HETATM    7  O9  UNL     1     -32.938   9.031  -0.270  1.00 20.00    -0.302 OA
ENDBRANCH   5   6
ENDBRANCH   1   4
BRANCH   2   8
HETATM    8  C6  UNL     1     -34.145   6.603   6.022  1.00 20.00     0.151 C 
HETATM    9  C8  UNL     1     -34.612   5.279   6.566  1.00 20.00     0.096 C 
HETATM   10  O10 UNL     1     -34.136   7.615   6.719  1.00 20.00    -0.293 OA
ENDBRANCH   2   8
TORSDOF 3
ENDMDL
MODEL 6
REMARK VINA RESULT:      -3.7     11.286     12.208
REMARK  3 active torsions:
REMARK  status: ('A' for Active; 'I' for Inactive)
REMARK    1  A    between atoms: C1_1  and  C3_3 
REMARK    2  A    between atoms: C2_2  and  C4_4 
REMARK    3  A    between atoms: C5_5  and  C6_6 
ROOT
HETATM    1  C3  UNL     1     -32.711   8.351   3.630  1.00 20.00     0.010 C 
HETATM    2  C5  UNL     1     -32.483   7.649   2.506  1.00 20.00    -0.017 C 
HETATM    3  C7  UNL     1     -32.502   6.162   2.334  1.00 20.00     0.052 C 
ENDROOT
BRANCH   1   4
HETATM    4  C1  UNL     1     -32.983   7.797   4.940  1.00 20.00     0.004 C 
HETATM    5  C2  UNL     1     -34.085   7.083   5.203  1.00 20.00     0.041 C 
BRANCH   5   6
HETATM    6  C4  UNL     1     -34.291   6.557   6.567  1.00 20.00     0.258 C 
HETATM    7  O9  UNL     1     -34.460   5.364   6.783  1.00 20.00    -0.302 OA
ENDBRANCH   5   6
ENDBRANCH   1   4
BRANCH   2   8
HETATM    8  C6  UNL     1     -32.220   8.465   1.279  1.00 20.00     0.151 C 
HETATM    9  C8  UNL     1     -32.911   9.799   1.174  1.00 20.00     0.096 C 
HETATM   10  O10 UNL     1     -31.456   8.069   0.402  1.00 20.00    -0.293 OA
ENDBRANCH   2   8
TORSDOF 3
ENDMDL
MODEL 7
REMARK VINA RESULT:      -3.7     12.340     13.113
REMARK  3 active torsions:
REMARK  status: ('A' for Active; 'I' for Inactive)
REMARK    1  A    between atoms: C1_1  and  C3_3 
REMARK    2  A    between atoms: C2_2  and  C4_4 
REMARK    3  A    between atoms: C5_5  and  C6_6 
ROOT
HETATM    1  C3  UNL     1     -41.506  12.841   6.541  1.00 20.00     0.010 C 
HETATM    2  C5  UNL     1     -41.445  13.828   7.452  1.00 20.00    -0.017 C 
HETATM    3  C7  UNL     1     -40.500  14.989   7.485  1.00 20.00     0.052 C 
ENDROOT
BRANCH   1   4
HETATM    4  C1  UNL     1     -40.620  12.672   5.408  1.00 20.00     0.004 C 
HETATM    5  C2  UNL     1     -39.657  11.742   5.381  1.00 20.00     0.041 C 
BRANCH   5   6
HETATM    6  C4  UNL     1     -38.791  11.639   4.189  1.00 20.00     0.258 C 
HETATM    7  O9  UNL     1     -39.177  11.978   3.077  1.00 20.00    -0.302 OA
ENDBRANCH   5   6
ENDBRANCH   1   4
BRANCH   2   8
HETATM    8  C6  UNL     1     -42.478  13.770   8.534  1.00 20.00     0.151 C 
HETATM    9  C8  UNL     1     -43.297  15.010   8.777  1.00 20.00     0.096 C 
HETATM   10  O10 UNL     1     -42.661  12.744   9.186  1.00 20.00    -0.293 OA
ENDBRANCH   2   8
TORSDOF 3
ENDMDL
MODEL 8
REMARK VINA RESULT:      -3.7      1.678      5.776
REMARK  3 active torsions:
REMARK  status: ('A' for Active; 'I' for Inactive)
REMARK    1  A    between atoms: C1_1  and  C3_3 
REMARK    2  A    between atoms: C2_2  and  C4_4 
REMARK    3  A    between atoms: C5_5  and  C6_6 
ROOT
HETATM    1  C3  UNL     1     -33.844  15.640  -4.331  1.00 20.00     0.010 C 
HETATM    2  C5  UNL     1     -34.875  15.938  -5.141  1.00 20.00    -0.017 C 
HETATM    3  C7  UNL     1     -35.921  16.991  -4.944  1.00 20.00     0.052 C 
ENDROOT
BRANCH   1   4
HETATM    4  C1  UNL     1     -33.556  16.261  -3.055  1.00 20.00     0.004 C 
HETATM    5  C2  UNL     1     -32.939  17.446  -2.957  1.00 20.00     0.041 C 
BRANCH   5   6
HETATM    6  C4  UNL     1     -32.677  18.009  -1.617  1.00 20.00     0.258 C 
HETATM    7  O9  UNL     1     -31.830  18.874  -1.432  1.00 20.00    -0.302 OA
ENDBRANCH   5   6
ENDBRANCH   1   4
BRANCH   2   8
HETATM    8  C6  UNL     1     -34.951  15.141  -6.406  1.00 20.00     0.151 C 
HETATM    9  C8  UNL     1     -33.874  15.369  -7.433  1.00 20.00     0.096 C 
HETATM   10  O10 UNL     1     -35.848  14.321  -6.590  1.00 20.00    -0.293 OA
ENDBRANCH   2   8
TORSDOF 3
ENDMDL
MODEL 9
REMARK VINA RESULT:      -3.6      3.890      5.946
REMARK  3 active torsions:
REMARK  status: ('A' for Active; 'I' for Inactive)
REMARK    1  A    between atoms: C1_1  and  C3_3 
REMARK    2  A    between atoms: C2_2  and  C4_4 
REMARK    3  A    between atoms: C5_5  and  C6_6 
ROOT
HETATM    1  C3  UNL     1     -30.001  18.554   2.212  1.00 20.00     0.010 C 
HETATM    2  C5  UNL     1     -29.964  18.920   3.505  1.00 20.00    -0.017 C 
HETATM    3  C7  UNL     1     -31.119  19.260   4.396  1.00 20.00     0.052 C 
ENDROOT
BRANCH   1   4
HETATM    4  C1  UNL     1     -31.188  18.455   1.389  1.00 20.00     0.004 C 
HETATM    5  C2  UNL     1     -31.147  18.558   0.054  1.00 20.00     0.041 C 
BRANCH   5   6
HETATM    6  C4  UNL     1     -32.404  18.451  -0.713  1.00 20.00     0.258 C 
HETATM    7  O9  UNL     1     -33.397  17.899  -0.257  1.00 20.00    -0.302 OA
ENDBRANCH   5   6
ENDBRANCH   1   4
BRANCH   2   8
HETATM    8  C6  UNL     1     -28.603  18.949   4.128  1.00 20.00     0.151 C 
HETATM    9  C8  UNL     1     -28.522  19.243   5.602  1.00 20.00     0.096 C 
HETATM   10  O10 UNL     1     -27.594  18.723   3.464  1.00 20.00    -0.293 OA
ENDBRANCH   2   8
TORSDOF 3
ENDMDL
