MODEL 1
REMARK VINA RESULT:      -3.5      0.000      0.000
REMARK  0 active torsions:
REMARK  status: ('A' for Active; 'I' for Inactive)
ROOT
HETATM    1  C1  UNL     1     -35.243   6.070   4.050  1.00 20.00     0.062 A 
HETATM    2  C2  UNL     1     -33.944   5.322   4.090  1.00 20.00     0.119 A 
HETATM    3  C3  UNL     1     -34.066   6.644   4.800  1.00 20.00     0.112 A 
HETATM    4 CL4  UNL     1     -33.023   5.135   2.620  1.00 20.00    -0.122 Cl
HETATM    5 CL5  UNL     1     -33.310   8.092   4.141  1.00 20.00    -0.105 Cl
HETATM    6 BR6  UNL     1     -34.135   6.609   6.717  1.00 20.00    -0.066 Br
ENDROOT
TORSDOF 0
ENDMDL
MODEL 2
REMARK VINA RESULT:      -3.3      2.300      2.682
REMARK  0 active torsions:
REMARK  status: ('A' for Active; 'I' for Inactive)
ROOT
HETATM    1  C1  UNL     1     -34.910   7.280   4.808  1.00 20.00     0.062 A 
HETATM    2  C2  UNL     1     -34.011   6.650   5.829  1.00 20.00     0.119 A 
HETATM    3  C3  UNL     1     -33.489   6.926   4.444  1.00 20.00     0.112 A 
HETATM    4 CL4  UNL     1     -34.359   5.035   6.390  1.00 20.00    -0.122 Cl
HETATM    5 CL5  UNL     1     -33.246   5.612   3.296  1.00 20.00    -0.105 Cl
HETATM    6 BR6  UNL     1     -32.240   8.369   4.247  1.00 20.00    -0.066 Br
ENDROOT
TORSDOF 0
ENDMDL
MODEL 3
REMARK VINA RESULT:      -3.1     16.644     17.159
REMARK  0 active torsions:
REMARK  status: ('A' for Active; 'I' for Inactive)
ROOT
HETATM    1  C1  UNL     1     -22.762  18.480  12.245  1.00 20.00     0.062 A 
HETATM    2  C2  UNL     1     -23.190  18.515  10.808  1.00 20.00     0.119 A 
HETATM    3  C3  UNL     1     -24.098  17.905  11.843  1.00 20.00     0.112 A 
HETATM    4 CL4  UNL     1     -22.329  17.549   9.638  1.00 20.00    -0.122 Cl
HETATM    5 CL5  UNL     1     -24.296  16.158  11.948  1.00 20.00    -0.105 Cl
HETATM    6 BR6  UNL     1     -25.669  18.894  12.327  1.00 20.00    -0.066 Br
ENDROOT
TORSDOF 0
ENDMDL
MODEL 4
REMARK VINA RESULT:      -3.0     16.887     17.087
REMARK  0 active torsions:
REMARK  status: ('A' for Active; 'I' for Inactive)
ROOT
HETATM    1  C1  UNL     1     -23.911  18.487  10.043  1.00 20.00     0.062 A 
HETATM    2  C2  UNL     1     -22.866  17.460   9.724  1.00 20.00     0.119 A 
HETATM    3  C3  UNL     1     -23.327  17.638  11.146  1.00 20.00     0.112 A 
HETATM    4 CL4  UNL     1     -21.293  17.985   9.181  1.00 20.00    -0.122 Cl
HETATM    5 CL5  UNL     1     -22.299  18.439  12.331  1.00 20.00    -0.105 Cl
HETATM    6 BR6  UNL     1     -24.440  16.262  11.888  1.00 20.00    -0.066 Br
ENDROOT
TORSDOF 0
ENDMDL
MODEL 5
REMARK VINA RESULT:      -3.0     16.898     17.511
REMARK  0 active torsions:
REMARK  status: ('A' for Active; 'I' for Inactive)
ROOT
HETATM    1  C1  UNL     1     -23.913  17.091  10.750  1.00 20.00     0.062 A 
HETATM    2  C2  UNL     1     -24.531  18.451  10.878  1.00 20.00     0.119 A 
HETATM    3  C3  UNL     1     -23.033  18.312  10.854  1.00 20.00     0.112 A 
HETATM    4 CL4  UNL     1     -25.407  18.856  12.332  1.00 20.00    -0.122 Cl
HETATM    5 CL5  UNL     1     -22.087  18.510  12.327  1.00 20.00    -0.105 Cl
HETATM    6 BR6  UNL     1     -22.122  18.884   9.265  1.00 20.00    -0.066 Br
ENDROOT
TORSDOF 0
ENDMDL
MODEL 6
REMARK VINA RESULT:      -3.0      2.097      3.082
REMARK  0 active torsions:
REMARK  status: ('A' for Active; 'I' for Inactive)
ROOT
HETATM    1  C1  UNL     1     -31.801   8.157   4.277  1.00 20.00     0.062 A 
HETATM    2  C2  UNL     1     -32.975   8.722   3.535  1.00 20.00     0.119 A 
HETATM    3  C3  UNL     1     -32.982   7.276   3.952  1.00 20.00     0.112 A 
HETATM    4 CL4  UNL     1     -32.776   9.212   1.871  1.00 20.00    -0.122 Cl
HETATM    5 CL5  UNL     1     -32.740   5.996   2.766  1.00 20.00    -0.105 Cl
HETATM    6 BR6  UNL     1     -34.144   6.785   5.398  1.00 20.00    -0.066 Br
ENDROOT
TORSDOF 0
ENDMDL
MODEL 7
REMARK VINA RESULT:      -2.9      2.604      3.221
REMARK  0 active torsions:
REMARK  status: ('A' for Active; 'I' for Inactive)
ROOT
HETATM    1  C1  UNL     1     -33.755   7.890   4.390  1.00 20.00     0.062 A 
HETATM    2  C2  UNL     1     -33.400   6.919   5.476  1.00 20.00     0.119 A 
HETATM    3  C3  UNL     1     -34.053   6.421   4.215  1.00 20.00     0.112 A 
HETATM    4 CL4  UNL     1     -34.251   6.995   6.998  1.00 20.00    -0.122 Cl
HETATM    5 CL5  UNL     1     -35.744   5.928   4.209  1.00 20.00    -0.105 Cl
HETATM    6 BR6  UNL     1     -32.954   5.435   2.988  1.00 20.00    -0.066 Br
ENDROOT
TORSDOF 0
ENDMDL
MODEL 8
REMARK VINA RESULT:      -2.9      2.432      2.734
REMARK  0 active torsions:
REMARK  status: ('A' for Active; 'I' for Inactive)
ROOT
HETATM    1  C1  UNL     1     -34.500   7.772   4.070  1.00 20.00     0.062 A 
HETATM    2  C2  UNL     1     -33.036   7.500   4.242  1.00 20.00     0.119 A 
HETATM    3  C3  UNL     1     -34.038   6.726   5.055  1.00 20.00     0.112 A 
HETATM    4 CL4  UNL     1     -32.016   8.731   4.943  1.00 20.00    -0.122 Cl
HETATM    5 CL5  UNL     1     -34.262   7.067   6.769  1.00 20.00    -0.105 Cl
HETATM    6 BR6  UNL     1     -34.317   4.886   4.587  1.00 20.00    -0.066 Br
ENDROOT
TORSDOF 0
ENDMDL
MODEL 9
REMARK VINA RESULT:      -2.8      1.661      2.907
REMARK  0 active torsions:
REMARK  status: ('A' for Active; 'I' for Inactive)
ROOT
HETATM    1  C1  UNL     1     -33.247   6.879   5.967  1.00 20.00     0.062 A 
HETATM    2  C2  UNL     1     -33.659   8.070   5.155  1.00 20.00     0.119 A 
HETATM    3  C3  UNL     1     -33.795   6.688   4.574  1.00 20.00     0.112 A 
HETATM    4 CL4  UNL     1     -32.440   9.194   4.611  1.00 20.00    -0.122 Cl
HETATM    5 CL5  UNL     1     -32.682   6.120   3.333  1.00 20.00    -0.105 Cl
HETATM    6 BR6  UNL     1     -35.568   5.973   4.412  1.00 20.00    -0.066 Br
ENDROOT
TORSDOF 0
ENDMDL
