MODEL 1
REMARK VINA RESULT:      -3.5      0.000      0.000
REMARK  0 active torsions:
REMARK  status: ('A' for Active; 'I' for Inactive)
ROOT
HETATM    1  C1  UNL     1     -33.995  17.179  -4.209  1.00 20.00     0.141 C 
HETATM    2  C2  UNL     1     -33.293  16.100  -3.408  1.00 20.00     0.079 C 
HETATM    3  C3  UNL     1     -33.268  14.781  -4.168  1.00 20.00     0.008 C 
HETATM    4  C4  UNL     1     -34.650  14.388  -4.703  1.00 20.00     0.017 C 
HETATM    5  C5  UNL     1     -35.293  18.255  -7.133  1.00 20.00     0.085 C 
HETATM    6  C6  UNL     1     -35.379  16.958  -7.918  1.00 20.00     0.084 C 
HETATM    7  C7  UNL     1     -35.370  16.795  -4.742  1.00 20.00     0.130 C 
HETATM    8  C8  UNL     1     -35.313  15.492  -5.549  1.00 20.00     0.068 C 
HETATM    9  O9  UNL     1     -33.498  18.298  -4.322  1.00 20.00    -0.297 OA
HETATM   10  S10 UNL     1     -36.210  18.183  -5.568  1.00 20.00    -0.155 SA
HETATM   11  S11 UNL     1     -34.418  15.632  -7.145  1.00 20.00    -0.162 SA
ENDROOT
TORSDOF 0
ENDMDL
MODEL 2
REMARK VINA RESULT:      -3.4      1.933      2.915
REMARK  0 active torsions:
REMARK  status: ('A' for Active; 'I' for Inactive)
ROOT
HETATM    1  C1  UNL     1     -34.465  15.409  -4.844  1.00 20.00     0.141 C 
HETATM    2  C2  UNL     1     -33.404  15.439  -3.761  1.00 20.00     0.079 C 
HETATM    3  C3  UNL     1     -33.452  16.746  -2.982  1.00 20.00     0.008 C 
HETATM    4  C4  UNL     1     -33.467  17.973  -3.899  1.00 20.00     0.017 C 
HETATM    5  C5  UNL     1     -37.245  16.727  -6.233  1.00 20.00     0.085 C 
HETATM    6  C6  UNL     1     -37.303  18.085  -5.557  1.00 20.00     0.084 C 
HETATM    7  C7  UNL     1     -34.484  16.627  -5.761  1.00 20.00     0.130 C 
HETATM    8  C8  UNL     1     -34.586  17.930  -4.958  1.00 20.00     0.068 C 
HETATM    9  O9  UNL     1     -35.178  14.420  -4.995  1.00 20.00    -0.297 OA
HETATM   10  S10 UNL     1     -35.684  16.457  -7.120  1.00 20.00    -0.155 SA
HETATM   11  S11 UNL     1     -36.202  18.177  -4.122  1.00 20.00    -0.162 SA
ENDROOT
TORSDOF 0
ENDMDL
MODEL 3
REMARK VINA RESULT:      -3.3      1.917      4.049
REMARK  0 active torsions:
REMARK  status: ('A' for Active; 'I' for Inactive)
ROOT
HETATM    1  C1  UNL     1     -34.677  15.665  -6.893  1.00 20.00     0.141 C 
HETATM    2  C2  UNL     1     -35.415  16.506  -7.917  1.00 20.00     0.079 C 
HETATM    3  C3  UNL     1     -35.740  17.886  -7.363  1.00 20.00     0.008 C 
HETATM    4  C4  UNL     1     -36.406  17.822  -5.984  1.00 20.00     0.017 C 
HETATM    5  C5  UNL     1     -33.008  15.443  -3.967  1.00 20.00     0.085 C 
HETATM    6  C6  UNL     1     -33.364  16.767  -3.317  1.00 20.00     0.084 C 
HETATM    7  C7  UNL     1     -35.336  15.595  -5.520  1.00 20.00     0.130 C 
HETATM    8  C8  UNL     1     -35.606  16.997  -4.957  1.00 20.00     0.068 C 
HETATM    9  O9  UNL     1     -33.674  15.031  -7.210  1.00 20.00    -0.297 OA
HETATM   10  S10 UNL     1     -34.474  14.458  -4.390  1.00 20.00    -0.155 SA
HETATM   11  S11 UNL     1     -34.092  17.930  -4.500  1.00 20.00    -0.162 SA
ENDROOT
TORSDOF 0
ENDMDL
MODEL 4
REMARK VINA RESULT:      -3.2      2.168      3.393
REMARK  0 active torsions:
REMARK  status: ('A' for Active; 'I' for Inactive)
ROOT
HETATM    1  C1  UNL     1     -35.409  16.475  -4.998  1.00 20.00     0.141 C 
HETATM    2  C2  UNL     1     -35.197  14.987  -5.204  1.00 20.00     0.079 C 
HETATM    3  C3  UNL     1     -34.199  14.430  -4.198  1.00 20.00     0.008 C 
HETATM    4  C4  UNL     1     -32.912  15.259  -4.131  1.00 20.00     0.017 C 
HETATM    5  C5  UNL     1     -35.007  19.237  -3.100  1.00 20.00     0.085 C 
HETATM    6  C6  UNL     1     -33.946  18.774  -2.118  1.00 20.00     0.084 C 
HETATM    7  C7  UNL     1     -34.132  17.305  -4.932  1.00 20.00     0.130 C 
HETATM    8  C8  UNL     1     -33.164  16.758  -3.876  1.00 20.00     0.068 C 
HETATM    9  O9  UNL     1     -36.542  16.949  -4.980  1.00 20.00    -0.297 OA
HETATM   10  S10 UNL     1     -34.467  19.091  -4.827  1.00 20.00    -0.155 SA
HETATM   11  S11 UNL     1     -33.735  16.975  -2.144  1.00 20.00    -0.162 SA
ENDROOT
TORSDOF 0
ENDMDL
MODEL 5
REMARK VINA RESULT:      -3.2      2.361      2.851
REMARK  0 active torsions:
REMARK  status: ('A' for Active; 'I' for Inactive)
ROOT
HETATM    1  C1  UNL     1     -36.512  14.783  -5.409  1.00 20.00     0.141 C 
HETATM    2  C2  UNL     1     -35.724  13.766  -4.608  1.00 20.00     0.079 C 
HETATM    3  C3  UNL     1     -34.370  14.324  -4.192  1.00 20.00     0.008 C 
HETATM    4  C4  UNL     1     -33.608  14.947  -5.367  1.00 20.00     0.017 C 
HETATM    5  C5  UNL     1     -36.919  17.955  -6.490  1.00 20.00     0.085 C 
HETATM    6  C6  UNL     1     -35.559  18.554  -6.182  1.00 20.00     0.084 C 
HETATM    7  C7  UNL     1     -35.761  15.405  -6.580  1.00 20.00     0.130 C 
HETATM    8  C8  UNL     1     -34.424  16.008  -6.130  1.00 20.00     0.068 C 
HETATM    9  O9  UNL     1     -37.696  14.998  -5.156  1.00 20.00    -0.297 OA
HETATM   10  S10 UNL     1     -36.813  16.506  -7.578  1.00 20.00    -0.155 SA
HETATM   11  S11 UNL     1     -34.589  17.500  -5.073  1.00 20.00    -0.162 SA
ENDROOT
TORSDOF 0
ENDMDL
MODEL 6
REMARK VINA RESULT:      -3.1      2.188      3.414
REMARK  0 active torsions:
REMARK  status: ('A' for Active; 'I' for Inactive)
ROOT
HETATM    1  C1  UNL     1     -36.238  17.046  -5.316  1.00 20.00     0.141 C 
HETATM    2  C2  UNL     1     -36.725  16.029  -6.330  1.00 20.00     0.079 C 
HETATM    3  C3  UNL     1     -35.815  14.809  -6.365  1.00 20.00     0.008 C 
HETATM    4  C4  UNL     1     -34.335  15.187  -6.493  1.00 20.00     0.017 C 
HETATM    5  C5  UNL     1     -34.232  17.835  -2.718  1.00 20.00     0.085 C 
HETATM    6  C6  UNL     1     -33.235  16.691  -2.751  1.00 20.00     0.084 C 
HETATM    7  C7  UNL     1     -34.768  17.427  -5.439  1.00 20.00     0.130 C 
HETATM    8  C8  UNL     1     -33.865  16.186  -5.418  1.00 20.00     0.068 C 
HETATM    9  O9  UNL     1     -37.022  17.567  -4.526  1.00 20.00    -0.297 OA
HETATM   10  S10 UNL     1     -34.292  18.751  -4.284  1.00 20.00    -0.155 SA
HETATM   11  S11 UNL     1     -33.802  15.326  -3.797  1.00 20.00    -0.162 SA
ENDROOT
TORSDOF 0
ENDMDL
MODEL 7
REMARK VINA RESULT:      -3.0      1.853      2.796
REMARK  0 active torsions:
REMARK  status: ('A' for Active; 'I' for Inactive)
ROOT
HETATM    1  C1  UNL     1     -33.645  18.724  -4.327  1.00 20.00     0.141 C 
HETATM    2  C2  UNL     1     -32.880  19.246  -3.125  1.00 20.00     0.079 C 
HETATM    3  C3  UNL     1     -32.380  18.102  -2.254  1.00 20.00     0.008 C 
HETATM    4  C4  UNL     1     -33.485  17.092  -1.924  1.00 20.00     0.017 C 
HETATM    5  C5  UNL     1     -34.539  16.146  -6.313  1.00 20.00     0.085 C 
HETATM    6  C6  UNL     1     -34.144  14.956  -5.456  1.00 20.00     0.084 C 
HETATM    7  C7  UNL     1     -34.746  17.721  -4.004  1.00 20.00     0.130 C 
HETATM    8  C8  UNL     1     -34.210  16.550  -3.171  1.00 20.00     0.068 C 
HETATM    9  O9  UNL     1     -33.424  19.168  -5.451  1.00 20.00    -0.297 OA
HETATM   10  S10 UNL     1     -35.711  17.249  -5.474  1.00 20.00    -0.155 SA
HETATM   11  S11 UNL     1     -33.068  15.438  -4.082  1.00 20.00    -0.162 SA
ENDROOT
TORSDOF 0
ENDMDL
MODEL 8
REMARK VINA RESULT:      -2.9     14.273     15.139
REMARK  0 active torsions:
REMARK  status: ('A' for Active; 'I' for Inactive)
ROOT
HETATM    1  C1  UNL     1     -40.491  14.653   8.694  1.00 20.00     0.141 C 
HETATM    2  C2  UNL     1     -40.341  15.991   9.392  1.00 20.00     0.079 C 
HETATM    3  C3  UNL     1     -41.416  16.970   8.940  1.00 20.00     0.008 C 
HETATM    4  C4  UNL     1     -41.529  17.050   7.413  1.00 20.00     0.017 C 
HETATM    5  C5  UNL     1     -42.326  12.550   6.795  1.00 20.00     0.085 C 
HETATM    6  C6  UNL     1     -43.378  13.490   6.237  1.00 20.00     0.084 C 
HETATM    7  C7  UNL     1     -40.602  14.727   7.175  1.00 20.00     0.130 C 
HETATM    8  C8  UNL     1     -41.725  15.677   6.742  1.00 20.00     0.068 C 
HETATM    9  O9  UNL     1     -40.433  13.604   9.331  1.00 20.00    -0.297 OA
HETATM   10  S10 UNL     1     -40.635  13.081   6.399  1.00 20.00    -0.155 SA
HETATM   11  S11 UNL     1     -43.416  15.069   7.123  1.00 20.00    -0.162 SA
ENDROOT
TORSDOF 0
ENDMDL
MODEL 9
REMARK VINA RESULT:      -2.9      1.937      3.516
REMARK  0 active torsions:
REMARK  status: ('A' for Active; 'I' for Inactive)
ROOT
HETATM    1  C1  UNL     1     -36.202  17.819  -4.924  1.00 20.00     0.141 C 
HETATM    2  C2  UNL     1     -37.232  17.546  -6.003  1.00 20.00     0.079 C 
HETATM    3  C3  UNL     1     -36.911  16.263  -6.757  1.00 20.00     0.008 C 
HETATM    4  C4  UNL     1     -35.454  16.212  -7.231  1.00 20.00     0.017 C 
HETATM    5  C5  UNL     1     -33.611  16.758  -3.039  1.00 20.00     0.085 C 
HETATM    6  C6  UNL     1     -33.181  15.513  -3.793  1.00 20.00     0.084 C 
HETATM    7  C7  UNL     1     -34.751  17.771  -5.389  1.00 20.00     0.130 C 
HETATM    8  C8  UNL     1     -34.435  16.448  -6.099  1.00 20.00     0.068 C 
HETATM    9  O9  UNL     1     -36.553  18.138  -3.790  1.00 20.00    -0.297 OA
HETATM   10  S10 UNL     1     -33.582  18.246  -4.077  1.00 20.00    -0.155 SA
HETATM   11  S11 UNL     1     -34.428  14.982  -4.994  1.00 20.00    -0.162 SA
ENDROOT
TORSDOF 0
ENDMDL
