MODEL 1
REMARK VINA RESULT:      -4.8      0.000      0.000
REMARK  1 active torsions:
REMARK  status: ('A' for Active; 'I' for Inactive)
REMARK    1  A    between atoms: C7_7  and  O10_10 
ROOT
HETATM    1  C1  UNL     1     -32.670   4.984   2.491  1.00 20.00     0.013 C 
HETATM    2  C2  UNL     1     -33.387   5.526   3.286  1.00 20.00    -0.102 C 
HETATM    3  C3  UNL     1     -33.846   7.395   4.994  1.00 20.00    -0.040 C 
HETATM    4  C4  UNL     1     -33.551   8.596   4.480  1.00 20.00     0.019 C 
HETATM    5  C5  UNL     1     -34.935   5.971   6.605  1.00 20.00     0.043 C 
HETATM    6  C6  UNL     1     -35.734   5.899   4.119  1.00 20.00     0.034 A 
HETATM    7  C7  UNL     1     -33.916   7.117   6.477  1.00 20.00     0.148 C 
HETATM    8  C8  UNL     1     -34.956   5.301   5.257  1.00 20.00     0.015 A 
HETATM    9  C9  UNL     1     -34.250   6.178   4.238  1.00 20.00     0.052 A 
ENDROOT
BRANCH   7  10
HETATM   10  O10 UNL     1     -32.637   6.672   6.914  1.00 20.00    -0.391 OA
HETATM   11  H20 UNL     1     -32.451   7.134   7.747  1.00 20.00     0.210 HD
ENDBRANCH   7  10
TORSDOF 1
ENDMDL
MODEL 2
REMARK VINA RESULT:      -4.3      1.933      3.347
REMARK  1 active torsions:
REMARK  status: ('A' for Active; 'I' for Inactive)
REMARK    1  A    between atoms: C7_7  and  O10_10 
ROOT
HETATM    1  C1  UNL     1     -33.068   9.511   1.603  1.00 20.00     0.013 C 
HETATM    2  C2  UNL     1     -32.947   8.767   2.536  1.00 20.00    -0.102 C 
HETATM    3  C3  UNL     1     -33.207   6.441   3.608  1.00 20.00    -0.040 C 
HETATM    4  C4  UNL     1     -32.696   5.490   2.816  1.00 20.00     0.019 C 
HETATM    5  C5  UNL     1     -33.984   7.256   5.739  1.00 20.00     0.043 C 
HETATM    6  C6  UNL     1     -31.801   8.271   4.723  1.00 20.00     0.034 A 
HETATM    7  C7  UNL     1     -34.238   6.170   4.679  1.00 20.00     0.148 C 
HETATM    8  C8  UNL     1     -33.272   8.367   5.013  1.00 20.00     0.015 A 
HETATM    9  C9  UNL     1     -32.801   7.872   3.657  1.00 20.00     0.052 A 
ENDROOT
BRANCH   7  10
HETATM   10  O10 UNL     1     -35.532   6.344   4.115  1.00 20.00    -0.391 OA
HETATM   11  H20 UNL     1     -36.116   5.706   4.556  1.00 20.00     0.210 HD
ENDBRANCH   7  10
TORSDOF 1
ENDMDL
MODEL 3
REMARK VINA RESULT:      -4.3     12.478     13.662
REMARK  1 active torsions:
REMARK  status: ('A' for Active; 'I' for Inactive)
REMARK    1  A    between atoms: C7_7  and  O10_10 
ROOT
HETATM    1  C1  UNL     1     -33.374  17.039  -1.834  1.00 20.00     0.013 C 
HETATM    2  C2  UNL     1     -33.614  16.508  -2.883  1.00 20.00    -0.102 C 
HETATM    3  C3  UNL     1     -34.718  16.512  -5.208  1.00 20.00    -0.040 C 
HETATM    4  C4  UNL     1     -34.426  17.636  -5.875  1.00 20.00     0.019 C 
HETATM    5  C5  UNL     1     -35.479  14.227  -5.104  1.00 20.00     0.043 C 
HETATM    6  C6  UNL     1     -32.976  14.745  -4.565  1.00 20.00     0.034 A 
HETATM    7  C7  UNL     1     -35.914  15.643  -5.522  1.00 20.00     0.148 C 
HETATM    8  C8  UNL     1     -34.370  14.426  -4.105  1.00 20.00     0.015 A 
HETATM    9  C9  UNL     1     -33.900  15.869  -4.143  1.00 20.00     0.052 A 
ENDROOT
BRANCH   7  10
HETATM   10  O10 UNL     1     -37.005  16.068  -4.713  1.00 20.00    -0.391 OA
HETATM   11  H20 UNL     1     -37.325  15.281  -4.242  1.00 20.00     0.210 HD
ENDBRANCH   7  10
TORSDOF 1
ENDMDL
MODEL 4
REMARK VINA RESULT:      -4.1     13.035     14.673
REMARK  1 active torsions:
REMARK  status: ('A' for Active; 'I' for Inactive)
REMARK    1  A    between atoms: C7_7  and  O10_10 
ROOT
HETATM    1  C1  UNL     1     -33.264  16.633  -2.641  1.00 20.00     0.013 C 
HETATM    2  C2  UNL     1     -33.937  16.597  -3.634  1.00 20.00    -0.102 C 
HETATM    3  C3  UNL     1     -35.024  15.293  -5.569  1.00 20.00    -0.040 C 
HETATM    4  C4  UNL     1     -35.688  14.223  -5.112  1.00 20.00     0.019 C 
HETATM    5  C5  UNL     1     -34.532  16.939  -7.259  1.00 20.00     0.043 C 
HETATM    6  C6  UNL     1     -35.694  17.711  -5.051  1.00 20.00     0.034 A 
HETATM    7  C7  UNL     1     -34.532  15.423  -6.991  1.00 20.00     0.148 C 
HETATM    8  C8  UNL     1     -34.462  17.586  -5.902  1.00 20.00     0.015 A 
HETATM    9  C9  UNL     1     -34.745  16.553  -4.826  1.00 20.00     0.052 A 
ENDROOT
BRANCH   7  10
HETATM   10  O10 UNL     1     -33.200  14.925  -7.056  1.00 20.00    -0.391 OA
HETATM   11  H20 UNL     1     -33.113  14.477  -7.912  1.00 20.00     0.210 HD
ENDBRANCH   7  10
TORSDOF 1
ENDMDL
MODEL 5
REMARK VINA RESULT:      -3.9     12.639     14.040
REMARK  1 active torsions:
REMARK  status: ('A' for Active; 'I' for Inactive)
REMARK    1  A    between atoms: C7_7  and  O10_10 
ROOT
HETATM    1  C1  UNL     1     -34.087  17.739  -7.563  1.00 20.00     0.013 C 
HETATM    2  C2  UNL     1     -34.519  17.119  -6.631  1.00 20.00    -0.102 C 
HETATM    3  C3  UNL     1     -34.194  15.951  -4.361  1.00 20.00    -0.040 C 
HETATM    4  C4  UNL     1     -33.555  16.751  -3.498  1.00 20.00     0.019 C 
HETATM    5  C5  UNL     1     -35.571  14.043  -4.885  1.00 20.00     0.043 C 
HETATM    6  C6  UNL     1     -36.535  16.438  -5.285  1.00 20.00     0.034 A 
HETATM    7  C7  UNL     1     -34.240  14.447  -4.227  1.00 20.00     0.148 C 
HETATM    8  C8  UNL     1     -35.918  15.175  -5.815  1.00 20.00     0.015 A 
HETATM    9  C9  UNL     1     -35.039  16.376  -5.511  1.00 20.00     0.052 A 
ENDROOT
BRANCH   7  10
HETATM   10  O10 UNL     1     -33.154  13.895  -4.962  1.00 20.00    -0.391 OA
HETATM   11  H20 UNL     1     -33.406  12.985  -5.189  1.00 20.00     0.210 HD
ENDBRANCH   7  10
TORSDOF 1
ENDMDL
MODEL 6
REMARK VINA RESULT:      -3.8     12.809     14.179
REMARK  1 active torsions:
REMARK  status: ('A' for Active; 'I' for Inactive)
REMARK    1  A    between atoms: C7_7  and  O10_10 
ROOT
HETATM    1  C1  UNL     1     -33.336  14.593  -4.175  1.00 20.00     0.013 C 
HETATM    2  C2  UNL     1     -33.541  15.662  -3.670  1.00 20.00    -0.102 C 
HETATM    3  C3  UNL     1     -34.497  18.050  -3.767  1.00 20.00    -0.040 C 
HETATM    4  C4  UNL     1     -35.764  18.041  -4.202  1.00 20.00     0.019 C 
HETATM    5  C5  UNL     1     -32.628  19.090  -2.657  1.00 20.00     0.043 C 
HETATM    6  C6  UNL     1     -33.747  17.005  -1.550  1.00 20.00     0.034 A 
HETATM    7  C7  UNL     1     -33.600  19.263  -3.838  1.00 20.00     0.148 C 
HETATM    8  C8  UNL     1     -32.630  17.616  -2.348  1.00 20.00     0.015 A 
HETATM    9  C9  UNL     1     -33.790  16.945  -3.063  1.00 20.00     0.052 A 
ENDROOT
BRANCH   7  10
HETATM   10  O10 UNL     1     -32.877  19.221  -5.063  1.00 20.00    -0.391 OA
HETATM   11  H20 UNL     1     -33.482  18.858  -5.730  1.00 20.00     0.210 HD
ENDBRANCH   7  10
TORSDOF 1
ENDMDL
MODEL 7
REMARK VINA RESULT:      -3.8     12.667     14.165
REMARK  1 active torsions:
REMARK  status: ('A' for Active; 'I' for Inactive)
REMARK    1  A    between atoms: C7_7  and  O10_10 
ROOT
HETATM    1  C1  UNL     1     -37.522  17.173  -5.434  1.00 20.00     0.013 C 
HETATM    2  C2  UNL     1     -36.344  16.995  -5.285  1.00 20.00    -0.102 C 
HETATM    3  C3  UNL     1     -34.219  15.588  -5.640  1.00 20.00    -0.040 C 
HETATM    4  C4  UNL     1     -34.081  15.244  -6.927  1.00 20.00     0.019 C 
HETATM    5  C5  UNL     1     -33.356  15.910  -3.412  1.00 20.00     0.043 C 
HETATM    6  C6  UNL     1     -34.090  18.003  -4.792  1.00 20.00     0.034 A 
HETATM    7  C7  UNL     1     -33.559  14.843  -4.503  1.00 20.00     0.148 C 
HETATM    8  C8  UNL     1     -34.360  16.990  -3.716  1.00 20.00     0.015 A 
HETATM    9  C9  UNL     1     -34.930  16.783  -5.108  1.00 20.00     0.052 A 
ENDROOT
BRANCH   7  10
HETATM   10  O10 UNL     1     -34.459  13.845  -4.035  1.00 20.00    -0.391 OA
HETATM   11  H20 UNL     1     -34.443  13.128  -4.689  1.00 20.00     0.210 HD
ENDBRANCH   7  10
TORSDOF 1
ENDMDL
MODEL 8
REMARK VINA RESULT:      -3.8      9.910     10.637
REMARK  1 active torsions:
REMARK  status: ('A' for Active; 'I' for Inactive)
REMARK    1  A    between atoms: C7_7  and  O10_10 
ROOT
HETATM    1  C1  UNL     1     -39.087  11.976   5.833  1.00 20.00     0.013 C 
HETATM    2  C2  UNL     1     -40.002  12.703   6.105  1.00 20.00    -0.102 C 
HETATM    3  C3  UNL     1     -41.079  14.504   7.594  1.00 20.00    -0.040 C 
HETATM    4  C4  UNL     1     -40.242  15.532   7.783  1.00 20.00     0.019 C 
HETATM    5  C5  UNL     1     -43.273  13.508   7.610  1.00 20.00     0.043 C 
HETATM    6  C6  UNL     1     -42.080  13.886   5.317  1.00 20.00     0.034 A 
HETATM    7  C7  UNL     1     -42.233  14.188   8.517  1.00 20.00     0.148 C 
HETATM    8  C8  UNL     1     -42.495  12.974   6.436  1.00 20.00     0.015 A 
HETATM    9  C9  UNL     1     -41.101  13.576   6.430  1.00 20.00     0.052 A 
ENDROOT
BRANCH   7  10
HETATM   10  O10 UNL     1     -41.783  13.268   9.504  1.00 20.00    -0.391 OA
HETATM   11  H20 UNL     1     -40.815  13.240   9.438  1.00 20.00     0.210 HD
ENDBRANCH   7  10
TORSDOF 1
ENDMDL
MODEL 9
REMARK VINA RESULT:      -3.6     10.077     11.021
REMARK  1 active torsions:
REMARK  status: ('A' for Active; 'I' for Inactive)
REMARK    1  A    between atoms: C7_7  and  O10_10 
ROOT
HETATM    1  C1  UNL     1     -39.400  11.770   5.365  1.00 20.00     0.013 C 
HETATM    2  C2  UNL     1     -40.155  12.448   6.006  1.00 20.00    -0.102 C 
HETATM    3  C3  UNL     1     -42.536  13.053   6.773  1.00 20.00    -0.040 C 
HETATM    4  C4  UNL     1     -43.192  11.966   7.199  1.00 20.00     0.019 C 
HETATM    5  C5  UNL     1     -42.224  15.438   6.628  1.00 20.00     0.043 C 
HETATM    6  C6  UNL     1     -40.472  14.019   7.947  1.00 20.00     0.034 A 
HETATM    7  C7  UNL     1     -43.225  14.314   6.308  1.00 20.00     0.148 C 
HETATM    8  C8  UNL     1     -40.879  14.767   6.710  1.00 20.00     0.015 A 
HETATM    9  C9  UNL     1     -41.061  13.261   6.776  1.00 20.00     0.052 A 
ENDROOT
BRANCH   7  10
HETATM   10  O10 UNL     1     -43.417  14.231   4.900  1.00 20.00    -0.391 OA
HETATM   11  H20 UNL     1     -43.451  13.286   4.680  1.00 20.00     0.210 HD
ENDBRANCH   7  10
TORSDOF 1
ENDMDL
