MODEL 1
REMARK VINA RESULT:      -4.2      0.000      0.000
REMARK  2 active torsions:
REMARK  status: ('A' for Active; 'I' for Inactive)
REMARK    1  A    between atoms: C7_7  and  C9_9 
REMARK    2  A    between atoms: C8_8  and  C10_10 
ROOT
HETATM    1  C1  UNL     1     -35.591   5.915   4.607  1.00 20.00     0.005 C 
HETATM    2  C2  UNL     1     -35.152   5.677   6.077  1.00 20.00     0.005 C 
HETATM    3  C3  UNL     1     -33.612   4.762   3.644  1.00 20.00     0.005 C 
HETATM    4  C4  UNL     1     -33.505   4.122   5.056  1.00 20.00     0.005 C 
HETATM    5  C7  UNL     1     -34.323   6.129   3.732  1.00 20.00    -0.010 C 
HETATM    6  C8  UNL     1     -33.674   5.238   6.128  1.00 20.00    -0.010 C 
ENDROOT
BRANCH   5   7
HETATM    7  C9  UNL     1     -33.498   7.150   4.529  1.00 20.00    -0.006 C 
HETATM    8  C5  UNL     1     -33.542   8.598   5.092  1.00 20.00     0.006 C 
HETATM    9  C6  UNL     1     -31.981   8.575   4.781  1.00 20.00     0.006 C 
HETATM   10  C10 UNL     1     -32.416   7.732   3.548  1.00 20.00    -0.006 C 
ENDBRANCH   5   7
TORSDOF 2
ENDMDL
MODEL 2
REMARK VINA RESULT:      -3.5     12.093     13.584
REMARK  2 active torsions:
REMARK  status: ('A' for Active; 'I' for Inactive)
REMARK    1  A    between atoms: C7_7  and  C9_9 
REMARK    2  A    between atoms: C8_8  and  C10_10 
ROOT
HETATM    1  C1  UNL     1     -33.794  15.263  -6.328  1.00 20.00     0.005 C 
HETATM    2  C2  UNL     1     -35.112  16.026  -6.632  1.00 20.00     0.005 C 
HETATM    3  C3  UNL     1     -34.763  13.991  -4.427  1.00 20.00     0.005 C 
HETATM    4  C4  UNL     1     -36.120  14.367  -5.082  1.00 20.00     0.005 C 
HETATM    5  C7  UNL     1     -33.688  15.035  -4.793  1.00 20.00    -0.010 C 
HETATM    6  C8  UNL     1     -36.098  15.879  -5.454  1.00 20.00    -0.010 C 
ENDROOT
BRANCH   5   7
HETATM    7  C9  UNL     1     -34.006  16.414  -4.197  1.00 20.00    -0.006 C 
HETATM    8  C5  UNL     1     -33.499  17.882  -4.150  1.00 20.00     0.006 C 
HETATM    9  C6  UNL     1     -34.072  17.845  -2.665  1.00 20.00     0.006 C 
HETATM   10  C10 UNL     1     -33.558  16.377  -2.690  1.00 20.00    -0.006 C 
ENDBRANCH   5   7
TORSDOF 2
ENDMDL
MODEL 3
REMARK VINA RESULT:      -3.5      9.275     10.668
REMARK  2 active torsions:
REMARK  status: ('A' for Active; 'I' for Inactive)
REMARK    1  A    between atoms: C7_7  and  C9_9 
REMARK    2  A    between atoms: C8_8  and  C10_10 
ROOT
HETATM    1  C1  UNL     1     -41.399  14.519   7.857  1.00 20.00     0.005 C 
HETATM    2  C2  UNL     1     -42.214  13.255   8.245  1.00 20.00     0.005 C 
HETATM    3  C3  UNL     1     -42.286  14.595   5.537  1.00 20.00     0.005 C 
HETATM    4  C4  UNL     1     -43.417  13.702   6.117  1.00 20.00     0.005 C 
HETATM    5  C7  UNL     1     -40.992  14.415   6.359  1.00 20.00    -0.010 C 
HETATM    6  C8  UNL     1     -42.777  12.575   6.979  1.00 20.00    -0.010 C 
ENDROOT
BRANCH   5   7
HETATM    7  C9  UNL     1     -40.429  12.992   6.233  1.00 20.00    -0.006 C 
HETATM    8  C5  UNL     1     -39.143  12.151   6.464  1.00 20.00     0.006 C 
HETATM    9  C6  UNL     1     -39.651  11.350   5.186  1.00 20.00     0.006 C 
HETATM   10  C10 UNL     1     -40.121  12.754   4.709  1.00 20.00    -0.006 C 
ENDBRANCH   5   7
TORSDOF 2
ENDMDL
MODEL 4
REMARK VINA RESULT:      -3.3      8.357     10.299
REMARK  2 active torsions:
REMARK  status: ('A' for Active; 'I' for Inactive)
REMARK    1  A    between atoms: C7_7  and  C9_9 
REMARK    2  A    between atoms: C8_8  and  C10_10 
ROOT
HETATM    1  C1  UNL     1     -43.015   7.267   1.485  1.00 20.00     0.005 C 
HETATM    2  C2  UNL     1     -43.417   8.157   0.277  1.00 20.00     0.005 C 
HETATM    3  C3  UNL     1     -40.626   7.133   0.815  1.00 20.00     0.005 C 
HETATM    4  C4  UNL     1     -40.963   8.394  -0.028  1.00 20.00     0.005 C 
HETATM    5  C7  UNL     1     -41.896   6.285   1.035  1.00 20.00    -0.010 C 
HETATM    6  C8  UNL     1     -42.300   8.148  -0.787  1.00 20.00    -0.010 C 
ENDROOT
BRANCH   5   7
HETATM    7  C9  UNL     1     -42.430   5.705  -0.284  1.00 20.00    -0.006 C 
HETATM    8  C5  UNL     1     -43.341   4.584  -0.857  1.00 20.00     0.006 C 
HETATM    9  C6  UNL     1     -42.292   4.590  -2.054  1.00 20.00     0.006 C 
HETATM   10  C10 UNL     1     -41.263   4.864  -0.921  1.00 20.00    -0.006 C 
ENDBRANCH   5   7
TORSDOF 2
ENDMDL
MODEL 5
REMARK VINA RESULT:      -3.3     12.939     14.715
REMARK  2 active torsions:
REMARK  status: ('A' for Active; 'I' for Inactive)
REMARK    1  A    between atoms: C7_7  and  C9_9 
REMARK    2  A    between atoms: C8_8  and  C10_10 
ROOT
HETATM    1  C1  UNL     1     -36.581  16.069  -6.409  1.00 20.00     0.005 C 
HETATM    2  C2  UNL     1     -35.706  15.405  -7.508  1.00 20.00     0.005 C 
HETATM    3  C3  UNL     1     -35.061  18.014  -6.126  1.00 20.00     0.005 C 
HETATM    4  C4  UNL     1     -34.535  17.597  -7.527  1.00 20.00     0.005 C 
HETATM    5  C7  UNL     1     -35.651  16.791  -5.393  1.00 20.00    -0.010 C 
HETATM    6  C8  UNL     1     -34.308  16.056  -7.541  1.00 20.00    -0.010 C 
ENDROOT
BRANCH   5   7
HETATM    7  C9  UNL     1     -34.574  15.742  -5.077  1.00 20.00    -0.006 C 
HETATM    8  C5  UNL     1     -34.338  14.412  -4.309  1.00 20.00     0.006 C 
HETATM    9  C6  UNL     1     -32.880  15.009  -4.082  1.00 20.00     0.006 C 
HETATM   10  C10 UNL     1     -33.640  16.361  -3.973  1.00 20.00    -0.006 C 
ENDBRANCH   5   7
TORSDOF 2
ENDMDL
MODEL 6
REMARK VINA RESULT:      -3.3     11.456     13.273
REMARK  2 active torsions:
REMARK  status: ('A' for Active; 'I' for Inactive)
REMARK    1  A    between atoms: C7_7  and  C9_9 
REMARK    2  A    between atoms: C8_8  and  C10_10 
ROOT
HETATM    1  C1  UNL     1     -27.950  -2.464  12.218  1.00 20.00     0.005 C 
HETATM    2  C2  UNL     1     -28.160  -2.856  10.729  1.00 20.00     0.005 C 
HETATM    3  C3  UNL     1     -27.028  -0.221  11.679  1.00 20.00     0.005 C 
HETATM    4  C4  UNL     1     -27.722  -0.447  10.307  1.00 20.00     0.005 C 
HETATM    5  C7  UNL     1     -26.678  -1.576  12.328  1.00 20.00    -0.010 C 
HETATM    6  C8  UNL     1     -27.393  -1.885   9.809  1.00 20.00    -0.010 C 
ENDROOT
BRANCH   5   7
HETATM    7  C9  UNL     1     -25.626  -2.344  11.515  1.00 20.00    -0.006 C 
HETATM    8  C5  UNL     1     -24.756  -3.631  11.529  1.00 20.00     0.006 C 
HETATM    9  C6  UNL     1     -23.695  -2.709  10.782  1.00 20.00     0.006 C 
HETATM   10  C10 UNL     1     -24.254  -1.603  11.723  1.00 20.00    -0.006 C 
ENDBRANCH   5   7
TORSDOF 2
ENDMDL
MODEL 7
REMARK VINA RESULT:      -3.2      0.914      1.596
REMARK  2 active torsions:
REMARK  status: ('A' for Active; 'I' for Inactive)
REMARK    1  A    between atoms: C7_7  and  C9_9 
REMARK    2  A    between atoms: C8_8  and  C10_10 
ROOT
HETATM    1  C1  UNL     1     -34.707   6.523   6.642  1.00 20.00     0.005 C 
HETATM    2  C2  UNL     1     -33.639   5.396   6.617  1.00 20.00     0.005 C 
HETATM    3  C3  UNL     1     -35.463   6.100   4.313  1.00 20.00     0.005 C 
HETATM    4  C4  UNL     1     -34.787   4.717   4.521  1.00 20.00     0.005 C 
HETATM    5  C7  UNL     1     -34.803   7.157   5.225  1.00 20.00    -0.010 C 
HETATM    6  C8  UNL     1     -33.387   4.933   5.167  1.00 20.00    -0.010 C 
ENDROOT
BRANCH   5   7
HETATM    7  C9  UNL     1     -33.339   7.409   4.839  1.00 20.00    -0.006 C 
HETATM    8  C5  UNL     1     -32.181   8.433   5.001  1.00 20.00     0.006 C 
HETATM    9  C6  UNL     1     -31.793   7.958   3.532  1.00 20.00     0.006 C 
HETATM   10  C10 UNL     1     -33.334   7.881   3.338  1.00 20.00    -0.006 C 
ENDBRANCH   5   7
TORSDOF 2
ENDMDL
MODEL 8
REMARK VINA RESULT:      -3.2      9.178     10.613
REMARK  2 active torsions:
REMARK  status: ('A' for Active; 'I' for Inactive)
REMARK    1  A    between atoms: C7_7  and  C9_9 
REMARK    2  A    between atoms: C8_8  and  C10_10 
ROOT
HETATM    1  C1  UNL     1     -42.840  13.963   5.681  1.00 20.00     0.005 C 
HETATM    2  C2  UNL     1     -41.934  15.212   5.860  1.00 20.00     0.005 C 
HETATM    3  C3  UNL     1     -42.090  12.897   7.796  1.00 20.00     0.005 C 
HETATM    4  C4  UNL     1     -41.634  14.335   8.166  1.00 20.00     0.005 C 
HETATM    5  C7  UNL     1     -42.106  12.721   6.263  1.00 20.00    -0.010 C 
HETATM    6  C8  UNL     1     -40.876  14.950   6.952  1.00 20.00    -0.010 C 
ENDROOT
BRANCH   5   7
HETATM    7  C9  UNL     1     -40.695  12.818   5.663  1.00 20.00    -0.006 C 
HETATM    8  C5  UNL     1     -39.897  12.588   4.350  1.00 20.00     0.006 C 
HETATM    9  C6  UNL     1     -38.725  12.173   5.345  1.00 20.00     0.006 C 
HETATM   10  C10 UNL     1     -39.888  11.574   6.186  1.00 20.00    -0.006 C 
ENDBRANCH   5   7
TORSDOF 2
ENDMDL
MODEL 9
REMARK VINA RESULT:      -3.2     11.051     12.808
REMARK  2 active torsions:
REMARK  status: ('A' for Active; 'I' for Inactive)
REMARK    1  A    between atoms: C7_7  and  C9_9 
REMARK    2  A    between atoms: C8_8  and  C10_10 
ROOT
HETATM    1  C1  UNL     1     -27.664  -0.265  10.724  1.00 20.00     0.005 C 
HETATM    2  C2  UNL     1     -28.104  -0.607  12.174  1.00 20.00     0.005 C 
HETATM    3  C3  UNL     1     -28.249  -2.509   9.831  1.00 20.00     0.005 C 
HETATM    4  C4  UNL     1     -29.122  -2.609  11.111  1.00 20.00     0.005 C 
HETATM    5  C7  UNL     1     -27.068  -1.543  10.065  1.00 20.00    -0.010 C 
HETATM    6  C8  UNL     1     -28.282  -2.131  12.332  1.00 20.00    -0.010 C 
ENDROOT
BRANCH   5   7
HETATM    7  C9  UNL     1     -26.095  -2.079  11.125  1.00 20.00    -0.006 C 
HETATM    8  C5  UNL     1     -24.721  -1.792  11.793  1.00 20.00     0.006 C 
HETATM    9  C6  UNL     1     -24.622  -3.379  11.857  1.00 20.00     0.006 C 
HETATM   10  C10 UNL     1     -25.349  -3.306  10.484  1.00 20.00    -0.006 C 
ENDBRANCH   5   7
TORSDOF 2
ENDMDL
