MODEL 1
REMARK VINA RESULT:      -4.1      0.000      0.000
REMARK  0 active torsions:
REMARK  status: ('A' for Active; 'I' for Inactive)
ROOT
HETATM    1  C1  UNL     1     -32.509   8.509   4.697  1.00 20.00     0.027 C 
HETATM    2  C2  UNL     1     -33.680   8.178   5.631  1.00 20.00     0.012 C 
HETATM    3  C3  UNL     1     -32.628   7.904   3.305  1.00 20.00     0.167 C 
HETATM    4  C4  UNL     1     -33.085   5.625   2.760  1.00 20.00     0.177 C 
HETATM    5  C5  UNL     1     -33.882   6.696   5.945  1.00 20.00     0.074 C 
HETATM    6  C6  UNL     1     -33.824   4.846   3.838  1.00 20.00     0.100 C 
HETATM    7  O7  UNL     1     -32.180   6.552   3.343  1.00 20.00    -0.390 OA
HETATM    8  S8  UNL     1     -35.010   5.865   4.774  1.00 20.00    -0.167 SA
ENDROOT
TORSDOF 0
ENDMDL
MODEL 2
REMARK VINA RESULT:      -3.9      1.698      2.653
REMARK  0 active torsions:
REMARK  status: ('A' for Active; 'I' for Inactive)
ROOT
HETATM    1  C1  UNL     1     -34.715   5.813   5.961  1.00 20.00     0.027 C 
HETATM    2  C2  UNL     1     -34.036   7.156   6.257  1.00 20.00     0.012 C 
HETATM    3  C3  UNL     1     -33.924   4.903   5.031  1.00 20.00     0.167 C 
HETATM    4  C4  UNL     1     -32.984   5.477   2.912  1.00 20.00     0.177 C 
HETATM    5  C5  UNL     1     -33.800   8.063   5.049  1.00 20.00     0.074 C 
HETATM    6  C6  UNL     1     -32.694   6.958   2.722  1.00 20.00     0.100 C 
HETATM    7  O7  UNL     1     -34.164   5.291   3.681  1.00 20.00    -0.390 OA
HETATM    8  S8  UNL     1     -32.178   7.791   4.257  1.00 20.00    -0.167 SA
ENDROOT
TORSDOF 0
ENDMDL
MODEL 3
REMARK VINA RESULT:      -3.7      1.159      2.834
REMARK  0 active torsions:
REMARK  status: ('A' for Active; 'I' for Inactive)
ROOT
HETATM    1  C1  UNL     1     -33.303   5.463   2.840  1.00 20.00     0.027 C 
HETATM    2  C2  UNL     1     -34.071   4.930   4.055  1.00 20.00     0.012 C 
HETATM    3  C3  UNL     1     -32.246   6.506   3.175  1.00 20.00     0.167 C 
HETATM    4  C4  UNL     1     -32.533   8.473   4.497  1.00 20.00     0.177 C 
HETATM    5  C5  UNL     1     -34.882   5.964   4.836  1.00 20.00     0.074 C 
HETATM    6  C6  UNL     1     -33.677   8.409   5.498  1.00 20.00     0.100 C 
HETATM    7  O7  UNL     1     -32.871   7.780   3.304  1.00 20.00    -0.390 OA
HETATM    8  S8  UNL     1     -33.933   6.742   6.189  1.00 20.00    -0.167 SA
ENDROOT
TORSDOF 0
ENDMDL
MODEL 4
REMARK VINA RESULT:      -3.5      1.586      3.143
REMARK  0 active torsions:
REMARK  status: ('A' for Active; 'I' for Inactive)
ROOT
HETATM    1  C1  UNL     1     -32.904   5.438   2.867  1.00 20.00     0.027 C 
HETATM    2  C2  UNL     1     -32.562   6.933   2.853  1.00 20.00     0.012 C 
HETATM    3  C3  UNL     1     -34.155   5.089   3.660  1.00 20.00     0.167 C 
HETATM    4  C4  UNL     1     -34.674   5.751   5.895  1.00 20.00     0.177 C 
HETATM    5  C5  UNL     1     -32.260   7.560   4.214  1.00 20.00     0.074 C 
HETATM    6  C6  UNL     1     -33.979   7.021   6.363  1.00 20.00     0.100 C 
HETATM    7  O7  UNL     1     -33.822   4.998   5.043  1.00 20.00    -0.390 OA
HETATM    8  S8  UNL     1     -33.744   8.242   5.031  1.00 20.00    -0.167 SA
ENDROOT
TORSDOF 0
ENDMDL
MODEL 5
REMARK VINA RESULT:      -3.4      1.392      2.727
REMARK  0 active torsions:
REMARK  status: ('A' for Active; 'I' for Inactive)
ROOT
HETATM    1  C1  UNL     1     -32.468   7.685   3.334  1.00 20.00     0.027 C 
HETATM    2  C2  UNL     1     -32.585   6.218   2.902  1.00 20.00     0.012 C 
HETATM    3  C3  UNL     1     -32.523   7.901   4.839  1.00 20.00     0.167 C 
HETATM    4  C4  UNL     1     -34.162   7.055   6.356  1.00 20.00     0.177 C 
HETATM    5  C5  UNL     1     -33.891   5.517   3.276  1.00 20.00     0.074 C 
HETATM    6  C6  UNL     1     -34.880   5.799   5.885  1.00 20.00     0.100 C 
HETATM    7  O7  UNL     1     -33.885   7.915   5.260  1.00 20.00    -0.390 OA
HETATM    8  S8  UNL     1     -33.818   4.691   4.903  1.00 20.00    -0.167 SA
ENDROOT
TORSDOF 0
ENDMDL
MODEL 6
REMARK VINA RESULT:      -3.4      1.436      2.679
REMARK  0 active torsions:
REMARK  status: ('A' for Active; 'I' for Inactive)
ROOT
HETATM    1  C1  UNL     1     -34.372   6.440   6.369  1.00 20.00     0.027 C 
HETATM    2  C2  UNL     1     -34.732   5.259   5.460  1.00 20.00     0.012 C 
HETATM    3  C3  UNL     1     -34.045   7.727   5.624  1.00 20.00     0.167 C 
HETATM    4  C4  UNL     1     -32.510   7.993   3.815  1.00 20.00     0.177 C 
HETATM    5  C5  UNL     1     -33.635   4.800   4.499  1.00 20.00     0.074 C 
HETATM    6  C6  UNL     1     -32.246   6.729   3.010  1.00 20.00     0.100 C 
HETATM    7  O7  UNL     1     -32.689   7.684   5.190  1.00 20.00    -0.390 OA
HETATM    8  S8  UNL     1     -33.704   5.643   2.880  1.00 20.00    -0.167 SA
ENDROOT
TORSDOF 0
ENDMDL
MODEL 7
REMARK VINA RESULT:      -3.3      1.810      3.634
REMARK  0 active torsions:
REMARK  status: ('A' for Active; 'I' for Inactive)
ROOT
HETATM    1  C1  UNL     1     -34.089   4.955   4.058  1.00 20.00     0.027 C 
HETATM    2  C2  UNL     1     -33.386   5.492   2.805  1.00 20.00     0.012 C 
HETATM    3  C3  UNL     1     -34.748   6.028   4.914  1.00 20.00     0.167 C 
HETATM    4  C4  UNL     1     -33.750   8.043   5.716  1.00 20.00     0.177 C 
HETATM    5  C5  UNL     1     -32.225   6.456   3.055  1.00 20.00     0.074 C 
HETATM    6  C6  UNL     1     -32.574   8.546   4.892  1.00 20.00     0.100 C 
HETATM    7  O7  UNL     1     -33.764   6.623   5.756  1.00 20.00    -0.390 OA
HETATM    8  S8  UNL     1     -32.748   8.204   3.110  1.00 20.00    -0.167 SA
ENDROOT
TORSDOF 0
ENDMDL
MODEL 8
REMARK VINA RESULT:      -3.2     16.061     16.746
REMARK  0 active torsions:
REMARK  status: ('A' for Active; 'I' for Inactive)
ROOT
HETATM    1  C1  UNL     1     -23.276  19.159   8.467  1.00 20.00     0.027 C 
HETATM    2  C2  UNL     1     -21.918  19.263   9.171  1.00 20.00     0.012 C 
HETATM    3  C3  UNL     1     -24.473  19.202   9.406  1.00 20.00     0.167 C 
HETATM    4  C4  UNL     1     -24.814  17.879  11.364  1.00 20.00     0.177 C 
HETATM    5  C5  UNL     1     -21.590  18.139  10.154  1.00 20.00     0.074 C 
HETATM    6  C6  UNL     1     -23.541  17.353  12.009  1.00 20.00     0.100 C 
HETATM    7  O7  UNL     1     -24.687  17.902   9.949  1.00 20.00    -0.390 OA
HETATM    8  S8  UNL     1     -22.134  18.500  11.860  1.00 20.00    -0.167 SA
ENDROOT
TORSDOF 0
ENDMDL
MODEL 9
REMARK VINA RESULT:      -3.1     15.889     16.653
REMARK  0 active torsions:
REMARK  status: ('A' for Active; 'I' for Inactive)
ROOT
HETATM    1  C1  UNL     1     -24.230  18.303  12.328  1.00 20.00     0.027 C 
HETATM    2  C2  UNL     1     -22.789  17.828  12.106  1.00 20.00     0.012 C 
HETATM    3  C3  UNL     1     -25.133  18.154  11.112  1.00 20.00     0.167 C 
HETATM    4  C4  UNL     1     -24.689  18.901   8.888  1.00 20.00     0.177 C 
HETATM    5  C5  UNL     1     -22.000  18.575  11.030  1.00 20.00     0.074 C 
HETATM    6  C6  UNL     1     -23.214  19.052   8.547  1.00 20.00     0.100 C 
HETATM    7  O7  UNL     1     -24.931  19.263  10.241  1.00 20.00    -0.390 OA
HETATM    8  S8  UNL     1     -22.157  17.819   9.375  1.00 20.00    -0.167 SA
ENDROOT
TORSDOF 0
ENDMDL
