MODEL 1
REMARK VINA RESULT:      -4.7      0.000      0.000
REMARK  0 active torsions:
REMARK  status: ('A' for Active; 'I' for Inactive)
ROOT
HETATM    1  C1  UNL     1     -33.299   8.246   4.582  1.00 20.00     0.011 A 
HETATM    2  C2  UNL     1     -32.654   8.600   3.396  1.00 20.00     0.024 A 
HETATM    3  C3  UNL     1     -32.878   6.332   2.542  1.00 20.00     0.031 A 
HETATM    4  C4  UNL     1     -33.732   6.938   4.731  1.00 20.00    -0.033 A 
HETATM    5  C5  UNL     1     -33.527   5.992   3.716  1.00 20.00    -0.049 A 
HETATM    6  C6  UNL     1     -32.444   7.650   2.384  1.00 20.00     0.034 A 
HETATM    7  C7  UNL     1     -34.050   4.650   4.124  1.00 20.00     0.041 C 
HETATM    8  C8  UNL     1     -34.995   5.039   5.274  1.00 20.00     0.030 C 
HETATM    9  C9  UNL     1     -34.417   6.317   5.909  1.00 20.00     0.116 C 
HETATM   10 CL10 UNL     1     -31.638   8.114   0.934  1.00 20.00    -0.084 Cl
HETATM   11 CL11 UNL     1     -33.233   5.932   7.175  1.00 20.00    -0.120 Cl
ENDROOT
TORSDOF 0
ENDMDL
MODEL 2
REMARK VINA RESULT:      -4.4     11.960     13.185
REMARK  0 active torsions:
REMARK  status: ('A' for Active; 'I' for Inactive)
ROOT
HETATM    1  C1  UNL     1     -35.040  18.062  -4.025  1.00 20.00     0.011 A 
HETATM    2  C2  UNL     1     -34.568  18.464  -2.774  1.00 20.00     0.024 A 
HETATM    3  C3  UNL     1     -33.309  16.395  -2.532  1.00 20.00     0.031 A 
HETATM    4  C4  UNL     1     -34.635  16.831  -4.517  1.00 20.00    -0.033 A 
HETATM    5  C5  UNL     1     -33.773  16.009  -3.778  1.00 20.00    -0.049 A 
HETATM    6  C6  UNL     1     -33.709  17.635  -2.033  1.00 20.00     0.034 A 
HETATM    7  C7  UNL     1     -33.510  14.725  -4.502  1.00 20.00     0.041 C 
HETATM    8  C8  UNL     1     -33.928  15.103  -5.933  1.00 20.00     0.030 C 
HETATM    9  C9  UNL     1     -35.024  16.176  -5.806  1.00 20.00     0.116 C 
HETATM   10 CL10 UNL     1     -33.149  18.154  -0.489  1.00 20.00    -0.084 Cl
HETATM   11 CL11 UNL     1     -36.635  15.442  -5.661  1.00 20.00    -0.120 Cl
ENDROOT
TORSDOF 0
ENDMDL
MODEL 3
REMARK VINA RESULT:      -4.3     15.958     17.056
REMARK  0 active torsions:
REMARK  status: ('A' for Active; 'I' for Inactive)
ROOT
HETATM    1  C1  UNL     1     -24.631  19.211   9.590  1.00 20.00     0.011 A 
HETATM    2  C2  UNL     1     -25.877  19.251  10.219  1.00 20.00     0.024 A 
HETATM    3  C3  UNL     1     -24.902  18.458  12.303  1.00 20.00     0.031 A 
HETATM    4  C4  UNL     1     -23.533  18.800  10.329  1.00 20.00    -0.033 A 
HETATM    5  C5  UNL     1     -23.669  18.433  11.675  1.00 20.00    -0.049 A 
HETATM    6  C6  UNL     1     -26.011  18.876  11.566  1.00 20.00     0.034 A 
HETATM    7  C7  UNL     1     -22.355  17.997  12.244  1.00 20.00     0.041 C 
HETATM    8  C8  UNL     1     -21.376  18.605  11.225  1.00 20.00     0.030 C 
HETATM    9  C9  UNL     1     -22.114  18.650   9.874  1.00 20.00     0.116 C 
HETATM   10 CL10 UNL     1     -27.563  18.928  12.313  1.00 20.00    -0.084 Cl
HETATM   11 CL11 UNL     1     -21.915  17.131   8.976  1.00 20.00    -0.120 Cl
ENDROOT
TORSDOF 0
ENDMDL
MODEL 4
REMARK VINA RESULT:      -4.2     11.947     13.335
REMARK  0 active torsions:
REMARK  status: ('A' for Active; 'I' for Inactive)
ROOT
HETATM    1  C1  UNL     1     -33.295  15.489  -3.684  1.00 20.00     0.011 A 
HETATM    2  C2  UNL     1     -33.996  14.864  -4.717  1.00 20.00     0.024 A 
HETATM    3  C3  UNL     1     -35.143  16.941  -5.259  1.00 20.00     0.031 A 
HETATM    4  C4  UNL     1     -33.522  16.837  -3.455  1.00 20.00    -0.033 A 
HETATM    5  C5  UNL     1     -34.435  17.556  -4.241  1.00 20.00    -0.049 A 
HETATM    6  C6  UNL     1     -34.914  15.585  -5.497  1.00 20.00     0.034 A 
HETATM    7  C7  UNL     1     -34.530  18.977  -3.780  1.00 20.00     0.041 C 
HETATM    8  C8  UNL     1     -33.233  19.110  -2.964  1.00 20.00     0.030 C 
HETATM    9  C9  UNL     1     -32.918  17.712  -2.401  1.00 20.00     0.116 C 
HETATM   10 CL10 UNL     1     -35.771  14.785  -6.760  1.00 20.00    -0.084 Cl
HETATM   11 CL11 UNL     1     -33.727  17.444  -0.843  1.00 20.00    -0.120 Cl
ENDROOT
TORSDOF 0
ENDMDL
MODEL 5
REMARK VINA RESULT:      -4.1      1.290      2.305
REMARK  0 active torsions:
REMARK  status: ('A' for Active; 'I' for Inactive)
ROOT
HETATM    1  C1  UNL     1     -32.938   5.628   3.001  1.00 20.00     0.011 A 
HETATM    2  C2  UNL     1     -32.448   6.361   1.919  1.00 20.00     0.024 A 
HETATM    3  C3  UNL     1     -32.751   8.447   3.134  1.00 20.00     0.031 A 
HETATM    4  C4  UNL     1     -33.323   6.315   4.141  1.00 20.00    -0.033 A 
HETATM    5  C5  UNL     1     -33.225   7.712   4.207  1.00 20.00    -0.049 A 
HETATM    6  C6  UNL     1     -32.356   7.760   1.985  1.00 20.00     0.034 A 
HETATM    7  C7  UNL     1     -33.731   8.221   5.521  1.00 20.00     0.041 C 
HETATM    8  C8  UNL     1     -33.683   6.940   6.371  1.00 20.00     0.030 C 
HETATM    9  C9  UNL     1     -33.899   5.759   5.407  1.00 20.00     0.116 C 
HETATM   10 CL10 UNL     1     -31.755   8.639   0.630  1.00 20.00    -0.084 Cl
HETATM   11 CL11 UNL     1     -35.626   5.406   5.193  1.00 20.00    -0.120 Cl
ENDROOT
TORSDOF 0
ENDMDL
MODEL 6
REMARK VINA RESULT:      -3.9     15.823     16.367
REMARK  0 active torsions:
REMARK  status: ('A' for Active; 'I' for Inactive)
ROOT
HETATM    1  C1  UNL     1     -22.343  17.765  10.710  1.00 20.00     0.011 A 
HETATM    2  C2  UNL     1     -21.624  17.857   9.517  1.00 20.00     0.024 A 
HETATM    3  C3  UNL     1     -23.523  18.888   8.397  1.00 20.00     0.031 A 
HETATM    4  C4  UNL     1     -23.644  18.242  10.733  1.00 20.00    -0.033 A 
HETATM    5  C5  UNL     1     -24.225  18.804   9.587  1.00 20.00    -0.049 A 
HETATM    6  C6  UNL     1     -22.211  18.414   8.368  1.00 20.00     0.034 A 
HETATM    7  C7  UNL     1     -25.641  19.213   9.852  1.00 20.00     0.041 C 
HETATM    8  C8  UNL     1     -25.649  19.263  11.390  1.00 20.00     0.030 C 
HETATM    9  C9  UNL     1     -24.615  18.230  11.873  1.00 20.00     0.116 C 
HETATM   10 CL10 UNL     1     -21.302  18.507   6.908  1.00 20.00    -0.084 Cl
HETATM   11 CL11 UNL     1     -25.341  16.618  12.043  1.00 20.00    -0.120 Cl
ENDROOT
TORSDOF 0
ENDMDL
MODEL 7
REMARK VINA RESULT:      -3.9     12.133     13.803
REMARK  0 active torsions:
REMARK  status: ('A' for Active; 'I' for Inactive)
ROOT
HETATM    1  C1  UNL     1     -33.595  15.260  -4.250  1.00 20.00     0.011 A 
HETATM    2  C2  UNL     1     -33.263  15.997  -3.112  1.00 20.00     0.024 A 
HETATM    3  C3  UNL     1     -34.701  17.828  -3.820  1.00 20.00     0.031 A 
HETATM    4  C4  UNL     1     -34.483  15.815  -5.158  1.00 20.00    -0.033 A 
HETATM    5  C5  UNL     1     -35.034  17.086  -4.940  1.00 20.00    -0.049 A 
HETATM    6  C6  UNL     1     -33.812  17.272  -2.899  1.00 20.00     0.034 A 
HETATM    7  C7  UNL     1     -35.932  17.479  -6.072  1.00 20.00     0.041 C 
HETATM    8  C8  UNL     1     -36.206  16.110  -6.719  1.00 20.00     0.030 C 
HETATM    9  C9  UNL     1     -34.966  15.238  -6.452  1.00 20.00     0.116 C 
HETATM   10 CL10 UNL     1     -33.378  18.162  -1.489  1.00 20.00    -0.084 Cl
HETATM   11 CL11 UNL     1     -33.738  15.454  -7.718  1.00 20.00    -0.120 Cl
ENDROOT
TORSDOF 0
ENDMDL
MODEL 8
REMARK VINA RESULT:      -3.9      1.268      4.099
REMARK  0 active torsions:
REMARK  status: ('A' for Active; 'I' for Inactive)
ROOT
HETATM    1  C1  UNL     1     -33.141   8.370   5.242  1.00 20.00     0.011 A 
HETATM    2  C2  UNL     1     -33.848   7.563   6.136  1.00 20.00     0.024 A 
HETATM    3  C3  UNL     1     -33.990   5.780   4.486  1.00 20.00     0.031 A 
HETATM    4  C4  UNL     1     -32.861   7.868   3.981  1.00 20.00    -0.033 A 
HETATM    5  C5  UNL     1     -33.279   6.582   3.610  1.00 20.00    -0.049 A 
HETATM    6  C6  UNL     1     -34.270   6.278   5.759  1.00 20.00     0.034 A 
HETATM    7  C7  UNL     1     -32.889   6.282   2.196  1.00 20.00     0.041 C 
HETATM    8  C8  UNL     1     -31.798   7.340   1.960  1.00 20.00     0.030 C 
HETATM    9  C9  UNL     1     -32.149   8.546   2.852  1.00 20.00     0.116 C 
HETATM   10 CL10 UNL     1     -35.148   5.308   6.880  1.00 20.00    -0.084 Cl
HETATM   11 CL11 UNL     1     -33.245   9.668   2.019  1.00 20.00    -0.120 Cl
ENDROOT
TORSDOF 0
ENDMDL
MODEL 9
REMARK VINA RESULT:      -3.7     10.499     11.367
REMARK  0 active torsions:
REMARK  status: ('A' for Active; 'I' for Inactive)
ROOT
HETATM    1  C1  UNL     1     -41.981  14.423   5.492  1.00 20.00     0.011 A 
HETATM    2  C2  UNL     1     -41.288  13.450   4.770  1.00 20.00     0.024 A 
HETATM    3  C3  UNL     1     -39.852  12.989   6.680  1.00 20.00     0.031 A 
HETATM    4  C4  UNL     1     -41.603  14.664   6.804  1.00 20.00    -0.033 A 
HETATM    5  C5  UNL     1     -40.551  13.948   7.392  1.00 20.00    -0.049 A 
HETATM    6  C6  UNL     1     -40.231  12.738   5.360  1.00 20.00     0.034 A 
HETATM    7  C7  UNL     1     -40.312  14.409   8.796  1.00 20.00     0.041 C 
HETATM    8  C8  UNL     1     -41.640  15.123   9.101  1.00 20.00     0.030 C 
HETATM    9  C9  UNL     1     -42.170  15.666   7.762  1.00 20.00     0.116 C 
HETATM   10 CL10 UNL     1     -39.389  11.548   4.442  1.00 20.00    -0.084 Cl
HETATM   11 CL11 UNL     1     -41.520  17.282   7.415  1.00 20.00    -0.120 Cl
ENDROOT
TORSDOF 0
ENDMDL
