MODEL 1
REMARK VINA RESULT:      -3.7      0.000      0.000
REMARK  0 active torsions:
REMARK  status: ('A' for Active; 'I' for Inactive)
ROOT
HETATM    1  C1  UNL     1     -22.626  18.376   8.149  1.00 20.00     0.128 A 
HETATM    2  C2  UNL     1     -23.512  19.110   9.181  1.00 20.00     0.089 A 
HETATM    3  C3  UNL     1     -22.239  17.277   9.165  1.00 20.00     0.089 A 
HETATM    4  C4  UNL     1     -22.501  18.425  11.480  1.00 20.00     0.085 C 
HETATM    5  C5  UNL     1     -24.276  17.199  10.775  1.00 20.00     0.085 C 
HETATM    6  C6  UNL     1     -23.134  17.998  10.162  1.00 20.00    -0.011 A 
HETATM    7  O7  UNL     1     -22.342  18.583   6.988  1.00 20.00    -0.298 OA
HETATM    8  S8  UNL     1     -24.127  18.209  12.297  1.00 20.00    -0.167 SA
ENDROOT
TORSDOF 0
ENDMDL
MODEL 2
REMARK VINA RESULT:      -3.4      2.930      3.661
REMARK  0 active torsions:
REMARK  status: ('A' for Active; 'I' for Inactive)
ROOT
HETATM    1  C1  UNL     1     -25.240  17.538  11.798  1.00 20.00     0.128 A 
HETATM    2  C2  UNL     1     -24.647  18.630  10.878  1.00 20.00     0.089 A 
HETATM    3  C3  UNL     1     -23.931  16.716  11.777  1.00 20.00     0.089 A 
HETATM    4  C4  UNL     1     -22.792  17.387   9.540  1.00 20.00     0.085 C 
HETATM    5  C5  UNL     1     -22.097  18.513  11.384  1.00 20.00     0.085 C 
HETATM    6  C6  UNL     1     -23.355  17.811  10.891  1.00 20.00    -0.011 A 
HETATM    7  O7  UNL     1     -26.319  17.385  12.332  1.00 20.00    -0.298 OA
HETATM    8  S8  UNL     1     -21.589  18.766   9.642  1.00 20.00    -0.167 SA
ENDROOT
TORSDOF 0
ENDMDL
MODEL 3
REMARK VINA RESULT:      -3.3     18.241     19.022
REMARK  0 active torsions:
REMARK  status: ('A' for Active; 'I' for Inactive)
ROOT
HETATM    1  C1  UNL     1     -33.603  16.093  -3.530  1.00 20.00     0.128 A 
HETATM    2  C2  UNL     1     -34.509  16.733  -4.607  1.00 20.00     0.089 A 
HETATM    3  C3  UNL     1     -33.636  14.714  -4.227  1.00 20.00     0.089 A 
HETATM    4  C4  UNL     1     -35.864  14.726  -5.562  1.00 20.00     0.085 C 
HETATM    5  C5  UNL     1     -34.007  15.310  -6.728  1.00 20.00     0.085 C 
HETATM    6  C6  UNL     1     -34.508  15.365  -5.291  1.00 20.00    -0.011 A 
HETATM    7  O7  UNL     1     -33.070  16.513  -2.524  1.00 20.00    -0.298 OA
HETATM    8  S8  UNL     1     -35.746  15.285  -7.303  1.00 20.00    -0.167 SA
ENDROOT
TORSDOF 0
ENDMDL
MODEL 4
REMARK VINA RESULT:      -3.3     18.714     19.451
REMARK  0 active torsions:
REMARK  status: ('A' for Active; 'I' for Inactive)
ROOT
HETATM    1  C1  UNL     1     -35.568  14.806  -6.814  1.00 20.00     0.128 A 
HETATM    2  C2  UNL     1     -35.729  14.976  -5.286  1.00 20.00     0.089 A 
HETATM    3  C3  UNL     1     -34.163  15.451  -6.803  1.00 20.00     0.089 A 
HETATM    4  C4  UNL     1     -34.180  16.988  -4.709  1.00 20.00     0.085 C 
HETATM    5  C5  UNL     1     -33.275  14.927  -4.419  1.00 20.00     0.085 C 
HETATM    6  C6  UNL     1     -34.328  15.590  -5.297  1.00 20.00    -0.011 A 
HETATM    7  O7  UNL     1     -36.273  14.344  -7.686  1.00 20.00    -0.298 OA
HETATM    8  S8  UNL     1     -33.535  16.238  -3.166  1.00 20.00    -0.167 SA
ENDROOT
TORSDOF 0
ENDMDL
MODEL 5
REMARK VINA RESULT:      -3.3     18.396     18.850
REMARK  0 active torsions:
REMARK  status: ('A' for Active; 'I' for Inactive)
ROOT
HETATM    1  C1  UNL     1     -39.803  12.193   4.540  1.00 20.00     0.128 A 
HETATM    2  C2  UNL     1     -40.857  13.293   4.804  1.00 20.00     0.089 A 
HETATM    3  C3  UNL     1     -39.803  11.745   6.019  1.00 20.00     0.089 A 
HETATM    4  C4  UNL     1     -40.557  13.859   7.328  1.00 20.00     0.085 C 
HETATM    5  C5  UNL     1     -42.190  12.362   6.837  1.00 20.00     0.085 C 
HETATM    6  C6  UNL     1     -40.857  12.816   6.258  1.00 20.00    -0.011 A 
HETATM    7  O7  UNL     1     -39.205  11.824   3.551  1.00 20.00    -0.298 OA
HETATM    8  S8  UNL     1     -42.354  13.989   7.663  1.00 20.00    -0.167 SA
ENDROOT
TORSDOF 0
ENDMDL
MODEL 6
REMARK VINA RESULT:      -3.3     14.117     14.849
REMARK  0 active torsions:
REMARK  status: ('A' for Active; 'I' for Inactive)
ROOT
HETATM    1  C1  UNL     1     -32.297  18.429   0.772  1.00 20.00     0.128 A 
HETATM    2  C2  UNL     1     -31.754  18.449  -0.676  1.00 20.00     0.089 A 
HETATM    3  C3  UNL     1     -33.746  18.180   0.295  1.00 20.00     0.089 A 
HETATM    4  C4  UNL     1     -33.807  19.165  -2.107  1.00 20.00     0.085 C 
HETATM    5  C5  UNL     1     -33.434  16.932  -1.961  1.00 20.00     0.085 C 
HETATM    6  C6  UNL     1     -33.193  18.179  -1.122  1.00 20.00    -0.011 A 
HETATM    7  O7  UNL     1     -31.782  18.559   1.863  1.00 20.00    -0.298 OA
HETATM    8  S8  UNL     1     -33.461  17.982  -3.463  1.00 20.00    -0.167 SA
ENDROOT
TORSDOF 0
ENDMDL
MODEL 7
REMARK VINA RESULT:      -3.2     23.560     24.275
REMARK  0 active torsions:
REMARK  status: ('A' for Active; 'I' for Inactive)
ROOT
HETATM    1  C1  UNL     1     -41.163   7.682   0.123  1.00 20.00     0.128 A 
HETATM    2  C2  UNL     1     -42.363   7.139   0.931  1.00 20.00     0.089 A 
HETATM    3  C3  UNL     1     -40.789   6.274  -0.395  1.00 20.00     0.089 A 
HETATM    4  C4  UNL     1     -41.729   4.660   1.410  1.00 20.00     0.085 C 
HETATM    5  C5  UNL     1     -43.058   5.010  -0.396  1.00 20.00     0.085 C 
HETATM    6  C6  UNL     1     -41.988   5.759   0.387  1.00 20.00    -0.011 A 
HETATM    7  O7  UNL     1     -40.694   8.789  -0.042  1.00 20.00    -0.298 OA
HETATM    8  S8  UNL     1     -43.416   4.014   1.100  1.00 20.00    -0.167 SA
ENDROOT
TORSDOF 0
ENDMDL
MODEL 8
REMARK VINA RESULT:      -3.1     18.198     18.735
REMARK  0 active torsions:
REMARK  status: ('A' for Active; 'I' for Inactive)
ROOT
HETATM    1  C1  UNL     1     -39.710  12.161   4.854  1.00 20.00     0.128 A 
HETATM    2  C2  UNL     1     -39.764  12.153   6.399  1.00 20.00     0.089 A 
HETATM    3  C3  UNL     1     -40.857  13.192   4.753  1.00 20.00     0.089 A 
HETATM    4  C4  UNL     1     -42.209  12.860   6.946  1.00 20.00     0.085 C 
HETATM    5  C5  UNL     1     -40.669  14.526   6.974  1.00 20.00     0.085 C 
HETATM    6  C6  UNL     1     -40.882  13.190   6.274  1.00 20.00    -0.011 A 
HETATM    7  O7  UNL     1     -39.028  11.581   4.035  1.00 20.00    -0.298 OA
HETATM    8  S8  UNL     1     -41.739  13.947   8.344  1.00 20.00    -0.167 SA
ENDROOT
TORSDOF 0
ENDMDL
MODEL 9
REMARK VINA RESULT:      -3.1     15.503     16.171
REMARK  0 active torsions:
REMARK  status: ('A' for Active; 'I' for Inactive)
ROOT
HETATM    1  C1  UNL     1     -32.908   8.332   3.605  1.00 20.00     0.128 A 
HETATM    2  C2  UNL     1     -32.808   6.813   3.880  1.00 20.00     0.089 A 
HETATM    3  C3  UNL     1     -34.025   8.516   4.656  1.00 20.00     0.089 A 
HETATM    4  C4  UNL     1     -35.162   6.184   4.796  1.00 20.00     0.085 C 
HETATM    5  C5  UNL     1     -33.573   6.607   6.359  1.00 20.00     0.085 C 
HETATM    6  C6  UNL     1     -33.899   7.024   4.931  1.00 20.00    -0.011 A 
HETATM    7  O7  UNL     1     -32.330   9.088   2.852  1.00 20.00    -0.298 OA
HETATM    8  S8  UNL     1     -34.519   5.061   6.093  1.00 20.00    -0.167 SA
ENDROOT
TORSDOF 0
ENDMDL
