MODEL 1
REMARK VINA RESULT:      -4.3      0.000      0.000
REMARK  0 active torsions:
REMARK  status: ('A' for Active; 'I' for Inactive)
ROOT
HETATM    1  C1  UNL     1     -34.284   5.301   6.338  1.00 20.00    -0.028 C 
HETATM    2  C2  UNL     1     -33.835   6.559   6.420  1.00 20.00    -0.014 C 
HETATM    3  C3  UNL     1     -35.015   5.064   5.050  1.00 20.00     0.043 C 
HETATM    4  C4  UNL     1     -31.784   7.875   3.978  1.00 20.00     0.084 C 
HETATM    5  C5  UNL     1     -32.271   7.138   2.747  1.00 20.00     0.084 C 
HETATM    6  C6  UNL     1     -34.244   7.338   5.208  1.00 20.00     0.083 C 
HETATM    7  C7  UNL     1     -34.517   6.232   4.170  1.00 20.00     0.068 C 
HETATM    8  S8  UNL     1     -33.141   8.717   4.827  1.00 20.00    -0.158 SA
HETATM    9  S9  UNL     1     -33.092   5.593   3.197  1.00 20.00    -0.162 SA
ENDROOT
TORSDOF 0
ENDMDL
MODEL 2
REMARK VINA RESULT:      -3.2     12.671     14.014
REMARK  0 active torsions:
REMARK  status: ('A' for Active; 'I' for Inactive)
ROOT
HETATM    1  C1  UNL     1     -33.399  16.303  -2.950  1.00 20.00    -0.028 C 
HETATM    2  C2  UNL     1     -33.819  15.361  -3.802  1.00 20.00    -0.014 C 
HETATM    3  C3  UNL     1     -33.339  17.649  -3.610  1.00 20.00     0.043 C 
HETATM    4  C4  UNL     1     -36.830  15.675  -5.456  1.00 20.00     0.084 C 
HETATM    5  C5  UNL     1     -36.936  17.180  -5.605  1.00 20.00     0.084 C 
HETATM    6  C6  UNL     1     -34.058  15.953  -5.158  1.00 20.00     0.083 C 
HETATM    7  C7  UNL     1     -34.245  17.450  -4.845  1.00 20.00     0.068 C 
HETATM    8  S8  UNL     1     -35.276  15.049  -6.138  1.00 20.00    -0.158 SA
HETATM    9  S9  UNL     1     -35.926  18.027  -4.370  1.00 20.00    -0.162 SA
ENDROOT
TORSDOF 0
ENDMDL
MODEL 3
REMARK VINA RESULT:      -3.1     12.193     13.658
REMARK  0 active torsions:
REMARK  status: ('A' for Active; 'I' for Inactive)
ROOT
HETATM    1  C1  UNL     1     -33.873  17.904  -1.531  1.00 20.00    -0.028 C 
HETATM    2  C2  UNL     1     -33.670  16.645  -1.936  1.00 20.00    -0.014 C 
HETATM    3  C3  UNL     1     -33.380  18.891  -2.548  1.00 20.00     0.043 C 
HETATM    4  C4  UNL     1     -34.925  15.522  -4.947  1.00 20.00     0.084 C 
HETATM    5  C5  UNL     1     -34.883  16.786  -5.781  1.00 20.00     0.084 C 
HETATM    6  C6  UNL     1     -32.977  16.629  -3.264  1.00 20.00     0.083 C 
HETATM    7  C7  UNL     1     -33.293  18.029  -3.827  1.00 20.00     0.068 C 
HETATM    8  S8  UNL     1     -33.306  15.142  -4.236  1.00 20.00    -0.158 SA
HETATM    9  S9  UNL     1     -34.878  18.256  -4.731  1.00 20.00    -0.162 SA
ENDROOT
TORSDOF 0
ENDMDL
MODEL 4
REMARK VINA RESULT:      -3.1     12.827     14.186
REMARK  0 active torsions:
REMARK  status: ('A' for Active; 'I' for Inactive)
ROOT
HETATM    1  C1  UNL     1     -33.182  15.851  -3.600  1.00 20.00    -0.028 C 
HETATM    2  C2  UNL     1     -33.701  17.055  -3.862  1.00 20.00    -0.014 C 
HETATM    3  C3  UNL     1     -34.044  14.753  -4.150  1.00 20.00     0.043 C 
HETATM    4  C4  UNL     1     -34.409  18.020  -7.098  1.00 20.00     0.084 C 
HETATM    5  C5  UNL     1     -34.768  16.692  -7.736  1.00 20.00     0.084 C 
HETATM    6  C6  UNL     1     -35.001  16.916  -4.591  1.00 20.00     0.083 C 
HETATM    7  C7  UNL     1     -34.901  15.502  -5.195  1.00 20.00     0.068 C 
HETATM    8  S8  UNL     1     -35.409  18.340  -5.626  1.00 20.00    -0.158 SA
HETATM    9  S9  UNL     1     -34.049  15.315  -6.814  1.00 20.00    -0.162 SA
ENDROOT
TORSDOF 0
ENDMDL
MODEL 5
REMARK VINA RESULT:      -2.9     12.409     13.639
REMARK  0 active torsions:
REMARK  status: ('A' for Active; 'I' for Inactive)
ROOT
HETATM    1  C1  UNL     1     -34.421  14.785  -4.554  1.00 20.00    -0.028 C 
HETATM    2  C2  UNL     1     -35.128  15.841  -4.971  1.00 20.00    -0.014 C 
HETATM    3  C3  UNL     1     -33.046  15.189  -4.110  1.00 20.00     0.043 C 
HETATM    4  C4  UNL     1     -35.624  18.570  -2.919  1.00 20.00     0.084 C 
HETATM    5  C5  UNL     1     -34.347  18.568  -2.103  1.00 20.00     0.084 C 
HETATM    6  C6  UNL     1     -34.301  17.087  -4.895  1.00 20.00     0.083 C 
HETATM    7  C7  UNL     1     -33.211  16.707  -3.874  1.00 20.00     0.068 C 
HETATM    8  S8  UNL     1     -35.276  18.594  -4.694  1.00 20.00    -0.158 SA
HETATM    9  S9  UNL     1     -33.589  16.928  -2.087  1.00 20.00    -0.162 SA
ENDROOT
TORSDOF 0
ENDMDL
MODEL 6
REMARK VINA RESULT:      -2.9     12.609     14.309
REMARK  0 active torsions:
REMARK  status: ('A' for Active; 'I' for Inactive)
ROOT
HETATM    1  C1  UNL     1     -34.449  16.119  -7.712  1.00 20.00    -0.028 C 
HETATM    2  C2  UNL     1     -34.034  15.183  -6.850  1.00 20.00    -0.014 C 
HETATM    3  C3  UNL     1     -35.609  16.894  -7.159  1.00 20.00     0.043 C 
HETATM    4  C4  UNL     1     -33.096  16.018  -3.636  1.00 20.00     0.084 C 
HETATM    5  C5  UNL     1     -33.996  17.205  -3.359  1.00 20.00     0.084 C 
HETATM    6  C6  UNL     1     -34.891  15.187  -5.622  1.00 20.00     0.083 C 
HETATM    7  C7  UNL     1     -35.510  16.598  -5.646  1.00 20.00     0.068 C 
HETATM    8  S8  UNL     1     -34.049  14.568  -4.148  1.00 20.00    -0.158 SA
HETATM    9  S9  UNL     1     -34.546  17.975  -4.898  1.00 20.00    -0.162 SA
ENDROOT
TORSDOF 0
ENDMDL
MODEL 7
REMARK VINA RESULT:      -2.9     12.574     14.072
REMARK  0 active torsions:
REMARK  status: ('A' for Active; 'I' for Inactive)
ROOT
HETATM    1  C1  UNL     1     -35.477  13.981  -4.560  1.00 20.00    -0.028 C 
HETATM    2  C2  UNL     1     -35.806  14.444  -5.771  1.00 20.00    -0.014 C 
HETATM    3  C3  UNL     1     -34.087  14.396  -4.176  1.00 20.00     0.043 C 
HETATM    4  C4  UNL     1     -35.656  17.816  -6.487  1.00 20.00     0.084 C 
HETATM    5  C5  UNL     1     -34.511  18.261  -5.601  1.00 20.00     0.084 C 
HETATM    6  C6  UNL     1     -34.660  15.199  -6.371  1.00 20.00     0.083 C 
HETATM    7  C7  UNL     1     -33.821  15.577  -5.136  1.00 20.00     0.068 C 
HETATM    8  S8  UNL     1     -35.165  16.452  -7.570  1.00 20.00    -0.158 SA
HETATM    9  S9  UNL     1     -34.270  17.112  -4.227  1.00 20.00    -0.162 SA
ENDROOT
TORSDOF 0
ENDMDL
MODEL 8
REMARK VINA RESULT:      -2.9     12.561     13.846
REMARK  0 active torsions:
REMARK  status: ('A' for Active; 'I' for Inactive)
ROOT
HETATM    1  C1  UNL     1     -36.831  15.582  -5.791  1.00 20.00    -0.028 C 
HETATM    2  C2  UNL     1     -36.468  16.811  -5.405  1.00 20.00    -0.014 C 
HETATM    3  C3  UNL     1     -35.671  14.826  -6.367  1.00 20.00     0.043 C 
HETATM    4  C4  UNL     1     -33.896  17.280  -3.154  1.00 20.00     0.084 C 
HETATM    5  C5  UNL     1     -32.998  16.101  -3.474  1.00 20.00     0.084 C 
HETATM    6  C6  UNL     1     -35.021  17.048  -5.710  1.00 20.00     0.083 C 
HETATM    7  C7  UNL     1     -34.461  15.617  -5.823  1.00 20.00     0.068 C 
HETATM    8  S8  UNL     1     -34.243  18.268  -4.629  1.00 20.00    -0.158 SA
HETATM    9  S9  UNL     1     -33.928  14.776  -4.276  1.00 20.00    -0.162 SA
ENDROOT
TORSDOF 0
ENDMDL
MODEL 9
REMARK VINA RESULT:      -2.8     11.905     13.178
REMARK  0 active torsions:
REMARK  status: ('A' for Active; 'I' for Inactive)
ROOT
HETATM    1  C1  UNL     1     -26.885  -0.334  11.539  1.00 20.00    -0.028 C 
HETATM    2  C2  UNL     1     -26.061  -1.379  11.680  1.00 20.00    -0.014 C 
HETATM    3  C3  UNL     1     -27.736  -0.472  10.311  1.00 20.00     0.043 C 
HETATM    4  C4  UNL     1     -27.285  -4.602  11.806  1.00 20.00     0.084 C 
HETATM    5  C5  UNL     1     -28.507  -4.494  10.917  1.00 20.00     0.084 C 
HETATM    6  C6  UNL     1     -26.230  -2.335  10.541  1.00 20.00     0.083 C 
HETATM    7  C7  UNL     1     -27.633  -1.984  10.009  1.00 20.00     0.068 C 
HETATM    8  S8  UNL     1     -25.793  -4.039  10.952  1.00 20.00    -0.158 SA
HETATM    9  S9  UNL     1     -29.083  -2.785  10.810  1.00 20.00    -0.162 SA
ENDROOT
TORSDOF 0
ENDMDL
