MODEL 1
REMARK VINA RESULT:      -4.4      0.000      0.000
REMARK  2 active torsions:
REMARK  status: ('A' for Active; 'I' for Inactive)
REMARK    1  A    between atoms: C4_4  and  C8_8 
REMARK    2  A    between atoms: C9_9  and  O11_11 
ROOT
HETATM    1  C1  UNL     1     -33.623   7.357   4.783  1.00 20.00    -0.079 C 
HETATM    2  C2  UNL     1     -33.256   8.126   5.819  1.00 20.00     0.015 C 
HETATM    3  C5  UNL     1     -34.999   6.745   4.695  1.00 20.00     0.065 C 
HETATM    4  C6  UNL     1     -33.102   5.719   2.923  1.00 20.00     0.016 C 
HETATM    5  C7  UNL     1     -33.672   4.688   3.894  1.00 20.00     0.033 C 
HETATM    6  C8  UNL     1     -32.663   6.997   3.665  1.00 20.00     0.041 C 
HETATM    7  C9  UNL     1     -34.923   5.213   4.612  1.00 20.00     0.122 C 
ENDROOT
BRANCH   6   8
HETATM    8  C4  UNL     1     -32.487   8.130   2.698  1.00 20.00    -0.085 C 
HETATM    9  C3  UNL     1     -32.681   9.406   3.059  1.00 20.00     0.014 C 
HETATM   10  C10 UNL     1     -32.079   7.752   1.305  1.00 20.00     0.043 C 
ENDBRANCH   6   8
BRANCH   7  11
HETATM   11  O11 UNL     1     -34.949   4.650   5.923  1.00 20.00    -0.395 OA
HETATM   12  H27 UNL     1     -35.490   5.243   6.468  1.00 20.00     0.210 HD
ENDBRANCH   7  11
TORSDOF 2
ENDMDL
MODEL 2
REMARK VINA RESULT:      -4.4     11.855     13.176
REMARK  2 active torsions:
REMARK  status: ('A' for Active; 'I' for Inactive)
REMARK    1  A    between atoms: C4_4  and  C8_8 
REMARK    2  A    between atoms: C9_9  and  O11_11 
ROOT
HETATM    1  C1  UNL     1     -34.920  17.077  -4.714  1.00 20.00    -0.079 C 
HETATM    2  C2  UNL     1     -36.091  17.718  -4.584  1.00 20.00     0.015 C 
HETATM    3  C5  UNL     1     -34.456  16.529  -6.041  1.00 20.00     0.065 C 
HETATM    4  C6  UNL     1     -33.054  15.627  -3.802  1.00 20.00     0.016 C 
HETATM    5  C7  UNL     1     -33.751  14.522  -4.591  1.00 20.00     0.033 C 
HETATM    6  C8  UNL     1     -34.014  16.803  -3.529  1.00 20.00     0.041 C 
HETATM    7  C9  UNL     1     -34.222  15.013  -5.967  1.00 20.00     0.122 C 
ENDROOT
BRANCH   6   8
HETATM    8  C4  UNL     1     -33.245  18.024  -3.123  1.00 20.00    -0.085 C 
HETATM    9  C3  UNL     1     -32.981  19.015  -3.987  1.00 20.00     0.014 C 
HETATM   10  C10 UNL     1     -32.788  18.074  -1.695  1.00 20.00     0.043 C 
ENDBRANCH   6   8
BRANCH   7  11
HETATM   11  O11 UNL     1     -35.423  14.316  -6.297  1.00 20.00    -0.395 OA
HETATM   12  H27 UNL     1     -36.110  14.647  -5.697  1.00 20.00     0.210 HD
ENDBRANCH   7  11
TORSDOF 2
ENDMDL
MODEL 3
REMARK VINA RESULT:      -4.2     12.150     13.224
REMARK  2 active torsions:
REMARK  status: ('A' for Active; 'I' for Inactive)
REMARK    1  A    between atoms: C4_4  and  C8_8 
REMARK    2  A    between atoms: C9_9  and  O11_11 
ROOT
HETATM    1  C1  UNL     1     -34.758  18.477  -2.625  1.00 20.00    -0.079 C 
HETATM    2  C2  UNL     1     -35.856  19.103  -2.173  1.00 20.00     0.015 C 
HETATM    3  C5  UNL     1     -34.231  18.703  -4.019  1.00 20.00     0.065 C 
HETATM    4  C6  UNL     1     -33.170  16.504  -2.666  1.00 20.00     0.016 C 
HETATM    5  C7  UNL     1     -33.907  16.149  -3.955  1.00 20.00     0.033 C 
HETATM    6  C8  UNL     1     -34.012  17.453  -1.790  1.00 20.00     0.041 C 
HETATM    7  C9  UNL     1     -34.180  17.391  -4.816  1.00 20.00     0.122 C 
ENDROOT
BRANCH   6   8
HETATM    8  C4  UNL     1     -33.152  18.106  -0.749  1.00 20.00    -0.085 C 
HETATM    9  C3  UNL     1     -31.920  18.555  -1.027  1.00 20.00     0.014 C 
HETATM   10  C10 UNL     1     -33.751  18.229   0.621  1.00 20.00     0.043 C 
ENDBRANCH   6   8
BRANCH   7  11
HETATM   11  O11 UNL     1     -35.413  17.188  -5.504  1.00 20.00    -0.395 OA
HETATM   12  H27 UNL     1     -36.120  17.365  -4.864  1.00 20.00     0.210 HD
ENDBRANCH   7  11
TORSDOF 2
ENDMDL
MODEL 4
REMARK VINA RESULT:      -4.2     11.415     13.225
REMARK  2 active torsions:
REMARK  status: ('A' for Active; 'I' for Inactive)
REMARK    1  A    between atoms: C4_4  and  C8_8 
REMARK    2  A    between atoms: C9_9  and  O11_11 
ROOT
HETATM    1  C1  UNL     1     -34.673  14.920  -4.801  1.00 20.00    -0.079 C 
HETATM    2  C2  UNL     1     -35.413  13.839  -4.511  1.00 20.00     0.015 C 
HETATM    3  C5  UNL     1     -33.322  15.150  -4.173  1.00 20.00     0.065 C 
HETATM    4  C6  UNL     1     -34.438  17.348  -5.482  1.00 20.00     0.016 C 
HETATM    5  C7  UNL     1     -34.186  17.570  -3.993  1.00 20.00     0.033 C 
HETATM    6  C8  UNL     1     -35.171  16.014  -5.727  1.00 20.00     0.041 C 
HETATM    7  C9  UNL     1     -33.286  16.477  -3.399  1.00 20.00     0.122 C 
ENDROOT
BRANCH   6   8
HETATM    8  C4  UNL     1     -35.061  15.613  -7.169  1.00 20.00    -0.085 C 
HETATM    9  C3  UNL     1     -36.143  15.359  -7.918  1.00 20.00     0.014 C 
HETATM   10  C10 UNL     1     -33.670  15.513  -7.723  1.00 20.00     0.043 C 
ENDBRANCH   6   8
BRANCH   7  11
HETATM   11  O11 UNL     1     -33.684  16.265  -2.045  1.00 20.00    -0.395 OA
HETATM   12  H27 UNL     1     -33.490  17.087  -1.567  1.00 20.00     0.210 HD
ENDBRANCH   7  11
TORSDOF 2
ENDMDL
MODEL 5
REMARK VINA RESULT:      -4.2     11.633     12.806
REMARK  2 active torsions:
REMARK  status: ('A' for Active; 'I' for Inactive)
REMARK    1  A    between atoms: C4_4  and  C8_8 
REMARK    2  A    between atoms: C9_9  and  O11_11 
ROOT
HETATM    1  C1  UNL     1     -33.781  15.221  -4.400  1.00 20.00    -0.079 C 
HETATM    2  C2  UNL     1     -32.594  14.612  -4.544  1.00 20.00     0.015 C 
HETATM    3  C5  UNL     1     -35.069  14.441  -4.305  1.00 20.00     0.065 C 
HETATM    4  C6  UNL     1     -35.344  17.182  -4.761  1.00 20.00     0.016 C 
HETATM    5  C7  UNL     1     -35.925  16.302  -5.866  1.00 20.00     0.033 C 
HETATM    6  C8  UNL     1     -33.917  16.732  -4.388  1.00 20.00     0.041 C 
HETATM    7  C9  UNL     1     -36.044  14.837  -5.424  1.00 20.00     0.122 C 
ENDROOT
BRANCH   6   8
HETATM    8  C4  UNL     1     -33.512  17.315  -3.067  1.00 20.00    -0.085 C 
HETATM    9  C3  UNL     1     -33.668  16.643  -1.918  1.00 20.00     0.014 C 
HETATM   10  C10 UNL     1     -32.923  18.694  -3.106  1.00 20.00     0.043 C 
ENDBRANCH   6   8
BRANCH   7  11
HETATM   11  O11 UNL     1     -35.834  14.013  -6.570  1.00 20.00    -0.395 OA
HETATM   12  H27 UNL     1     -34.925  14.178  -6.868  1.00 20.00     0.210 HD
ENDBRANCH   7  11
TORSDOF 2
ENDMDL
MODEL 6
REMARK VINA RESULT:      -4.1      2.244      3.787
REMARK  2 active torsions:
REMARK  status: ('A' for Active; 'I' for Inactive)
REMARK    1  A    between atoms: C4_4  and  C8_8 
REMARK    2  A    between atoms: C9_9  and  O11_11 
ROOT
HETATM    1  C1  UNL     1     -33.361   7.868   4.363  1.00 20.00    -0.079 C 
HETATM    2  C2  UNL     1     -33.862   9.088   4.608  1.00 20.00     0.015 C 
HETATM    3  C5  UNL     1     -31.959   7.673   3.845  1.00 20.00     0.065 C 
HETATM    4  C6  UNL     1     -33.624   5.438   3.698  1.00 20.00     0.016 C 
HETATM    5  C7  UNL     1     -33.109   5.924   2.346  1.00 20.00     0.033 C 
HETATM    6  C8  UNL     1     -34.190   6.608   4.529  1.00 20.00     0.041 C 
HETATM    7  C9  UNL     1     -31.959   6.928   2.502  1.00 20.00     0.122 C 
ENDROOT
BRANCH   6   8
HETATM    8  C4  UNL     1     -34.318   6.213   5.970  1.00 20.00    -0.085 C 
HETATM    9  C3  UNL     1     -34.252   7.114   6.960  1.00 20.00     0.014 C 
HETATM   10  C10 UNL     1     -34.526   4.751   6.239  1.00 20.00     0.043 C 
ENDBRANCH   6   8
BRANCH   7  11
HETATM   11  O11 UNL     1     -32.039   7.862   1.425  1.00 20.00    -0.395 OA
HETATM   12  H27 UNL     1     -31.220   7.766   0.914  1.00 20.00     0.210 HD
ENDBRANCH   7  11
TORSDOF 2
ENDMDL
MODEL 7
REMARK VINA RESULT:      -4.1     12.245     13.867
REMARK  2 active torsions:
REMARK  status: ('A' for Active; 'I' for Inactive)
REMARK    1  A    between atoms: C4_4  and  C8_8 
REMARK    2  A    between atoms: C9_9  and  O11_11 
ROOT
HETATM    1  C1  UNL     1     -34.195  16.333  -4.328  1.00 20.00    -0.079 C 
HETATM    2  C2  UNL     1     -33.307  16.152  -3.339  1.00 20.00     0.015 C 
HETATM    3  C5  UNL     1     -34.755  15.176  -5.116  1.00 20.00     0.065 C 
HETATM    4  C6  UNL     1     -35.200  17.708  -6.203  1.00 20.00     0.016 C 
HETATM    5  C7  UNL     1     -34.387  16.777  -7.099  1.00 20.00     0.033 C 
HETATM    6  C8  UNL     1     -34.647  17.715  -4.764  1.00 20.00     0.041 C 
HETATM    7  C9  UNL     1     -34.449  15.322  -6.614  1.00 20.00     0.122 C 
ENDROOT
BRANCH   6   8
HETATM    8  C4  UNL     1     -35.657  18.293  -3.817  1.00 20.00    -0.085 C 
HETATM    9  C3  UNL     1     -35.293  18.935  -2.698  1.00 20.00     0.014 C 
HETATM   10  C10 UNL     1     -37.097  18.111  -4.195  1.00 20.00     0.043 C 
ENDBRANCH   6   8
BRANCH   7  11
HETATM   11  O11 UNL     1     -33.202  14.701  -6.922  1.00 20.00    -0.395 OA
HETATM   12  H27 UNL     1     -32.916  15.062  -7.776  1.00 20.00     0.210 HD
ENDBRANCH   7  11
TORSDOF 2
ENDMDL
MODEL 8
REMARK VINA RESULT:      -4.0     12.056     13.410
REMARK  2 active torsions:
REMARK  status: ('A' for Active; 'I' for Inactive)
REMARK    1  A    between atoms: C4_4  and  C8_8 
REMARK    2  A    between atoms: C9_9  and  O11_11 
ROOT
HETATM    1  C1  UNL     1     -27.641  -1.623  10.567  1.00 20.00    -0.079 C 
HETATM    2  C2  UNL     1     -27.622  -0.327  10.223  1.00 20.00     0.015 C 
HETATM    3  C5  UNL     1     -28.578  -2.606   9.912  1.00 20.00     0.065 C 
HETATM    4  C6  UNL     1     -27.337  -3.492  12.250  1.00 20.00     0.016 C 
HETATM    5  C7  UNL     1     -28.861  -3.444  12.330  1.00 20.00     0.033 C 
HETATM    6  C8  UNL     1     -26.771  -2.176  11.680  1.00 20.00     0.041 C 
HETATM    7  C9  UNL     1     -29.499  -3.272  10.945  1.00 20.00     0.122 C 
ENDROOT
BRANCH   6   8
HETATM    8  C4  UNL     1     -25.352  -2.366  11.233  1.00 20.00    -0.085 C 
HETATM    9  C3  UNL     1     -25.023  -3.239  10.271  1.00 20.00     0.014 C 
HETATM   10  C10 UNL     1     -24.323  -1.521  11.925  1.00 20.00     0.043 C 
ENDBRANCH   6   8
BRANCH   7  11
HETATM   11  O11 UNL     1     -30.693  -2.507  11.101  1.00 20.00    -0.395 OA
HETATM   12  H27 UNL     1     -30.418  -1.582  11.205  1.00 20.00     0.210 HD
ENDBRANCH   7  11
TORSDOF 2
ENDMDL
MODEL 9
REMARK VINA RESULT:      -3.9     11.787     13.450
REMARK  2 active torsions:
REMARK  status: ('A' for Active; 'I' for Inactive)
REMARK    1  A    between atoms: C4_4  and  C8_8 
REMARK    2  A    between atoms: C9_9  and  O11_11 
ROOT
HETATM    1  C1  UNL     1     -33.806  17.474  -3.952  1.00 20.00    -0.079 C 
HETATM    2  C2  UNL     1     -32.983  18.521  -3.785  1.00 20.00     0.015 C 
HETATM    3  C5  UNL     1     -33.606  16.179  -3.206  1.00 20.00     0.065 C 
HETATM    4  C6  UNL     1     -35.385  16.076  -5.355  1.00 20.00     0.016 C 
HETATM    5  C7  UNL     1     -34.176  15.154  -5.499  1.00 20.00     0.033 C 
HETATM    6  C8  UNL     1     -34.951  17.498  -4.947  1.00 20.00     0.041 C 
HETATM    7  C9  UNL     1     -33.415  15.002  -4.174  1.00 20.00     0.122 C 
ENDROOT
BRANCH   6   8
HETATM    8  C4  UNL     1     -36.123  18.275  -4.425  1.00 20.00    -0.085 C 
HETATM    9  C3  UNL     1     -36.282  18.526  -3.118  1.00 20.00     0.014 C 
HETATM   10  C10 UNL     1     -37.108  18.754  -5.451  1.00 20.00     0.043 C 
ENDBRANCH   6   8
BRANCH   7  11
HETATM   11  O11 UNL     1     -32.031  14.837  -4.478  1.00 20.00    -0.395 OA
HETATM   12  H27 UNL     1     -31.579  14.678  -3.634  1.00 20.00     0.210 HD
ENDBRANCH   7  11
TORSDOF 2
ENDMDL
