MODEL 1
REMARK VINA RESULT:      -4.8      0.000      0.000
REMARK  0 active torsions:
REMARK  status: ('A' for Active; 'I' for Inactive)
ROOT
HETATM    1  C1  UNL     1     -33.710   7.221   4.579  1.00 20.00    -0.064 A 
HETATM    2  C2  UNL     1     -32.765   7.837   3.904  1.00 20.00    -0.084 C 
HETATM    3  C3  UNL     1     -34.404   4.899   6.594  1.00 20.00     0.002 C 
HETATM    4  C4  UNL     1     -33.978   6.333   6.947  1.00 20.00     0.010 C 
HETATM    5  C5  UNL     1     -34.295   4.804   5.064  1.00 20.00     0.014 C 
HETATM    6  C6  UNL     1     -34.439   7.153   5.780  1.00 20.00     0.028 A 
HETATM    7  C7  UNL     1     -34.672   6.183   4.580  1.00 20.00    -0.013 A 
HETATM    8  C8  UNL     1     -32.362   7.432   2.501  1.00 20.00     0.043 C 
HETATM    9  C9  UNL     1     -31.989   9.009   4.465  1.00 20.00     0.043 C 
HETATM   10  C10 UNL     1     -35.917   6.311   3.763  1.00 20.00     0.021 C 
ENDROOT
TORSDOF 0
ENDMDL
MODEL 2
REMARK VINA RESULT:      -4.7      1.189      1.639
REMARK  0 active torsions:
REMARK  status: ('A' for Active; 'I' for Inactive)
ROOT
HETATM    1  C1  UNL     1     -33.721   6.545   3.922  1.00 20.00    -0.064 A 
HETATM    2  C2  UNL     1     -32.866   6.252   2.967  1.00 20.00    -0.084 C 
HETATM    3  C3  UNL     1     -34.268   6.598   7.025  1.00 20.00     0.002 C 
HETATM    4  C4  UNL     1     -33.605   7.700   6.184  1.00 20.00     0.010 C 
HETATM    5  C5  UNL     1     -34.488   5.422   6.060  1.00 20.00     0.014 C 
HETATM    6  C6  UNL     1     -34.191   7.524   4.816  1.00 20.00     0.028 A 
HETATM    7  C7  UNL     1     -34.783   6.082   4.735  1.00 20.00    -0.013 A 
HETATM    8  C8  UNL     1     -32.813   4.893   2.302  1.00 20.00     0.043 C 
HETATM    9  C9  UNL     1     -31.852   7.247   2.443  1.00 20.00     0.043 C 
HETATM   10  C10 UNL     1     -36.144   5.881   4.151  1.00 20.00     0.021 C 
ENDROOT
TORSDOF 0
ENDMDL
MODEL 3
REMARK VINA RESULT:      -4.1      1.544      3.238
REMARK  0 active torsions:
REMARK  status: ('A' for Active; 'I' for Inactive)
ROOT
HETATM    1  C1  UNL     1     -32.581   7.898   2.648  1.00 20.00    -0.064 A 
HETATM    2  C2  UNL     1     -32.545   8.649   1.569  1.00 20.00    -0.084 C 
HETATM    3  C3  UNL     1     -34.224   5.800   4.330  1.00 20.00     0.002 C 
HETATM    4  C4  UNL     1     -33.244   5.502   3.184  1.00 20.00     0.010 C 
HETATM    5  C5  UNL     1     -34.327   7.332   4.394  1.00 20.00     0.014 C 
HETATM    6  C6  UNL     1     -32.278   6.647   3.217  1.00 20.00     0.028 A 
HETATM    7  C7  UNL     1     -32.948   7.812   4.012  1.00 20.00    -0.013 A 
HETATM    8  C8  UNL     1     -33.070  10.069   1.541  1.00 20.00     0.043 C 
HETATM    9  C9  UNL     1     -31.978   8.164   0.253  1.00 20.00     0.043 C 
HETATM   10  C10 UNL     1     -32.159   8.540   5.052  1.00 20.00     0.021 C 
ENDROOT
TORSDOF 0
ENDMDL
MODEL 4
REMARK VINA RESULT:      -3.9     12.054     13.727
REMARK  0 active torsions:
REMARK  status: ('A' for Active; 'I' for Inactive)
ROOT
HETATM    1  C1  UNL     1     -33.682  16.940  -3.671  1.00 20.00    -0.064 A 
HETATM    2  C2  UNL     1     -34.041  15.946  -4.454  1.00 20.00    -0.084 C 
HETATM    3  C3  UNL     1     -34.429  18.714  -1.176  1.00 20.00     0.002 C 
HETATM    4  C4  UNL     1     -33.671  17.378  -1.166  1.00 20.00     0.010 C 
HETATM    5  C5  UNL     1     -34.854  18.934  -2.637  1.00 20.00     0.014 C 
HETATM    6  C6  UNL     1     -32.997  17.325  -2.504  1.00 20.00     0.028 A 
HETATM    7  C7  UNL     1     -33.727  18.336  -3.443  1.00 20.00    -0.013 A 
HETATM    8  C8  UNL     1     -34.862  16.148  -5.710  1.00 20.00     0.043 C 
HETATM    9  C9  UNL     1     -33.669  14.506  -4.171  1.00 20.00     0.043 C 
HETATM   10  C10 UNL     1     -32.919  19.263  -4.293  1.00 20.00     0.021 C 
ENDROOT
TORSDOF 0
ENDMDL
MODEL 5
REMARK VINA RESULT:      -3.7      8.762      9.670
REMARK  0 active torsions:
REMARK  status: ('A' for Active; 'I' for Inactive)
ROOT
HETATM    1  C1  UNL     1     -40.207  13.052   5.911  1.00 20.00    -0.064 A 
HETATM    2  C2  UNL     1     -39.279  12.223   5.488  1.00 20.00    -0.084 C 
HETATM    3  C3  UNL     1     -42.524  13.558   7.987  1.00 20.00     0.002 C 
HETATM    4  C4  UNL     1     -41.031  13.871   8.173  1.00 20.00     0.010 C 
HETATM    5  C5  UNL     1     -42.626  12.834   6.634  1.00 20.00     0.014 C 
HETATM    6  C6  UNL     1     -40.527  14.110   6.782  1.00 20.00     0.028 A 
HETATM    7  C7  UNL     1     -41.552  13.476   5.790  1.00 20.00    -0.013 A 
HETATM    8  C8  UNL     1     -39.533  11.186   4.414  1.00 20.00     0.043 C 
HETATM    9  C9  UNL     1     -37.868  12.225   6.037  1.00 20.00     0.043 C 
HETATM   10  C10 UNL     1     -41.991  14.255   4.592  1.00 20.00     0.021 C 
ENDROOT
TORSDOF 0
ENDMDL
MODEL 6
REMARK VINA RESULT:      -3.7      9.338     10.532
REMARK  0 active torsions:
REMARK  status: ('A' for Active; 'I' for Inactive)
ROOT
HETATM    1  C1  UNL     1     -40.975  13.002   5.584  1.00 20.00    -0.064 A 
HETATM    2  C2  UNL     1     -39.831  12.374   5.424  1.00 20.00    -0.084 C 
HETATM    3  C3  UNL     1     -42.438  15.790   5.728  1.00 20.00     0.002 C 
HETATM    4  C4  UNL     1     -42.155  14.959   4.467  1.00 20.00     0.010 C 
HETATM    5  C5  UNL     1     -41.747  15.039   6.878  1.00 20.00     0.014 C 
HETATM    6  C6  UNL     1     -42.113  13.544   4.959  1.00 20.00     0.028 A 
HETATM    7  C7  UNL     1     -41.882  13.583   6.502  1.00 20.00    -0.013 A 
HETATM    8  C8  UNL     1     -38.925  12.013   6.583  1.00 20.00     0.043 C 
HETATM    9  C9  UNL     1     -39.311  11.954   4.066  1.00 20.00     0.043 C 
HETATM   10  C10 UNL     1     -42.713  12.715   7.391  1.00 20.00     0.021 C 
ENDROOT
TORSDOF 0
ENDMDL
MODEL 7
REMARK VINA RESULT:      -3.5     11.970     13.297
REMARK  0 active torsions:
REMARK  status: ('A' for Active; 'I' for Inactive)
ROOT
HETATM    1  C1  UNL     1     -34.021  16.493  -4.051  1.00 20.00    -0.064 A 
HETATM    2  C2  UNL     1     -33.950  17.401  -3.103  1.00 20.00    -0.084 C 
HETATM    3  C3  UNL     1     -35.846  14.409  -5.554  1.00 20.00     0.002 C 
HETATM    4  C4  UNL     1     -35.675  15.899  -5.889  1.00 20.00     0.010 C 
HETATM    5  C5  UNL     1     -35.043  14.184  -4.263  1.00 20.00     0.014 C 
HETATM    6  C6  UNL     1     -34.296  16.231  -5.406  1.00 20.00     0.028 A 
HETATM    7  C7  UNL     1     -33.871  15.126  -4.388  1.00 20.00    -0.013 A 
HETATM    8  C8  UNL     1     -33.559  17.069  -1.678  1.00 20.00     0.043 C 
HETATM    9  C9  UNL     1     -34.254  18.864  -3.345  1.00 20.00     0.043 C 
HETATM   10  C10 UNL     1     -32.508  14.522  -4.488  1.00 20.00     0.021 C 
ENDROOT
TORSDOF 0
ENDMDL
MODEL 8
REMARK VINA RESULT:      -3.5     12.363     14.279
REMARK  0 active torsions:
REMARK  status: ('A' for Active; 'I' for Inactive)
ROOT
HETATM    1  C1  UNL     1     -34.588  16.699  -4.729  1.00 20.00    -0.064 A 
HETATM    2  C2  UNL     1     -33.759  16.078  -3.919  1.00 20.00    -0.084 C 
HETATM    3  C3  UNL     1     -37.594  17.161  -5.554  1.00 20.00     0.002 C 
HETATM    4  C4  UNL     1     -36.801  17.927  -4.484  1.00 20.00     0.010 C 
HETATM    5  C5  UNL     1     -36.655  16.046  -6.041  1.00 20.00     0.014 C 
HETATM    6  C6  UNL     1     -35.379  17.842  -4.947  1.00 20.00     0.028 A 
HETATM    7  C7  UNL     1     -35.279  16.662  -5.964  1.00 20.00    -0.013 A 
HETATM    8  C8  UNL     1     -33.158  14.725  -4.241  1.00 20.00     0.043 C 
HETATM    9  C9  UNL     1     -33.328  16.655  -2.588  1.00 20.00     0.043 C 
HETATM   10  C10 UNL     1     -34.538  16.859  -7.246  1.00 20.00     0.021 C 
ENDROOT
TORSDOF 0
ENDMDL
MODEL 9
REMARK VINA RESULT:      -3.4     11.045     13.082
REMARK  0 active torsions:
REMARK  status: ('A' for Active; 'I' for Inactive)
ROOT
HETATM    1  C1  UNL     1     -27.921  -2.530  10.582  1.00 20.00    -0.064 A 
HETATM    2  C2  UNL     1     -29.018  -3.241  10.718  1.00 20.00    -0.084 C 
HETATM    3  C3  UNL     1     -25.130  -1.752  11.821  1.00 20.00     0.002 C 
HETATM    4  C4  UNL     1     -25.430  -2.939  10.892  1.00 20.00     0.010 C 
HETATM    5  C5  UNL     1     -26.493  -1.107  12.117  1.00 20.00     0.014 C 
HETATM    6  C6  UNL     1     -26.607  -2.485  10.082  1.00 20.00     0.028 A 
HETATM    7  C7  UNL     1     -27.276  -1.296  10.840  1.00 20.00    -0.013 A 
HETATM    8  C8  UNL     1     -30.252  -2.717  11.423  1.00 20.00     0.043 C 
HETATM    9  C9  UNL     1     -29.152  -4.651  10.185  1.00 20.00     0.043 C 
HETATM   10  C10 UNL     1     -27.667  -0.070  10.082  1.00 20.00     0.021 C 
ENDROOT
TORSDOF 0
ENDMDL
