MODEL 1
REMARK VINA RESULT:      -3.9      0.000      0.000
REMARK  0 active torsions:
REMARK  status: ('A' for Active; 'I' for Inactive)
ROOT
HETATM    1  C1  UNL     1     -34.157  16.029  -4.395  1.00 20.00    -0.081 C 
HETATM    2  C2  UNL     1     -33.858  14.737  -4.173  1.00 20.00     0.015 C 
HETATM    3  C3  UNL     1     -34.690  16.434  -5.755  1.00 20.00     0.034 C 
HETATM    4  C4  UNL     1     -36.038  17.136  -5.631  1.00 20.00     0.004 C 
HETATM    5  C5  UNL     1     -35.977  18.305  -4.655  1.00 20.00     0.001 C 
HETATM    6  C6  UNL     1     -32.320  18.720  -1.411  1.00 20.00     0.000 C 
HETATM    7  C7  UNL     1     -32.627  19.263  -2.801  1.00 20.00     0.001 C 
HETATM    8  C8  UNL     1     -33.409  17.775  -0.919  1.00 20.00     0.001 C 
HETATM    9  C9  UNL     1     -35.428  17.872  -3.293  1.00 20.00     0.014 C 
HETATM   10  C10 UNL     1     -32.915  18.144  -3.804  1.00 20.00     0.014 C 
HETATM   11  C11 UNL     1     -33.675  16.657  -1.928  1.00 20.00     0.014 C 
HETATM   12  C12 UNL     1     -34.039  17.166  -3.356  1.00 20.00    -0.018 C 
ENDROOT
TORSDOF 0
ENDMDL
MODEL 2
REMARK VINA RESULT:      -3.8      1.043      3.894
REMARK  0 active torsions:
REMARK  status: ('A' for Active; 'I' for Inactive)
ROOT
HETATM    1  C1  UNL     1     -33.750  16.574  -3.372  1.00 20.00    -0.081 C 
HETATM    2  C2  UNL     1     -33.517  15.335  -3.839  1.00 20.00     0.015 C 
HETATM    3  C3  UNL     1     -33.479  16.868  -1.910  1.00 20.00     0.034 C 
HETATM    4  C4  UNL     1     -32.501  18.028  -1.755  1.00 20.00     0.004 C 
HETATM    5  C5  UNL     1     -32.963  19.261  -2.523  1.00 20.00     0.001 C 
HETATM    6  C6  UNL     1     -36.342  18.929  -6.064  1.00 20.00     0.000 C 
HETATM    7  C7  UNL     1     -36.333  19.259  -4.577  1.00 20.00     0.001 C 
HETATM    8  C8  UNL     1     -34.951  18.573  -6.573  1.00 20.00     0.001 C 
HETATM    9  C9  UNL     1     -33.238  18.935  -3.994  1.00 20.00     0.014 C 
HETATM   10  C10 UNL     1     -35.682  18.151  -3.747  1.00 20.00     0.014 C 
HETATM   11  C11 UNL     1     -34.322  17.456  -5.740  1.00 20.00     0.014 C 
HETATM   12  C12 UNL     1     -34.249  17.768  -4.214  1.00 20.00    -0.018 C 
ENDROOT
TORSDOF 0
ENDMDL
MODEL 3
REMARK VINA RESULT:      -3.7      1.649      2.886
REMARK  0 active torsions:
REMARK  status: ('A' for Active; 'I' for Inactive)
ROOT
HETATM    1  C1  UNL     1     -34.589  16.179  -7.194  1.00 20.00    -0.081 C 
HETATM    2  C2  UNL     1     -33.666  15.521  -7.918  1.00 20.00     0.015 C 
HETATM    3  C3  UNL     1     -35.632  17.009  -7.917  1.00 20.00     0.034 C 
HETATM    4  C4  UNL     1     -37.042  16.567  -7.542  1.00 20.00     0.004 C 
HETATM    5  C5  UNL     1     -37.247  16.557  -6.032  1.00 20.00     0.001 C 
HETATM    6  C6  UNL     1     -33.430  16.575  -2.949  1.00 20.00     0.000 C 
HETATM    7  C7  UNL     1     -34.360  17.617  -3.558  1.00 20.00     0.001 C 
HETATM    8  C8  UNL     1     -33.741  15.173  -3.458  1.00 20.00     0.001 C 
HETATM    9  C9  UNL     1     -36.178  15.720  -5.325  1.00 20.00     0.014 C 
HETATM   10  C10 UNL     1     -34.376  17.549  -5.087  1.00 20.00     0.014 C 
HETATM   11  C11 UNL     1     -33.741  15.122  -4.986  1.00 20.00     0.014 C 
HETATM   12  C12 UNL     1     -34.713  16.141  -5.655  1.00 20.00    -0.018 C 
ENDROOT
TORSDOF 0
ENDMDL
MODEL 4
REMARK VINA RESULT:      -3.7      1.217      2.676
REMARK  0 active torsions:
REMARK  status: ('A' for Active; 'I' for Inactive)
ROOT
HETATM    1  C1  UNL     1     -34.197  18.226  -4.442  1.00 20.00    -0.081 C 
HETATM    2  C2  UNL     1     -33.974  19.260  -5.272  1.00 20.00     0.015 C 
HETATM    3  C3  UNL     1     -35.104  17.101  -4.901  1.00 20.00     0.034 C 
HETATM    4  C4  UNL     1     -34.388  15.757  -4.839  1.00 20.00     0.004 C 
HETATM    5  C5  UNL     1     -33.790  15.500  -3.461  1.00 20.00     0.001 C 
HETATM    6  C6  UNL     1     -33.117  19.158  -0.261  1.00 20.00     0.000 C 
HETATM    7  C7  UNL     1     -34.191  18.110  -0.527  1.00 20.00     0.001 C 
HETATM    8  C8  UNL     1     -31.979  19.072  -1.271  1.00 20.00     0.001 C 
HETATM    9  C9  UNL     1     -32.885  16.653  -3.017  1.00 20.00     0.014 C 
HETATM   10  C10 UNL     1     -34.697  18.161  -1.970  1.00 20.00     0.014 C 
HETATM   11  C11 UNL     1     -32.503  19.137  -2.706  1.00 20.00     0.014 C 
HETATM   12  C12 UNL     1     -33.572  18.052  -3.040  1.00 20.00    -0.018 C 
ENDROOT
TORSDOF 0
ENDMDL
MODEL 5
REMARK VINA RESULT:      -3.5      1.319      4.506
REMARK  0 active torsions:
REMARK  status: ('A' for Active; 'I' for Inactive)
ROOT
HETATM    1  C1  UNL     1     -35.127  18.009  -3.647  1.00 20.00    -0.081 C 
HETATM    2  C2  UNL     1     -36.153  18.691  -3.109  1.00 20.00     0.015 C 
HETATM    3  C3  UNL     1     -33.780  18.045  -2.953  1.00 20.00     0.034 C 
HETATM    4  C4  UNL     1     -33.293  16.638  -2.626  1.00 20.00     0.004 C 
HETATM    5  C5  UNL     1     -33.292  15.740  -3.857  1.00 20.00     0.001 C 
HETATM    6  C6  UNL     1     -35.854  16.929  -7.869  1.00 20.00     0.000 C 
HETATM    7  C7  UNL     1     -34.417  17.095  -7.389  1.00 20.00     0.001 C 
HETATM    8  C8  UNL     1     -36.727  16.255  -6.818  1.00 20.00     0.001 C 
HETATM    9  C9  UNL     1     -34.661  15.727  -4.544  1.00 20.00     0.014 C 
HETATM   10  C10 UNL     1     -34.343  17.807  -6.036  1.00 20.00     0.014 C 
HETATM   11  C11 UNL     1     -36.650  16.986  -5.477  1.00 20.00     0.014 C 
HETATM   12  C12 UNL     1     -35.201  17.140  -4.922  1.00 20.00    -0.018 C 
ENDROOT
TORSDOF 0
ENDMDL
MODEL 6
REMARK VINA RESULT:      -3.5      1.669      3.990
REMARK  0 active torsions:
REMARK  status: ('A' for Active; 'I' for Inactive)
ROOT
HETATM    1  C1  UNL     1     -33.984  16.090  -4.282  1.00 20.00    -0.081 C 
HETATM    2  C2  UNL     1     -33.372  16.701  -3.253  1.00 20.00     0.015 C 
HETATM    3  C3  UNL     1     -33.831  14.590  -4.440  1.00 20.00     0.034 C 
HETATM    4  C4  UNL     1     -35.189  13.898  -4.467  1.00 20.00     0.004 C 
HETATM    5  C5  UNL     1     -36.111  14.505  -5.518  1.00 20.00     0.001 C 
HETATM    6  C6  UNL     1     -35.208  18.928  -7.439  1.00 20.00     0.000 C 
HETATM    7  C7  UNL     1     -34.922  17.482  -7.821  1.00 20.00     0.001 C 
HETATM    8  C8  UNL     1     -35.923  19.028  -6.098  1.00 20.00     0.001 C 
HETATM    9  C9  UNL     1     -36.243  16.021  -5.342  1.00 20.00     0.014 C 
HETATM   10  C10 UNL     1     -34.178  16.732  -6.714  1.00 20.00     0.014 C 
HETATM   11  C11 UNL     1     -35.160  18.284  -5.002  1.00 20.00     0.014 C 
HETATM   12  C12 UNL     1     -34.883  16.785  -5.329  1.00 20.00    -0.018 C 
ENDROOT
TORSDOF 0
ENDMDL
MODEL 7
REMARK VINA RESULT:      -3.4      1.341      2.990
REMARK  0 active torsions:
REMARK  status: ('A' for Active; 'I' for Inactive)
ROOT
HETATM    1  C1  UNL     1     -36.645  16.898  -5.505  1.00 20.00    -0.081 C 
HETATM    2  C2  UNL     1     -37.779  17.330  -4.928  1.00 20.00     0.015 C 
HETATM    3  C3  UNL     1     -36.725  16.205  -6.851  1.00 20.00     0.034 C 
HETATM    4  C4  UNL     1     -35.852  16.909  -7.884  1.00 20.00     0.004 C 
HETATM    5  C5  UNL     1     -34.418  17.070  -7.395  1.00 20.00     0.001 C 
HETATM    6  C6  UNL     1     -33.292  16.638  -2.639  1.00 20.00     0.000 C 
HETATM    7  C7  UNL     1     -33.289  15.726  -3.860  1.00 20.00     0.001 C 
HETATM    8  C8  UNL     1     -33.816  18.029  -2.973  1.00 20.00     0.001 C 
HETATM    9  C9  UNL     1     -34.364  17.764  -6.031  1.00 20.00     0.014 C 
HETATM   10  C10 UNL     1     -34.657  15.678  -4.544  1.00 20.00     0.014 C 
HETATM   11  C11 UNL     1     -35.188  17.962  -3.645  1.00 20.00     0.014 C 
HETATM   12  C12 UNL     1     -35.223  17.075  -4.927  1.00 20.00    -0.018 C 
ENDROOT
TORSDOF 0
ENDMDL
MODEL 8
REMARK VINA RESULT:      -3.4      1.561      4.101
REMARK  0 active torsions:
REMARK  status: ('A' for Active; 'I' for Inactive)
ROOT
HETATM    1  C1  UNL     1     -34.352  15.747  -5.621  1.00 20.00    -0.081 C 
HETATM    2  C2  UNL     1     -34.043  15.138  -6.779  1.00 20.00     0.015 C 
HETATM    3  C3  UNL     1     -34.053  15.036  -4.316  1.00 20.00     0.034 C 
HETATM    4  C4  UNL     1     -33.162  15.887  -3.418  1.00 20.00     0.004 C 
HETATM    5  C5  UNL     1     -33.743  17.279  -3.204  1.00 20.00     0.001 C 
HETATM    6  C6  UNL     1     -37.211  19.069  -6.178  1.00 20.00     0.000 C 
HETATM    7  C7  UNL     1     -37.174  18.347  -4.837  1.00 20.00     0.001 C 
HETATM    8  C8  UNL     1     -35.816  19.246  -6.764  1.00 20.00     0.001 C 
HETATM    9  C9  UNL     1     -34.044  17.973  -4.536  1.00 20.00     0.014 C 
HETATM   10  C10 UNL     1     -36.412  17.023  -4.918  1.00 20.00     0.014 C 
HETATM   11  C11 UNL     1     -35.074  17.911  -6.849  1.00 20.00     0.014 C 
HETATM   12  C12 UNL     1     -34.970  17.156  -5.488  1.00 20.00    -0.018 C 
ENDROOT
TORSDOF 0
ENDMDL
MODEL 9
REMARK VINA RESULT:      -3.3     12.949     14.259
REMARK  0 active torsions:
REMARK  status: ('A' for Active; 'I' for Inactive)
ROOT
HETATM    1  C1  UNL     1     -42.305  13.300   6.967  1.00 20.00    -0.081 C 
HETATM    2  C2  UNL     1     -42.926  12.112   7.074  1.00 20.00     0.015 C 
HETATM    3  C3  UNL     1     -41.870  13.778   5.595  1.00 20.00     0.034 C 
HETATM    4  C4  UNL     1     -42.470  15.142   5.273  1.00 20.00     0.004 C 
HETATM    5  C5  UNL     1     -42.175  16.161   6.367  1.00 20.00     0.001 C 
HETATM    6  C6  UNL     1     -40.747  14.742  10.841  1.00 20.00     0.000 C 
HETATM    7  C7  UNL     1     -40.062  15.196   9.558  1.00 20.00     0.001 C 
HETATM    8  C8  UNL     1     -42.261  14.674  10.682  1.00 20.00     0.001 C 
HETATM    9  C9  UNL     1     -42.616  15.651   7.742  1.00 20.00     0.014 C 
HETATM   10  C10 UNL     1     -40.477  14.347   8.355  1.00 20.00     0.014 C 
HETATM   11  C11 UNL     1     -42.657  13.812   9.482  1.00 20.00     0.014 C 
HETATM   12  C12 UNL     1     -42.015  14.267   8.135  1.00 20.00    -0.018 C 
ENDROOT
TORSDOF 0
ENDMDL
