MODEL 1
REMARK VINA RESULT:      -5.7      0.000      0.000
REMARK  2 active torsions:
REMARK  status: ('A' for Active; 'I' for Inactive)
REMARK    1  A    between atoms: C1_1  and  C2_2 
REMARK    2  A    between atoms: C1_1  and  C3_3 
ROOT
HETATM    1  C1  UNL     1     -33.734   6.683   5.726  1.00 20.00     0.348 C 
HETATM    2  F4  UNL     1     -34.334   7.456   6.682  1.00 20.00    -0.234 F 
ENDROOT
BRANCH   1   3
HETATM    3  C2  UNL     1     -34.704   5.565   5.404  1.00 20.00     0.423 C 
HETATM    4  F5  UNL     1     -35.691   5.969   4.578  1.00 20.00    -0.168 F 
HETATM    5  F6  UNL     1     -34.078   4.519   4.828  1.00 20.00    -0.168 F 
HETATM    6  F7  UNL     1     -35.292   5.118   6.538  1.00 20.00    -0.168 F 
ENDBRANCH   1   3
BRANCH   1   7
HETATM    7  C3  UNL     1     -33.379   7.592   4.549  1.00 20.00     0.294 C 
HETATM    8  F8  UNL     1     -34.509   8.213   4.113  1.00 20.00    -0.204 F 
HETATM    9 CL9  UNL     1     -32.728   6.619   3.199  1.00 20.00    -0.062 Cl
HETATM   10 CL10 UNL     1     -32.180   8.832   4.989  1.00 20.00    -0.062 Cl
ENDBRANCH   1   7
TORSDOF 2
ENDMDL
MODEL 2
REMARK VINA RESULT:      -5.3      1.914      3.400
REMARK  2 active torsions:
REMARK  status: ('A' for Active; 'I' for Inactive)
REMARK    1  A    between atoms: C1_1  and  C2_2 
REMARK    2  A    between atoms: C1_1  and  C3_3 
ROOT
HETATM    1  C1  UNL     1     -33.758   7.446   5.421  1.00 20.00     0.348 C 
HETATM    2  F4  UNL     1     -32.992   7.051   6.484  1.00 20.00    -0.234 F 
ENDROOT
BRANCH   1   3
HETATM    3  C2  UNL     1     -32.851   8.248   4.510  1.00 20.00     0.423 C 
HETATM    4  F5  UNL     1     -31.761   7.548   4.133  1.00 20.00    -0.168 F 
HETATM    5  F6  UNL     1     -33.497   8.647   3.396  1.00 20.00    -0.168 F 
HETATM    6  F7  UNL     1     -32.411   9.356   5.149  1.00 20.00    -0.168 F 
ENDBRANCH   1   3
BRANCH   1   7
HETATM    7  C3  UNL     1     -34.362   6.190   4.791  1.00 20.00     0.294 C 
HETATM    8  F8  UNL     1     -35.616   6.477   4.349  1.00 20.00    -0.204 F 
HETATM    9 CL9  UNL     1     -34.489   4.893   6.013  1.00 20.00    -0.062 Cl
HETATM   10 CL10 UNL     1     -33.397   5.590   3.421  1.00 20.00    -0.062 Cl
ENDBRANCH   1   7
TORSDOF 2
ENDMDL
MODEL 3
REMARK VINA RESULT:      -5.0      2.138      3.613
REMARK  2 active torsions:
REMARK  status: ('A' for Active; 'I' for Inactive)
REMARK    1  A    between atoms: C1_1  and  C2_2 
REMARK    2  A    between atoms: C1_1  and  C3_3 
ROOT
HETATM    1  C1  UNL     1     -33.164   6.183   4.113  1.00 20.00     0.348 C 
HETATM    2  F4  UNL     1     -33.419   5.800   2.824  1.00 20.00    -0.234 F 
ENDROOT
BRANCH   1   3
HETATM    3  C2  UNL     1     -32.962   7.685   4.084  1.00 20.00     0.423 C 
HETATM    4  F5  UNL     1     -34.116   8.358   4.270  1.00 20.00    -0.168 F 
HETATM    5  F6  UNL     1     -32.088   8.084   5.030  1.00 20.00    -0.168 F 
HETATM    6  F7  UNL     1     -32.468   8.065   2.883  1.00 20.00    -0.168 F 
ENDBRANCH   1   3
BRANCH   1   7
HETATM    7  C3  UNL     1     -34.328   5.704   4.980  1.00 20.00     0.294 C 
HETATM    8  F8  UNL     1     -34.220   4.360   5.162  1.00 20.00    -0.204 F 
HETATM    9 CL9  UNL     1     -35.879   6.026   4.154  1.00 20.00    -0.062 Cl
HETATM   10 CL10 UNL     1     -34.355   6.495   6.574  1.00 20.00    -0.062 Cl
ENDBRANCH   1   7
TORSDOF 2
ENDMDL
MODEL 4
REMARK VINA RESULT:      -5.0      2.143      3.749
REMARK  2 active torsions:
REMARK  status: ('A' for Active; 'I' for Inactive)
REMARK    1  A    between atoms: C1_1  and  C2_2 
REMARK    2  A    between atoms: C1_1  and  C3_3 
ROOT
HETATM    1  C1  UNL     1     -32.989   6.702   4.150  1.00 20.00     0.348 C 
HETATM    2  F4  UNL     1     -32.941   6.401   2.816  1.00 20.00    -0.234 F 
ENDROOT
BRANCH   1   3
HETATM    3  C2  UNL     1     -33.028   8.214   4.250  1.00 20.00     0.423 C 
HETATM    4  F5  UNL     1     -34.262   8.673   4.543  1.00 20.00    -0.168 F 
HETATM    5  F6  UNL     1     -32.178   8.669   5.192  1.00 20.00    -0.168 F 
HETATM    6  F7  UNL     1     -32.667   8.767   3.069  1.00 20.00    -0.168 F 
ENDBRANCH   1   3
BRANCH   1   7
HETATM    7  C3  UNL     1     -34.200   5.983   4.746  1.00 20.00     0.294 C 
HETATM    8  F8  UNL     1     -35.327   6.428   4.128  1.00 20.00    -0.204 F 
HETATM    9 CL9  UNL     1     -34.339   6.357   6.487  1.00 20.00    -0.062 Cl
HETATM   10 CL10 UNL     1     -34.101   4.216   4.548  1.00 20.00    -0.062 Cl
ENDBRANCH   1   7
TORSDOF 2
ENDMDL
MODEL 5
REMARK VINA RESULT:      -4.9      2.361      3.460
REMARK  2 active torsions:
REMARK  status: ('A' for Active; 'I' for Inactive)
REMARK    1  A    between atoms: C1_1  and  C2_2 
REMARK    2  A    between atoms: C1_1  and  C3_3 
ROOT
HETATM    1  C1  UNL     1     -33.763   7.418   5.412  1.00 20.00     0.348 C 
HETATM    2  F4  UNL     1     -33.032   7.106   6.526  1.00 20.00    -0.234 F 
ENDROOT
BRANCH   1   3
HETATM    3  C2  UNL     1     -32.860   8.246   4.521  1.00 20.00     0.423 C 
HETATM    4  F5  UNL     1     -32.421   9.362   5.138  1.00 20.00    -0.168 F 
HETATM    5  F6  UNL     1     -31.784   7.541   4.117  1.00 20.00    -0.168 F 
HETATM    6  F7  UNL     1     -33.532   8.641   3.415  1.00 20.00    -0.168 F 
ENDBRANCH   1   3
BRANCH   1   7
HETATM    7  C3  UNL     1     -34.255   6.107   4.797  1.00 20.00     0.294 C 
HETATM    8  F8  UNL     1     -33.442   5.775   3.758  1.00 20.00    -0.204 F 
HETATM    9 CL9  UNL     1     -35.911   6.313   4.160  1.00 20.00    -0.062 Cl
HETATM   10 CL10 UNL     1     -34.257   4.768   5.970  1.00 20.00    -0.062 Cl
ENDBRANCH   1   7
TORSDOF 2
ENDMDL
MODEL 6
REMARK VINA RESULT:      -4.9      2.375      3.519
REMARK  2 active torsions:
REMARK  status: ('A' for Active; 'I' for Inactive)
REMARK    1  A    between atoms: C1_1  and  C2_2 
REMARK    2  A    between atoms: C1_1  and  C3_3 
ROOT
HETATM    1  C1  UNL     1     -33.648   7.441   4.819  1.00 20.00     0.348 C 
HETATM    2  F4  UNL     1     -32.977   7.542   6.008  1.00 20.00    -0.234 F 
ENDROOT
BRANCH   1   3
HETATM    3  C2  UNL     1     -32.640   7.741   3.729  1.00 20.00     0.423 C 
HETATM    4  F5  UNL     1     -32.551   6.741   2.828  1.00 20.00    -0.168 F 
HETATM    5  F6  UNL     1     -32.951   8.874   3.066  1.00 20.00    -0.168 F 
HETATM    6  F7  UNL     1     -31.408   7.904   4.265  1.00 20.00    -0.168 F 
ENDBRANCH   1   3
BRANCH   1   7
HETATM    7  C3  UNL     1     -34.275   6.049   4.756  1.00 20.00     0.294 C 
HETATM    8  F8  UNL     1     -33.538   5.269   3.920  1.00 20.00    -0.204 F 
HETATM    9 CL9  UNL     1     -35.932   6.153   4.097  1.00 20.00    -0.062 Cl
HETATM   10 CL10 UNL     1     -34.345   5.265   6.353  1.00 20.00    -0.062 Cl
ENDBRANCH   1   7
TORSDOF 2
ENDMDL
MODEL 7
REMARK VINA RESULT:      -4.8      1.128      1.566
REMARK  2 active torsions:
REMARK  status: ('A' for Active; 'I' for Inactive)
REMARK    1  A    between atoms: C1_1  and  C2_2 
REMARK    2  A    between atoms: C1_1  and  C3_3 
ROOT
HETATM    1  C1  UNL     1     -33.638   6.614   5.733  1.00 20.00     0.348 C 
HETATM    2  F4  UNL     1     -34.255   7.489   6.585  1.00 20.00    -0.234 F 
ENDROOT
BRANCH   1   3
HETATM    3  C2  UNL     1     -34.666   5.560   5.379  1.00 20.00     0.423 C 
HETATM    4  F5  UNL     1     -35.605   6.028   4.530  1.00 20.00    -0.168 F 
HETATM    5  F6  UNL     1     -34.091   4.480   4.811  1.00 20.00    -0.168 F 
HETATM    6  F7  UNL     1     -35.310   5.143   6.494  1.00 20.00    -0.168 F 
ENDBRANCH   1   3
BRANCH   1   7
HETATM    7  C3  UNL     1     -33.101   7.418   4.549  1.00 20.00     0.294 C 
HETATM    8  F8  UNL     1     -31.951   8.041   4.923  1.00 20.00    -0.204 F 
HETATM    9 CL9  UNL     1     -34.281   8.673   4.075  1.00 20.00    -0.062 Cl
HETATM   10 CL10 UNL     1     -32.760   6.393   3.134  1.00 20.00    -0.062 Cl
ENDBRANCH   1   7
TORSDOF 2
ENDMDL
MODEL 8
REMARK VINA RESULT:      -4.7      1.778      2.795
REMARK  2 active torsions:
REMARK  status: ('A' for Active; 'I' for Inactive)
REMARK    1  A    between atoms: C1_1  and  C2_2 
REMARK    2  A    between atoms: C1_1  and  C3_3 
ROOT
HETATM    1  C1  UNL     1     -33.582   6.959   4.817  1.00 20.00     0.348 C 
HETATM    2  F4  UNL     1     -34.150   8.040   4.199  1.00 20.00    -0.234 F 
ENDROOT
BRANCH   1   3
HETATM    3  C2  UNL     1     -33.953   7.056   6.282  1.00 20.00     0.423 C 
HETATM    4  F5  UNL     1     -35.033   6.306   6.585  1.00 20.00    -0.168 F 
HETATM    5  F6  UNL     1     -32.936   6.663   7.077  1.00 20.00    -0.168 F 
HETATM    6  F7  UNL     1     -34.254   8.335   6.603  1.00 20.00    -0.168 F 
ENDBRANCH   1   3
BRANCH   1   7
HETATM    7  C3  UNL     1     -34.079   5.701   4.104  1.00 20.00     0.294 C 
HETATM    8  F8  UNL     1     -35.395   5.858   3.798  1.00 20.00    -0.204 F 
HETATM    9 CL9  UNL     1     -33.927   4.286   5.183  1.00 20.00    -0.062 Cl
HETATM   10 CL10 UNL     1     -33.179   5.374   2.603  1.00 20.00    -0.062 Cl
ENDBRANCH   1   7
TORSDOF 2
ENDMDL
MODEL 9
REMARK VINA RESULT:      -4.7      1.397      2.163
REMARK  2 active torsions:
REMARK  status: ('A' for Active; 'I' for Inactive)
REMARK    1  A    between atoms: C1_1  and  C2_2 
REMARK    2  A    between atoms: C1_1  and  C3_3 
ROOT
HETATM    1  C1  UNL     1     -34.105   6.751   4.139  1.00 20.00     0.348 C 
HETATM    2  F4  UNL     1     -33.102   6.015   3.569  1.00 20.00    -0.234 F 
ENDROOT
BRANCH   1   3
HETATM    3  C2  UNL     1     -35.106   5.759   4.693  1.00 20.00     0.423 C 
HETATM    4  F5  UNL     1     -35.302   5.918   6.018  1.00 20.00    -0.168 F 
HETATM    5  F6  UNL     1     -36.302   5.868   4.078  1.00 20.00    -0.168 F 
HETATM    6  F7  UNL     1     -34.662   4.495   4.505  1.00 20.00    -0.168 F 
ENDBRANCH   1   3
BRANCH   1   7
HETATM    7  C3  UNL     1     -33.469   7.677   5.177  1.00 20.00     0.294 C 
HETATM    8  F8  UNL     1     -34.333   8.691   5.452  1.00 20.00    -0.204 F 
HETATM    9 CL9  UNL     1     -31.968   8.391   4.522  1.00 20.00    -0.062 Cl
HETATM   10 CL10 UNL     1     -33.083   6.829   6.694  1.00 20.00    -0.062 Cl
ENDBRANCH   1   7
TORSDOF 2
ENDMDL
