MODEL 1
REMARK VINA RESULT:      -5.0      0.000      0.000
REMARK  4 active torsions:
REMARK  status: ('A' for Active; 'I' for Inactive)
REMARK    1  A    between atoms: C3_3  and  C5_5 
REMARK    2  A    between atoms: C5_5  and  N8_8 
REMARK    3  A    between atoms: C6_6  and  C7_7 
REMARK    4  A    between atoms: C6_6  and  N8_8 
ROOT
HETATM    1  N8  UNL     1     -34.611   6.634   6.448  1.00 20.00     0.089 N 
HETATM    2  H23 UNL     1     -34.963   6.719   7.408  1.00 20.00     0.316 HD
ENDROOT
BRANCH   1   3
HETATM    3  C5  UNL     1     -33.373   7.352   6.307  1.00 20.00     0.274 C 
BRANCH   3   4
HETATM    4  C3  UNL     1     -33.303   8.052   4.994  1.00 20.00     0.018 A 
HETATM    5  C1  UNL     1     -32.281   9.134   4.765  1.00 20.00     0.011 A 
HETATM    6  C2  UNL     1     -32.141   7.806   4.067  1.00 20.00    -0.013 A 
HETATM    7  C4  UNL     1     -32.364   7.706   2.598  1.00 20.00     0.010 C 
ENDBRANCH   3   4
ENDBRANCH   1   3
BRANCH   1   8
HETATM    8  C6  UNL     1     -34.448   5.213   6.142  1.00 20.00     0.340 C 
BRANCH   8   9
HETATM    9  C7  UNL     1     -34.896   4.919   4.724  1.00 20.00     0.381 C 
HETATM   10  F9  UNL     1     -33.829   4.949   3.887  1.00 20.00    -0.213 F 
HETATM   11  F10 UNL     1     -35.736   5.903   4.311  1.00 20.00    -0.213 F 
ENDBRANCH   8   9
ENDBRANCH   1   8
TORSDOF 4
ENDMDL
MODEL 2
REMARK VINA RESULT:      -4.7      2.023      3.718
REMARK  4 active torsions:
REMARK  status: ('A' for Active; 'I' for Inactive)
REMARK    1  A    between atoms: C3_3  and  C5_5 
REMARK    2  A    between atoms: C5_5  and  N8_8 
REMARK    3  A    between atoms: C6_6  and  C7_7 
REMARK    4  A    between atoms: C6_6  and  N8_8 
ROOT
HETATM    1  N8  UNL     1     -32.282   8.445   4.807  1.00 20.00     0.089 N 
HETATM    2  H23 UNL     1     -31.809   9.286   5.157  1.00 20.00     0.316 HD
ENDROOT
BRANCH   1   3
HETATM    3  C5  UNL     1     -33.469   8.186   5.576  1.00 20.00     0.274 C 
BRANCH   3   4
HETATM    4  C3  UNL     1     -33.624   6.731   5.852  1.00 20.00     0.018 A 
HETATM    5  C1  UNL     1     -34.800   6.232   6.650  1.00 20.00     0.011 A 
HETATM    6  C2  UNL     1     -34.715   5.945   5.174  1.00 20.00    -0.013 A 
HETATM    7  C4  UNL     1     -34.453   4.559   4.695  1.00 20.00     0.010 C 
ENDBRANCH   3   4
ENDBRANCH   1   3
BRANCH   1   8
HETATM    8  C6  UNL     1     -32.590   8.646   3.390  1.00 20.00     0.340 C 
BRANCH   8   9
HETATM    9  C7  UNL     1     -31.942   7.567   2.547  1.00 20.00     0.381 C 
HETATM   10  F9  UNL     1     -32.034   7.891   1.232  1.00 20.00    -0.213 F 
HETATM   11  F10 UNL     1     -32.629   6.407   2.706  1.00 20.00    -0.213 F 
ENDBRANCH   8   9
ENDBRANCH   1   8
TORSDOF 4
ENDMDL
MODEL 3
REMARK VINA RESULT:      -4.7      1.828      2.624
REMARK  4 active torsions:
REMARK  status: ('A' for Active; 'I' for Inactive)
REMARK    1  A    between atoms: C3_3  and  C5_5 
REMARK    2  A    between atoms: C5_5  and  N8_8 
REMARK    3  A    between atoms: C6_6  and  C7_7 
REMARK    4  A    between atoms: C6_6  and  N8_8 
ROOT
HETATM    1  N8  UNL     1     -33.997   4.877   4.247  1.00 20.00     0.089 N 
HETATM    2  H23 UNL     1     -34.294   3.935   3.969  1.00 20.00     0.316 HD
ENDROOT
BRANCH   1   3
HETATM    3  C5  UNL     1     -33.544   5.615   3.099  1.00 20.00     0.274 C 
BRANCH   3   4
HETATM    4  C3  UNL     1     -32.520   6.627   3.479  1.00 20.00     0.018 A 
HETATM    5  C1  UNL     1     -32.103   7.689   2.496  1.00 20.00     0.011 A 
HETATM    6  C2  UNL     1     -32.922   8.062   3.704  1.00 20.00    -0.013 A 
HETATM    7  C4  UNL     1     -32.307   8.846   4.812  1.00 20.00     0.010 C 
ENDBRANCH   3   4
ENDBRANCH   1   3
BRANCH   1   8
HETATM    8  C6  UNL     1     -35.124   5.540   4.905  1.00 20.00     0.340 C 
BRANCH   8   9
HETATM    9  C7  UNL     1     -34.822   5.773   6.372  1.00 20.00     0.381 C 
HETATM   10  F9  UNL     1     -34.401   7.049   6.560  1.00 20.00    -0.213 F 
HETATM   11  F10 UNL     1     -33.793   4.969   6.746  1.00 20.00    -0.213 F 
ENDBRANCH   8   9
ENDBRANCH   1   8
TORSDOF 4
ENDMDL
MODEL 4
REMARK VINA RESULT:      -4.6      2.075      3.606
REMARK  4 active torsions:
REMARK  status: ('A' for Active; 'I' for Inactive)
REMARK    1  A    between atoms: C3_3  and  C5_5 
REMARK    2  A    between atoms: C5_5  and  N8_8 
REMARK    3  A    between atoms: C6_6  and  C7_7 
REMARK    4  A    between atoms: C6_6  and  N8_8 
ROOT
HETATM    1  N8  UNL     1     -32.521   8.869   4.331  1.00 20.00     0.089 N 
HETATM    2  H23 UNL     1     -32.824   9.501   3.581  1.00 20.00     0.316 HD
ENDROOT
BRANCH   1   3
HETATM    3  C5  UNL     1     -33.646   8.477   5.137  1.00 20.00     0.274 C 
BRANCH   3   4
HETATM    4  C3  UNL     1     -33.566   7.037   5.509  1.00 20.00     0.018 A 
HETATM    5  C1  UNL     1     -34.421   6.494   6.623  1.00 20.00     0.011 A 
HETATM    6  C2  UNL     1     -34.713   6.112   5.196  1.00 20.00    -0.013 A 
HETATM    7  C4  UNL     1     -34.447   4.724   4.724  1.00 20.00     0.010 C 
ENDBRANCH   3   4
ENDBRANCH   1   3
BRANCH   1   8
HETATM    8  C6  UNL     1     -31.865   7.712   3.720  1.00 20.00     0.340 C 
BRANCH   8   9
HETATM    9  C7  UNL     1     -32.541   7.345   2.414  1.00 20.00     0.381 C 
HETATM   10  F9  UNL     1     -32.573   5.996   2.274  1.00 20.00    -0.213 F 
HETATM   11  F10 UNL     1     -31.798   7.822   1.382  1.00 20.00    -0.213 F 
ENDBRANCH   8   9
ENDBRANCH   1   8
TORSDOF 4
ENDMDL
MODEL 5
REMARK VINA RESULT:      -4.4      1.281      1.724
REMARK  4 active torsions:
REMARK  status: ('A' for Active; 'I' for Inactive)
REMARK    1  A    between atoms: C3_3  and  C5_5 
REMARK    2  A    between atoms: C5_5  and  N8_8 
REMARK    3  A    between atoms: C6_6  and  C7_7 
REMARK    4  A    between atoms: C6_6  and  N8_8 
ROOT
HETATM    1  N8  UNL     1     -34.065   7.769   5.885  1.00 20.00     0.089 N 
HETATM    2  H23 UNL     1     -34.181   8.471   6.623  1.00 20.00     0.316 HD
ENDROOT
BRANCH   1   3
HETATM    3  C5  UNL     1     -32.991   8.144   5.005  1.00 20.00     0.274 C 
BRANCH   3   4
HETATM    4  C3  UNL     1     -33.181   7.565   3.646  1.00 20.00     0.018 A 
HETATM    5  C1  UNL     1     -32.112   7.728   2.598  1.00 20.00     0.011 A 
HETATM    6  C2  UNL     1     -32.365   6.376   3.211  1.00 20.00    -0.013 A 
HETATM    7  C4  UNL     1     -32.992   5.293   2.404  1.00 20.00     0.010 C 
ENDBRANCH   3   4
ENDBRANCH   1   3
BRANCH   1   8
HETATM    8  C6  UNL     1     -33.816   6.473   6.518  1.00 20.00     0.340 C 
BRANCH   8   9
HETATM    9  C7  UNL     1     -34.803   5.438   6.018  1.00 20.00     0.381 C 
HETATM   10  F9  UNL     1     -34.137   4.398   5.454  1.00 20.00    -0.213 F 
HETATM   11  F10 UNL     1     -35.561   5.987   5.034  1.00 20.00    -0.213 F 
ENDBRANCH   8   9
ENDBRANCH   1   8
TORSDOF 4
ENDMDL
MODEL 6
REMARK VINA RESULT:      -4.3      2.169      3.776
REMARK  4 active torsions:
REMARK  status: ('A' for Active; 'I' for Inactive)
REMARK    1  A    between atoms: C3_3  and  C5_5 
REMARK    2  A    between atoms: C5_5  and  N8_8 
REMARK    3  A    between atoms: C6_6  and  C7_7 
REMARK    4  A    between atoms: C6_6  and  N8_8 
ROOT
HETATM    1  N8  UNL     1     -32.332   8.435   5.413  1.00 20.00     0.089 N 
HETATM    2  H23 UNL     1     -31.941   9.015   6.164  1.00 20.00     0.316 HD
ENDROOT
BRANCH   1   3
HETATM    3  C5  UNL     1     -33.648   7.980   5.771  1.00 20.00     0.274 C 
BRANCH   3   4
HETATM    4  C3  UNL     1     -33.693   6.495   5.883  1.00 20.00     0.018 A 
HETATM    5  C1  UNL     1     -34.918   5.813   6.433  1.00 20.00     0.011 A 
HETATM    6  C2  UNL     1     -34.584   5.695   4.969  1.00 20.00    -0.013 A 
HETATM    7  C4  UNL     1     -34.111   4.396   4.413  1.00 20.00     0.010 C 
ENDBRANCH   3   4
ENDBRANCH   1   3
BRANCH   1   8
HETATM    8  C6  UNL     1     -32.351   9.226   4.182  1.00 20.00     0.340 C 
BRANCH   8   9
HETATM    9  C7  UNL     1     -32.756   8.366   3.003  1.00 20.00     0.381 C 
HETATM   10  F9  UNL     1     -31.979   7.255   2.952  1.00 20.00    -0.213 F 
HETATM   11  F10 UNL     1     -32.523   9.050   1.853  1.00 20.00    -0.213 F 
ENDBRANCH   8   9
ENDBRANCH   1   8
TORSDOF 4
ENDMDL
MODEL 7
REMARK VINA RESULT:      -4.2      2.629      4.102
REMARK  4 active torsions:
REMARK  status: ('A' for Active; 'I' for Inactive)
REMARK    1  A    between atoms: C3_3  and  C5_5 
REMARK    2  A    between atoms: C5_5  and  N8_8 
REMARK    3  A    between atoms: C6_6  and  C7_7 
REMARK    4  A    between atoms: C6_6  and  N8_8 
ROOT
HETATM    1  N8  UNL     1     -32.310   8.673   4.327  1.00 20.00     0.089 N 
HETATM    2  H23 UNL     1     -32.315   9.659   4.041  1.00 20.00     0.316 HD
ENDROOT
BRANCH   1   3
HETATM    3  C5  UNL     1     -33.433   8.396   5.181  1.00 20.00     0.274 C 
BRANCH   3   4
HETATM    4  C3  UNL     1     -33.492   6.953   5.543  1.00 20.00     0.018 A 
HETATM    5  C1  UNL     1     -34.458   6.474   6.594  1.00 20.00     0.011 A 
HETATM    6  C2  UNL     1     -34.684   6.122   5.147  1.00 20.00    -0.013 A 
HETATM    7  C4  UNL     1     -34.498   4.720   4.680  1.00 20.00     0.010 C 
ENDBRANCH   3   4
ENDBRANCH   1   3
BRANCH   1   8
HETATM    8  C6  UNL     1     -32.331   7.844   3.121  1.00 20.00     0.340 C 
BRANCH   8   9
HETATM    9  C7  UNL     1     -32.073   8.689   1.890  1.00 20.00     0.381 C 
HETATM   10  F9  UNL     1     -33.013   9.663   1.792  1.00 20.00    -0.213 F 
HETATM   11  F10 UNL     1     -32.205   7.914   0.783  1.00 20.00    -0.213 F 
ENDBRANCH   8   9
ENDBRANCH   1   8
TORSDOF 4
ENDMDL
MODEL 8
REMARK VINA RESULT:      -4.2      1.406      2.068
REMARK  4 active torsions:
REMARK  status: ('A' for Active; 'I' for Inactive)
REMARK    1  A    between atoms: C3_3  and  C5_5 
REMARK    2  A    between atoms: C5_5  and  N8_8 
REMARK    3  A    between atoms: C6_6  and  C7_7 
REMARK    4  A    between atoms: C6_6  and  N8_8 
ROOT
HETATM    1  N8  UNL     1     -32.903   7.286   5.830  1.00 20.00     0.089 N 
HETATM    2  H23 UNL     1     -32.624   6.397   5.400  1.00 20.00     0.316 HD
ENDROOT
BRANCH   1   3
HETATM    3  C5  UNL     1     -32.742   8.364   4.891  1.00 20.00     0.274 C 
BRANCH   3   4
HETATM    4  C3  UNL     1     -32.041   7.906   3.660  1.00 20.00     0.018 A 
HETATM    5  C1  UNL     1     -32.478   6.644   2.964  1.00 20.00     0.011 A 
HETATM    6  C2  UNL     1     -32.731   7.984   2.324  1.00 20.00    -0.013 A 
HETATM    7  C4  UNL     1     -31.970   8.389   1.110  1.00 20.00     0.010 C 
ENDBRANCH   3   4
ENDBRANCH   1   3
BRANCH   1   8
HETATM    8  C6  UNL     1     -34.291   7.164   6.279  1.00 20.00     0.340 C 
BRANCH   8   9
HETATM    9  C7  UNL     1     -34.755   5.725   6.188  1.00 20.00     0.381 C 
HETATM   10  F9  UNL     1     -33.843   4.908   6.774  1.00 20.00    -0.213 F 
HETATM   11  F10 UNL     1     -34.815   5.359   4.882  1.00 20.00    -0.213 F 
ENDBRANCH   8   9
ENDBRANCH   1   8
TORSDOF 4
ENDMDL
MODEL 9
REMARK VINA RESULT:      -3.9      1.988      2.771
REMARK  4 active torsions:
REMARK  status: ('A' for Active; 'I' for Inactive)
REMARK    1  A    between atoms: C3_3  and  C5_5 
REMARK    2  A    between atoms: C5_5  and  N8_8 
REMARK    3  A    between atoms: C6_6  and  C7_7 
REMARK    4  A    between atoms: C6_6  and  N8_8 
ROOT
HETATM    1  N8  UNL     1     -34.211   4.404   4.664  1.00 20.00     0.089 N 
HETATM    2  H23 UNL     1     -33.346   3.853   4.687  1.00 20.00     0.316 HD
ENDROOT
BRANCH   1   3
HETATM    3  C5  UNL     1     -34.362   5.146   5.887  1.00 20.00     0.274 C 
BRANCH   3   4
HETATM    4  C3  UNL     1     -34.368   6.613   5.629  1.00 20.00     0.018 A 
HETATM    5  C1  UNL     1     -34.248   7.584   6.773  1.00 20.00     0.011 A 
HETATM    6  C2  UNL     1     -33.107   7.417   5.804  1.00 20.00    -0.013 A 
HETATM    7  C4  UNL     1     -32.774   8.507   4.845  1.00 20.00     0.010 C 
ENDBRANCH   3   4
ENDBRANCH   1   3
BRANCH   1   8
HETATM    8  C6  UNL     1     -34.163   5.288   3.498  1.00 20.00     0.340 C 
BRANCH   8   9
HETATM    9  C7  UNL     1     -32.807   5.208   2.826  1.00 20.00     0.381 C 
HETATM   10  F9  UNL     1     -32.470   6.421   2.321  1.00 20.00    -0.213 F 
HETATM   11  F10 UNL     1     -32.886   4.360   1.769  1.00 20.00    -0.213 F 
ENDBRANCH   8   9
ENDBRANCH   1   8
TORSDOF 4
ENDMDL
