MODEL 1
REMARK VINA RESULT:      -3.9      0.000      0.000
REMARK  3 active torsions:
REMARK  status: ('A' for Active; 'I' for Inactive)
REMARK       I    between atoms: C1_1  and  N10_10 
REMARK    1  A    between atoms: C7_7  and  C8_8 
REMARK    2  A    between atoms: C7_7  and  N10_10 
REMARK    3  A    between atoms: C8_8  and  C9_9 
ROOT
HETATM    1  C7  UNL     1     -32.443   7.233   3.684  1.00 20.00     0.127 C 
ENDROOT
BRANCH   1   2
HETATM    2  C8  UNL     1     -33.270   7.064   4.977  1.00 20.00     0.007 C 
HETATM    3  C3  UNL     1     -33.924   8.410   5.343  1.00 20.00     0.012 C 
BRANCH   2   4
HETATM    4  C9  UNL     1     -34.297   5.873   4.907  1.00 20.00    -0.047 C 
HETATM    5  C4  UNL     1     -33.725   4.721   4.048  1.00 20.00     0.015 C 
HETATM    6  C5  UNL     1     -35.648   6.298   4.303  1.00 20.00     0.015 C 
HETATM    7  C6  UNL     1     -34.557   5.296   6.316  1.00 20.00     0.015 C 
ENDBRANCH   2   4
ENDBRANCH   1   2
BRANCH   1   8
HETATM    8  N10 UNL     1     -32.776   8.442   2.975  1.00 20.00    -0.361 N 
HETATM    9  C1  UNL     1     -32.483   8.644   1.636  1.00 20.00     0.213 C 
HETATM   10  C2  UNL     1     -32.920   9.968   1.107  1.00 20.00     0.117 C 
HETATM   11  O11 UNL     1     -31.918   7.851   0.891  1.00 20.00    -0.274 OA
HETATM   12  H30 UNL     1     -33.251   9.186   3.482  1.00 20.00     0.162 HD
ENDBRANCH   1   8
TORSDOF 3
ENDMDL
MODEL 2
REMARK VINA RESULT:      -3.8      0.034      1.295
REMARK  3 active torsions:
REMARK  status: ('A' for Active; 'I' for Inactive)
REMARK       I    between atoms: C1_1  and  N10_10 
REMARK    1  A    between atoms: C7_7  and  C8_8 
REMARK    2  A    between atoms: C7_7  and  N10_10 
REMARK    3  A    between atoms: C8_8  and  C9_9 
ROOT
HETATM    1  C7  UNL     1     -32.436   7.251   3.685  1.00 20.00     0.127 C 
ENDROOT
BRANCH   1   2
HETATM    2  C8  UNL     1     -33.281   7.063   4.963  1.00 20.00     0.007 C 
HETATM    3  C3  UNL     1     -33.969   8.395   5.319  1.00 20.00     0.012 C 
BRANCH   2   4
HETATM    4  C9  UNL     1     -34.283   5.851   4.874  1.00 20.00    -0.047 C 
HETATM    5  C4  UNL     1     -34.553   5.275   6.283  1.00 20.00     0.015 C 
HETATM    6  C5  UNL     1     -33.750   4.714   3.983  1.00 20.00     0.015 C 
HETATM    7  C6  UNL     1     -35.644   6.312   4.308  1.00 20.00     0.015 C 
ENDBRANCH   2   4
ENDBRANCH   1   2
BRANCH   1   8
HETATM    8  N10 UNL     1     -32.780   8.455   2.972  1.00 20.00    -0.361 N 
HETATM    9  C1  UNL     1     -32.489   8.656   1.633  1.00 20.00     0.213 C 
HETATM   10  C2  UNL     1     -32.939   9.975   1.100  1.00 20.00     0.117 C 
HETATM   11  O11 UNL     1     -31.917   7.866   0.890  1.00 20.00    -0.274 OA
HETATM   12  H30 UNL     1     -33.262   9.196   3.478  1.00 20.00     0.162 HD
ENDBRANCH   1   8
TORSDOF 3
ENDMDL
MODEL 3
REMARK VINA RESULT:      -3.8      0.043      1.313
REMARK  3 active torsions:
REMARK  status: ('A' for Active; 'I' for Inactive)
REMARK       I    between atoms: C1_1  and  N10_10 
REMARK    1  A    between atoms: C7_7  and  C8_8 
REMARK    2  A    between atoms: C7_7  and  N10_10 
REMARK    3  A    between atoms: C8_8  and  C9_9 
ROOT
HETATM    1  C7  UNL     1     -32.459   7.219   3.639  1.00 20.00     0.127 C 
ENDROOT
BRANCH   1   2
HETATM    2  C8  UNL     1     -33.268   7.052   4.942  1.00 20.00     0.007 C 
HETATM    3  C3  UNL     1     -33.932   8.394   5.305  1.00 20.00     0.012 C 
BRANCH   2   4
HETATM    4  C9  UNL     1     -34.283   5.849   4.895  1.00 20.00    -0.047 C 
HETATM    5  C4  UNL     1     -35.635   6.311   4.304  1.00 20.00     0.015 C 
HETATM    6  C5  UNL     1     -34.547   5.249   6.288  1.00 20.00     0.015 C 
HETATM    7  C6  UNL     1     -33.752   4.725   3.977  1.00 20.00     0.015 C 
ENDBRANCH   2   4
ENDBRANCH   1   2
BRANCH   1   8
HETATM    8  N10 UNL     1     -32.789   8.435   2.941  1.00 20.00    -0.361 N 
HETATM    9  C1  UNL     1     -32.483   8.655   1.607  1.00 20.00     0.213 C 
HETATM   10  C2  UNL     1     -32.921   9.984   1.090  1.00 20.00     0.117 C 
HETATM   11  O11 UNL     1     -31.908   7.874   0.858  1.00 20.00    -0.274 OA
HETATM   12  H30 UNL     1     -33.272   9.171   3.452  1.00 20.00     0.162 HD
ENDBRANCH   1   8
TORSDOF 3
ENDMDL
MODEL 4
REMARK VINA RESULT:      -3.7     11.155     12.432
REMARK  3 active torsions:
REMARK  status: ('A' for Active; 'I' for Inactive)
REMARK       I    between atoms: C1_1  and  N10_10 
REMARK    1  A    between atoms: C7_7  and  C8_8 
REMARK    2  A    between atoms: C7_7  and  N10_10 
REMARK    3  A    between atoms: C8_8  and  C9_9 
ROOT
HETATM    1  C7  UNL     1     -33.370  16.307  -3.407  1.00 20.00     0.127 C 
ENDROOT
BRANCH   1   2
HETATM    2  C8  UNL     1     -34.525  16.631  -4.379  1.00 20.00     0.007 C 
HETATM    3  C3  UNL     1     -34.160  17.878  -5.206  1.00 20.00     0.012 C 
BRANCH   2   4
HETATM    4  C9  UNL     1     -34.956  15.402  -5.264  1.00 20.00    -0.047 C 
HETATM    5  C4  UNL     1     -34.837  14.089  -4.455  1.00 20.00     0.015 C 
HETATM    6  C5  UNL     1     -34.095  15.264  -6.534  1.00 20.00     0.015 C 
HETATM    7  C6  UNL     1     -36.434  15.533  -5.694  1.00 20.00     0.015 C 
ENDBRANCH   2   4
ENDBRANCH   1   2
BRANCH   1   8
HETATM    8  N10 UNL     1     -33.685  16.654  -2.045  1.00 20.00    -0.361 N 
HETATM    9  C1  UNL     1     -33.191  17.783  -1.413  1.00 20.00     0.213 C 
HETATM   10  C2  UNL     1     -33.650  17.944  -0.002  1.00 20.00     0.117 C 
HETATM   11  O11 UNL     1     -32.440  18.618  -1.904  1.00 20.00    -0.274 OA
HETATM   12  H30 UNL     1     -34.304  16.038  -1.520  1.00 20.00     0.162 HD
ENDBRANCH   1   8
TORSDOF 3
ENDMDL
MODEL 5
REMARK VINA RESULT:      -3.7     11.225     12.495
REMARK  3 active torsions:
REMARK  status: ('A' for Active; 'I' for Inactive)
REMARK       I    between atoms: C1_1  and  N10_10 
REMARK    1  A    between atoms: C7_7  and  C8_8 
REMARK    2  A    between atoms: C7_7  and  N10_10 
REMARK    3  A    between atoms: C8_8  and  C9_9 
ROOT
HETATM    1  C7  UNL     1     -33.404  16.232  -3.504  1.00 20.00     0.127 C 
ENDROOT
BRANCH   1   2
HETATM    2  C8  UNL     1     -34.578  16.580  -4.443  1.00 20.00     0.007 C 
HETATM    3  C3  UNL     1     -34.230  17.850  -5.243  1.00 20.00     0.012 C 
BRANCH   2   4
HETATM    4  C9  UNL     1     -35.025  15.375  -5.353  1.00 20.00    -0.047 C 
HETATM    5  C4  UNL     1     -36.416  15.655  -5.968  1.00 20.00     0.015 C 
HETATM    6  C5  UNL     1     -35.100  14.049  -4.575  1.00 20.00     0.015 C 
HETATM    7  C6  UNL     1     -34.042  15.190  -6.531  1.00 20.00     0.015 C 
ENDBRANCH   2   4
ENDBRANCH   1   2
BRANCH   1   8
HETATM    8  N10 UNL     1     -33.678  16.573  -2.132  1.00 20.00    -0.361 N 
HETATM    9  C1  UNL     1     -33.227  17.737  -1.532  1.00 20.00     0.213 C 
HETATM   10  C2  UNL     1     -33.632  17.886  -0.104  1.00 20.00     0.117 C 
HETATM   11  O11 UNL     1     -32.553  18.612  -2.064  1.00 20.00    -0.274 OA
HETATM   12  H30 UNL     1     -34.233  15.926  -1.574  1.00 20.00     0.162 HD
ENDBRANCH   1   8
TORSDOF 3
ENDMDL
MODEL 6
REMARK VINA RESULT:      -3.7      0.838      1.821
REMARK  3 active torsions:
REMARK  status: ('A' for Active; 'I' for Inactive)
REMARK       I    between atoms: C1_1  and  N10_10 
REMARK    1  A    between atoms: C7_7  and  C8_8 
REMARK    2  A    between atoms: C7_7  and  N10_10 
REMARK    3  A    between atoms: C8_8  and  C9_9 
ROOT
HETATM    1  C7  UNL     1     -32.418   7.392   3.614  1.00 20.00     0.127 C 
ENDROOT
BRANCH   1   2
HETATM    2  C8  UNL     1     -33.471   6.283   3.404  1.00 20.00     0.007 C 
HETATM    3  C3  UNL     1     -32.791   5.047   2.786  1.00 20.00     0.012 C 
BRANCH   2   4
HETATM    4  C9  UNL     1     -34.295   5.953   4.705  1.00 20.00    -0.047 C 
HETATM    5  C4  UNL     1     -35.812   6.034   4.414  1.00 20.00     0.015 C 
HETATM    6  C5  UNL     1     -33.974   6.916   5.862  1.00 20.00     0.015 C 
HETATM    7  C6  UNL     1     -34.006   4.512   5.181  1.00 20.00     0.015 C 
ENDBRANCH   2   4
ENDBRANCH   1   2
BRANCH   1   8
HETATM    8  N10 UNL     1     -32.715   8.580   2.857  1.00 20.00    -0.361 N 
HETATM    9  C1  UNL     1     -32.440   8.711   1.506  1.00 20.00     0.213 C 
HETATM   10  C2  UNL     1     -32.834  10.028   0.926  1.00 20.00     0.117 C 
HETATM   11  O11 UNL     1     -31.924   7.863   0.787  1.00 20.00    -0.274 OA
HETATM   12  H30 UNL     1     -33.149   9.365   3.340  1.00 20.00     0.162 HD
ENDBRANCH   1   8
TORSDOF 3
ENDMDL
MODEL 7
REMARK VINA RESULT:      -3.7      0.834      1.982
REMARK  3 active torsions:
REMARK  status: ('A' for Active; 'I' for Inactive)
REMARK       I    between atoms: C1_1  and  N10_10 
REMARK    1  A    between atoms: C7_7  and  C8_8 
REMARK    2  A    between atoms: C7_7  and  N10_10 
REMARK    3  A    between atoms: C8_8  and  C9_9 
ROOT
HETATM    1  C7  UNL     1     -32.421   7.391   3.607  1.00 20.00     0.127 C 
ENDROOT
BRANCH   1   2
HETATM    2  C8  UNL     1     -33.467   6.277   3.390  1.00 20.00     0.007 C 
HETATM    3  C3  UNL     1     -32.779   5.046   2.771  1.00 20.00     0.012 C 
BRANCH   2   4
HETATM    4  C9  UNL     1     -34.294   5.940   4.687  1.00 20.00    -0.047 C 
HETATM    5  C4  UNL     1     -33.965   6.950   5.811  1.00 20.00     0.015 C 
HETATM    6  C5  UNL     1     -34.005   4.523   5.215  1.00 20.00     0.015 C 
HETATM    7  C6  UNL     1     -35.810   6.054   4.411  1.00 20.00     0.015 C 
ENDBRANCH   2   4
ENDBRANCH   1   2
BRANCH   1   8
HETATM    8  N10 UNL     1     -32.718   8.578   2.848  1.00 20.00    -0.361 N 
HETATM    9  C1  UNL     1     -32.434   8.710   1.498  1.00 20.00     0.213 C 
HETATM   10  C2  UNL     1     -32.829  10.025   0.915  1.00 20.00     0.117 C 
HETATM   11  O11 UNL     1     -31.907   7.865   0.783  1.00 20.00    -0.274 OA
HETATM   12  H30 UNL     1     -33.159   9.361   3.327  1.00 20.00     0.162 HD
ENDBRANCH   1   8
TORSDOF 3
ENDMDL
MODEL 8
REMARK VINA RESULT:      -3.6      0.837      1.568
REMARK  3 active torsions:
REMARK  status: ('A' for Active; 'I' for Inactive)
REMARK       I    between atoms: C1_1  and  N10_10 
REMARK    1  A    between atoms: C7_7  and  C8_8 
REMARK    2  A    between atoms: C7_7  and  N10_10 
REMARK    3  A    between atoms: C8_8  and  C9_9 
ROOT
HETATM    1  C7  UNL     1     -32.438   7.403   3.640  1.00 20.00     0.127 C 
ENDROOT
BRANCH   1   2
HETATM    2  C8  UNL     1     -33.478   6.290   3.392  1.00 20.00     0.007 C 
HETATM    3  C3  UNL     1     -32.774   5.063   2.781  1.00 20.00     0.012 C 
BRANCH   2   4
HETATM    4  C9  UNL     1     -34.334   5.944   4.667  1.00 20.00    -0.047 C 
HETATM    5  C4  UNL     1     -34.013   4.512   5.157  1.00 20.00     0.015 C 
HETATM    6  C5  UNL     1     -35.848   6.032   4.399  1.00 20.00     0.015 C 
HETATM    7  C6  UNL     1     -33.993   6.903   5.829  1.00 20.00     0.015 C 
ENDBRANCH   2   4
ENDBRANCH   1   2
BRANCH   1   8
HETATM    8  N10 UNL     1     -32.724   8.599   2.890  1.00 20.00    -0.361 N 
HETATM    9  C1  UNL     1     -32.450   8.734   1.539  1.00 20.00     0.213 C 
HETATM   10  C2  UNL     1     -32.832  10.058   0.966  1.00 20.00     0.117 C 
HETATM   11  O11 UNL     1     -31.941   7.886   0.815  1.00 20.00    -0.274 OA
HETATM   12  H30 UNL     1     -33.151   9.385   3.376  1.00 20.00     0.162 HD
ENDBRANCH   1   8
TORSDOF 3
ENDMDL
MODEL 9
REMARK VINA RESULT:      -3.6      9.819     11.112
REMARK  3 active torsions:
REMARK  status: ('A' for Active; 'I' for Inactive)
REMARK       I    between atoms: C1_1  and  N10_10 
REMARK    1  A    between atoms: C7_7  and  C8_8 
REMARK    2  A    between atoms: C7_7  and  N10_10 
REMARK    3  A    between atoms: C8_8  and  C9_9 
ROOT
HETATM    1  C7  UNL     1     -41.641  13.442   6.418  1.00 20.00     0.127 C 
ENDROOT
BRANCH   1   2
HETATM    2  C8  UNL     1     -41.510  14.974   6.550  1.00 20.00     0.007 C 
HETATM    3  C3  UNL     1     -42.702  15.649   5.845  1.00 20.00     0.012 C 
BRANCH   2   4
HETATM    4  C9  UNL     1     -41.312  15.457   8.036  1.00 20.00    -0.047 C 
HETATM    5  C4  UNL     1     -40.277  14.561   8.757  1.00 20.00     0.015 C 
HETATM    6  C5  UNL     1     -42.622  15.424   8.842  1.00 20.00     0.015 C 
HETATM    7  C6  UNL     1     -40.758  16.898   8.070  1.00 20.00     0.015 C 
ENDBRANCH   2   4
ENDBRANCH   1   2
BRANCH   1   8
HETATM    8  N10 UNL     1     -40.825  12.910   5.357  1.00 20.00    -0.361 N 
HETATM    9  C1  UNL     1     -39.698  12.135   5.578  1.00 20.00     0.213 C 
HETATM   10  C2  UNL     1     -39.007  11.691   4.333  1.00 20.00     0.117 C 
HETATM   11  O11 UNL     1     -39.250  11.804   6.670  1.00 20.00    -0.274 OA
HETATM   12  H30 UNL     1     -41.090  13.113   4.395  1.00 20.00     0.162 HD
ENDBRANCH   1   8
TORSDOF 3
ENDMDL
