MODEL 1
REMARK VINA RESULT:      -4.4      0.000      0.000
REMARK  2 active torsions:
REMARK  status: ('A' for Active; 'I' for Inactive)
REMARK    1  A    between atoms: C5_5  and  C7_7 
REMARK    2  A    between atoms: C6_6  and  C7_7 
ROOT
HETATM    1  C1  UNL     1     -34.341   6.547   6.465  1.00 20.00     0.033 C 
HETATM    2  C2  UNL     1     -34.617   5.058   6.449  1.00 20.00     0.168 C 
HETATM    3  C3  UNL     1     -34.449   5.795   4.246  1.00 20.00     0.172 C 
HETATM    4  C5  UNL     1     -33.660   6.746   5.129  1.00 20.00     0.014 C 
HETATM    5  O8  UNL     1     -34.830   4.690   5.079  1.00 20.00    -0.391 OA
ENDROOT
BRANCH   4   6
HETATM    6  C7  UNL     1     -33.661   8.180   4.638  1.00 20.00     0.041 C 
BRANCH   6   7
HETATM    7  C6  UNL     1     -32.436   8.504   3.839  1.00 20.00     0.145 A 
HETATM    8  C4  UNL     1     -32.534   8.908   2.395  1.00 20.00     0.200 A 
HETATM    9  O9  UNL     1     -32.153   7.579   2.784  1.00 20.00    -0.381 OA
ENDBRANCH   6   7
ENDBRANCH   4   6
TORSDOF 2
ENDMDL
MODEL 2
REMARK VINA RESULT:      -3.9     15.601     16.555
REMARK  2 active torsions:
REMARK  status: ('A' for Active; 'I' for Inactive)
REMARK    1  A    between atoms: C5_5  and  C7_7 
REMARK    2  A    between atoms: C6_6  and  C7_7 
ROOT
HETATM    1  C1  UNL     1     -24.270  17.577  10.465  1.00 20.00     0.033 C 
HETATM    2  C2  UNL     1     -24.135  17.343  11.955  1.00 20.00     0.168 C 
HETATM    3  C3  UNL     1     -22.259  18.513  11.224  1.00 20.00     0.172 C 
HETATM    4  C5  UNL     1     -23.403  18.800  10.267  1.00 20.00     0.014 C 
HETATM    5  O8  UNL     1     -22.824  17.792  12.329  1.00 20.00    -0.391 OA
ENDROOT
BRANCH   4   6
HETATM    6  C7  UNL     1     -22.960  19.023   8.834  1.00 20.00     0.041 C 
BRANCH   6   7
HETATM    7  C6  UNL     1     -21.712  18.264   8.505  1.00 20.00     0.145 A 
HETATM    8  C4  UNL     1     -21.296  18.031   7.080  1.00 20.00     0.200 A 
HETATM    9  O9  UNL     1     -21.934  17.006   7.858  1.00 20.00    -0.381 OA
ENDBRANCH   6   7
ENDBRANCH   4   6
TORSDOF 2
ENDMDL
MODEL 3
REMARK VINA RESULT:      -3.7      1.046      1.445
REMARK  2 active torsions:
REMARK  status: ('A' for Active; 'I' for Inactive)
REMARK    1  A    between atoms: C5_5  and  C7_7 
REMARK    2  A    between atoms: C6_6  and  C7_7 
ROOT
HETATM    1  C1  UNL     1     -34.833   6.067   4.631  1.00 20.00     0.033 C 
HETATM    2  C2  UNL     1     -34.985   5.108   5.794  1.00 20.00     0.168 C 
HETATM    3  C3  UNL     1     -33.381   6.699   6.360  1.00 20.00     0.172 C 
HETATM    4  C5  UNL     1     -34.308   7.306   5.322  1.00 20.00     0.014 C 
HETATM    5  O8  UNL     1     -33.967   5.447   6.747  1.00 20.00    -0.391 OA
ENDROOT
BRANCH   4   6
HETATM    6  C7  UNL     1     -33.627   8.293   4.395  1.00 20.00     0.041 C 
BRANCH   6   7
HETATM    7  C6  UNL     1     -32.348   7.749   3.836  1.00 20.00     0.145 A 
HETATM    8  C4  UNL     1     -32.035   7.849   2.369  1.00 20.00     0.200 A 
HETATM    9  O9  UNL     1     -32.511   6.629   2.959  1.00 20.00    -0.381 OA
ENDBRANCH   6   7
ENDBRANCH   4   6
TORSDOF 2
ENDMDL
MODEL 4
REMARK VINA RESULT:      -3.7      0.953      4.038
REMARK  2 active torsions:
REMARK  status: ('A' for Active; 'I' for Inactive)
REMARK    1  A    between atoms: C5_5  and  C7_7 
REMARK    2  A    between atoms: C6_6  and  C7_7 
ROOT
HETATM    1  C1  UNL     1     -32.640   9.011   4.142  1.00 20.00     0.033 C 
HETATM    2  C2  UNL     1     -32.448   8.963   2.640  1.00 20.00     0.168 C 
HETATM    3  C3  UNL     1     -32.562   6.776   3.434  1.00 20.00     0.172 C 
HETATM    4  C5  UNL     1     -33.302   7.677   4.407  1.00 20.00     0.014 C 
HETATM    5  O8  UNL     1     -32.248   7.586   2.290  1.00 20.00    -0.391 OA
ENDROOT
BRANCH   4   6
HETATM    6  C7  UNL     1     -33.217   7.218   5.850  1.00 20.00     0.041 C 
BRANCH   6   7
HETATM    7  C6  UNL     1     -34.460   6.505   6.289  1.00 20.00     0.145 A 
HETATM    8  C4  UNL     1     -34.584   5.013   6.170  1.00 20.00     0.200 A 
HETATM    9  O9  UNL     1     -35.204   5.899   5.226  1.00 20.00    -0.381 OA
ENDBRANCH   6   7
ENDBRANCH   4   6
TORSDOF 2
ENDMDL
MODEL 5
REMARK VINA RESULT:      -3.6     12.128     12.753
REMARK  2 active torsions:
REMARK  status: ('A' for Active; 'I' for Inactive)
REMARK    1  A    between atoms: C5_5  and  C7_7 
REMARK    2  A    between atoms: C6_6  and  C7_7 
ROOT
HETATM    1  C1  UNL     1     -32.845  18.526   1.145  1.00 20.00     0.033 C 
HETATM    2  C2  UNL     1     -31.575  19.244   1.553  1.00 20.00     0.168 C 
HETATM    3  C3  UNL     1     -31.300  18.447  -0.618  1.00 20.00     0.172 C 
HETATM    4  C5  UNL     1     -32.785  18.634  -0.363  1.00 20.00     0.014 C 
HETATM    5  O8  UNL     1     -30.619  19.026   0.506  1.00 20.00    -0.391 OA
ENDROOT
BRANCH   4   6
HETATM    6  C7  UNL     1     -33.662  17.634  -1.092  1.00 20.00     0.041 C 
BRANCH   6   7
HETATM    7  C6  UNL     1     -33.029  17.151  -2.362  1.00 20.00     0.145 A 
HETATM    8  C4  UNL     1     -33.799  17.122  -3.652  1.00 20.00     0.200 A 
HETATM    9  O9  UNL     1     -33.581  15.934  -2.875  1.00 20.00    -0.381 OA
ENDBRANCH   6   7
ENDBRANCH   4   6
TORSDOF 2
ENDMDL
MODEL 6
REMARK VINA RESULT:      -3.6     12.274     13.038
REMARK  2 active torsions:
REMARK  status: ('A' for Active; 'I' for Inactive)
REMARK    1  A    between atoms: C5_5  and  C7_7 
REMARK    2  A    between atoms: C6_6  and  C7_7 
ROOT
HETATM    1  C1  UNL     1     -33.662  14.988  -3.866  1.00 20.00     0.033 C 
HETATM    2  C2  UNL     1     -33.963  15.017  -5.350  1.00 20.00     0.168 C 
HETATM    3  C3  UNL     1     -34.311  17.154  -4.490  1.00 20.00     0.172 C 
HETATM    4  C5  UNL     1     -33.316  16.436  -3.596  1.00 20.00     0.014 C 
HETATM    5  O8  UNL     1     -34.504  16.314  -5.639  1.00 20.00    -0.391 OA
ENDROOT
BRANCH   4   6
HETATM    6  C7  UNL     1     -33.407  16.835  -2.136  1.00 20.00     0.041 C 
BRANCH   6   7
HETATM    7  C6  UNL     1     -32.820  18.190  -1.884  1.00 20.00     0.145 A 
HETATM    8  C4  UNL     1     -31.834  18.416  -0.773  1.00 20.00     0.200 A 
HETATM    9  O9  UNL     1     -33.216  18.788  -0.645  1.00 20.00    -0.381 OA
ENDBRANCH   6   7
ENDBRANCH   4   6
TORSDOF 2
ENDMDL
MODEL 7
REMARK VINA RESULT:      -3.6     12.331     13.317
REMARK  2 active torsions:
REMARK  status: ('A' for Active; 'I' for Inactive)
REMARK    1  A    between atoms: C5_5  and  C7_7 
REMARK    2  A    between atoms: C6_6  and  C7_7 
ROOT
HETATM    1  C1  UNL     1     -34.041  15.397  -6.562  1.00 20.00     0.033 C 
HETATM    2  C2  UNL     1     -35.182  15.229  -7.544  1.00 20.00     0.168 C 
HETATM    3  C3  UNL     1     -35.823  14.294  -5.510  1.00 20.00     0.172 C 
HETATM    4  C5  UNL     1     -34.770  15.353  -5.237  1.00 20.00     0.014 C 
HETATM    5  O8  UNL     1     -36.170  14.414  -6.898  1.00 20.00    -0.391 OA
ENDROOT
BRANCH   4   6
HETATM    6  C7  UNL     1     -33.881  15.040  -4.050  1.00 20.00     0.041 C 
BRANCH   6   7
HETATM    7  C6  UNL     1     -33.204  16.264  -3.514  1.00 20.00     0.145 A 
HETATM    8  C4  UNL     1     -33.474  16.756  -2.120  1.00 20.00     0.200 A 
HETATM    9  O9  UNL     1     -34.081  17.369  -3.269  1.00 20.00    -0.381 OA
ENDBRANCH   6   7
ENDBRANCH   4   6
TORSDOF 2
ENDMDL
MODEL 8
REMARK VINA RESULT:      -3.6     12.435     13.288
REMARK  2 active torsions:
REMARK  status: ('A' for Active; 'I' for Inactive)
REMARK    1  A    between atoms: C5_5  and  C7_7 
REMARK    2  A    between atoms: C6_6  and  C7_7 
ROOT
HETATM    1  C1  UNL     1     -33.314  16.704  -2.319  1.00 20.00     0.033 C 
HETATM    2  C2  UNL     1     -33.652  16.272  -3.731  1.00 20.00     0.168 C 
HETATM    3  C3  UNL     1     -33.852  18.590  -3.606  1.00 20.00     0.172 C 
HETATM    4  C5  UNL     1     -32.876  18.137  -2.534  1.00 20.00     0.014 C 
HETATM    5  O8  UNL     1     -34.123  17.439  -4.420  1.00 20.00    -0.391 OA
ENDROOT
BRANCH   4   6
HETATM    6  C7  UNL     1     -32.906  18.990  -1.281  1.00 20.00     0.041 C 
BRANCH   6   7
HETATM    7  C6  UNL     1     -32.077  18.403  -0.180  1.00 20.00     0.145 A 
HETATM    8  C4  UNL     1     -31.170  19.263   0.655  1.00 20.00     0.200 A 
HETATM    9  O9  UNL     1     -30.664  18.445  -0.412  1.00 20.00    -0.381 OA
ENDBRANCH   6   7
ENDBRANCH   4   6
TORSDOF 2
ENDMDL
MODEL 9
REMARK VINA RESULT:      -3.5     15.659     16.612
REMARK  2 active torsions:
REMARK  status: ('A' for Active; 'I' for Inactive)
REMARK    1  A    between atoms: C5_5  and  C7_7 
REMARK    2  A    between atoms: C6_6  and  C7_7 
ROOT
HETATM    1  C1  UNL     1     -23.652  17.235  10.023  1.00 20.00     0.033 C 
HETATM    2  C2  UNL     1     -22.242  17.651   9.656  1.00 20.00     0.168 C 
HETATM    3  C3  UNL     1     -22.721  18.479  11.779  1.00 20.00     0.172 C 
HETATM    4  C5  UNL     1     -23.594  17.262  11.534  1.00 20.00     0.014 C 
HETATM    5  O8  UNL     1     -21.787  18.536  10.690  1.00 20.00    -0.391 OA
ENDROOT
BRANCH   4   6
HETATM    6  C7  UNL     1     -24.951  17.337  12.206  1.00 20.00     0.041 C 
BRANCH   6   7
HETATM    7  C6  UNL     1     -25.444  18.747  12.325  1.00 20.00     0.145 A 
HETATM    8  C4  UNL     1     -26.913  19.060  12.331  1.00 20.00     0.200 A 
HETATM    9  O9  UNL     1     -26.106  19.245  11.158  1.00 20.00    -0.381 OA
ENDBRANCH   6   7
ENDBRANCH   4   6
TORSDOF 2
ENDMDL
