MODEL 1
REMARK VINA RESULT:      -4.1      0.000      0.000
REMARK  1 active torsions:
REMARK  status: ('A' for Active; 'I' for Inactive)
REMARK    1  A    between atoms: C4_4  and  C8_8 
ROOT
HETATM    1  C1  UNL     1     -23.378  18.867   7.905  1.00 20.00     0.137 C 
HETATM    2  C2  UNL     1     -24.239  18.713   9.135  1.00 20.00     0.095 C 
HETATM    3  C3  UNL     1     -21.917  18.562   8.108  1.00 20.00     0.152 C 
HETATM    4  C4  UNL     1     -23.550  17.687  10.023  1.00 20.00     0.062 C 
HETATM    5  O9  UNL     1     -23.825  19.262   6.832  1.00 20.00    -0.297 OA
HETATM    6  S10 UNL     1     -21.779  18.036   9.833  1.00 20.00    -0.156 SA
ENDROOT
BRANCH   4   7
HETATM    7  C8  UNL     1     -23.980  17.785  11.477  1.00 20.00    -0.038 C 
HETATM    8  C5  UNL     1     -22.804  18.282  12.328  1.00 20.00     0.015 C 
HETATM    9  C6  UNL     1     -24.423  16.401  11.973  1.00 20.00     0.015 C 
HETATM   10  C7  UNL     1     -25.152  18.771  11.598  1.00 20.00     0.015 C 
ENDBRANCH   4   7
TORSDOF 1
ENDMDL
MODEL 2
REMARK VINA RESULT:      -3.9      1.497      2.187
REMARK  1 active torsions:
REMARK  status: ('A' for Active; 'I' for Inactive)
REMARK    1  A    between atoms: C4_4  and  C8_8 
ROOT
HETATM    1  C1  UNL     1     -22.586  18.562   7.825  1.00 20.00     0.137 C 
HETATM    2  C2  UNL     1     -22.402  18.021   9.222  1.00 20.00     0.095 C 
HETATM    3  C3  UNL     1     -23.896  19.263   7.581  1.00 20.00     0.152 C 
HETATM    4  C4  UNL     1     -23.256  18.884  10.139  1.00 20.00     0.062 C 
HETATM    5  O9  UNL     1     -21.753  18.398   6.939  1.00 20.00    -0.297 OA
HETATM    6  S10 UNL     1     -24.753  19.233   9.174  1.00 20.00    -0.156 SA
ENDROOT
BRANCH   4   7
HETATM    7  C8  UNL     1     -23.592  18.195  11.450  1.00 20.00    -0.038 C 
HETATM    8  C5  UNL     1     -24.088  16.771  11.169  1.00 20.00     0.015 C 
HETATM    9  C6  UNL     1     -24.688  18.986  12.178  1.00 20.00     0.015 C 
HETATM   10  C7  UNL     1     -22.335  18.134  12.332  1.00 20.00     0.015 C 
ENDBRANCH   4   7
TORSDOF 1
ENDMDL
MODEL 3
REMARK VINA RESULT:      -3.9     15.467     16.249
REMARK  1 active torsions:
REMARK  status: ('A' for Active; 'I' for Inactive)
REMARK    1  A    between atoms: C4_4  and  C8_8 
ROOT
HETATM    1  C1  UNL     1     -32.284   8.598   4.687  1.00 20.00     0.137 C 
HETATM    2  C2  UNL     1     -33.298   7.723   5.383  1.00 20.00     0.095 C 
HETATM    3  C3  UNL     1     -31.769   8.059   3.378  1.00 20.00     0.152 C 
HETATM    4  C4  UNL     1     -33.991   6.912   4.297  1.00 20.00     0.062 C 
HETATM    5  O9  UNL     1     -31.871   9.646   5.175  1.00 20.00    -0.297 OA
HETATM    6  S10 UNL     1     -32.674   6.515   3.114  1.00 20.00    -0.156 SA
ENDROOT
BRANCH   4   7
HETATM    7  C8  UNL     1     -34.649   5.653   4.835  1.00 20.00    -0.038 C 
HETATM    8  C5  UNL     1     -33.896   4.420   4.320  1.00 20.00     0.015 C 
HETATM    9  C6  UNL     1     -36.108   5.597   4.361  1.00 20.00     0.015 C 
HETATM   10  C7  UNL     1     -34.611   5.671   6.371  1.00 20.00     0.015 C 
ENDBRANCH   4   7
TORSDOF 1
ENDMDL
MODEL 4
REMARK VINA RESULT:      -3.8     12.874     14.369
REMARK  1 active torsions:
REMARK  status: ('A' for Active; 'I' for Inactive)
REMARK    1  A    between atoms: C4_4  and  C8_8 
ROOT
HETATM    1  C1  UNL     1     -31.166  19.058   0.970  1.00 20.00     0.137 C 
HETATM    2  C2  UNL     1     -31.437  18.719  -0.474  1.00 20.00     0.095 C 
HETATM    3  C3  UNL     1     -32.393  19.263   1.819  1.00 20.00     0.152 C 
HETATM    4  C4  UNL     1     -32.799  18.040  -0.514  1.00 20.00     0.062 C 
HETATM    5  O9  UNL     1     -30.030  19.208   1.411  1.00 20.00    -0.297 OA
HETATM    6  S10 UNL     1     -33.789  18.935   0.716  1.00 20.00    -0.156 SA
ENDROOT
BRANCH   4   7
HETATM    7  C8  UNL     1     -33.443  18.094  -1.888  1.00 20.00    -0.038 C 
HETATM    8  C5  UNL     1     -32.666  19.071  -2.781  1.00 20.00     0.015 C 
HETATM    9  C6  UNL     1     -34.897  18.569  -1.754  1.00 20.00     0.015 C 
HETATM   10  C7  UNL     1     -33.418  16.694  -2.520  1.00 20.00     0.015 C 
ENDBRANCH   4   7
TORSDOF 1
ENDMDL
MODEL 5
REMARK VINA RESULT:      -3.7     15.752     16.437
REMARK  1 active torsions:
REMARK  status: ('A' for Active; 'I' for Inactive)
REMARK    1  A    between atoms: C4_4  and  C8_8 
ROOT
HETATM    1  C1  UNL     1     -32.397   7.779   2.608  1.00 20.00     0.137 C 
HETATM    2  C2  UNL     1     -33.147   6.519   2.963  1.00 20.00     0.095 C 
HETATM    3  C3  UNL     1     -32.494   8.886   3.626  1.00 20.00     0.152 C 
HETATM    4  C4  UNL     1     -33.224   6.471   4.482  1.00 20.00     0.062 C 
HETATM    5  O9  UNL     1     -31.796   7.913   1.546  1.00 20.00    -0.297 OA
HETATM    6  S10 UNL     1     -33.475   8.197   4.980  1.00 20.00    -0.156 SA
ENDROOT
BRANCH   4   7
HETATM    7  C8  UNL     1     -34.347   5.581   4.985  1.00 20.00    -0.038 C 
HETATM    8  C5  UNL     1     -34.436   5.682   6.514  1.00 20.00     0.015 C 
HETATM    9  C6  UNL     1     -34.066   4.126   4.584  1.00 20.00     0.015 C 
HETATM   10  C7  UNL     1     -35.677   6.034   4.364  1.00 20.00     0.015 C 
ENDBRANCH   4   7
TORSDOF 1
ENDMDL
MODEL 6
REMARK VINA RESULT:      -3.7     15.806     17.106
REMARK  1 active torsions:
REMARK  status: ('A' for Active; 'I' for Inactive)
REMARK    1  A    between atoms: C4_4  and  C8_8 
ROOT
HETATM    1  C1  UNL     1     -33.785  15.121  -4.332  1.00 20.00     0.137 C 
HETATM    2  C2  UNL     1     -33.416  15.891  -3.088  1.00 20.00     0.095 C 
HETATM    3  C3  UNL     1     -34.705  15.844  -5.280  1.00 20.00     0.152 C 
HETATM    4  C4  UNL     1     -33.520  17.368  -3.443  1.00 20.00     0.062 C 
HETATM    5  O9  UNL     1     -33.406  13.971  -4.532  1.00 20.00    -0.297 OA
HETATM    6  S10 UNL     1     -34.965  17.472  -4.536  1.00 20.00    -0.156 SA
ENDROOT
BRANCH   4   7
HETATM    7  C8  UNL     1     -33.685  18.255  -2.222  1.00 20.00    -0.038 C 
HETATM    8  C5  UNL     1     -35.018  19.011  -2.312  1.00 20.00     0.015 C 
HETATM    9  C6  UNL     1     -32.528  19.263  -2.162  1.00 20.00     0.015 C 
HETATM   10  C7  UNL     1     -33.674  17.388  -0.953  1.00 20.00     0.015 C 
ENDBRANCH   4   7
TORSDOF 1
ENDMDL
MODEL 7
REMARK VINA RESULT:      -3.4     15.397     16.257
REMARK  1 active torsions:
REMARK  status: ('A' for Active; 'I' for Inactive)
REMARK    1  A    between atoms: C4_4  and  C8_8 
ROOT
HETATM    1  C1  UNL     1     -34.458   5.394   4.977  1.00 20.00     0.137 C 
HETATM    2  C2  UNL     1     -33.641   6.165   3.970  1.00 20.00     0.095 C 
HETATM    3  C3  UNL     1     -34.574   6.040   6.333  1.00 20.00     0.152 C 
HETATM    4  C4  UNL     1     -33.727   7.631   4.370  1.00 20.00     0.062 C 
HETATM    5  O9  UNL     1     -34.948   4.296   4.728  1.00 20.00    -0.297 OA
HETATM    6  S10 UNL     1     -33.689   7.611   6.185  1.00 20.00    -0.156 SA
ENDROOT
BRANCH   4   7
HETATM    7  C8  UNL     1     -32.590   8.463   3.802  1.00 20.00    -0.038 C 
HETATM    8  C5  UNL     1     -33.137   9.412   2.728  1.00 20.00     0.015 C 
HETATM    9  C6  UNL     1     -31.539   7.534   3.179  1.00 20.00     0.015 C 
HETATM   10  C7  UNL     1     -31.944   9.284   4.929  1.00 20.00     0.015 C 
ENDBRANCH   4   7
TORSDOF 1
ENDMDL
MODEL 8
REMARK VINA RESULT:      -3.3     17.647     18.965
REMARK  1 active torsions:
REMARK  status: ('A' for Active; 'I' for Inactive)
REMARK    1  A    between atoms: C4_4  and  C8_8 
ROOT
HETATM    1  C1  UNL     1     -35.904  15.333  -6.020  1.00 20.00     0.137 C 
HETATM    2  C2  UNL     1     -34.790  15.695  -5.070  1.00 20.00     0.095 C 
HETATM    3  C3  UNL     1     -37.041  16.319  -6.075  1.00 20.00     0.152 C 
HETATM    4  C4  UNL     1     -34.800  17.212  -4.945  1.00 20.00     0.062 C 
HETATM    5  O9  UNL     1     -35.909  14.287  -6.663  1.00 20.00    -0.297 OA
HETATM    6  S10 UNL     1     -36.558  17.659  -4.961  1.00 20.00    -0.156 SA
ENDROOT
BRANCH   4   7
HETATM    7  C8  UNL     1     -34.115  17.702  -3.682  1.00 20.00    -0.038 C 
HETATM    8  C5  UNL     1     -35.158  18.316  -2.738  1.00 20.00     0.015 C 
HETATM    9  C6  UNL     1     -33.067  18.764  -4.047  1.00 20.00     0.015 C 
HETATM   10  C7  UNL     1     -33.424  16.521  -2.983  1.00 20.00     0.015 C 
ENDBRANCH   4   7
TORSDOF 1
ENDMDL
MODEL 9
REMARK VINA RESULT:      -3.2     17.170     18.476
REMARK  1 active torsions:
REMARK  status: ('A' for Active; 'I' for Inactive)
REMARK    1  A    between atoms: C4_4  and  C8_8 
ROOT
HETATM    1  C1  UNL     1     -33.274  18.459  -3.780  1.00 20.00     0.137 C 
HETATM    2  C2  UNL     1     -33.489  16.966  -3.800  1.00 20.00     0.095 C 
HETATM    3  C3  UNL     1     -33.771  19.191  -4.999  1.00 20.00     0.152 C 
HETATM    4  C4  UNL     1     -34.697  16.711  -4.691  1.00 20.00     0.062 C 
HETATM    5  O9  UNL     1     -32.692  19.030  -2.862  1.00 20.00    -0.297 OA
HETATM    6  S10 UNL     1     -34.533  17.919  -6.035  1.00 20.00    -0.156 SA
ENDROOT
BRANCH   4   7
HETATM    7  C8  UNL     1     -34.743  15.291  -5.225  1.00 20.00    -0.038 C 
HETATM    8  C5  UNL     1     -34.073  14.343  -4.222  1.00 20.00     0.015 C 
HETATM    9  C6  UNL     1     -34.001  15.224  -6.567  1.00 20.00     0.015 C 
HETATM   10  C7  UNL     1     -36.206  14.868  -5.429  1.00 20.00     0.015 C 
ENDBRANCH   4   7
TORSDOF 1
ENDMDL
