MODEL 1
REMARK VINA RESULT:      -4.7      0.000      0.000
REMARK  1 active torsions:
REMARK  status: ('A' for Active; 'I' for Inactive)
REMARK    1  A    between atoms: C2_2  and  C4_4 
ROOT
HETATM    1  C1  UNL     1     -34.505   6.034   6.378  1.00 20.00     0.092 A 
HETATM    2  C2  UNL     1     -33.669   6.601   5.251  1.00 20.00     0.092 A 
HETATM    3  C3  UNL     1     -34.751   5.622   4.970  1.00 20.00     0.250 A 
HETATM    4  F5  UNL     1     -34.449   4.344   4.557  1.00 20.00    -0.206 F 
HETATM    5  F6  UNL     1     -35.907   5.999   4.326  1.00 20.00    -0.206 F 
ENDROOT
BRANCH   2   6
HETATM    6  C4  UNL     1     -33.822   8.026   4.849  1.00 20.00     0.232 C 
HETATM    7  F7  UNL     1     -32.720   8.734   5.235  1.00 20.00    -0.255 F 
ENDBRANCH   2   6
TORSDOF 1
ENDMDL
MODEL 2
REMARK VINA RESULT:      -4.7      1.742      1.933
REMARK  1 active torsions:
REMARK  status: ('A' for Active; 'I' for Inactive)
REMARK    1  A    between atoms: C2_2  and  C4_4 
ROOT
HETATM    1  C1  UNL     1     -35.508   5.754   4.526  1.00 20.00     0.092 A 
HETATM    2  C2  UNL     1     -34.473   5.775   5.630  1.00 20.00     0.092 A 
HETATM    3  C3  UNL     1     -34.148   5.197   4.301  1.00 20.00     0.250 A 
HETATM    4  F5  UNL     1     -33.968   3.840   4.152  1.00 20.00    -0.206 F 
HETATM    5  F6  UNL     1     -33.271   5.823   3.444  1.00 20.00    -0.206 F 
ENDROOT
BRANCH   2   6
HETATM    6  C4  UNL     1     -33.863   7.063   6.060  1.00 20.00     0.232 C 
HETATM    7  F7  UNL     1     -34.512   7.534   7.165  1.00 20.00    -0.255 F 
ENDBRANCH   2   6
TORSDOF 1
ENDMDL
MODEL 3
REMARK VINA RESULT:      -4.5      2.122      3.487
REMARK  1 active torsions:
REMARK  status: ('A' for Active; 'I' for Inactive)
REMARK    1  A    between atoms: C2_2  and  C4_4 
ROOT
HETATM    1  C1  UNL     1     -32.249   8.740   5.025  1.00 20.00     0.092 A 
HETATM    2  C2  UNL     1     -33.614   8.129   4.796  1.00 20.00     0.092 A 
HETATM    3  C3  UNL     1     -32.615   8.178   3.698  1.00 20.00     0.250 A 
HETATM    4  F5  UNL     1     -32.801   9.010   2.618  1.00 20.00    -0.206 F 
HETATM    5  F6  UNL     1     -32.006   7.033   3.235  1.00 20.00    -0.206 F 
ENDROOT
BRANCH   2   6
HETATM    6  C4  UNL     1     -33.970   6.831   5.433  1.00 20.00     0.232 C 
HETATM    7  F7  UNL     1     -34.530   7.058   6.658  1.00 20.00    -0.255 F 
ENDBRANCH   2   6
TORSDOF 1
ENDMDL
MODEL 4
REMARK VINA RESULT:      -4.4      1.420      3.073
REMARK  1 active torsions:
REMARK  status: ('A' for Active; 'I' for Inactive)
REMARK    1  A    between atoms: C2_2  and  C4_4 
ROOT
HETATM    1  C1  UNL     1     -34.043   6.756   6.330  1.00 20.00     0.092 A 
HETATM    2  C2  UNL     1     -34.683   6.187   5.082  1.00 20.00     0.092 A 
HETATM    3  C3  UNL     1     -33.746   7.337   4.994  1.00 20.00     0.250 A 
HETATM    4  F5  UNL     1     -34.206   8.592   4.664  1.00 20.00    -0.206 F 
HETATM    5  F6  UNL     1     -32.495   7.198   4.436  1.00 20.00    -0.206 F 
ENDROOT
BRANCH   2   6
HETATM    6  C4  UNL     1     -34.278   4.847   4.577  1.00 20.00     0.232 C 
HETATM    7  F7  UNL     1     -33.683   4.976   3.355  1.00 20.00    -0.255 F 
ENDBRANCH   2   6
TORSDOF 1
ENDMDL
MODEL 5
REMARK VINA RESULT:      -4.4      1.478      1.930
REMARK  1 active torsions:
REMARK  status: ('A' for Active; 'I' for Inactive)
REMARK    1  A    between atoms: C2_2  and  C4_4 
ROOT
HETATM    1  C1  UNL     1     -33.821   5.702   3.916  1.00 20.00     0.092 A 
HETATM    2  C2  UNL     1     -34.163   6.950   4.701  1.00 20.00     0.092 A 
HETATM    3  C3  UNL     1     -35.079   5.780   4.704  1.00 20.00     0.250 A 
HETATM    4  F5  UNL     1     -36.297   5.842   4.066  1.00 20.00    -0.206 F 
HETATM    5  F6  UNL     1     -35.245   5.005   5.830  1.00 20.00    -0.206 F 
ENDROOT
BRANCH   2   6
HETATM    6  C4  UNL     1     -33.389   7.302   5.923  1.00 20.00     0.232 C 
HETATM    7  F7  UNL     1     -34.236   7.414   6.988  1.00 20.00    -0.255 F 
ENDBRANCH   2   6
TORSDOF 1
ENDMDL
MODEL 6
REMARK VINA RESULT:      -4.3      2.008      2.726
REMARK  1 active torsions:
REMARK  status: ('A' for Active; 'I' for Inactive)
REMARK    1  A    between atoms: C2_2  and  C4_4 
ROOT
HETATM    1  C1  UNL     1     -35.535   5.898   4.632  1.00 20.00     0.092 A 
HETATM    2  C2  UNL     1     -34.091   6.160   4.265  1.00 20.00     0.092 A 
HETATM    3  C3  UNL     1     -34.475   5.883   5.673  1.00 20.00     0.250 A 
HETATM    4  F5  UNL     1     -34.419   6.877   6.624  1.00 20.00    -0.206 F 
HETATM    5  F6  UNL     1     -34.122   4.704   6.291  1.00 20.00    -0.206 F 
ENDROOT
BRANCH   2   6
HETATM    6  C4  UNL     1     -33.322   5.154   3.482  1.00 20.00     0.232 C 
HETATM    7  F7  UNL     1     -32.593   5.784   2.514  1.00 20.00    -0.255 F 
ENDBRANCH   2   6
TORSDOF 1
ENDMDL
MODEL 7
REMARK VINA RESULT:      -4.2      1.873      2.370
REMARK  1 active torsions:
REMARK  status: ('A' for Active; 'I' for Inactive)
REMARK    1  A    between atoms: C2_2  and  C4_4 
ROOT
HETATM    1  C1  UNL     1     -34.296   6.260   4.808  1.00 20.00     0.092 A 
HETATM    2  C2  UNL     1     -33.876   7.707   4.952  1.00 20.00     0.092 A 
HETATM    3  C3  UNL     1     -33.964   6.824   6.143  1.00 20.00     0.250 A 
HETATM    4  F5  UNL     1     -34.951   7.012   7.084  1.00 20.00    -0.206 F 
HETATM    5  F6  UNL     1     -32.833   6.411   6.812  1.00 20.00    -0.206 F 
ENDROOT
BRANCH   2   6
HETATM    6  C4  UNL     1     -32.550   8.156   4.444  1.00 20.00     0.232 C 
HETATM    7  F7  UNL     1     -32.140   9.257   5.141  1.00 20.00    -0.255 F 
ENDBRANCH   2   6
TORSDOF 1
ENDMDL
MODEL 8
REMARK VINA RESULT:      -4.2      1.861      2.179
REMARK  1 active torsions:
REMARK  status: ('A' for Active; 'I' for Inactive)
REMARK    1  A    between atoms: C2_2  and  C4_4 
ROOT
HETATM    1  C1  UNL     1     -34.002   8.407   5.549  1.00 20.00     0.092 A 
HETATM    2  C2  UNL     1     -32.792   7.697   4.982  1.00 20.00     0.092 A 
HETATM    3  C3  UNL     1     -33.987   6.926   5.414  1.00 20.00     0.250 A 
HETATM    4  F5  UNL     1     -33.938   6.126   6.533  1.00 20.00    -0.206 F 
HETATM    5  F6  UNL     1     -34.803   6.301   4.499  1.00 20.00    -0.206 F 
ENDROOT
BRANCH   2   6
HETATM    6  C4  UNL     1     -32.459   7.821   3.537  1.00 20.00     0.232 C 
HETATM    7  F7  UNL     1     -32.298   6.579   2.993  1.00 20.00    -0.255 F 
ENDBRANCH   2   6
TORSDOF 1
ENDMDL
MODEL 9
REMARK VINA RESULT:      -4.0      1.717      3.451
REMARK  1 active torsions:
REMARK  status: ('A' for Active; 'I' for Inactive)
REMARK    1  A    between atoms: C2_2  and  C4_4 
ROOT
HETATM    1  C1  UNL     1     -33.989   8.079   4.052  1.00 20.00     0.092 A 
HETATM    2  C2  UNL     1     -33.545   7.023   5.041  1.00 20.00     0.092 A 
HETATM    3  C3  UNL     1     -32.584   8.037   4.536  1.00 20.00     0.250 A 
HETATM    4  F5  UNL     1     -31.565   7.673   3.684  1.00 20.00    -0.206 F 
HETATM    5  F6  UNL     1     -32.099   9.032   5.355  1.00 20.00    -0.206 F 
ENDROOT
BRANCH   2   6
HETATM    6  C4  UNL     1     -34.019   7.071   6.451  1.00 20.00     0.232 C 
HETATM    7  F7  UNL     1     -34.758   5.956   6.727  1.00 20.00    -0.255 F 
ENDBRANCH   2   6
TORSDOF 1
ENDMDL
