MODEL 1
REMARK VINA RESULT:      -6.1      0.000      0.000
REMARK  1 active torsions:
REMARK  status: ('A' for Active; 'I' for Inactive)
REMARK    1  A    between atoms: C2_2  and  C6_6 
ROOT
HETATM    1  C1  UNL     1     -33.623   7.717   5.257  1.00 20.00     0.011 C 
HETATM    2  C2  UNL     1     -33.847   6.585   4.570  1.00 20.00     0.026 C 
HETATM    3  C3  UNL     1     -32.525   8.670   4.891  1.00 20.00     0.195 C 
HETATM    4  C4  UNL     1     -33.007   6.250   3.366  1.00 20.00     0.069 C 
HETATM    5  C5  UNL     1     -32.225   7.465   2.874  1.00 20.00     0.172 C 
HETATM    6  O7  UNL     1     -31.580   8.099   3.978  1.00 20.00    -0.387 OA
ENDROOT
BRANCH   2   7
HETATM    7  C6  UNL     1     -34.915   5.605   4.948  1.00 20.00     0.413 C 
HETATM    8  F8  UNL     1     -34.570   4.352   4.585  1.00 20.00    -0.166 F 
HETATM    9  F9  UNL     1     -35.125   5.607   6.280  1.00 20.00    -0.166 F 
HETATM   10  F10 UNL     1     -36.084   5.902   4.345  1.00 20.00    -0.166 F 
ENDBRANCH   2   7
TORSDOF 1
ENDMDL
MODEL 2
REMARK VINA RESULT:      -6.1      0.394      1.969
REMARK  1 active torsions:
REMARK  status: ('A' for Active; 'I' for Inactive)
REMARK    1  A    between atoms: C2_2  and  C6_6 
ROOT
HETATM    1  C1  UNL     1     -33.099   6.427   3.451  1.00 20.00     0.011 C 
HETATM    2  C2  UNL     1     -33.843   6.619   4.553  1.00 20.00     0.026 C 
HETATM    3  C3  UNL     1     -32.155   7.471   2.932  1.00 20.00     0.195 C 
HETATM    4  C4  UNL     1     -33.721   7.899   5.336  1.00 20.00     0.069 C 
HETATM    5  C5  UNL     1     -32.466   8.676   4.947  1.00 20.00     0.172 C 
HETATM    6  O7  UNL     1     -32.373   8.756   3.525  1.00 20.00    -0.387 OA
ENDROOT
BRANCH   2   7
HETATM    7  C6  UNL     1     -34.819   5.602   5.060  1.00 20.00     0.413 C 
HETATM    8  F8  UNL     1     -36.029   5.767   4.487  1.00 20.00    -0.166 F 
HETATM    9  F9  UNL     1     -34.399   4.350   4.787  1.00 20.00    -0.166 F 
HETATM   10  F10 UNL     1     -34.977   5.702   6.396  1.00 20.00    -0.166 F 
ENDBRANCH   2   7
TORSDOF 1
ENDMDL
MODEL 3
REMARK VINA RESULT:      -5.7      3.066      3.742
REMARK  1 active torsions:
REMARK  status: ('A' for Active; 'I' for Inactive)
REMARK    1  A    between atoms: C2_2  and  C6_6 
ROOT
HETATM    1  C1  UNL     1     -33.883   6.956   5.840  1.00 20.00     0.011 C 
HETATM    2  C2  UNL     1     -33.329   7.027   4.618  1.00 20.00     0.026 C 
HETATM    3  C3  UNL     1     -34.751   5.807   6.259  1.00 20.00     0.195 C 
HETATM    4  C4  UNL     1     -33.538   5.914   3.626  1.00 20.00     0.069 C 
HETATM    5  C5  UNL     1     -34.079   4.656   4.301  1.00 20.00     0.172 C 
HETATM    6  O7  UNL     1     -35.172   5.001   5.152  1.00 20.00    -0.387 OA
ENDROOT
BRANCH   2   7
HETATM    7  C6  UNL     1     -32.492   8.187   4.174  1.00 20.00     0.413 C 
HETATM    8  F8  UNL     1     -31.296   7.769   3.709  1.00 20.00    -0.166 F 
HETATM    9  F9  UNL     1     -33.102   8.874   3.187  1.00 20.00    -0.166 F 
HETATM   10  F10 UNL     1     -32.264   9.041   5.192  1.00 20.00    -0.166 F 
ENDBRANCH   2   7
TORSDOF 1
ENDMDL
MODEL 4
REMARK VINA RESULT:      -5.7      3.089      4.054
REMARK  1 active torsions:
REMARK  status: ('A' for Active; 'I' for Inactive)
REMARK    1  A    between atoms: C2_2  and  C6_6 
ROOT
HETATM    1  C1  UNL     1     -33.679   6.178   3.929  1.00 20.00     0.011 C 
HETATM    2  C2  UNL     1     -33.279   7.183   4.725  1.00 20.00     0.026 C 
HETATM    3  C3  UNL     1     -34.466   5.012   4.448  1.00 20.00     0.195 C 
HETATM    4  C4  UNL     1     -33.647   7.185   6.185  1.00 20.00     0.069 C 
HETATM    5  C5  UNL     1     -34.762   6.186   6.483  1.00 20.00     0.172 C 
HETATM    6  O7  UNL     1     -34.455   4.931   5.878  1.00 20.00    -0.387 OA
ENDROOT
BRANCH   2   7
HETATM    7  C6  UNL     1     -32.459   8.334   4.228  1.00 20.00     0.413 C 
HETATM    8  F8  UNL     1     -32.383   9.309   5.157  1.00 20.00    -0.166 F 
HETATM    9  F9  UNL     1     -31.202   7.943   3.935  1.00 20.00    -0.166 F 
HETATM   10  F10 UNL     1     -32.996   8.868   3.112  1.00 20.00    -0.166 F 
ENDBRANCH   2   7
TORSDOF 1
ENDMDL
MODEL 5
REMARK VINA RESULT:      -5.7      3.089      4.053
REMARK  1 active torsions:
REMARK  status: ('A' for Active; 'I' for Inactive)
REMARK    1  A    between atoms: C2_2  and  C6_6 
ROOT
HETATM    1  C1  UNL     1     -33.677   6.177   3.928  1.00 20.00     0.011 C 
HETATM    2  C2  UNL     1     -33.279   7.183   4.725  1.00 20.00     0.026 C 
HETATM    3  C3  UNL     1     -34.464   5.010   4.447  1.00 20.00     0.195 C 
HETATM    4  C4  UNL     1     -33.649   7.185   6.184  1.00 20.00     0.069 C 
HETATM    5  C5  UNL     1     -34.763   6.185   6.482  1.00 20.00     0.172 C 
HETATM    6  O7  UNL     1     -34.454   4.930   5.877  1.00 20.00    -0.387 OA
ENDROOT
BRANCH   2   7
HETATM    7  C6  UNL     1     -32.460   8.334   4.229  1.00 20.00     0.413 C 
HETATM    8  F8  UNL     1     -31.203   7.941   3.936  1.00 20.00    -0.166 F 
HETATM    9  F9  UNL     1     -32.998   8.867   3.113  1.00 20.00    -0.166 F 
HETATM   10  F10 UNL     1     -32.381   9.311   5.156  1.00 20.00    -0.166 F 
ENDBRANCH   2   7
TORSDOF 1
ENDMDL
MODEL 6
REMARK VINA RESULT:      -4.6      2.584      3.459
REMARK  1 active torsions:
REMARK  status: ('A' for Active; 'I' for Inactive)
REMARK    1  A    between atoms: C2_2  and  C6_6 
ROOT
HETATM    1  C1  UNL     1     -34.348   5.152   4.701  1.00 20.00     0.011 C 
HETATM    2  C2  UNL     1     -33.569   5.997   4.005  1.00 20.00     0.026 C 
HETATM    3  C3  UNL     1     -34.854   5.479   6.074  1.00 20.00     0.195 C 
HETATM    4  C4  UNL     1     -33.203   7.338   4.581  1.00 20.00     0.069 C 
HETATM    5  C5  UNL     1     -34.093   7.701   5.767  1.00 20.00     0.172 C 
HETATM    6  O7  UNL     1     -34.172   6.593   6.663  1.00 20.00    -0.387 OA
ENDROOT
BRANCH   2   7
HETATM    7  C6  UNL     1     -33.024   5.667   2.649  1.00 20.00     0.413 C 
HETATM    8  F8  UNL     1     -34.022   5.398   1.781  1.00 20.00    -0.166 F 
HETATM    9  F9  UNL     1     -32.308   6.695   2.152  1.00 20.00    -0.166 F 
HETATM   10  F10 UNL     1     -32.218   4.586   2.698  1.00 20.00    -0.166 F 
ENDBRANCH   2   7
TORSDOF 1
ENDMDL
MODEL 7
REMARK VINA RESULT:      -4.5      1.762      2.780
REMARK  1 active torsions:
REMARK  status: ('A' for Active; 'I' for Inactive)
REMARK    1  A    between atoms: C2_2  and  C6_6 
ROOT
HETATM    1  C1  UNL     1     -32.534   7.419   3.768  1.00 20.00     0.011 C 
HETATM    2  C2  UNL     1     -33.326   6.356   3.987  1.00 20.00     0.026 C 
HETATM    3  C3  UNL     1     -32.561   8.631   4.652  1.00 20.00     0.195 C 
HETATM    4  C4  UNL     1     -34.256   6.335   5.170  1.00 20.00     0.069 C 
HETATM    5  C5  UNL     1     -33.895   7.416   6.186  1.00 20.00     0.172 C 
HETATM    6  O7  UNL     1     -33.704   8.660   5.514  1.00 20.00    -0.387 OA
ENDROOT
BRANCH   2   7
HETATM    7  C6  UNL     1     -33.338   5.156   3.090  1.00 20.00     0.413 C 
HETATM    8  F8  UNL     1     -33.948   4.113   3.689  1.00 20.00    -0.166 F 
HETATM    9  F9  UNL     1     -33.995   5.417   1.942  1.00 20.00    -0.166 F 
HETATM   10  F10 UNL     1     -32.084   4.774   2.771  1.00 20.00    -0.166 F 
ENDBRANCH   2   7
TORSDOF 1
ENDMDL
MODEL 8
REMARK VINA RESULT:      -4.3      1.576      2.365
REMARK  1 active torsions:
REMARK  status: ('A' for Active; 'I' for Inactive)
REMARK    1  A    between atoms: C2_2  and  C6_6 
ROOT
HETATM    1  C1  UNL     1     -33.921   6.821   4.840  1.00 20.00     0.011 C 
HETATM    2  C2  UNL     1     -33.188   6.474   3.769  1.00 20.00     0.026 C 
HETATM    3  C3  UNL     1     -33.762   8.147   5.522  1.00 20.00     0.195 C 
HETATM    4  C4  UNL     1     -32.191   7.440   3.189  1.00 20.00     0.069 C 
HETATM    5  C5  UNL     1     -32.418   8.858   3.706  1.00 20.00     0.172 C 
HETATM    6  O7  UNL     1     -32.568   8.832   5.125  1.00 20.00    -0.387 OA
ENDROOT
BRANCH   2   7
HETATM    7  C6  UNL     1     -33.309   5.137   3.103  1.00 20.00     0.413 C 
HETATM    8  F8  UNL     1     -34.013   5.232   1.955  1.00 20.00    -0.166 F 
HETATM    9  F9  UNL     1     -32.095   4.634   2.803  1.00 20.00    -0.166 F 
HETATM   10  F10 UNL     1     -33.939   4.251   3.901  1.00 20.00    -0.166 F 
ENDBRANCH   2   7
TORSDOF 1
ENDMDL
MODEL 9
REMARK VINA RESULT:      -4.1     16.463     17.093
REMARK  1 active torsions:
REMARK  status: ('A' for Active; 'I' for Inactive)
REMARK    1  A    between atoms: C2_2  and  C6_6 
ROOT
HETATM    1  C1  UNL     1     -23.981  18.929   9.611  1.00 20.00     0.011 C 
HETATM    2  C2  UNL     1     -22.997  18.345  10.315  1.00 20.00     0.026 C 
HETATM    3  C3  UNL     1     -23.932  19.048   8.116  1.00 20.00     0.195 C 
HETATM    4  C4  UNL     1     -21.809  17.750   9.606  1.00 20.00     0.069 C 
HETATM    5  C5  UNL     1     -22.076  17.577   8.113  1.00 20.00     0.172 C 
HETATM    6  O7  UNL     1     -22.630  18.781   7.583  1.00 20.00    -0.387 OA
ENDROOT
BRANCH   2   7
HETATM    7  C6  UNL     1     -23.014  18.254  11.810  1.00 20.00     0.413 C 
HETATM    8  F8  UNL     1     -21.844  18.677  12.332  1.00 20.00    -0.166 F 
HETATM    9  F9  UNL     1     -23.998  19.014  12.330  1.00 20.00    -0.166 F 
HETATM   10  F10 UNL     1     -23.212  16.984  12.218  1.00 20.00    -0.166 F 
ENDBRANCH   2   7
TORSDOF 1
ENDMDL
