MODEL 1
REMARK VINA RESULT:      -5.4      0.000      0.000
REMARK  0 active torsions:
REMARK  status: ('A' for Active; 'I' for Inactive)
ROOT
HETATM    1  C1  UNL     1     -32.507   8.684   4.852  1.00 20.00     0.102 C 
HETATM    2  C2  UNL     1     -32.810   6.649   3.533  1.00 20.00     0.050 A 
HETATM    3  C3  UNL     1     -34.245   4.876   4.328  1.00 20.00     0.069 A 
HETATM    4  C4  UNL     1     -33.097   7.394   4.677  1.00 20.00     0.087 A 
HETATM    5  C5  UNL     1     -34.532   5.622   5.472  1.00 20.00     0.158 A 
HETATM    6  C6  UNL     1     -33.958   6.881   5.647  1.00 20.00     0.175 A 
HETATM    7  C7  UNL     1     -33.384   5.390   3.359  1.00 20.00     0.038 A 
HETATM    8  N8  UNL     1     -32.027   9.731   4.993  1.00 20.00    -0.191 NA
HETATM    9  F9  UNL     1     -35.360   5.128   6.402  1.00 20.00    -0.203 F 
HETATM   10  F10 UNL     1     -34.244   7.585   6.751  1.00 20.00    -0.201 F 
HETATM   11 CL11 UNL     1     -33.029   4.470   1.948  1.00 20.00    -0.084 Cl
ENDROOT
TORSDOF 0
ENDMDL
MODEL 2
REMARK VINA RESULT:      -4.9      2.772      3.525
REMARK  0 active torsions:
REMARK  status: ('A' for Active; 'I' for Inactive)
ROOT
HETATM    1  C1  UNL     1     -33.082   5.113   2.579  1.00 20.00     0.102 C 
HETATM    2  C2  UNL     1     -32.669   7.189   3.801  1.00 20.00     0.050 A 
HETATM    3  C3  UNL     1     -33.745   7.594   5.925  1.00 20.00     0.069 A 
HETATM    4  C4  UNL     1     -33.308   5.952   3.713  1.00 20.00     0.087 A 
HETATM    5  C5  UNL     1     -34.384   6.357   5.838  1.00 20.00     0.158 A 
HETATM    6  C6  UNL     1     -34.166   5.536   4.731  1.00 20.00     0.175 A 
HETATM    7  C7  UNL     1     -32.887   8.010   4.907  1.00 20.00     0.038 A 
HETATM    8  N8  UNL     1     -32.897   4.433   1.657  1.00 20.00    -0.191 NA
HETATM    9  F9  UNL     1     -35.207   5.959   6.817  1.00 20.00    -0.203 F 
HETATM   10  F10 UNL     1     -34.787   4.350   4.662  1.00 20.00    -0.201 F 
HETATM   11 CL11 UNL     1     -32.099   9.536   5.015  1.00 20.00    -0.084 Cl
ENDROOT
TORSDOF 0
ENDMDL
MODEL 3
REMARK VINA RESULT:      -4.8      2.668      3.039
REMARK  0 active torsions:
REMARK  status: ('A' for Active; 'I' for Inactive)
ROOT
HETATM    1  C1  UNL     1     -32.403   8.836   4.454  1.00 20.00     0.102 C 
HETATM    2  C2  UNL     1     -33.714   7.014   5.421  1.00 20.00     0.050 A 
HETATM    3  C3  UNL     1     -34.024   4.949   4.205  1.00 20.00     0.069 A 
HETATM    4  C4  UNL     1     -32.951   7.519   4.368  1.00 20.00     0.087 A 
HETATM    5  C5  UNL     1     -33.261   5.455   3.152  1.00 20.00     0.158 A 
HETATM    6  C6  UNL     1     -32.725   6.740   3.233  1.00 20.00     0.175 A 
HETATM    7  C7  UNL     1     -34.250   5.729   5.340  1.00 20.00     0.038 A 
HETATM    8  N8  UNL     1     -31.959   9.906   4.526  1.00 20.00    -0.191 NA
HETATM    9  F9  UNL     1     -33.044   4.705   2.064  1.00 20.00    -0.203 F 
HETATM   10  F10 UNL     1     -31.994   7.212   2.213  1.00 20.00    -0.201 F 
HETATM   11 CL11 UNL     1     -35.192   5.105   6.638  1.00 20.00    -0.084 Cl
ENDROOT
TORSDOF 0
ENDMDL
MODEL 4
REMARK VINA RESULT:      -4.7      2.481      3.584
REMARK  0 active torsions:
REMARK  status: ('A' for Active; 'I' for Inactive)
ROOT
HETATM    1  C1  UNL     1     -34.246   5.382   4.609  1.00 20.00     0.102 C 
HETATM    2  C2  UNL     1     -33.096   6.697   2.900  1.00 20.00     0.050 A 
HETATM    3  C3  UNL     1     -32.102   8.827   3.456  1.00 20.00     0.069 A 
HETATM    4  C4  UNL     1     -33.520   6.550   4.221  1.00 20.00     0.087 A 
HETATM    5  C5  UNL     1     -32.525   8.680   4.777  1.00 20.00     0.158 A 
HETATM    6  C6  UNL     1     -33.234   7.541   5.159  1.00 20.00     0.175 A 
HETATM    7  C7  UNL     1     -32.387   7.836   2.517  1.00 20.00     0.038 A 
HETATM    8  N8  UNL     1     -34.835   4.432   4.923  1.00 20.00    -0.191 NA
HETATM    9  F9  UNL     1     -32.250   9.632   5.678  1.00 20.00    -0.203 F 
HETATM   10  F10 UNL     1     -33.634   7.413   6.433  1.00 20.00    -0.201 F 
HETATM   11 CL11 UNL     1     -31.866   8.018   0.887  1.00 20.00    -0.084 Cl
ENDROOT
TORSDOF 0
ENDMDL
MODEL 5
REMARK VINA RESULT:      -4.5      3.051      3.833
REMARK  0 active torsions:
REMARK  status: ('A' for Active; 'I' for Inactive)
ROOT
HETATM    1  C1  UNL     1     -34.664   5.713   6.123  1.00 20.00     0.102 C 
HETATM    2  C2  UNL     1     -33.513   7.425   4.812  1.00 20.00     0.050 A 
HETATM    3  C3  UNL     1     -32.507   6.871   2.687  1.00 20.00     0.069 A 
HETATM    4  C4  UNL     1     -33.933   6.103   4.959  1.00 20.00     0.087 A 
HETATM    5  C5  UNL     1     -32.927   5.548   2.833  1.00 20.00     0.158 A 
HETATM    6  C6  UNL     1     -33.640   5.164   3.969  1.00 20.00     0.175 A 
HETATM    7  C7  UNL     1     -32.800   7.809   3.677  1.00 20.00     0.038 A 
HETATM    8  N8  UNL     1     -35.257   5.398   7.070  1.00 20.00    -0.191 NA
HETATM    9  F9  UNL     1     -32.647   4.648   1.882  1.00 20.00    -0.203 F 
HETATM   10  F10 UNL     1     -34.038   3.890   4.095  1.00 20.00    -0.201 F 
HETATM   11 CL11 UNL     1     -32.280   9.440   3.497  1.00 20.00    -0.084 Cl
ENDROOT
TORSDOF 0
ENDMDL
MODEL 6
REMARK VINA RESULT:      -4.4      3.409      4.244
REMARK  0 active torsions:
REMARK  status: ('A' for Active; 'I' for Inactive)
ROOT
HETATM    1  C1  UNL     1     -32.948   5.090   2.418  1.00 20.00     0.102 C 
HETATM    2  C2  UNL     1     -33.886   5.763   4.572  1.00 20.00     0.050 A 
HETATM    3  C3  UNL     1     -33.483   7.979   5.445  1.00 20.00     0.069 A 
HETATM    4  C4  UNL     1     -33.128   6.070   3.442  1.00 20.00     0.087 A 
HETATM    5  C5  UNL     1     -32.725   8.286   4.315  1.00 20.00     0.158 A 
HETATM    6  C6  UNL     1     -32.547   7.332   3.314  1.00 20.00     0.175 A 
HETATM    7  C7  UNL     1     -34.064   6.718   5.574  1.00 20.00     0.038 A 
HETATM    8  N8  UNL     1     -32.803   4.293   1.587  1.00 20.00    -0.191 NA
HETATM    9  F9  UNL     1     -32.169   9.499   4.192  1.00 20.00    -0.203 F 
HETATM   10  F10 UNL     1     -31.816   7.643   2.233  1.00 20.00    -0.201 F 
HETATM   11 CL11 UNL     1     -34.998   6.338   6.968  1.00 20.00    -0.084 Cl
ENDROOT
TORSDOF 0
ENDMDL
MODEL 7
REMARK VINA RESULT:      -4.4      2.864      3.370
REMARK  0 active torsions:
REMARK  status: ('A' for Active; 'I' for Inactive)
ROOT
HETATM    1  C1  UNL     1     -32.348   7.612   2.253  1.00 20.00     0.102 C 
HETATM    2  C2  UNL     1     -33.283   7.618   4.511  1.00 20.00     0.050 A 
HETATM    3  C3  UNL     1     -34.174   5.589   5.474  1.00 20.00     0.069 A 
HETATM    4  C4  UNL     1     -32.966   6.924   3.342  1.00 20.00     0.087 A 
HETATM    5  C5  UNL     1     -33.857   4.896   4.305  1.00 20.00     0.158 A 
HETATM    6  C6  UNL     1     -33.254   5.563   3.240  1.00 20.00     0.175 A 
HETATM    7  C7  UNL     1     -33.887   6.950   5.577  1.00 20.00     0.038 A 
HETATM    8  N8  UNL     1     -31.846   8.171   1.369  1.00 20.00    -0.191 NA
HETATM    9  F9  UNL     1     -34.132   3.589   4.208  1.00 20.00    -0.203 F 
HETATM   10  F10 UNL     1     -32.955   4.883   2.123  1.00 20.00    -0.201 F 
HETATM   11 CL11 UNL     1     -34.278   7.806   7.017  1.00 20.00    -0.084 Cl
ENDROOT
TORSDOF 0
ENDMDL
MODEL 8
REMARK VINA RESULT:      -4.1     12.920     13.061
REMARK  0 active torsions:
REMARK  status: ('A' for Active; 'I' for Inactive)
ROOT
HETATM    1  C1  UNL     1     -35.072  18.960   1.551  1.00 20.00     0.102 C 
HETATM    2  C2  UNL     1     -34.078  18.245  -0.564  1.00 20.00     0.050 A 
HETATM    3  C3  UNL     1     -31.678  18.136  -0.815  1.00 20.00     0.069 A 
HETATM    4  C4  UNL     1     -33.921  18.682   0.751  1.00 20.00     0.087 A 
HETATM    5  C5  UNL     1     -31.521  18.572   0.501  1.00 20.00     0.158 A 
HETATM    6  C6  UNL     1     -32.642  18.845   1.284  1.00 20.00     0.175 A 
HETATM    7  C7  UNL     1     -32.957  17.972  -1.347  1.00 20.00     0.038 A 
HETATM    8  N8  UNL     1     -36.008  19.186   2.199  1.00 20.00    -0.191 NA
HETATM    9  F9  UNL     1     -30.292  18.728   1.012  1.00 20.00    -0.203 F 
HETATM   10  F10 UNL     1     -32.475  19.263   2.547  1.00 20.00    -0.201 F 
HETATM   11 CL11 UNL     1     -33.151  17.435  -2.971  1.00 20.00    -0.084 Cl
ENDROOT
TORSDOF 0
ENDMDL
MODEL 9
REMARK VINA RESULT:      -4.0     13.229     13.441
REMARK  0 active torsions:
REMARK  status: ('A' for Active; 'I' for Inactive)
ROOT
HETATM    1  C1  UNL     1     -35.013  19.057   1.536  1.00 20.00     0.102 C 
HETATM    2  C2  UNL     1     -32.573  19.129   1.639  1.00 20.00     0.050 A 
HETATM    3  C3  UNL     1     -31.248  18.546  -0.295  1.00 20.00     0.069 A 
HETATM    4  C4  UNL     1     -33.739  18.883   0.914  1.00 20.00     0.087 A 
HETATM    5  C5  UNL     1     -32.414  18.300  -1.020  1.00 20.00     0.158 A 
HETATM    6  C6  UNL     1     -33.660  18.469  -0.416  1.00 20.00     0.175 A 
HETATM    7  C7  UNL     1     -31.327  18.961   1.034  1.00 20.00     0.038 A 
HETATM    8  N8  UNL     1     -36.048  19.199   2.043  1.00 20.00    -0.191 NA
HETATM    9  F9  UNL     1     -32.337  17.903  -2.297  1.00 20.00    -0.203 F 
HETATM   10  F10 UNL     1     -34.772  18.229  -1.126  1.00 20.00    -0.201 F 
HETATM   11 CL11 UNL     1     -29.888  19.263   1.928  1.00 20.00    -0.084 Cl
ENDROOT
TORSDOF 0
ENDMDL
