MODEL 1
REMARK VINA RESULT:      -4.8      0.000      0.000
REMARK  0 active torsions:
REMARK  status: ('A' for Active; 'I' for Inactive)
ROOT
HETATM    1  C1  UNL     1     -33.119   6.886   4.103  1.00 20.00     0.221 C 
HETATM    2  C2  UNL     1     -35.510   5.921   4.504  1.00 20.00     0.020 C 
HETATM    3  C3  UNL     1     -33.959   4.664   5.186  1.00 20.00     0.020 C 
HETATM    4  C4  UNL     1     -34.090   6.940   6.416  1.00 20.00     0.127 C 
HETATM    5  C5  UNL     1     -34.066   5.646   3.975  1.00 20.00     0.078 C 
HETATM    6  C6  UNL     1     -34.856   5.718   5.905  1.00 20.00     0.005 C 
HETATM    7  N7  UNL     1     -33.211   7.456   5.367  1.00 20.00    -0.360 N 
HETATM    8  O8  UNL     1     -32.379   7.321   3.221  1.00 20.00    -0.273 OA
HETATM    9  H17 UNL     1     -32.641   8.271   5.572  1.00 20.00     0.162 HD
ENDROOT
TORSDOF 0
ENDMDL
MODEL 2
REMARK VINA RESULT:      -4.6      1.290      1.395
REMARK  0 active torsions:
REMARK  status: ('A' for Active; 'I' for Inactive)
ROOT
HETATM    1  C1  UNL     1     -33.272   5.566   3.472  1.00 20.00     0.221 C 
HETATM    2  C2  UNL     1     -35.550   5.922   4.696  1.00 20.00     0.020 C 
HETATM    3  C3  UNL     1     -34.043   5.098   5.922  1.00 20.00     0.020 C 
HETATM    4  C4  UNL     1     -33.519   7.487   5.067  1.00 20.00     0.127 C 
HETATM    5  C5  UNL     1     -34.367   4.943   4.401  1.00 20.00     0.078 C 
HETATM    6  C6  UNL     1     -34.550   6.557   5.710  1.00 20.00     0.005 C 
HETATM    7  N7  UNL     1     -32.922   6.841   3.899  1.00 20.00    -0.360 N 
HETATM    8  O8  UNL     1     -32.768   5.024   2.489  1.00 20.00    -0.273 OA
HETATM    9  H17 UNL     1     -32.216   7.349   3.374  1.00 20.00     0.162 HD
ENDROOT
TORSDOF 0
ENDMDL
MODEL 3
REMARK VINA RESULT:      -4.5      1.286      2.173
REMARK  0 active torsions:
REMARK  status: ('A' for Active; 'I' for Inactive)
ROOT
HETATM    1  C1  UNL     1     -33.392   7.441   4.820  1.00 20.00     0.221 C 
HETATM    2  C2  UNL     1     -34.046   5.151   5.888  1.00 20.00     0.020 C 
HETATM    3  C3  UNL     1     -35.528   5.952   4.617  1.00 20.00     0.020 C 
HETATM    4  C4  UNL     1     -33.310   5.364   3.414  1.00 20.00     0.127 C 
HETATM    5  C5  UNL     1     -34.488   6.617   5.576  1.00 20.00     0.078 C 
HETATM    6  C6  UNL     1     -34.396   4.904   4.388  1.00 20.00     0.005 C 
HETATM    7  N7  UNL     1     -32.870   6.717   3.755  1.00 20.00    -0.360 N 
HETATM    8  O8  UNL     1     -33.021   8.579   5.106  1.00 20.00    -0.273 OA
HETATM    9  H17 UNL     1     -32.148   7.149   3.186  1.00 20.00     0.162 HD
ENDROOT
TORSDOF 0
ENDMDL
MODEL 4
REMARK VINA RESULT:      -4.1     15.971     16.866
REMARK  0 active torsions:
REMARK  status: ('A' for Active; 'I' for Inactive)
ROOT
HETATM    1  C1  UNL     1     -23.874  16.758  11.648  1.00 20.00     0.221 C 
HETATM    2  C2  UNL     1     -22.602  17.353   9.448  1.00 20.00     0.020 C 
HETATM    3  C3  UNL     1     -23.999  18.816  10.047  1.00 20.00     0.020 C 
HETATM    4  C4  UNL     1     -22.047  18.476  11.715  1.00 20.00     0.127 C 
HETATM    5  C5  UNL     1     -23.985  17.258  10.169  1.00 20.00     0.078 C 
HETATM    6  C6  UNL     1     -22.460  18.679  10.256  1.00 20.00     0.005 C 
HETATM    7  N7  UNL     1     -22.871  17.437  12.330  1.00 20.00    -0.360 N 
HETATM    8  O8  UNL     1     -24.567  15.883  12.167  1.00 20.00    -0.273 OA
HETATM    9  H17 UNL     1     -22.703  17.199  13.303  1.00 20.00     0.162 HD
ENDROOT
TORSDOF 0
ENDMDL
MODEL 5
REMARK VINA RESULT:      -4.1     16.037     16.740
REMARK  0 active torsions:
REMARK  status: ('A' for Active; 'I' for Inactive)
ROOT
HETATM    1  C1  UNL     1     -22.614  17.347   9.833  1.00 20.00     0.221 C 
HETATM    2  C2  UNL     1     -24.665  18.475  10.987  1.00 20.00     0.020 C 
HETATM    3  C3  UNL     1     -24.137  16.611  11.822  1.00 20.00     0.020 C 
HETATM    4  C4  UNL     1     -22.314  18.435  12.073  1.00 20.00     0.127 C 
HETATM    5  C5  UNL     1     -24.076  17.169  10.363  1.00 20.00     0.078 C 
HETATM    6  C6  UNL     1     -23.795  18.080  12.219  1.00 20.00     0.005 C 
HETATM    7  N7  UNL     1     -21.818  17.993  10.771  1.00 20.00    -0.360 N 
HETATM    8  O8  UNL     1     -22.196  16.975   8.737  1.00 20.00    -0.273 OA
HETATM    9  H17 UNL     1     -20.844  18.165  10.540  1.00 20.00     0.162 HD
ENDROOT
TORSDOF 0
ENDMDL
MODEL 6
REMARK VINA RESULT:      -3.9      8.746      9.529
REMARK  0 active torsions:
REMARK  status: ('A' for Active; 'I' for Inactive)
ROOT
HETATM    1  C1  UNL     1     -42.515   5.748   1.334  1.00 20.00     0.221 C 
HETATM    2  C2  UNL     1     -42.423   7.728  -0.365  1.00 20.00     0.020 C 
HETATM    3  C3  UNL     1     -40.853   7.742   1.045  1.00 20.00     0.020 C 
HETATM    4  C4  UNL     1     -40.838   5.686  -0.532  1.00 20.00     0.127 C 
HETATM    5  C5  UNL     1     -42.348   7.292   1.134  1.00 20.00     0.078 C 
HETATM    6  C6  UNL     1     -40.954   7.207  -0.417  1.00 20.00     0.005 C 
HETATM    7  N7  UNL     1     -41.712   5.041   0.447  1.00 20.00    -0.360 N 
HETATM    8  O8  UNL     1     -43.250   5.204   2.157  1.00 20.00    -0.273 OA
HETATM    9  H17 UNL     1     -41.734   4.026   0.481  1.00 20.00     0.162 HD
ENDROOT
TORSDOF 0
ENDMDL
MODEL 7
REMARK VINA RESULT:      -3.9      9.036     10.022
REMARK  0 active torsions:
REMARK  status: ('A' for Active; 'I' for Inactive)
ROOT
HETATM    1  C1  UNL     1     -42.707   5.553  -0.823  1.00 20.00     0.221 C 
HETATM    2  C2  UNL     1     -42.289   8.108  -0.487  1.00 20.00     0.020 C 
HETATM    3  C3  UNL     1     -42.653   7.061   1.308  1.00 20.00     0.020 C 
HETATM    4  C4  UNL     1     -40.496   6.325   0.077  1.00 20.00     0.127 C 
HETATM    5  C5  UNL     1     -43.193   6.879  -0.148  1.00 20.00     0.078 C 
HETATM    6  C6  UNL     1     -41.340   7.495   0.587  1.00 20.00     0.005 C 
HETATM    7  N7  UNL     1     -41.340   5.377  -0.648  1.00 20.00    -0.360 N 
HETATM    8  O8  UNL     1     -43.416   4.754  -1.434  1.00 20.00    -0.273 OA
HETATM    9  H17 UNL     1     -40.906   4.548  -1.044  1.00 20.00     0.162 HD
ENDROOT
TORSDOF 0
ENDMDL
MODEL 8
REMARK VINA RESULT:      -3.8     15.534     16.517
REMARK  0 active torsions:
REMARK  status: ('A' for Active; 'I' for Inactive)
ROOT
HETATM    1  C1  UNL     1     -23.134  17.312  10.028  1.00 20.00     0.221 C 
HETATM    2  C2  UNL     1     -23.258  18.536  12.330  1.00 20.00     0.020 C 
HETATM    3  C3  UNL     1     -24.979  18.791  11.136  1.00 20.00     0.020 C 
HETATM    4  C4  UNL     1     -24.549  16.341  11.858  1.00 20.00     0.127 C 
HETATM    5  C5  UNL     1     -23.463  18.643  10.784  1.00 20.00     0.078 C 
HETATM    6  C6  UNL     1     -24.635  17.805  12.294  1.00 20.00     0.005 C 
HETATM    7  N7  UNL     1     -23.730  16.223  10.653  1.00 20.00    -0.360 N 
HETATM    8  O8  UNL     1     -22.445  17.212   9.014  1.00 20.00    -0.273 OA
HETATM    9  H17 UNL     1     -23.588  15.301  10.252  1.00 20.00     0.162 HD
ENDROOT
TORSDOF 0
ENDMDL
MODEL 9
REMARK VINA RESULT:      -3.8      1.682      2.250
REMARK  0 active torsions:
REMARK  status: ('A' for Active; 'I' for Inactive)
ROOT
HETATM    1  C1  UNL     1     -33.080   6.247   3.504  1.00 20.00     0.221 C 
HETATM    2  C2  UNL     1     -34.738   7.864   4.707  1.00 20.00     0.020 C 
HETATM    3  C3  UNL     1     -33.432   6.852   6.019  1.00 20.00     0.020 C 
HETATM    4  C4  UNL     1     -32.238   8.448   4.364  1.00 20.00     0.127 C 
HETATM    5  C5  UNL     1     -34.105   6.435   4.671  1.00 20.00     0.078 C 
HETATM    6  C6  UNL     1     -33.382   8.266   5.364  1.00 20.00     0.005 C 
HETATM    7  N7  UNL     1     -32.192   7.314   3.443  1.00 20.00    -0.360 N 
HETATM    8  O8  UNL     1     -33.040   5.293   2.727  1.00 20.00    -0.273 OA
HETATM    9  H17 UNL     1     -31.476   7.304   2.723  1.00 20.00     0.162 HD
ENDROOT
TORSDOF 0
ENDMDL
