MODEL 1
REMARK VINA RESULT:      -3.9      0.000      0.000
REMARK  1 active torsions:
REMARK  status: ('A' for Active; 'I' for Inactive)
REMARK    1  A    between atoms: C2_2  and  C6_6 
ROOT
HETATM    1  C1  UNL     1     -33.618  18.695  -0.387  1.00 20.00     0.139 C 
HETATM    2  C4  UNL     1     -32.331  18.844   0.437  1.00 20.00     0.081 C 
HETATM    3  C5  UNL     1     -31.562  18.225  -0.752  1.00 20.00     0.028 C 
HETATM    4  C6  UNL     1     -32.840  18.239  -1.651  1.00 20.00     0.035 C 
HETATM    5  C8  UNL     1     -32.830  19.262  -2.777  1.00 20.00     0.027 C 
HETATM    6  O9  UNL     1     -34.791  18.880  -0.135  1.00 20.00    -0.297 OA
ENDROOT
BRANCH   4   7
HETATM    7  C2  UNL     1     -33.292  16.894  -2.084  1.00 20.00    -0.014 C 
HETATM    8  C3  UNL     1     -33.288  16.479  -3.358  1.00 20.00    -0.034 C 
HETATM    9  C7  UNL     1     -33.742  15.125  -3.793  1.00 20.00     0.036 C 
ENDBRANCH   4   7
TORSDOF 1
ENDMDL
MODEL 2
REMARK VINA RESULT:      -3.9     12.092     12.861
REMARK  1 active torsions:
REMARK  status: ('A' for Active; 'I' for Inactive)
REMARK    1  A    between atoms: C2_2  and  C6_6 
ROOT
HETATM    1  C1  UNL     1     -34.999   6.117   5.063  1.00 20.00     0.139 C 
HETATM    2  C4  UNL     1     -34.597   5.385   6.350  1.00 20.00     0.081 C 
HETATM    3  C5  UNL     1     -33.311   6.241   6.371  1.00 20.00     0.028 C 
HETATM    4  C6  UNL     1     -33.805   7.103   5.165  1.00 20.00     0.035 C 
HETATM    5  C8  UNL     1     -34.206   8.530   5.511  1.00 20.00     0.027 C 
HETATM    6  O9  UNL     1     -35.915   5.975   4.279  1.00 20.00    -0.297 OA
ENDROOT
BRANCH   4   7
HETATM    7  C2  UNL     1     -32.946   7.010   3.960  1.00 20.00    -0.014 C 
HETATM    8  C3  UNL     1     -32.727   8.029   3.118  1.00 20.00    -0.034 C 
HETATM    9  C7  UNL     1     -31.862   7.935   1.905  1.00 20.00     0.036 C 
ENDBRANCH   4   7
TORSDOF 1
ENDMDL
MODEL 3
REMARK VINA RESULT:      -3.8     11.450     12.285
REMARK  1 active torsions:
REMARK  status: ('A' for Active; 'I' for Inactive)
REMARK    1  A    between atoms: C2_2  and  C6_6 
ROOT
HETATM    1  C1  UNL     1     -40.809  14.197   8.088  1.00 20.00     0.139 C 
HETATM    2  C4  UNL     1     -41.470  15.557   7.827  1.00 20.00     0.081 C 
HETATM    3  C5  UNL     1     -41.800  15.063   6.401  1.00 20.00     0.028 C 
HETATM    4  C6  UNL     1     -41.285  13.624   6.727  1.00 20.00     0.035 C 
HETATM    5  C8  UNL     1     -42.367  12.560   6.845  1.00 20.00     0.027 C 
HETATM    6  O9  UNL     1     -40.170  13.750   9.019  1.00 20.00    -0.297 OA
ENDROOT
BRANCH   4   7
HETATM    7  C2  UNL     1     -40.125  13.194   5.908  1.00 20.00    -0.014 C 
HETATM    8  C3  UNL     1     -40.092  12.056   5.201  1.00 20.00    -0.034 C 
HETATM    9  C7  UNL     1     -38.925  11.624   4.376  1.00 20.00     0.036 C 
ENDBRANCH   4   7
TORSDOF 1
ENDMDL
MODEL 4
REMARK VINA RESULT:      -3.8     11.178     12.408
REMARK  1 active torsions:
REMARK  status: ('A' for Active; 'I' for Inactive)
REMARK    1  A    between atoms: C2_2  and  C6_6 
ROOT
HETATM    1  C1  UNL     1     -40.670  13.028   4.770  1.00 20.00     0.139 C 
HETATM    2  C4  UNL     1     -39.631  11.905   4.649  1.00 20.00     0.081 C 
HETATM    3  C5  UNL     1     -39.574  11.864   6.192  1.00 20.00     0.028 C 
HETATM    4  C6  UNL     1     -40.756  12.880   6.312  1.00 20.00     0.035 C 
HETATM    5  C8  UNL     1     -42.068  12.290   6.808  1.00 20.00     0.027 C 
HETATM    6  O9  UNL     1     -41.218  13.744   3.956  1.00 20.00    -0.297 OA
ENDROOT
BRANCH   4   7
HETATM    7  C2  UNL     1     -40.395  14.154   6.979  1.00 20.00    -0.014 C 
HETATM    8  C3  UNL     1     -40.756  14.470   8.231  1.00 20.00    -0.034 C 
HETATM    9  C7  UNL     1     -40.392  15.753   8.902  1.00 20.00     0.036 C 
ENDBRANCH   4   7
TORSDOF 1
ENDMDL
MODEL 5
REMARK VINA RESULT:      -3.8     12.745     13.658
REMARK  1 active torsions:
REMARK  status: ('A' for Active; 'I' for Inactive)
REMARK    1  A    between atoms: C2_2  and  C6_6 
ROOT
HETATM    1  C1  UNL     1     -34.217   4.735   5.070  1.00 20.00     0.139 C 
HETATM    2  C4  UNL     1     -34.406   4.858   6.588  1.00 20.00     0.081 C 
HETATM    3  C5  UNL     1     -34.597   6.378   6.387  1.00 20.00     0.028 C 
HETATM    4  C6  UNL     1     -34.580   6.225   4.832  1.00 20.00     0.035 C 
HETATM    5  C8  UNL     1     -35.922   6.436   4.146  1.00 20.00     0.027 C 
HETATM    6  O9  UNL     1     -33.911   3.812   4.343  1.00 20.00    -0.297 OA
ENDROOT
BRANCH   4   7
HETATM    7  C2  UNL     1     -33.462   6.935   4.165  1.00 20.00    -0.014 C 
HETATM    8  C3  UNL     1     -33.301   8.265   4.188  1.00 20.00    -0.034 C 
HETATM    9  C7  UNL     1     -32.175   8.978   3.517  1.00 20.00     0.036 C 
ENDBRANCH   4   7
TORSDOF 1
ENDMDL
MODEL 6
REMARK VINA RESULT:      -3.8     15.332     16.195
REMARK  1 active torsions:
REMARK  status: ('A' for Active; 'I' for Inactive)
REMARK    1  A    between atoms: C2_2  and  C6_6 
ROOT
HETATM    1  C1  UNL     1     -23.045  18.075  10.295  1.00 20.00     0.139 C 
HETATM    2  C4  UNL     1     -21.741  18.483  10.993  1.00 20.00     0.081 C 
HETATM    3  C5  UNL     1     -22.510  18.451  12.332  1.00 20.00     0.028 C 
HETATM    4  C6  UNL     1     -23.785  17.867  11.643  1.00 20.00     0.035 C 
HETATM    5  C8  UNL     1     -24.088  16.412  11.969  1.00 20.00     0.027 C 
HETATM    6  O9  UNL     1     -23.360  17.953   9.129  1.00 20.00    -0.297 OA
ENDROOT
BRANCH   4   7
HETATM    7  C2  UNL     1     -24.976  18.747  11.725  1.00 20.00    -0.014 C 
HETATM    8  C3  UNL     1     -26.151  18.367  12.248  1.00 20.00    -0.034 C 
HETATM    9  C7  UNL     1     -27.349  19.254  12.331  1.00 20.00     0.036 C 
ENDBRANCH   4   7
TORSDOF 1
ENDMDL
MODEL 7
REMARK VINA RESULT:      -3.7      1.743      3.868
REMARK  1 active torsions:
REMARK  status: ('A' for Active; 'I' for Inactive)
REMARK    1  A    between atoms: C2_2  and  C6_6 
ROOT
HETATM    1  C1  UNL     1     -33.052  18.296  -3.387  1.00 20.00     0.139 C 
HETATM    2  C4  UNL     1     -33.453  16.865  -3.771  1.00 20.00     0.081 C 
HETATM    3  C5  UNL     1     -33.535  16.540  -2.263  1.00 20.00     0.028 C 
HETATM    4  C6  UNL     1     -33.301  18.036  -1.877  1.00 20.00     0.035 C 
HETATM    5  C8  UNL     1     -34.517  18.757  -1.314  1.00 20.00     0.027 C 
HETATM    6  O9  UNL     1     -32.692  19.259  -4.032  1.00 20.00    -0.297 OA
ENDROOT
BRANCH   4   7
HETATM    7  C2  UNL     1     -32.063  18.274  -1.096  1.00 20.00    -0.014 C 
HETATM    8  C3  UNL     1     -32.049  18.546   0.216  1.00 20.00    -0.034 C 
HETATM    9  C7  UNL     1     -30.802  18.786   1.002  1.00 20.00     0.036 C 
ENDBRANCH   4   7
TORSDOF 1
ENDMDL
MODEL 8
REMARK VINA RESULT:      -3.5     11.359     12.212
REMARK  1 active torsions:
REMARK  status: ('A' for Active; 'I' for Inactive)
REMARK    1  A    between atoms: C2_2  and  C6_6 
ROOT
HETATM    1  C1  UNL     1     -42.263  14.602   6.204  1.00 20.00     0.139 C 
HETATM    2  C4  UNL     1     -43.416  13.870   6.904  1.00 20.00     0.081 C 
HETATM    3  C5  UNL     1     -42.462  12.671   7.103  1.00 20.00     0.028 C 
HETATM    4  C6  UNL     1     -41.247  13.482   6.550  1.00 20.00     0.035 C 
HETATM    5  C8  UNL     1     -40.210  13.883   7.589  1.00 20.00     0.027 C 
HETATM    6  O9  UNL     1     -42.188  15.663   5.617  1.00 20.00    -0.297 OA
ENDROOT
BRANCH   4   7
HETATM    7  C2  UNL     1     -40.652  12.918   5.314  1.00 20.00    -0.014 C 
HETATM    8  C3  UNL     1     -39.517  12.206   5.289  1.00 20.00    -0.034 C 
HETATM    9  C7  UNL     1     -38.919  11.638   4.045  1.00 20.00     0.036 C 
ENDBRANCH   4   7
TORSDOF 1
ENDMDL
MODEL 9
REMARK VINA RESULT:      -3.5      2.882      5.535
REMARK  1 active torsions:
REMARK  status: ('A' for Active; 'I' for Inactive)
REMARK    1  A    between atoms: C2_2  and  C6_6 
ROOT
HETATM    1  C1  UNL     1     -35.899  15.723  -5.697  1.00 20.00     0.139 C 
HETATM    2  C4  UNL     1     -35.333  15.450  -7.097  1.00 20.00     0.081 C 
HETATM    3  C5  UNL     1     -33.958  15.211  -6.435  1.00 20.00     0.028 C 
HETATM    4  C6  UNL     1     -34.573  15.314  -5.003  1.00 20.00     0.035 C 
HETATM    5  C8  UNL     1     -34.651  14.002  -4.235  1.00 20.00     0.027 C 
HETATM    6  O9  UNL     1     -36.982  16.102  -5.298  1.00 20.00    -0.297 OA
ENDROOT
BRANCH   4   7
HETATM    7  C2  UNL     1     -34.040  16.437  -4.193  1.00 20.00    -0.014 C 
HETATM    8  C3  UNL     1     -33.506  16.290  -2.973  1.00 20.00    -0.034 C 
HETATM    9  C7  UNL     1     -32.969  17.421  -2.159  1.00 20.00     0.036 C 
ENDBRANCH   4   7
TORSDOF 1
ENDMDL
