MODEL 1
REMARK VINA RESULT:      -5.3      0.000      0.000
REMARK  0 active torsions:
REMARK  status: ('A' for Active; 'I' for Inactive)
ROOT
HETATM    1  C1  UNL     1     -32.582   8.031   4.386  1.00 20.00     0.088 C 
HETATM    2  C2  UNL     1     -34.814   5.553   6.150  1.00 20.00     0.001 C 
HETATM    3  C3  UNL     1     -34.042   6.886   6.340  1.00 20.00     0.010 C 
HETATM    4  C4  UNL     1     -34.580   5.115   4.680  1.00 20.00     0.007 C 
HETATM    5  C5  UNL     1     -32.947   6.381   2.942  1.00 20.00     0.153 C 
HETATM    6  C6  UNL     1     -33.756   7.289   4.920  1.00 20.00     0.031 C 
HETATM    7  C7  UNL     1     -33.381   5.949   4.319  1.00 20.00     0.014 C 
HETATM    8  N8  UNL     1     -32.130   7.601   3.242  1.00 20.00    -0.305 NA
ENDROOT
TORSDOF 0
ENDMDL
MODEL 2
REMARK VINA RESULT:      -5.2      0.357      1.858
REMARK  0 active torsions:
REMARK  status: ('A' for Active; 'I' for Inactive)
ROOT
HETATM    1  C1  UNL     1     -32.792   6.884   3.056  1.00 20.00     0.088 C 
HETATM    2  C2  UNL     1     -34.874   5.637   5.944  1.00 20.00     0.001 C 
HETATM    3  C3  UNL     1     -34.501   5.351   4.465  1.00 20.00     0.010 C 
HETATM    4  C4  UNL     1     -34.060   6.887   6.369  1.00 20.00     0.007 C 
HETATM    5  C5  UNL     1     -32.500   8.339   4.712  1.00 20.00     0.153 C 
HETATM    6  C6  UNL     1     -33.267   6.190   4.283  1.00 20.00     0.031 C 
HETATM    7  C7  UNL     1     -33.672   7.447   5.028  1.00 20.00     0.014 C 
HETATM    8  N8  UNL     1     -32.289   8.070   3.252  1.00 20.00    -0.305 NA
ENDROOT
TORSDOF 0
ENDMDL
MODEL 3
REMARK VINA RESULT:      -5.1      1.705      3.256
REMARK  0 active torsions:
REMARK  status: ('A' for Active; 'I' for Inactive)
ROOT
HETATM    1  C1  UNL     1     -33.996   5.135   4.035  1.00 20.00     0.088 C 
HETATM    2  C2  UNL     1     -32.462   8.560   4.414  1.00 20.00     0.001 C 
HETATM    3  C3  UNL     1     -32.474   7.296   3.514  1.00 20.00     0.010 C 
HETATM    4  C4  UNL     1     -33.480   8.298   5.555  1.00 20.00     0.007 C 
HETATM    5  C5  UNL     1     -34.794   5.971   5.934  1.00 20.00     0.153 C 
HETATM    6  C6  UNL     1     -33.723   6.596   3.971  1.00 20.00     0.031 C 
HETATM    7  C7  UNL     1     -33.628   6.803   5.470  1.00 20.00     0.014 C 
HETATM    8  N8  UNL     1     -34.655   4.740   5.088  1.00 20.00    -0.305 NA
ENDROOT
TORSDOF 0
ENDMDL
MODEL 4
REMARK VINA RESULT:      -5.0      1.754      2.963
REMARK  0 active torsions:
REMARK  status: ('A' for Active; 'I' for Inactive)
ROOT
HETATM    1  C1  UNL     1     -34.420   6.537   6.457  1.00 20.00     0.088 C 
HETATM    2  C2  UNL     1     -32.472   8.188   3.680  1.00 20.00     0.001 C 
HETATM    3  C3  UNL     1     -33.057   8.422   5.099  1.00 20.00     0.010 C 
HETATM    4  C4  UNL     1     -32.811   6.722   3.301  1.00 20.00     0.007 C 
HETATM    5  C5  UNL     1     -34.323   5.060   4.798  1.00 20.00     0.153 C 
HETATM    6  C6  UNL     1     -33.335   7.018   5.560  1.00 20.00     0.031 C 
HETATM    7  C7  UNL     1     -33.903   6.415   4.290  1.00 20.00     0.014 C 
HETATM    8  N8  UNL     1     -34.963   5.404   6.109  1.00 20.00    -0.305 NA
ENDROOT
TORSDOF 0
ENDMDL
MODEL 5
REMARK VINA RESULT:      -4.5      1.617      3.026
REMARK  0 active torsions:
REMARK  status: ('A' for Active; 'I' for Inactive)
ROOT
HETATM    1  C1  UNL     1     -34.626   6.069   5.977  1.00 20.00     0.088 C 
HETATM    2  C2  UNL     1     -32.973   5.301   2.674  1.00 20.00     0.001 C 
HETATM    3  C3  UNL     1     -33.825   4.679   3.813  1.00 20.00     0.010 C 
HETATM    4  C4  UNL     1     -32.756   6.790   3.050  1.00 20.00     0.007 C 
HETATM    5  C5  UNL     1     -33.557   7.921   5.367  1.00 20.00     0.153 C 
HETATM    6  C6  UNL     1     -34.333   5.900   4.528  1.00 20.00     0.031 C 
HETATM    7  C7  UNL     1     -33.091   6.768   4.517  1.00 20.00     0.014 C 
HETATM    8  N8  UNL     1     -34.270   7.216   6.483  1.00 20.00    -0.305 NA
ENDROOT
TORSDOF 0
ENDMDL
MODEL 6
REMARK VINA RESULT:      -4.4      1.117      2.098
REMARK  0 active torsions:
REMARK  status: ('A' for Active; 'I' for Inactive)
ROOT
HETATM    1  C1  UNL     1     -33.690   4.964   3.407  1.00 20.00     0.088 C 
HETATM    2  C2  UNL     1     -34.398   6.943   6.539  1.00 20.00     0.001 C 
HETATM    3  C3  UNL     1     -34.763   5.637   5.784  1.00 20.00     0.010 C 
HETATM    4  C4  UNL     1     -33.333   7.668   5.675  1.00 20.00     0.007 C 
HETATM    5  C5  UNL     1     -32.513   6.843   3.239  1.00 20.00     0.153 C 
HETATM    6  C6  UNL     1     -33.648   5.531   4.782  1.00 20.00     0.031 C 
HETATM    7  C7  UNL     1     -33.520   6.978   4.351  1.00 20.00     0.014 C 
HETATM    8  N8  UNL     1     -33.011   5.628   2.514  1.00 20.00    -0.305 NA
ENDROOT
TORSDOF 0
ENDMDL
MODEL 7
REMARK VINA RESULT:      -3.6     15.490     16.094
REMARK  0 active torsions:
REMARK  status: ('A' for Active; 'I' for Inactive)
ROOT
HETATM    1  C1  UNL     1     -25.461  18.275  11.684  1.00 20.00     0.088 C 
HETATM    2  C2  UNL     1     -23.130  18.545   8.731  1.00 20.00     0.001 C 
HETATM    3  C3  UNL     1     -24.350  19.216   9.417  1.00 20.00     0.010 C 
HETATM    4  C4  UNL     1     -22.733  17.338   9.620  1.00 20.00     0.007 C 
HETATM    5  C5  UNL     1     -24.105  16.517  11.795  1.00 20.00     0.153 C 
HETATM    6  C6  UNL     1     -24.318  18.598  10.787  1.00 20.00     0.031 C 
HETATM    7  C7  UNL     1     -23.983  17.161  10.439  1.00 20.00     0.014 C 
HETATM    8  N8  UNL     1     -25.358  17.146  12.327  1.00 20.00    -0.305 NA
ENDROOT
TORSDOF 0
ENDMDL
MODEL 8
REMARK VINA RESULT:      -3.6     15.486     15.975
REMARK  0 active torsions:
REMARK  status: ('A' for Active; 'I' for Inactive)
ROOT
HETATM    1  C1  UNL     1     -22.452  17.258   8.992  1.00 20.00     0.088 C 
HETATM    2  C2  UNL     1     -25.081  17.630  11.672  1.00 20.00     0.001 C 
HETATM    3  C3  UNL     1     -23.986  16.673  11.128  1.00 20.00     0.010 C 
HETATM    4  C4  UNL     1     -25.041  18.898  10.779  1.00 20.00     0.007 C 
HETATM    5  C5  UNL     1     -23.484  19.187   8.593  1.00 20.00     0.153 C 
HETATM    6  C6  UNL     1     -23.180  17.587  10.248  1.00 20.00     0.031 C 
HETATM    7  C7  UNL     1     -24.285  18.384   9.584  1.00 20.00     0.014 C 
HETATM    8  N8  UNL     1     -22.536  18.158   8.053  1.00 20.00    -0.305 NA
ENDROOT
TORSDOF 0
ENDMDL
MODEL 9
REMARK VINA RESULT:      -3.5      9.190      9.904
REMARK  0 active torsions:
REMARK  status: ('A' for Active; 'I' for Inactive)
ROOT
HETATM    1  C1  UNL     1     -43.417   6.622   1.920  1.00 20.00     0.088 C 
HETATM    2  C2  UNL     1     -40.975   7.543  -0.805  1.00 20.00     0.001 C 
HETATM    3  C3  UNL     1     -42.167   8.082   0.032  1.00 20.00     0.010 C 
HETATM    4  C4  UNL     1     -40.696   6.104  -0.297  1.00 20.00     0.007 C 
HETATM    5  C5  UNL     1     -42.196   4.805   1.534  1.00 20.00     0.153 C 
HETATM    6  C6  UNL     1     -42.225   7.097   1.166  1.00 20.00     0.031 C 
HETATM    7  C7  UNL     1     -41.982   5.799   0.423  1.00 20.00     0.014 C 
HETATM    8  N8  UNL     1     -43.417   5.352   2.210  1.00 20.00    -0.305 NA
ENDROOT
TORSDOF 0
ENDMDL
