MODEL 1
REMARK VINA RESULT:      -4.6      0.000      0.000
REMARK  1 active torsions:
REMARK  status: ('A' for Active; 'I' for Inactive)
REMARK    1  A    between atoms: C7_7  and  C8_8 
ROOT
HETATM    1  C4  UNL     1     -33.115   6.356   3.306  1.00 20.00     0.038 C 
HETATM    2  C5  UNL     1     -32.134   7.196   2.491  1.00 20.00     0.270 C 
HETATM    3  C6  UNL     1     -32.155   8.957   4.143  1.00 20.00     0.307 C 
HETATM    4  C8  UNL     1     -34.005   7.237   4.188  1.00 20.00     0.027 C 
HETATM    5  C9  UNL     1     -33.143   8.192   5.017  1.00 20.00     0.202 C 
HETATM    6  N10 UNL     1     -31.321   8.053   3.354  1.00 20.00     0.086 N 
HETATM    7  F11 UNL     1     -33.960   9.096   5.626  1.00 20.00    -0.247 F 
HETATM    8  H27 UNL     1     -30.777   7.466   3.986  1.00 20.00     0.315 HD
ENDROOT
BRANCH   4   9
HETATM    9  C7  UNL     1     -34.854   6.362   5.110  1.00 20.00    -0.008 C 
HETATM   10  C2  UNL     1     -34.443   6.323   6.604  1.00 20.00     0.005 C 
HETATM   11  C1  UNL     1     -34.837   4.832   6.598  1.00 20.00     0.001 C 
HETATM   12  C3  UNL     1     -34.563   4.838   5.081  1.00 20.00     0.005 C 
ENDBRANCH   4   9
TORSDOF 1
ENDMDL
MODEL 2
REMARK VINA RESULT:      -4.5     12.277     13.143
REMARK  1 active torsions:
REMARK  status: ('A' for Active; 'I' for Inactive)
REMARK    1  A    between atoms: C7_7  and  C8_8 
ROOT
HETATM    1  C4  UNL     1     -34.845  17.984  -3.270  1.00 20.00     0.038 C 
HETATM    2  C5  UNL     1     -35.559  17.775  -4.603  1.00 20.00     0.270 C 
HETATM    3  C6  UNL     1     -34.395  15.695  -4.986  1.00 20.00     0.307 C 
HETATM    4  C8  UNL     1     -33.478  17.290  -3.254  1.00 20.00     0.027 C 
HETATM    5  C9  UNL     1     -33.628  15.827  -3.675  1.00 20.00     0.202 C 
HETATM    6  N10 UNL     1     -35.698  16.353  -4.917  1.00 20.00     0.086 N 
HETATM    7  F11 UNL     1     -32.385  15.298  -3.855  1.00 20.00    -0.247 F 
HETATM    8  H27 UNL     1     -36.257  15.907  -4.191  1.00 20.00     0.315 HD
ENDROOT
BRANCH   4   9
HETATM    9  C7  UNL     1     -32.868  17.376  -1.856  1.00 20.00    -0.008 C 
HETATM   10  C2  UNL     1     -33.845  17.656  -0.686  1.00 20.00     0.005 C 
HETATM   11  C1  UNL     1     -32.730  18.515  -0.057  1.00 20.00     0.001 C 
HETATM   12  C3  UNL     1     -32.174  18.712  -1.482  1.00 20.00     0.005 C 
ENDBRANCH   4   9
TORSDOF 1
ENDMDL
MODEL 3
REMARK VINA RESULT:      -4.4      1.973      4.099
REMARK  1 active torsions:
REMARK  status: ('A' for Active; 'I' for Inactive)
REMARK    1  A    between atoms: C7_7  and  C8_8 
ROOT
HETATM    1  C4  UNL     1     -33.206   6.206   2.902  1.00 20.00     0.038 C 
HETATM    2  C5  UNL     1     -33.780   5.290   3.980  1.00 20.00     0.270 C 
HETATM    3  C6  UNL     1     -33.880   7.102   5.572  1.00 20.00     0.307 C 
HETATM    4  C8  UNL     1     -32.434   7.377   3.518  1.00 20.00     0.027 C 
HETATM    5  C9  UNL     1     -33.300   8.086   4.561  1.00 20.00     0.202 C 
HETATM    6  N10 UNL     1     -34.626   6.031   4.916  1.00 20.00     0.086 N 
HETATM    7  F11 UNL     1     -32.524   8.980   5.236  1.00 20.00    -0.247 F 
HETATM    8  H27 UNL     1     -35.409   6.438   4.403  1.00 20.00     0.315 HD
ENDROOT
BRANCH   4   9
HETATM    9  C7  UNL     1     -32.020   8.360   2.424  1.00 20.00    -0.008 C 
HETATM   10  C2  UNL     1     -33.035   9.477   2.072  1.00 20.00     0.005 C 
HETATM   11  C1  UNL     1     -32.590   9.318   0.603  1.00 20.00     0.001 C 
HETATM   12  C3  UNL     1     -32.178   7.875   0.959  1.00 20.00     0.005 C 
ENDBRANCH   4   9
TORSDOF 1
ENDMDL
MODEL 4
REMARK VINA RESULT:      -4.2     12.542     13.582
REMARK  1 active torsions:
REMARK  status: ('A' for Active; 'I' for Inactive)
REMARK    1  A    between atoms: C7_7  and  C8_8 
ROOT
HETATM    1  C4  UNL     1     -33.312  15.657  -3.623  1.00 20.00     0.038 C 
HETATM    2  C5  UNL     1     -33.513  14.585  -4.691  1.00 20.00     0.270 C 
HETATM    3  C6  UNL     1     -34.515  16.174  -6.206  1.00 20.00     0.307 C 
HETATM    4  C8  UNL     1     -34.346  16.780  -3.759  1.00 20.00     0.027 C 
HETATM    5  C9  UNL     1     -34.364  17.306  -5.196  1.00 20.00     0.202 C 
HETATM    6  N10 UNL     1     -33.479  15.157  -6.036  1.00 20.00     0.086 N 
HETATM    7  F11 UNL     1     -35.427  18.146  -5.338  1.00 20.00    -0.247 F 
HETATM    8  H27 UNL     1     -32.566  15.584  -6.192  1.00 20.00     0.315 HD
ENDROOT
BRANCH   4   9
HETATM    9  C7  UNL     1     -34.014  17.913  -2.789  1.00 20.00    -0.008 C 
HETATM   10  C2  UNL     1     -32.845  18.849  -3.187  1.00 20.00     0.005 C 
HETATM   11  C1  UNL     1     -32.474  18.902  -1.691  1.00 20.00     0.001 C 
HETATM   12  C3  UNL     1     -33.172  17.535  -1.542  1.00 20.00     0.005 C 
ENDBRANCH   4   9
TORSDOF 1
ENDMDL
MODEL 5
REMARK VINA RESULT:      -4.2     12.467     13.158
REMARK  1 active torsions:
REMARK  status: ('A' for Active; 'I' for Inactive)
REMARK    1  A    between atoms: C7_7  and  C8_8 
ROOT
HETATM    1  C4  UNL     1     -33.039  16.626  -2.678  1.00 20.00     0.038 C 
HETATM    2  C5  UNL     1     -33.536  15.826  -3.880  1.00 20.00     0.270 C 
HETATM    3  C6  UNL     1     -34.961  17.639  -4.593  1.00 20.00     0.307 C 
HETATM    4  C8  UNL     1     -34.080  17.656  -2.226  1.00 20.00     0.027 C 
HETATM    5  C9  UNL     1     -34.530  18.506  -3.416  1.00 20.00     0.202 C 
HETATM    6  N10 UNL     1     -33.911  16.703  -4.989  1.00 20.00     0.086 N 
HETATM    7  F11 UNL     1     -35.596  19.261  -3.031  1.00 20.00    -0.247 F 
HETATM    8  H27 UNL     1     -33.090  17.232  -5.284  1.00 20.00     0.315 HD
ENDROOT
BRANCH   4   9
HETATM    9  C7  UNL     1     -33.488  18.549  -1.136  1.00 20.00    -0.008 C 
HETATM   10  C2  UNL     1     -31.997  18.317  -0.780  1.00 20.00     0.005 C 
HETATM   11  C1  UNL     1     -32.377  18.611   0.685  1.00 20.00     0.001 C 
HETATM   12  C3  UNL     1     -33.809  18.161   0.331  1.00 20.00     0.005 C 
ENDBRANCH   4   9
TORSDOF 1
ENDMDL
MODEL 6
REMARK VINA RESULT:      -4.1      2.291      4.381
REMARK  1 active torsions:
REMARK  status: ('A' for Active; 'I' for Inactive)
REMARK    1  A    between atoms: C7_7  and  C8_8 
ROOT
HETATM    1  C4  UNL     1     -33.376   7.521   5.771  1.00 20.00     0.038 C 
HETATM    2  C5  UNL     1     -34.384   6.815   6.676  1.00 20.00     0.270 C 
HETATM    3  C6  UNL     1     -34.656   5.013   5.092  1.00 20.00     0.307 C 
HETATM    4  C8  UNL     1     -33.609   7.171   4.298  1.00 20.00     0.027 C 
HETATM    5  C9  UNL     1     -33.669   5.652   4.121  1.00 20.00     0.202 C 
HETATM    6  N10 UNL     1     -34.356   5.366   6.478  1.00 20.00     0.086 N 
HETATM    7  F11 UNL     1     -34.083   5.378   2.853  1.00 20.00    -0.247 F 
HETATM    8  H27 UNL     1     -33.427   5.017   6.715  1.00 20.00     0.315 HD
ENDROOT
BRANCH   4   9
HETATM    9  C7  UNL     1     -32.486   7.755   3.441  1.00 20.00    -0.008 C 
HETATM   10  C2  UNL     1     -32.858   8.954   2.531  1.00 20.00     0.005 C 
HETATM   11  C1  UNL     1     -31.894   8.362   1.482  1.00 20.00     0.001 C 
HETATM   12  C3  UNL     1     -32.135   6.988   2.140  1.00 20.00     0.005 C 
ENDBRANCH   4   9
TORSDOF 1
ENDMDL
MODEL 7
REMARK VINA RESULT:      -4.0      1.651      2.218
REMARK  1 active torsions:
REMARK  status: ('A' for Active; 'I' for Inactive)
REMARK    1  A    between atoms: C7_7  and  C8_8 
ROOT
HETATM    1  C4  UNL     1     -33.389   8.481   4.461  1.00 20.00     0.038 C 
HETATM    2  C5  UNL     1     -32.349   9.255   3.654  1.00 20.00     0.270 C 
HETATM    3  C6  UNL     1     -32.108   7.437   2.083  1.00 20.00     0.307 C 
HETATM    4  C8  UNL     1     -33.197   6.968   4.314  1.00 20.00     0.027 C 
HETATM    5  C9  UNL     1     -33.129   6.589   2.833  1.00 20.00     0.202 C 
HETATM    6  N10 UNL     1     -32.370   8.866   2.244  1.00 20.00     0.086 N 
HETATM    7  F11 UNL     1     -32.750   5.284   2.736  1.00 20.00    -0.247 F 
HETATM    8  H27 UNL     1     -33.289   9.080   1.855  1.00 20.00     0.315 HD
ENDROOT
BRANCH   4   9
HETATM    9  C7  UNL     1     -34.349   6.229   4.993  1.00 20.00    -0.008 C 
HETATM   10  C2  UNL     1     -34.506   6.439   6.521  1.00 20.00     0.005 C 
HETATM   11  C1  UNL     1     -34.922   4.956   6.607  1.00 20.00     0.001 C 
HETATM   12  C3  UNL     1     -34.120   4.728   5.310  1.00 20.00     0.005 C 
ENDBRANCH   4   9
TORSDOF 1
ENDMDL
MODEL 8
REMARK VINA RESULT:      -4.0      9.874     10.684
REMARK  1 active torsions:
REMARK  status: ('A' for Active; 'I' for Inactive)
REMARK    1  A    between atoms: C7_7  and  C8_8 
ROOT
HETATM    1  C4  UNL     1     -40.419  14.255   7.405  1.00 20.00     0.038 C 
HETATM    2  C5  UNL     1     -41.212  15.273   8.221  1.00 20.00     0.270 C 
HETATM    3  C6  UNL     1     -43.135  13.816   8.309  1.00 20.00     0.307 C 
HETATM    4  C8  UNL     1     -41.348  13.354   6.585  1.00 20.00     0.027 C 
HETATM    5  C9  UNL     1     -42.423  12.747   7.488  1.00 20.00     0.202 C 
HETATM    6  N10 UNL     1     -42.193  14.617   9.087  1.00 20.00     0.086 N 
HETATM    7  F11 UNL     1     -43.349  12.126   6.704  1.00 20.00    -0.247 F 
HETATM    8  H27 UNL     1     -41.701  14.008   9.741  1.00 20.00     0.315 HD
ENDROOT
BRANCH   4   9
HETATM    9  C7  UNL     1     -40.537  12.245   5.915  1.00 20.00    -0.008 C 
HETATM   10  C2  UNL     1     -39.042  12.138   6.314  1.00 20.00     0.005 C 
HETATM   11  C1  UNL     1     -38.754  11.761   4.846  1.00 20.00     0.001 C 
HETATM   12  C3  UNL     1     -40.043  12.520   4.471  1.00 20.00     0.005 C 
ENDBRANCH   4   9
TORSDOF 1
ENDMDL
MODEL 9
REMARK VINA RESULT:      -4.0     10.119     10.900
REMARK  1 active torsions:
REMARK  status: ('A' for Active; 'I' for Inactive)
REMARK    1  A    between atoms: C7_7  and  C8_8 
ROOT
HETATM    1  C4  UNL     1     -42.239  12.805   7.140  1.00 20.00     0.038 C 
HETATM    2  C5  UNL     1     -43.262  13.179   8.211  1.00 20.00     0.270 C 
HETATM    3  C6  UNL     1     -42.149  15.277   8.647  1.00 20.00     0.307 C 
HETATM    4  C8  UNL     1     -40.887  13.477   7.402  1.00 20.00     0.027 C 
HETATM    5  C9  UNL     1     -41.078  14.982   7.603  1.00 20.00     0.202 C 
HETATM    6  N10 UNL     1     -43.417  14.630   8.318  1.00 20.00     0.086 N 
HETATM    7  F11 UNL     1     -39.902  15.515   8.039  1.00 20.00    -0.247 F 
HETATM    8  H27 UNL     1     -43.753  14.993   7.426  1.00 20.00     0.315 HD
ENDROOT
BRANCH   4   9
HETATM    9  C7  UNL     1     -39.942  13.220   6.229  1.00 20.00    -0.008 C 
HETATM   10  C2  UNL     1     -40.602  12.902   4.862  1.00 20.00     0.005 C 
HETATM   11  C1  UNL     1     -39.445  11.912   4.618  1.00 20.00     0.001 C 
HETATM   12  C3  UNL     1     -39.301  11.810   6.150  1.00 20.00     0.005 C 
ENDBRANCH   4   9
TORSDOF 1
ENDMDL
