MODEL 1
REMARK VINA RESULT:      -6.1      0.000      0.000
REMARK  1 active torsions:
REMARK  status: ('A' for Active; 'I' for Inactive)
REMARK    1  A    between atoms: N9_9  and  O10_10 
ROOT
HETATM    1  C1  UNL     1     -32.577   7.543   3.889  1.00 20.00     0.044 C 
HETATM    2  C2  UNL     1     -32.300   6.702   2.657  1.00 20.00     0.058 C 
HETATM    3  C3  UNL     1     -33.372   5.594   2.780  1.00 20.00     0.011 C 
HETATM    4  C4  UNL     1     -34.773   5.667   6.326  1.00 20.00     0.001 C 
HETATM    5  C5  UNL     1     -33.882   6.922   6.150  1.00 20.00     0.011 C 
HETATM    6  C6  UNL     1     -34.783   4.933   4.962  1.00 20.00     0.005 C 
HETATM    7  C7  UNL     1     -33.747   7.020   4.653  1.00 20.00     0.040 C 
HETATM    8  C8  UNL     1     -33.588   5.547   4.278  1.00 20.00    -0.004 C 
HETATM    9  N9  UNL     1     -31.896   8.592   4.199  1.00 20.00    -0.145 NA
ENDROOT
BRANCH   9  10
HETATM   10  O10 UNL     1     -32.414   9.120   5.385  1.00 20.00    -0.266 OA
HETATM   11  H23 UNL     1     -32.374   8.349   5.976  1.00 20.00     0.247 HD
ENDBRANCH   9  10
TORSDOF 1
ENDMDL
MODEL 2
REMARK VINA RESULT:      -6.0      2.460      3.972
REMARK  1 active torsions:
REMARK  status: ('A' for Active; 'I' for Inactive)
REMARK    1  A    between atoms: N9_9  and  O10_10 
ROOT
HETATM    1  C1  UNL     1     -34.193   5.969   5.394  1.00 20.00     0.044 C 
HETATM    2  C2  UNL     1     -34.289   6.979   6.523  1.00 20.00     0.058 C 
HETATM    3  C3  UNL     1     -33.835   8.282   5.825  1.00 20.00     0.011 C 
HETATM    4  C4  UNL     1     -32.160   7.358   2.527  1.00 20.00     0.001 C 
HETATM    5  C5  UNL     1     -32.814   6.073   3.094  1.00 20.00     0.011 C 
HETATM    6  C6  UNL     1     -32.516   8.507   3.501  1.00 20.00     0.005 C 
HETATM    7  C7  UNL     1     -33.774   6.619   4.118  1.00 20.00     0.040 C 
HETATM    8  C8  UNL     1     -32.938   7.743   4.731  1.00 20.00    -0.004 C 
HETATM    9  N9  UNL     1     -34.475   4.720   5.533  1.00 20.00    -0.145 NA
ENDROOT
BRANCH   9  10
HETATM   10  O10 UNL     1     -34.280   4.083   4.304  1.00 20.00    -0.266 OA
HETATM   11  H23 UNL     1     -34.742   3.239   4.447  1.00 20.00     0.247 HD
ENDBRANCH   9  10
TORSDOF 1
ENDMDL
MODEL 3
REMARK VINA RESULT:      -5.9      2.406      3.850
REMARK  1 active torsions:
REMARK  status: ('A' for Active; 'I' for Inactive)
REMARK    1  A    between atoms: N9_9  and  O10_10 
ROOT
HETATM    1  C1  UNL     1     -34.108   5.384   4.818  1.00 20.00     0.044 C 
HETATM    2  C2  UNL     1     -34.600   5.397   6.253  1.00 20.00     0.058 C 
HETATM    3  C3  UNL     1     -34.462   6.892   6.625  1.00 20.00     0.011 C 
HETATM    4  C4  UNL     1     -32.263   8.581   4.007  1.00 20.00     0.001 C 
HETATM    5  C5  UNL     1     -32.584   7.154   3.497  1.00 20.00     0.011 C 
HETATM    6  C6  UNL     1     -33.028   8.759   5.342  1.00 20.00     0.005 C 
HETATM    7  C7  UNL     1     -33.759   6.757   4.351  1.00 20.00     0.040 C 
HETATM    8  C8  UNL     1     -33.342   7.330   5.706  1.00 20.00    -0.004 C 
HETATM    9  N9  UNL     1     -34.038   4.316   4.102  1.00 20.00    -0.145 NA
ENDROOT
BRANCH   9  10
HETATM   10  O10 UNL     1     -33.546   4.661   2.840  1.00 20.00    -0.266 OA
HETATM   11  H23 UNL     1     -32.925   5.377   3.062  1.00 20.00     0.247 HD
ENDBRANCH   9  10
TORSDOF 1
ENDMDL
MODEL 4
REMARK VINA RESULT:      -5.7      2.220      3.431
REMARK  1 active torsions:
REMARK  status: ('A' for Active; 'I' for Inactive)
REMARK    1  A    between atoms: N9_9  and  O10_10 
ROOT
HETATM    1  C1  UNL     1     -34.049   6.967   5.605  1.00 20.00     0.044 C 
HETATM    2  C2  UNL     1     -33.380   8.325   5.705  1.00 20.00     0.058 C 
HETATM    3  C3  UNL     1     -32.828   8.515   4.272  1.00 20.00     0.011 C 
HETATM    4  C4  UNL     1     -32.919   5.143   2.494  1.00 20.00     0.001 C 
HETATM    5  C5  UNL     1     -33.687   4.987   3.830  1.00 20.00     0.011 C 
HETATM    6  C6  UNL     1     -32.489   6.628   2.398  1.00 20.00     0.005 C 
HETATM    7  C7  UNL     1     -33.957   6.416   4.221  1.00 20.00     0.040 C 
HETATM    8  C8  UNL     1     -32.637   7.080   3.829  1.00 20.00    -0.004 C 
HETATM    9  N9  UNL     1     -34.644   6.395   6.594  1.00 20.00    -0.145 NA
ENDROOT
BRANCH   9  10
HETATM   10  O10 UNL     1     -35.145   5.165   6.157  1.00 20.00    -0.266 OA
HETATM   11  H23 UNL     1     -35.963   5.437   5.706  1.00 20.00     0.247 HD
ENDBRANCH   9  10
TORSDOF 1
ENDMDL
MODEL 5
REMARK VINA RESULT:      -5.7      2.034      2.678
REMARK  1 active torsions:
REMARK  status: ('A' for Active; 'I' for Inactive)
REMARK    1  A    between atoms: N9_9  and  O10_10 
ROOT
HETATM    1  C1  UNL     1     -32.740   6.949   3.418  1.00 20.00     0.044 C 
HETATM    2  C2  UNL     1     -32.446   8.413   3.688  1.00 20.00     0.058 C 
HETATM    3  C3  UNL     1     -32.853   8.551   5.174  1.00 20.00     0.011 C 
HETATM    4  C4  UNL     1     -34.919   5.496   6.142  1.00 20.00     0.001 C 
HETATM    5  C5  UNL     1     -34.325   5.231   4.736  1.00 20.00     0.011 C 
HETATM    6  C6  UNL     1     -34.371   6.868   6.607  1.00 20.00     0.005 C 
HETATM    7  C7  UNL     1     -33.225   6.256   4.648  1.00 20.00     0.040 C 
HETATM    8  C8  UNL     1     -33.897   7.462   5.304  1.00 20.00    -0.004 C 
HETATM    9  N9  UNL     1     -32.554   6.387   2.274  1.00 20.00    -0.145 NA
ENDROOT
BRANCH   9  10
HETATM   10  O10 UNL     1     -32.923   5.043   2.376  1.00 20.00    -0.266 OA
HETATM   11  H23 UNL     1     -33.468   4.929   1.578  1.00 20.00     0.247 HD
ENDBRANCH   9  10
TORSDOF 1
ENDMDL
MODEL 6
REMARK VINA RESULT:      -5.5      2.384      3.136
REMARK  1 active torsions:
REMARK  status: ('A' for Active; 'I' for Inactive)
REMARK    1  A    between atoms: N9_9  and  O10_10 
ROOT
HETATM    1  C1  UNL     1     -33.873   5.406   4.145  1.00 20.00     0.044 C 
HETATM    2  C2  UNL     1     -33.221   5.325   2.777  1.00 20.00     0.058 C 
HETATM    3  C3  UNL     1     -32.288   6.558   2.794  1.00 20.00     0.011 C 
HETATM    4  C4  UNL     1     -33.336   8.817   5.682  1.00 20.00     0.001 C 
HETATM    5  C5  UNL     1     -34.117   7.486   5.823  1.00 20.00     0.011 C 
HETATM    6  C6  UNL     1     -32.396   8.655   4.462  1.00 20.00     0.005 C 
HETATM    7  C7  UNL     1     -33.337   6.553   4.935  1.00 20.00     0.040 C 
HETATM    8  C8  UNL     1     -33.014   7.473   3.757  1.00 20.00    -0.004 C 
HETATM    9  N9  UNL     1     -34.751   4.563   4.564  1.00 20.00    -0.145 NA
ENDROOT
BRANCH   9  10
HETATM   10  O10 UNL     1     -35.138   4.931   5.855  1.00 20.00    -0.266 OA
HETATM   11  H23 UNL     1     -35.226   5.896   5.765  1.00 20.00     0.247 HD
ENDBRANCH   9  10
TORSDOF 1
ENDMDL
MODEL 7
REMARK VINA RESULT:      -5.3      1.471      2.539
REMARK  1 active torsions:
REMARK  status: ('A' for Active; 'I' for Inactive)
REMARK    1  A    between atoms: N9_9  and  O10_10 
ROOT
HETATM    1  C1  UNL     1     -33.018   7.975   4.234  1.00 20.00     0.044 C 
HETATM    2  C2  UNL     1     -33.542   8.684   5.469  1.00 20.00     0.058 C 
HETATM    3  C3  UNL     1     -34.006   7.497   6.345  1.00 20.00     0.011 C 
HETATM    4  C4  UNL     1     -34.195   4.385   4.149  1.00 20.00     0.001 C 
HETATM    5  C5  UNL     1     -33.508   5.500   3.321  1.00 20.00     0.011 C 
HETATM    6  C6  UNL     1     -34.460   4.974   5.556  1.00 20.00     0.005 C 
HETATM    7  C7  UNL     1     -33.106   6.493   4.379  1.00 20.00     0.040 C 
HETATM    8  C8  UNL     1     -34.329   6.454   5.296  1.00 20.00    -0.004 C 
HETATM    9  N9  UNL     1     -32.532   8.594   3.214  1.00 20.00    -0.145 NA
ENDROOT
BRANCH   9  10
HETATM   10  O10 UNL     1     -32.146   7.644   2.264  1.00 20.00    -0.266 OA
HETATM   11  H23 UNL     1     -31.434   7.175   2.734  1.00 20.00     0.247 HD
ENDBRANCH   9  10
TORSDOF 1
ENDMDL
MODEL 8
REMARK VINA RESULT:      -5.2      0.966      2.650
REMARK  1 active torsions:
REMARK  status: ('A' for Active; 'I' for Inactive)
REMARK    1  A    between atoms: N9_9  and  O10_10 
ROOT
HETATM    1  C1  UNL     1     -33.434   7.635   5.365  1.00 20.00     0.044 C 
HETATM    2  C2  UNL     1     -34.375   7.161   6.457  1.00 20.00     0.058 C 
HETATM    3  C3  UNL     1     -34.511   5.656   6.129  1.00 20.00     0.011 C 
HETATM    4  C4  UNL     1     -33.193   5.072   2.599  1.00 20.00     0.001 C 
HETATM    5  C5  UNL     1     -32.834   6.526   2.997  1.00 20.00     0.011 C 
HETATM    6  C6  UNL     1     -33.881   4.430   3.829  1.00 20.00     0.005 C 
HETATM    7  C7  UNL     1     -32.999   6.505   4.494  1.00 20.00     0.040 C 
HETATM    8  C8  UNL     1     -34.256   5.647   4.637  1.00 20.00    -0.004 C 
HETATM    9  N9  UNL     1     -33.047   8.858   5.245  1.00 20.00    -0.145 NA
ENDROOT
BRANCH   9  10
HETATM   10  O10 UNL     1     -32.192   8.944   4.142  1.00 20.00    -0.266 OA
HETATM   11  H23 UNL     1     -32.404   8.123   3.666  1.00 20.00     0.247 HD
ENDBRANCH   9  10
TORSDOF 1
ENDMDL
MODEL 9
REMARK VINA RESULT:      -5.1      2.118      3.140
REMARK  1 active torsions:
REMARK  status: ('A' for Active; 'I' for Inactive)
REMARK    1  A    between atoms: N9_9  and  O10_10 
ROOT
HETATM    1  C1  UNL     1     -34.154   5.657   5.024  1.00 20.00     0.044 C 
HETATM    2  C2  UNL     1     -34.090   4.645   3.895  1.00 20.00     0.058 C 
HETATM    3  C3  UNL     1     -33.014   5.263   2.972  1.00 20.00     0.011 C 
HETATM    4  C4  UNL     1     -32.474   8.890   4.020  1.00 20.00     0.001 C 
HETATM    5  C5  UNL     1     -33.371   8.222   5.093  1.00 20.00     0.011 C 
HETATM    6  C6  UNL     1     -32.108   7.787   2.996  1.00 20.00     0.005 C 
HETATM    7  C7  UNL     1     -33.163   6.755   4.826  1.00 20.00     0.040 C 
HETATM    8  C8  UNL     1     -33.147   6.736   3.297  1.00 20.00    -0.004 C 
HETATM    9  N9  UNL     1     -34.946   5.545   6.033  1.00 20.00    -0.145 NA
ENDROOT
BRANCH   9  10
HETATM   10  O10 UNL     1     -34.746   6.641   6.876  1.00 20.00    -0.266 OA
HETATM   11  H23 UNL     1     -35.572   7.139   6.748  1.00 20.00     0.247 HD
ENDBRANCH   9  10
TORSDOF 1
ENDMDL
