MODEL 1
REMARK VINA RESULT:      -5.2      0.000      0.000
REMARK  5 active torsions:
REMARK  status: ('A' for Active; 'I' for Inactive)
REMARK    1  A    between atoms: C3_3  and  C7_7 
REMARK    2  A    between atoms: C4_4  and  C8_8 
REMARK    3  A    between atoms: C7_7  and  C9_9 
REMARK    4  A    between atoms: C8_8  and  C10_10 
REMARK    5  A    between atoms: C9_9  and  C10_10 
ROOT
HETATM    1  C9  UNL     1     -32.548   8.723   4.395  1.00 20.00     0.004 C 
ENDROOT
BRANCH   1   2
HETATM    2  C7  UNL     1     -32.081   7.544   3.539  1.00 20.00     0.026 C 
BRANCH   2   3
HETATM    3  C3  UNL     1     -32.335   7.796   2.081  1.00 20.00    -0.031 C 
HETATM    4  C1  UNL     1     -32.575   9.010   1.565  1.00 20.00    -0.035 C 
HETATM    5  C5  UNL     1     -32.832   9.260   0.116  1.00 20.00     0.035 C 
ENDBRANCH   2   3
ENDBRANCH   1   2
BRANCH   1   6
HETATM    6  C10 UNL     1     -33.702   8.319   5.316  1.00 20.00     0.004 C 
BRANCH   6   7
HETATM    7  C8  UNL     1     -33.353   7.068   6.126  1.00 20.00     0.026 C 
BRANCH   7   8
HETATM    8  C4  UNL     1     -34.573   6.235   6.394  1.00 20.00    -0.031 C 
HETATM    9  C2  UNL     1     -34.955   5.203   5.627  1.00 20.00    -0.035 C 
HETATM   10  C6  UNL     1     -34.214   4.752   4.412  1.00 20.00     0.035 C 
ENDBRANCH   7   8
ENDBRANCH   6   7
ENDBRANCH   1   6
TORSDOF 5
ENDMDL
MODEL 2
REMARK VINA RESULT:      -5.1      0.952      1.435
REMARK  5 active torsions:
REMARK  status: ('A' for Active; 'I' for Inactive)
REMARK    1  A    between atoms: C3_3  and  C7_7 
REMARK    2  A    between atoms: C4_4  and  C8_8 
REMARK    3  A    between atoms: C7_7  and  C9_9 
REMARK    4  A    between atoms: C8_8  and  C10_10 
REMARK    5  A    between atoms: C9_9  and  C10_10 
ROOT
HETATM    1  C9  UNL     1     -33.253   8.472   5.333  1.00 20.00     0.004 C 
ENDROOT
BRANCH   1   2
HETATM    2  C7  UNL     1     -32.230   8.137   4.245  1.00 20.00     0.026 C 
BRANCH   2   3
HETATM    3  C3  UNL     1     -32.601   8.770   2.935  1.00 20.00    -0.031 C 
HETATM    4  C1  UNL     1     -32.203   8.304   1.743  1.00 20.00    -0.035 C 
HETATM    5  C5  UNL     1     -32.568   8.936   0.440  1.00 20.00     0.035 C 
ENDBRANCH   2   3
ENDBRANCH   1   2
BRANCH   1   6
HETATM    6  C10 UNL     1     -33.798   7.203   5.993  1.00 20.00     0.004 C 
BRANCH   6   7
HETATM    7  C8  UNL     1     -34.809   6.497   5.087  1.00 20.00     0.026 C 
BRANCH   7   8
HETATM    8  C4  UNL     1     -34.591   5.012   5.081  1.00 20.00    -0.031 C 
HETATM    9  C2  UNL     1     -33.912   4.362   4.125  1.00 20.00    -0.035 C 
HETATM   10  C6  UNL     1     -33.289   5.033   2.946  1.00 20.00     0.035 C 
ENDBRANCH   7   8
ENDBRANCH   6   7
ENDBRANCH   1   6
TORSDOF 5
ENDMDL
MODEL 3
REMARK VINA RESULT:      -4.8      1.018      2.387
REMARK  5 active torsions:
REMARK  status: ('A' for Active; 'I' for Inactive)
REMARK    1  A    between atoms: C3_3  and  C7_7 
REMARK    2  A    between atoms: C4_4  and  C8_8 
REMARK    3  A    between atoms: C7_7  and  C9_9 
REMARK    4  A    between atoms: C8_8  and  C10_10 
REMARK    5  A    between atoms: C9_9  and  C10_10 
ROOT
HETATM    1  C9  UNL     1     -33.081   5.414   2.614  1.00 20.00     0.004 C 
ENDROOT
BRANCH   1   2
HETATM    2  C7  UNL     1     -32.213   6.587   3.075  1.00 20.00     0.026 C 
BRANCH   2   3
HETATM    3  C3  UNL     1     -32.614   7.862   2.390  1.00 20.00    -0.031 C 
HETATM    4  C1  UNL     1     -32.246   8.186   1.143  1.00 20.00    -0.035 C 
HETATM    5  C5  UNL     1     -32.640   9.456   0.464  1.00 20.00     0.035 C 
ENDBRANCH   2   3
ENDBRANCH   1   2
BRANCH   1   6
HETATM    6  C10 UNL     1     -33.740   4.710   3.803  1.00 20.00     0.004 C 
BRANCH   6   7
HETATM    7  C8  UNL     1     -34.824   5.586   4.435  1.00 20.00     0.026 C 
BRANCH   7   8
HETATM    8  C4  UNL     1     -34.638   5.694   5.921  1.00 20.00    -0.031 C 
HETATM    9  C2  UNL     1     -34.188   6.797   6.538  1.00 20.00    -0.035 C 
HETATM   10  C6  UNL     1     -33.816   8.054   5.825  1.00 20.00     0.035 C 
ENDBRANCH   7   8
ENDBRANCH   6   7
ENDBRANCH   1   6
TORSDOF 5
ENDMDL
MODEL 4
REMARK VINA RESULT:      -4.8      1.497      2.104
REMARK  5 active torsions:
REMARK  status: ('A' for Active; 'I' for Inactive)
REMARK    1  A    between atoms: C3_3  and  C7_7 
REMARK    2  A    between atoms: C4_4  and  C8_8 
REMARK    3  A    between atoms: C7_7  and  C9_9 
REMARK    4  A    between atoms: C8_8  and  C10_10 
REMARK    5  A    between atoms: C9_9  and  C10_10 
ROOT
HETATM    1  C9  UNL     1     -33.432   8.702   4.691  1.00 20.00     0.004 C 
ENDROOT
BRANCH   1   2
HETATM    2  C7  UNL     1     -32.541   8.490   3.465  1.00 20.00     0.026 C 
BRANCH   2   3
HETATM    3  C3  UNL     1     -32.227   7.035   3.265  1.00 20.00    -0.031 C 
HETATM    4  C1  UNL     1     -33.000   6.196   2.561  1.00 20.00    -0.035 C 
HETATM    5  C5  UNL     1     -32.691   4.748   2.367  1.00 20.00     0.035 C 
ENDBRANCH   2   3
ENDBRANCH   1   2
BRANCH   1   6
HETATM    6  C10 UNL     1     -32.994   7.811   5.856  1.00 20.00     0.004 C 
BRANCH   6   7
HETATM    7  C8  UNL     1     -34.201   7.187   6.561  1.00 20.00     0.026 C 
BRANCH   7   8
HETATM    8  C4  UNL     1     -34.221   5.696   6.387  1.00 20.00    -0.031 C 
HETATM    9  C2  UNL     1     -34.899   5.068   5.415  1.00 20.00    -0.035 C 
HETATM   10  C6  UNL     1     -35.717   5.772   4.384  1.00 20.00     0.035 C 
ENDBRANCH   7   8
ENDBRANCH   6   7
ENDBRANCH   1   6
TORSDOF 5
ENDMDL
MODEL 5
REMARK VINA RESULT:      -4.7      0.928      4.043
REMARK  5 active torsions:
REMARK  status: ('A' for Active; 'I' for Inactive)
REMARK    1  A    between atoms: C3_3  and  C7_7 
REMARK    2  A    between atoms: C4_4  and  C8_8 
REMARK    3  A    between atoms: C7_7  and  C9_9 
REMARK    4  A    between atoms: C8_8  and  C10_10 
REMARK    5  A    between atoms: C9_9  and  C10_10 
ROOT
HETATM    1  C9  UNL     1     -33.785   6.928   6.288  1.00 20.00     0.004 C 
ENDROOT
BRANCH   1   2
HETATM    2  C7  UNL     1     -34.740   5.809   5.866  1.00 20.00     0.026 C 
BRANCH   2   3
HETATM    3  C3  UNL     1     -34.606   5.503   4.402  1.00 20.00    -0.031 C 
HETATM    4  C1  UNL     1     -33.511   4.959   3.852  1.00 20.00    -0.035 C 
HETATM    5  C5  UNL     1     -33.376   4.659   2.396  1.00 20.00     0.035 C 
ENDBRANCH   2   3
ENDBRANCH   1   2
BRANCH   1   6
HETATM    6  C10 UNL     1     -33.958   8.168   5.407  1.00 20.00     0.004 C 
BRANCH   6   7
HETATM    7  C8  UNL     1     -32.604   8.739   4.980  1.00 20.00     0.026 C 
BRANCH   7   8
HETATM    8  C4  UNL     1     -31.972   7.899   3.909  1.00 20.00    -0.031 C 
HETATM    9  C2  UNL     1     -32.092   8.149   2.597  1.00 20.00    -0.035 C 
HETATM   10  C6  UNL     1     -32.868   9.295   2.038  1.00 20.00     0.035 C 
ENDBRANCH   7   8
ENDBRANCH   6   7
ENDBRANCH   1   6
TORSDOF 5
ENDMDL
MODEL 6
REMARK VINA RESULT:      -4.7      1.208      3.894
REMARK  5 active torsions:
REMARK  status: ('A' for Active; 'I' for Inactive)
REMARK    1  A    between atoms: C3_3  and  C7_7 
REMARK    2  A    between atoms: C4_4  and  C8_8 
REMARK    3  A    between atoms: C7_7  and  C9_9 
REMARK    4  A    between atoms: C8_8  and  C10_10 
REMARK    5  A    between atoms: C9_9  and  C10_10 
ROOT
HETATM    1  C9  UNL     1     -34.426   5.735   6.399  1.00 20.00     0.004 C 
ENDROOT
BRANCH   1   2
HETATM    2  C7  UNL     1     -35.099   5.524   5.041  1.00 20.00     0.026 C 
BRANCH   2   3
HETATM    3  C3  UNL     1     -34.220   4.732   4.115  1.00 20.00    -0.031 C 
HETATM    4  C1  UNL     1     -33.502   5.276   3.123  1.00 20.00    -0.035 C 
HETATM    5  C5  UNL     1     -32.633   4.488   2.199  1.00 20.00     0.035 C 
ENDBRANCH   2   3
ENDBRANCH   1   2
BRANCH   1   6
HETATM    6  C10 UNL     1     -34.183   7.221   6.674  1.00 20.00     0.004 C 
BRANCH   6   7
HETATM    7  C8  UNL     1     -33.963   7.997   5.373  1.00 20.00     0.026 C 
BRANCH   7   8
HETATM    8  C4  UNL     1     -32.503   8.254   5.134  1.00 20.00    -0.031 C 
HETATM    9  C2  UNL     1     -31.986   8.551   3.933  1.00 20.00    -0.035 C 
HETATM   10  C6  UNL     1     -32.795   8.664   2.684  1.00 20.00     0.035 C 
ENDBRANCH   7   8
ENDBRANCH   6   7
ENDBRANCH   1   6
TORSDOF 5
ENDMDL
MODEL 7
REMARK VINA RESULT:      -4.6      1.271      3.215
REMARK  5 active torsions:
REMARK  status: ('A' for Active; 'I' for Inactive)
REMARK    1  A    between atoms: C3_3  and  C7_7 
REMARK    2  A    between atoms: C4_4  and  C8_8 
REMARK    3  A    between atoms: C7_7  and  C9_9 
REMARK    4  A    between atoms: C8_8  and  C10_10 
REMARK    5  A    between atoms: C9_9  and  C10_10 
ROOT
HETATM    1  C9  UNL     1     -34.845   5.222   4.789  1.00 20.00     0.004 C 
ENDROOT
BRANCH   1   2
HETATM    2  C7  UNL     1     -33.804   4.503   3.928  1.00 20.00     0.026 C 
BRANCH   2   3
HETATM    3  C3  UNL     1     -33.357   5.363   2.781  1.00 20.00    -0.031 C 
HETATM    4  C1  UNL     1     -32.533   6.412   2.913  1.00 20.00    -0.035 C 
HETATM    5  C5  UNL     1     -32.093   7.271   1.774  1.00 20.00     0.035 C 
ENDBRANCH   2   3
ENDBRANCH   1   2
BRANCH   1   6
HETATM    6  C10 UNL     1     -34.368   5.364   6.236  1.00 20.00     0.004 C 
BRANCH   6   7
HETATM    7  C8  UNL     1     -33.705   6.723   6.471  1.00 20.00     0.026 C 
BRANCH   7   8
HETATM    8  C4  UNL     1     -34.350   7.794   5.641  1.00 20.00    -0.031 C 
HETATM    9  C2  UNL     1     -33.670   8.770   5.023  1.00 20.00    -0.035 C 
HETATM   10  C6  UNL     1     -32.185   8.914   5.083  1.00 20.00     0.035 C 
ENDBRANCH   7   8
ENDBRANCH   6   7
ENDBRANCH   1   6
TORSDOF 5
ENDMDL
MODEL 8
REMARK VINA RESULT:      -4.3      0.809      5.086
REMARK  5 active torsions:
REMARK  status: ('A' for Active; 'I' for Inactive)
REMARK    1  A    between atoms: C3_3  and  C7_7 
REMARK    2  A    between atoms: C4_4  and  C8_8 
REMARK    3  A    between atoms: C7_7  and  C9_9 
REMARK    4  A    between atoms: C8_8  and  C10_10 
REMARK    5  A    between atoms: C9_9  and  C10_10 
ROOT
HETATM    1  C9  UNL     1     -32.299   8.753   4.557  1.00 20.00     0.004 C 
ENDROOT
BRANCH   1   2
HETATM    2  C7  UNL     1     -33.583   8.560   5.368  1.00 20.00     0.026 C 
BRANCH   2   3
HETATM    3  C3  UNL     1     -34.073   7.143   5.283  1.00 20.00    -0.031 C 
HETATM    4  C1  UNL     1     -34.204   6.335   6.344  1.00 20.00    -0.035 C 
HETATM    5  C5  UNL     1     -34.686   4.925   6.259  1.00 20.00     0.035 C 
ENDBRANCH   2   3
ENDBRANCH   1   2
BRANCH   1   6
HETATM    6  C10 UNL     1     -31.988   7.519   3.709  1.00 20.00     0.004 C 
BRANCH   6   7
HETATM    7  C8  UNL     1     -32.316   7.762   2.233  1.00 20.00     0.026 C 
BRANCH   7   8
HETATM    8  C4  UNL     1     -32.628   9.208   1.977  1.00 20.00    -0.031 C 
HETATM    9  C2  UNL     1     -32.917   9.705   0.766  1.00 20.00    -0.035 C 
HETATM   10  C6  UNL     1     -32.965   8.884  -0.480  1.00 20.00     0.035 C 
ENDBRANCH   7   8
ENDBRANCH   6   7
ENDBRANCH   1   6
TORSDOF 5
ENDMDL
MODEL 9
REMARK VINA RESULT:      -4.2     11.343     11.920
REMARK  5 active torsions:
REMARK  status: ('A' for Active; 'I' for Inactive)
REMARK    1  A    between atoms: C3_3  and  C7_7 
REMARK    2  A    between atoms: C4_4  and  C8_8 
REMARK    3  A    between atoms: C7_7  and  C9_9 
REMARK    4  A    between atoms: C8_8  and  C10_10 
REMARK    5  A    between atoms: C9_9  and  C10_10 
ROOT
HETATM    1  C9  UNL     1     -31.703  18.559  -0.628  1.00 20.00     0.004 C 
ENDROOT
BRANCH   1   2
HETATM    2  C7  UNL     1     -33.146  18.170  -0.298  1.00 20.00     0.026 C 
BRANCH   2   3
HETATM    3  C3  UNL     1     -33.733  17.298  -1.371  1.00 20.00    -0.031 C 
HETATM    4  C1  UNL     1     -33.043  16.853  -2.430  1.00 20.00    -0.035 C 
HETATM    5  C5  UNL     1     -33.628  15.991  -3.500  1.00 20.00     0.035 C 
ENDBRANCH   2   3
ENDBRANCH   1   2
BRANCH   1   6
HETATM    6  C10 UNL     1     -31.013  19.205   0.575  1.00 20.00     0.004 C 
BRANCH   6   7
HETATM    7  C8  UNL     1     -30.832  18.201   1.716  1.00 20.00     0.026 C 
BRANCH   7   8
HETATM    8  C4  UNL     1     -30.971  18.867   3.054  1.00 20.00    -0.031 C 
HETATM    9  C2  UNL     1     -29.946  19.074   3.894  1.00 20.00    -0.035 C 
HETATM   10  C6  UNL     1     -28.540  18.668   3.604  1.00 20.00     0.035 C 
ENDBRANCH   7   8
ENDBRANCH   6   7
ENDBRANCH   1   6
TORSDOF 5
ENDMDL
