MODEL 1
REMARK VINA RESULT:      -5.0      0.000      0.000
REMARK  2 active torsions:
REMARK  status: ('A' for Active; 'I' for Inactive)
REMARK    1  A    between atoms: C1_1  and  C3_3 
REMARK    2  A    between atoms: C2_2  and  C4_4 
ROOT
HETATM    1  C4  UNL     1     -34.201  16.435  -3.903  1.00 20.00     0.097 C 
HETATM    2  C5  UNL     1     -34.220  16.784  -5.416  1.00 20.00     0.074 C 
HETATM    3  C6  UNL     1     -33.671  15.034  -4.309  1.00 20.00     0.315 C 
HETATM    4  C7  UNL     1     -34.342  15.260  -5.691  1.00 20.00     0.312 C 
HETATM    5  C8  UNL     1     -35.369  17.649  -5.895  1.00 20.00     0.017 C 
HETATM    6  F10 UNL     1     -32.325  14.891  -4.348  1.00 20.00    -0.199 F 
HETATM    7  F11 UNL     1     -34.153  13.996  -3.590  1.00 20.00    -0.199 F 
HETATM    8  F12 UNL     1     -33.653  14.800  -6.758  1.00 20.00    -0.199 F 
HETATM    9  F13 UNL     1     -35.602  14.777  -5.800  1.00 20.00    -0.199 F 
ENDROOT
BRANCH   1  10
HETATM   10  C2  UNL     1     -33.292  17.245  -3.071  1.00 20.00    -0.012 C 
HETATM   11  C1  UNL     1     -33.367  17.296  -1.736  1.00 20.00     0.038 C 
BRANCH  11  12
HETATM   12  C3  UNL     1     -32.408  18.140  -0.995  1.00 20.00     0.258 C 
HETATM   13  O9  UNL     1     -31.766  19.026  -1.545  1.00 20.00    -0.302 OA
ENDBRANCH  11  12
ENDBRANCH   1  10
TORSDOF 2
ENDMDL
MODEL 2
REMARK VINA RESULT:      -4.6      3.043      4.672
REMARK  2 active torsions:
REMARK  status: ('A' for Active; 'I' for Inactive)
REMARK    1  A    between atoms: C1_1  and  C3_3 
REMARK    2  A    between atoms: C2_2  and  C4_4 
ROOT
HETATM    1  C4  UNL     1     -34.007  16.875  -4.573  1.00 20.00     0.097 C 
HETATM    2  C5  UNL     1     -34.601  17.602  -3.336  1.00 20.00     0.074 C 
HETATM    3  C6  UNL     1     -33.412  15.838  -3.584  1.00 20.00     0.315 C 
HETATM    4  C7  UNL     1     -33.469  16.947  -2.498  1.00 20.00     0.312 C 
HETATM    5  C8  UNL     1     -34.612  19.118  -3.384  1.00 20.00     0.017 C 
HETATM    6  F10 UNL     1     -34.176  14.750  -3.324  1.00 20.00    -0.199 F 
HETATM    7  F11 UNL     1     -32.176  15.382  -3.887  1.00 20.00    -0.199 F 
HETATM    8  F12 UNL     1     -33.819  16.536  -1.260  1.00 20.00    -0.199 F 
HETATM    9  F13 UNL     1     -32.335  17.674  -2.364  1.00 20.00    -0.199 F 
ENDROOT
BRANCH   1  10
HETATM   10  C2  UNL     1     -34.990  16.347  -5.537  1.00 20.00    -0.012 C 
HETATM   11  C1  UNL     1     -34.658  15.896  -6.752  1.00 20.00     0.038 C 
BRANCH  11  12
HETATM   12  C3  UNL     1     -35.719  15.387  -7.644  1.00 20.00     0.258 C 
HETATM   13  O9  UNL     1     -36.169  14.253  -7.534  1.00 20.00    -0.302 OA
ENDBRANCH  11  12
ENDBRANCH   1  10
TORSDOF 2
ENDMDL
MODEL 3
REMARK VINA RESULT:      -4.4     11.348     12.689
REMARK  2 active torsions:
REMARK  status: ('A' for Active; 'I' for Inactive)
REMARK    1  A    between atoms: C1_1  and  C3_3 
REMARK    2  A    between atoms: C2_2  and  C4_4 
ROOT
HETATM    1  C4  UNL     1     -32.760   6.611   3.936  1.00 20.00     0.097 C 
HETATM    2  C5  UNL     1     -33.937   7.390   4.583  1.00 20.00     0.074 C 
HETATM    3  C6  UNL     1     -33.746   5.428   3.743  1.00 20.00     0.315 C 
HETATM    4  C7  UNL     1     -34.562   6.011   4.929  1.00 20.00     0.312 C 
HETATM    5  C8  UNL     1     -33.590   8.285   5.756  1.00 20.00     0.017 C 
HETATM    6  F10 UNL     1     -34.409   5.386   2.563  1.00 20.00    -0.199 F 
HETATM    7  F11 UNL     1     -33.227   4.196   3.943  1.00 20.00    -0.199 F 
HETATM    8  F12 UNL     1     -35.906   5.930   4.809  1.00 20.00    -0.199 F 
HETATM    9  F13 UNL     1     -34.246   5.505   6.144  1.00 20.00    -0.199 F 
ENDROOT
BRANCH   1  10
HETATM   10  C2  UNL     1     -32.212   7.194   2.696  1.00 20.00    -0.012 C 
HETATM   11  C1  UNL     1     -32.756   8.247   2.076  1.00 20.00     0.038 C 
BRANCH  11  12
HETATM   12  C3  UNL     1     -32.131   8.755   0.839  1.00 20.00     0.258 C 
HETATM   13  O9  UNL     1     -32.741   9.467   0.050  1.00 20.00    -0.302 OA
ENDBRANCH  11  12
ENDBRANCH   1  10
TORSDOF 2
ENDMDL
MODEL 4
REMARK VINA RESULT:      -4.3      2.191      2.955
REMARK  2 active torsions:
REMARK  status: ('A' for Active; 'I' for Inactive)
REMARK    1  A    between atoms: C1_1  and  C3_3 
REMARK    2  A    between atoms: C2_2  and  C4_4 
ROOT
HETATM    1  C4  UNL     1     -33.213  17.262  -3.371  1.00 20.00     0.097 C 
HETATM    2  C5  UNL     1     -33.923  15.931  -3.738  1.00 20.00     0.074 C 
HETATM    3  C6  UNL     1     -34.496  17.992  -3.849  1.00 20.00     0.315 C 
HETATM    4  C7  UNL     1     -34.784  16.752  -4.738  1.00 20.00     0.312 C 
HETATM    5  C8  UNL     1     -33.053  14.842  -4.336  1.00 20.00     0.017 C 
HETATM    6  F10 UNL     1     -35.431  18.243  -2.902  1.00 20.00    -0.199 F 
HETATM    7  F11 UNL     1     -34.295  19.152  -4.515  1.00 20.00    -0.199 F 
HETATM    8  F12 UNL     1     -36.082  16.387  -4.830  1.00 20.00    -0.199 F 
HETATM    9  F13 UNL     1     -34.309  16.832  -6.002  1.00 20.00    -0.199 F 
ENDROOT
BRANCH   1  10
HETATM   10  C2  UNL     1     -32.874  17.433  -1.946  1.00 20.00    -0.012 C 
HETATM   11  C1  UNL     1     -32.139  18.451  -1.482  1.00 20.00     0.038 C 
BRANCH  11  12
HETATM   12  C3  UNL     1     -31.856  18.531  -0.036  1.00 20.00     0.258 C 
HETATM   13  O9  UNL     1     -30.714  18.638   0.395  1.00 20.00    -0.302 OA
ENDBRANCH  11  12
ENDBRANCH   1  10
TORSDOF 2
ENDMDL
MODEL 5
REMARK VINA RESULT:      -4.2     11.435     12.803
REMARK  2 active torsions:
REMARK  status: ('A' for Active; 'I' for Inactive)
REMARK    1  A    between atoms: C1_1  and  C3_3 
REMARK    2  A    between atoms: C2_2  and  C4_4 
ROOT
HETATM    1  C4  UNL     1     -34.040   7.872   4.248  1.00 20.00     0.097 C 
HETATM    2  C5  UNL     1     -33.657   6.445   4.725  1.00 20.00     0.074 C 
HETATM    3  C6  UNL     1     -33.437   8.398   5.577  1.00 20.00     0.315 C 
HETATM    4  C7  UNL     1     -33.720   6.994   6.177  1.00 20.00     0.312 C 
HETATM    5  C8  UNL     1     -34.632   5.334   4.384  1.00 20.00     0.017 C 
HETATM    6  F10 UNL     1     -32.129   8.748   5.545  1.00 20.00    -0.199 F 
HETATM    7  F11 UNL     1     -34.101   9.423   6.155  1.00 20.00    -0.199 F 
HETATM    8  F12 UNL     1     -32.780   6.519   7.024  1.00 20.00    -0.199 F 
HETATM    9  F13 UNL     1     -34.912   6.871   6.806  1.00 20.00    -0.199 F 
ENDROOT
BRANCH   1  10
HETATM   10  C2  UNL     1     -33.371   8.334   3.017  1.00 20.00    -0.012 C 
HETATM   11  C1  UNL     1     -32.443   7.619   2.371  1.00 20.00     0.038 C 
BRANCH  11  12
HETATM   12  C3  UNL     1     -31.834   8.172   1.146  1.00 20.00     0.258 C 
HETATM   13  O9  UNL     1     -32.461   8.892   0.379  1.00 20.00    -0.302 OA
ENDBRANCH  11  12
ENDBRANCH   1  10
TORSDOF 2
ENDMDL
MODEL 6
REMARK VINA RESULT:      -4.2     12.671     14.056
REMARK  2 active torsions:
REMARK  status: ('A' for Active; 'I' for Inactive)
REMARK    1  A    between atoms: C1_1  and  C3_3 
REMARK    2  A    between atoms: C2_2  and  C4_4 
ROOT
HETATM    1  C4  UNL     1     -41.067  13.152   6.919  1.00 20.00     0.097 C 
HETATM    2  C5  UNL     1     -41.103  14.613   7.444  1.00 20.00     0.074 C 
HETATM    3  C6  UNL     1     -42.586  13.296   6.634  1.00 20.00     0.315 C 
HETATM    4  C7  UNL     1     -42.614  14.395   7.731  1.00 20.00     0.312 C 
HETATM    5  C8  UNL     1     -40.228  14.922   8.643  1.00 20.00     0.017 C 
HETATM    6  F10 UNL     1     -42.925  13.722   5.394  1.00 20.00    -0.199 F 
HETATM    7  F11 UNL     1     -43.335  12.200   6.889  1.00 20.00    -0.199 F 
HETATM    8  F12 UNL     1     -43.417  15.452   7.479  1.00 20.00    -0.199 F 
HETATM    9  F13 UNL     1     -42.923  13.955   8.973  1.00 20.00    -0.199 F 
ENDROOT
BRANCH   1  10
HETATM   10  C2  UNL     1     -40.215  12.918   5.738  1.00 20.00    -0.012 C 
HETATM   11  C1  UNL     1     -39.716  11.719   5.419  1.00 20.00     0.038 C 
BRANCH  11  12
HETATM   12  C3  UNL     1     -38.872  11.590   4.214  1.00 20.00     0.258 C 
HETATM   13  O9  UNL     1     -39.221  12.039   3.128  1.00 20.00    -0.302 OA
ENDBRANCH  11  12
ENDBRANCH   1  10
TORSDOF 2
ENDMDL
MODEL 7
REMARK VINA RESULT:      -4.1     13.355     14.613
REMARK  2 active torsions:
REMARK  status: ('A' for Active; 'I' for Inactive)
REMARK    1  A    between atoms: C1_1  and  C3_3 
REMARK    2  A    between atoms: C2_2  and  C4_4 
ROOT
HETATM    1  C4  UNL     1     -42.657   5.975  -0.473  1.00 20.00     0.097 C 
HETATM    2  C5  UNL     1     -41.979   5.667   0.890  1.00 20.00     0.074 C 
HETATM    3  C6  UNL     1     -42.011   7.383  -0.392  1.00 20.00     0.315 C 
HETATM    4  C7  UNL     1     -41.974   7.198   1.149  1.00 20.00     0.312 C 
HETATM    5  C8  UNL     1     -42.775   4.822   1.865  1.00 20.00     0.017 C 
HETATM    6  F10 UNL     1     -40.797   7.520  -0.977  1.00 20.00    -0.199 F 
HETATM    7  F11 UNL     1     -42.776   8.404  -0.839  1.00 20.00    -0.199 F 
HETATM    8  F12 UNL     1     -40.876   7.684   1.770  1.00 20.00    -0.199 F 
HETATM    9  F13 UNL     1     -43.047   7.691   1.810  1.00 20.00    -0.199 F 
ENDROOT
BRANCH   1  10
HETATM   10  C2  UNL     1     -42.223   5.137  -1.606  1.00 20.00    -0.012 C 
HETATM   11  C1  UNL     1     -42.930   4.098  -2.066  1.00 20.00     0.038 C 
BRANCH  11  12
HETATM   12  C3  UNL     1     -42.408   3.322  -3.207  1.00 20.00     0.258 C 
HETATM   13  O9  UNL     1     -42.522   3.712  -4.363  1.00 20.00    -0.302 OA
ENDBRANCH  11  12
ENDBRANCH   1  10
TORSDOF 2
ENDMDL
MODEL 8
REMARK VINA RESULT:      -3.9      2.194      3.851
REMARK  2 active torsions:
REMARK  status: ('A' for Active; 'I' for Inactive)
REMARK    1  A    between atoms: C1_1  and  C3_3 
REMARK    2  A    between atoms: C2_2  and  C4_4 
ROOT
HETATM    1  C4  UNL     1     -34.091  16.821  -5.061  1.00 20.00     0.097 C 
HETATM    2  C5  UNL     1     -34.141  16.250  -3.618  1.00 20.00     0.074 C 
HETATM    3  C6  UNL     1     -34.279  15.366  -5.564  1.00 20.00     0.315 C 
HETATM    4  C7  UNL     1     -33.666  14.897  -4.216  1.00 20.00     0.312 C 
HETATM    5  C8  UNL     1     -33.218  16.897  -2.603  1.00 20.00     0.017 C 
HETATM    6  F10 UNL     1     -35.555  14.965  -5.778  1.00 20.00    -0.199 F 
HETATM    7  F11 UNL     1     -33.576  15.034  -6.670  1.00 20.00    -0.199 F 
HETATM    8  F12 UNL     1     -34.222  13.791  -3.675  1.00 20.00    -0.199 F 
HETATM    9  F13 UNL     1     -32.329  14.695  -4.236  1.00 20.00    -0.199 F 
ENDROOT
BRANCH   1  10
HETATM   10  C2  UNL     1     -35.170  17.763  -5.413  1.00 20.00    -0.012 C 
HETATM   11  C1  UNL     1     -36.201  18.034  -4.606  1.00 20.00     0.038 C 
BRANCH  11  12
HETATM   12  C3  UNL     1     -37.231  18.993  -5.053  1.00 20.00     0.258 C 
HETATM   13  O9  UNL     1     -38.369  18.981  -4.598  1.00 20.00    -0.302 OA
ENDBRANCH  11  12
ENDBRANCH   1  10
TORSDOF 2
ENDMDL
MODEL 9
REMARK VINA RESULT:      -3.7      2.045      2.833
REMARK  2 active torsions:
REMARK  status: ('A' for Active; 'I' for Inactive)
REMARK    1  A    between atoms: C1_1  and  C3_3 
REMARK    2  A    between atoms: C2_2  and  C4_4 
ROOT
HETATM    1  C4  UNL     1     -34.098  15.134  -5.356  1.00 20.00     0.097 C 
HETATM    2  C5  UNL     1     -35.621  14.960  -5.109  1.00 20.00     0.074 C 
HETATM    3  C6  UNL     1     -34.471  16.062  -6.542  1.00 20.00     0.315 C 
HETATM    4  C7  UNL     1     -35.829  15.310  -6.608  1.00 20.00     0.312 C 
HETATM    5  C8  UNL     1     -36.082  13.584  -4.669  1.00 20.00     0.017 C 
HETATM    6  F10 UNL     1     -34.567  17.384  -6.264  1.00 20.00    -0.199 F 
HETATM    7  F11 UNL     1     -33.690  15.950  -7.640  1.00 20.00    -0.199 F 
HETATM    8  F12 UNL     1     -36.908  16.075  -6.888  1.00 20.00    -0.199 F 
HETATM    9  F13 UNL     1     -35.860  14.261  -7.463  1.00 20.00    -0.199 F 
ENDROOT
BRANCH   1  10
HETATM   10  C2  UNL     1     -33.342  15.771  -4.261  1.00 20.00    -0.012 C 
HETATM   11  C1  UNL     1     -33.922  16.449  -3.264  1.00 20.00     0.038 C 
BRANCH  11  12
HETATM   12  C3  UNL     1     -33.075  17.051  -2.215  1.00 20.00     0.258 C 
HETATM   13  O9  UNL     1     -33.521  17.345  -1.113  1.00 20.00    -0.302 OA
ENDBRANCH  11  12
ENDBRANCH   1  10
TORSDOF 2
ENDMDL
