MODEL 1
REMARK VINA RESULT:      -5.2      0.000      0.000
REMARK  1 active torsions:
REMARK  status: ('A' for Active; 'I' for Inactive)
REMARK    1  A    between atoms: C5_5  and  C6_6 
ROOT
HETATM    1  C1  UNL     1     -34.454   5.734   6.202  1.00 20.00     0.078 C 
HETATM    2  C2  UNL     1     -34.336   7.003   6.600  1.00 20.00    -0.018 C 
HETATM    3  C3  UNL     1     -34.167   5.357   4.804  1.00 20.00     0.283 C 
HETATM    4  C4  UNL     1     -33.833   8.070   5.687  1.00 20.00     0.061 C 
HETATM    5  C5  UNL     1     -32.927   7.435   4.640  1.00 20.00     0.149 C 
HETATM    6  O7  UNL     1     -34.480   4.252   4.376  1.00 20.00    -0.260 OA
HETATM    7  O8  UNL     1     -33.581   6.304   4.024  1.00 20.00    -0.311 OA
ENDROOT
BRANCH   5   8
HETATM    8  C6  UNL     1     -32.569   8.425   3.541  1.00 20.00     0.147 C 
HETATM    9 CL9  UNL     1     -32.172   7.562   2.043  1.00 20.00    -0.128 Cl
ENDBRANCH   5   8
TORSDOF 1
ENDMDL
MODEL 2
REMARK VINA RESULT:      -5.0      2.240      3.268
REMARK  1 active torsions:
REMARK  status: ('A' for Active; 'I' for Inactive)
REMARK    1  A    between atoms: C5_5  and  C6_6 
ROOT
HETATM    1  C1  UNL     1     -32.304   7.325   2.636  1.00 20.00     0.078 C 
HETATM    2  C2  UNL     1     -32.153   8.335   3.497  1.00 20.00    -0.018 C 
HETATM    3  C3  UNL     1     -32.917   6.055   3.069  1.00 20.00     0.283 C 
HETATM    4  C4  UNL     1     -32.667   8.259   4.895  1.00 20.00     0.061 C 
HETATM    5  C5  UNL     1     -33.846   7.296   4.934  1.00 20.00     0.149 C 
HETATM    6  O7  UNL     1     -32.860   5.057   2.359  1.00 20.00    -0.260 OA
HETATM    7  O8  UNL     1     -33.502   6.046   4.296  1.00 20.00    -0.311 OA
ENDROOT
BRANCH   5   8
HETATM    8  C6  UNL     1     -34.269   6.991   6.363  1.00 20.00     0.147 C 
HETATM    9 CL9  UNL     1     -34.686   5.275   6.529  1.00 20.00    -0.128 Cl
ENDBRANCH   5   8
TORSDOF 1
ENDMDL
MODEL 3
REMARK VINA RESULT:      -4.8      2.292      3.493
REMARK  1 active torsions:
REMARK  status: ('A' for Active; 'I' for Inactive)
REMARK    1  A    between atoms: C5_5  and  C6_6 
ROOT
HETATM    1  C1  UNL     1     -32.407   8.631   3.974  1.00 20.00     0.078 C 
HETATM    2  C2  UNL     1     -32.881   8.583   5.221  1.00 20.00    -0.018 C 
HETATM    3  C3  UNL     1     -32.509   7.456   3.087  1.00 20.00     0.283 C 
HETATM    4  C4  UNL     1     -33.603   7.386   5.742  1.00 20.00     0.061 C 
HETATM    5  C5  UNL     1     -34.249   6.654   4.574  1.00 20.00     0.149 C 
HETATM    6  O7  UNL     1     -31.889   7.412   2.030  1.00 20.00    -0.260 OA
HETATM    7  O8  UNL     1     -33.285   6.428   3.522  1.00 20.00    -0.311 OA
ENDROOT
BRANCH   5   8
HETATM    8  C6  UNL     1     -34.802   5.302   5.001  1.00 20.00     0.147 C 
HETATM    9 CL9  UNL     1     -34.416   4.991   6.705  1.00 20.00    -0.128 Cl
ENDBRANCH   5   8
TORSDOF 1
ENDMDL
MODEL 4
REMARK VINA RESULT:      -4.8      1.480      2.878
REMARK  1 active torsions:
REMARK  status: ('A' for Active; 'I' for Inactive)
REMARK    1  A    between atoms: C5_5  and  C6_6 
ROOT
HETATM    1  C1  UNL     1     -33.823   7.976   6.199  1.00 20.00     0.078 C 
HETATM    2  C2  UNL     1     -34.395   6.872   6.686  1.00 20.00    -0.018 C 
HETATM    3  C3  UNL     1     -33.069   7.933   4.931  1.00 20.00     0.283 C 
HETATM    4  C4  UNL     1     -34.374   5.581   5.940  1.00 20.00     0.061 C 
HETATM    5  C5  UNL     1     -34.258   5.875   4.451  1.00 20.00     0.149 C 
HETATM    6  O7  UNL     1     -32.361   8.873   4.590  1.00 20.00    -0.260 OA
HETATM    7  O8  UNL     1     -33.172   6.792   4.198  1.00 20.00    -0.311 OA
ENDROOT
BRANCH   5   8
HETATM    8  C6  UNL     1     -33.995   4.606   3.652  1.00 20.00     0.147 C 
HETATM    9 CL9  UNL     1     -32.793   4.916   2.384  1.00 20.00    -0.128 Cl
ENDBRANCH   5   8
TORSDOF 1
ENDMDL
MODEL 5
REMARK VINA RESULT:      -4.7      1.064      1.179
REMARK  1 active torsions:
REMARK  status: ('A' for Active; 'I' for Inactive)
REMARK    1  A    between atoms: C5_5  and  C6_6 
ROOT
HETATM    1  C1  UNL     1     -34.471   5.010   5.374  1.00 20.00     0.078 C 
HETATM    2  C2  UNL     1     -34.683   5.906   6.342  1.00 20.00    -0.018 C 
HETATM    3  C3  UNL     1     -33.845   5.416   4.101  1.00 20.00     0.283 C 
HETATM    4  C4  UNL     1     -34.223   7.319   6.219  1.00 20.00     0.061 C 
HETATM    5  C5  UNL     1     -33.022   7.366   5.284  1.00 20.00     0.149 C 
HETATM    6  O7  UNL     1     -33.847   4.664   3.133  1.00 20.00    -0.260 OA
HETATM    7  O8  UNL     1     -33.309   6.665   4.055  1.00 20.00    -0.311 OA
ENDROOT
BRANCH   5   8
HETATM    8  C6  UNL     1     -32.649   8.799   4.929  1.00 20.00     0.147 C 
HETATM    9 CL9  UNL     1     -32.571   8.995   3.168  1.00 20.00    -0.128 Cl
ENDBRANCH   5   8
TORSDOF 1
ENDMDL
MODEL 6
REMARK VINA RESULT:      -4.4      1.507      2.251
REMARK  1 active torsions:
REMARK  status: ('A' for Active; 'I' for Inactive)
REMARK    1  A    between atoms: C5_5  and  C6_6 
ROOT
HETATM    1  C1  UNL     1     -34.857   5.478   5.401  1.00 20.00     0.078 C 
HETATM    2  C2  UNL     1     -34.387   4.914   4.285  1.00 20.00    -0.018 C 
HETATM    3  C3  UNL     1     -34.215   6.682   5.961  1.00 20.00     0.283 C 
HETATM    4  C4  UNL     1     -33.261   5.516   3.515  1.00 20.00     0.061 C 
HETATM    5  C5  UNL     1     -33.241   7.018   3.765  1.00 20.00     0.149 C 
HETATM    6  O7  UNL     1     -34.493   7.075   7.088  1.00 20.00    -0.260 OA
HETATM    7  O8  UNL     1     -33.285   7.296   5.182  1.00 20.00    -0.311 OA
ENDROOT
BRANCH   5   8
HETATM    8  C6  UNL     1     -31.981   7.659   3.201  1.00 20.00     0.147 C 
HETATM    9 CL9  UNL     1     -32.197   8.026   1.479  1.00 20.00    -0.128 Cl
ENDBRANCH   5   8
TORSDOF 1
ENDMDL
MODEL 7
REMARK VINA RESULT:      -4.3      1.834      2.444
REMARK  1 active torsions:
REMARK  status: ('A' for Active; 'I' for Inactive)
REMARK    1  A    between atoms: C5_5  and  C6_6 
ROOT
HETATM    1  C1  UNL     1     -34.636   4.948   4.840  1.00 20.00     0.078 C 
HETATM    2  C2  UNL     1     -33.926   4.755   3.725  1.00 20.00    -0.018 C 
HETATM    3  C3  UNL     1     -34.372   6.114   5.705  1.00 20.00     0.283 C 
HETATM    4  C4  UNL     1     -32.907   5.740   3.262  1.00 20.00     0.061 C 
HETATM    5  C5  UNL     1     -33.282   7.119   3.786  1.00 20.00     0.149 C 
HETATM    6  O7  UNL     1     -34.855   6.184   6.828  1.00 20.00    -0.260 OA
HETATM    7  O8  UNL     1     -33.542   7.069   5.205  1.00 20.00    -0.311 OA
ENDROOT
BRANCH   5   8
HETATM    8  C6  UNL     1     -32.165   8.126   3.550  1.00 20.00     0.147 C 
HETATM    9 CL9  UNL     1     -32.084   9.280   4.895  1.00 20.00    -0.128 Cl
ENDBRANCH   5   8
TORSDOF 1
ENDMDL
MODEL 8
REMARK VINA RESULT:      -4.2      1.435      1.707
REMARK  1 active torsions:
REMARK  status: ('A' for Active; 'I' for Inactive)
REMARK    1  A    between atoms: C5_5  and  C6_6 
ROOT
HETATM    1  C1  UNL     1     -34.179   7.327   6.421  1.00 20.00     0.078 C 
HETATM    2  C2  UNL     1     -33.673   8.382   5.777  1.00 20.00    -0.018 C 
HETATM    3  C3  UNL     1     -34.380   6.045   5.718  1.00 20.00     0.283 C 
HETATM    4  C4  UNL     1     -33.211   8.291   4.362  1.00 20.00     0.061 C 
HETATM    5  C5  UNL     1     -32.797   6.856   4.070  1.00 20.00     0.149 C 
HETATM    6  O7  UNL     1     -35.041   5.147   6.228  1.00 20.00    -0.260 OA
HETATM    7  O8  UNL     1     -33.833   5.936   4.479  1.00 20.00    -0.311 OA
ENDROOT
BRANCH   5   8
HETATM    8  C6  UNL     1     -32.540   6.642   2.585  1.00 20.00     0.147 C 
HETATM    9 CL9  UNL     1     -32.882   4.959   2.138  1.00 20.00    -0.128 Cl
ENDBRANCH   5   8
TORSDOF 1
ENDMDL
MODEL 9
REMARK VINA RESULT:      -4.1      2.552      4.059
REMARK  1 active torsions:
REMARK  status: ('A' for Active; 'I' for Inactive)
REMARK    1  A    between atoms: C5_5  and  C6_6 
ROOT
HETATM    1  C1  UNL     1     -31.887   7.789   3.236  1.00 20.00     0.078 C 
HETATM    2  C2  UNL     1     -32.269   6.760   2.476  1.00 20.00    -0.018 C 
HETATM    3  C3  UNL     1     -32.610   8.111   4.481  1.00 20.00     0.283 C 
HETATM    4  C4  UNL     1     -33.373   5.846   2.889  1.00 20.00     0.061 C 
HETATM    5  C5  UNL     1     -33.469   5.845   4.408  1.00 20.00     0.149 C 
HETATM    6  O7  UNL     1     -32.413   9.171   5.065  1.00 20.00    -0.260 OA
HETATM    7  O8  UNL     1     -33.518   7.197   4.914  1.00 20.00    -0.311 OA
ENDROOT
BRANCH   5   8
HETATM    8  C6  UNL     1     -34.720   5.120   4.886  1.00 20.00     0.147 C 
HETATM    9 CL9  UNL     1     -34.966   5.398   6.621  1.00 20.00    -0.128 Cl
ENDBRANCH   5   8
TORSDOF 1
ENDMDL
