MODEL 1
REMARK VINA RESULT:      -4.8      0.000      0.000
REMARK  1 active torsions:
REMARK  status: ('A' for Active; 'I' for Inactive)
REMARK    1  A    between atoms: C2_2  and  O6_6 
ROOT
HETATM    1  C1  UNL     1     -35.380   5.970   4.339  1.00 20.00     0.106 A 
HETATM    2  C2  UNL     1     -34.159   6.601   4.954  1.00 20.00     0.111 A 
HETATM    3  C3  UNL     1     -34.062   5.241   4.308  1.00 20.00     0.212 A 
HETATM    4  C4  UNL     1     -34.061   6.735   6.437  1.00 20.00     0.051 C 
HETATM    5  F7  UNL     1     -33.958   4.152   5.168  1.00 20.00    -0.222 F 
HETATM    6 CL8  UNL     1     -33.247   5.058   2.764  1.00 20.00    -0.079 Cl
ENDROOT
BRANCH   2   7
HETATM    7  O6  UNL     1     -33.607   7.719   4.238  1.00 20.00    -0.381 OA
HETATM    8  C5  UNL     1     -32.713   8.450   5.056  1.00 20.00     0.202 C 
ENDBRANCH   2   7
TORSDOF 1
ENDMDL
MODEL 2
REMARK VINA RESULT:      -4.5      1.099      1.099
REMARK  1 active torsions:
REMARK  status: ('A' for Active; 'I' for Inactive)
REMARK    1  A    between atoms: C2_2  and  O6_6 
ROOT
HETATM    1  C1  UNL     1     -35.424   6.217   4.517  1.00 20.00     0.106 A 
HETATM    2  C2  UNL     1     -34.060   6.662   4.972  1.00 20.00     0.111 A 
HETATM    3  C3  UNL     1     -34.482   5.224   5.145  1.00 20.00     0.212 A 
HETATM    4  C4  UNL     1     -33.930   7.554   6.161  1.00 20.00     0.051 C 
HETATM    5  F7  UNL     1     -34.805   4.824   6.438  1.00 20.00    -0.222 F 
HETATM    6 CL8  UNL     1     -33.786   3.975   4.127  1.00 20.00    -0.079 Cl
ENDROOT
BRANCH   2   7
HETATM    7  O6  UNL     1     -33.119   6.958   3.925  1.00 20.00    -0.381 OA
HETATM    8  C5  UNL     1     -32.399   8.141   4.215  1.00 20.00     0.202 C 
ENDBRANCH   2   7
TORSDOF 1
ENDMDL
MODEL 3
REMARK VINA RESULT:      -3.9      2.088      2.424
REMARK  1 active torsions:
REMARK  status: ('A' for Active; 'I' for Inactive)
REMARK    1  A    between atoms: C2_2  and  O6_6 
ROOT
HETATM    1  C1  UNL     1     -34.847   7.499   4.590  1.00 20.00     0.106 A 
HETATM    2  C2  UNL     1     -33.353   7.315   4.560  1.00 20.00     0.111 A 
HETATM    3  C3  UNL     1     -34.179   6.621   5.615  1.00 20.00     0.212 A 
HETATM    4  C4  UNL     1     -32.459   8.450   4.934  1.00 20.00     0.051 C 
HETATM    5  F7  UNL     1     -34.110   7.146   6.902  1.00 20.00    -0.222 F 
HETATM    6 CL8  UNL     1     -34.440   4.888   5.527  1.00 20.00    -0.079 Cl
ENDROOT
BRANCH   2   7
HETATM    7  O6  UNL     1     -32.844   6.514   3.480  1.00 20.00    -0.381 OA
HETATM    8  C5  UNL     1     -32.162   7.317   2.535  1.00 20.00     0.202 C 
ENDBRANCH   2   7
TORSDOF 1
ENDMDL
MODEL 4
REMARK VINA RESULT:      -3.3      2.482      3.248
REMARK  1 active torsions:
REMARK  status: ('A' for Active; 'I' for Inactive)
REMARK    1  A    between atoms: C2_2  and  O6_6 
ROOT
HETATM    1  C1  UNL     1     -33.270   6.783   6.157  1.00 20.00     0.106 A 
HETATM    2  C2  UNL     1     -33.846   6.664   4.771  1.00 20.00     0.111 A 
HETATM    3  C3  UNL     1     -33.544   8.024   5.349  1.00 20.00     0.212 A 
HETATM    4  C4  UNL     1     -35.260   6.222   4.591  1.00 20.00     0.051 C 
HETATM    5  F7  UNL     1     -34.637   8.780   5.760  1.00 20.00    -0.222 F 
HETATM    6 CL8  UNL     1     -32.176   8.948   4.751  1.00 20.00    -0.079 Cl
ENDROOT
BRANCH   2   7
HETATM    7  O6  UNL     1     -32.952   6.154   3.766  1.00 20.00    -0.381 OA
HETATM    8  C5  UNL     1     -33.520   5.039   3.106  1.00 20.00     0.202 C 
ENDBRANCH   2   7
TORSDOF 1
ENDMDL
MODEL 5
REMARK VINA RESULT:      -3.3      2.566      3.199
REMARK  1 active torsions:
REMARK  status: ('A' for Active; 'I' for Inactive)
REMARK    1  A    between atoms: C2_2  and  O6_6 
ROOT
HETATM    1  C1  UNL     1     -34.356   8.005   4.061  1.00 20.00     0.106 A 
HETATM    2  C2  UNL     1     -33.745   6.765   4.657  1.00 20.00     0.111 A 
HETATM    3  C3  UNL     1     -32.859   7.837   4.072  1.00 20.00     0.212 A 
HETATM    4  C4  UNL     1     -33.897   5.454   3.959  1.00 20.00     0.051 C 
HETATM    5  F7  UNL     1     -32.277   7.556   2.840  1.00 20.00    -0.222 F 
HETATM    6 CL8  UNL     1     -31.912   8.868   5.130  1.00 20.00    -0.079 Cl
ENDROOT
BRANCH   2   7
HETATM    7  O6  UNL     1     -33.810   6.665   6.090  1.00 20.00    -0.381 OA
HETATM    8  C5  UNL     1     -34.540   5.517   6.482  1.00 20.00     0.202 C 
ENDBRANCH   2   7
TORSDOF 1
ENDMDL
MODEL 6
REMARK VINA RESULT:      -3.3      8.821      9.052
REMARK  1 active torsions:
REMARK  status: ('A' for Active; 'I' for Inactive)
REMARK    1  A    between atoms: C2_2  and  O6_6 
ROOT
HETATM    1  C1  UNL     1     -40.210  11.395   5.772  1.00 20.00     0.106 A 
HETATM    2  C2  UNL     1     -40.226  12.880   5.522  1.00 20.00     0.111 A 
HETATM    3  C3  UNL     1     -39.052  12.050   5.064  1.00 20.00     0.212 A 
HETATM    4  C4  UNL     1     -40.076  13.826   6.666  1.00 20.00     0.051 C 
HETATM    5  F7  UNL     1     -37.883  12.168   5.808  1.00 20.00    -0.222 F 
HETATM    6 CL8  UNL     1     -38.824  11.719   3.355  1.00 20.00    -0.079 Cl
ENDROOT
BRANCH   2   7
HETATM    7  O6  UNL     1     -41.152  13.333   4.519  1.00 20.00    -0.381 OA
HETATM    8  C5  UNL     1     -42.086  14.243   5.069  1.00 20.00     0.202 C 
ENDBRANCH   2   7
TORSDOF 1
ENDMDL
MODEL 7
REMARK VINA RESULT:      -3.3      9.230      9.857
REMARK  1 active torsions:
REMARK  status: ('A' for Active; 'I' for Inactive)
REMARK    1  A    between atoms: C2_2  and  O6_6 
ROOT
HETATM    1  C1  UNL     1     -40.790   5.869  -0.431  1.00 20.00     0.106 A 
HETATM    2  C2  UNL     1     -42.175   5.780   0.152  1.00 20.00     0.111 A 
HETATM    3  C3  UNL     1     -41.413   7.081   0.212  1.00 20.00     0.212 A 
HETATM    4  C4  UNL     1     -42.406   4.988   1.396  1.00 20.00     0.051 C 
HETATM    5  F7  UNL     1     -40.892   7.437   1.452  1.00 20.00    -0.222 F 
HETATM    6 CL8  UNL     1     -41.884   8.422  -0.817  1.00 20.00    -0.079 Cl
ENDROOT
BRANCH   2   7
HETATM    7  O6  UNL     1     -43.248   5.680  -0.801  1.00 20.00    -0.381 OA
HETATM    8  C5  UNL     1     -43.416   4.343  -1.232  1.00 20.00     0.202 C 
ENDBRANCH   2   7
TORSDOF 1
ENDMDL
MODEL 8
REMARK VINA RESULT:      -3.2     10.195     10.589
REMARK  1 active torsions:
REMARK  status: ('A' for Active; 'I' for Inactive)
REMARK    1  A    between atoms: C2_2  and  O6_6 
ROOT
HETATM    1  C1  UNL     1     -40.530  14.037   6.543  1.00 20.00     0.106 A 
HETATM    2  C2  UNL     1     -41.806  13.246   6.437  1.00 20.00     0.111 A 
HETATM    3  C3  UNL     1     -40.644  12.931   5.528  1.00 20.00     0.212 A 
HETATM    4  C4  UNL     1     -43.034  13.891   5.887  1.00 20.00     0.051 C 
HETATM    5  F7  UNL     1     -40.764  13.340   4.204  1.00 20.00    -0.222 F 
HETATM    6 CL8  UNL     1     -39.705  11.469   5.778  1.00 20.00    -0.079 Cl
ENDROOT
BRANCH   2   7
HETATM    7  O6  UNL     1     -42.069  12.338   7.520  1.00 20.00    -0.381 OA
HETATM    8  C5  UNL     1     -43.414  11.900   7.495  1.00 20.00     0.202 C 
ENDBRANCH   2   7
TORSDOF 1
ENDMDL
MODEL 9
REMARK VINA RESULT:      -3.1      9.294      9.762
REMARK  1 active torsions:
REMARK  status: ('A' for Active; 'I' for Inactive)
REMARK    1  A    between atoms: C2_2  and  O6_6 
ROOT
HETATM    1  C1  UNL     1     -41.902   6.064   1.073  1.00 20.00     0.106 A 
HETATM    2  C2  UNL     1     -42.058   7.168   0.061  1.00 20.00     0.111 A 
HETATM    3  C3  UNL     1     -41.735   5.766  -0.394  1.00 20.00     0.212 A 
HETATM    4  C4  UNL     1     -41.025   8.242  -0.030  1.00 20.00     0.051 C 
HETATM    5  F7  UNL     1     -40.430   5.536  -0.816  1.00 20.00    -0.222 F 
HETATM    6 CL8  UNL     1     -42.962   4.798  -1.192  1.00 20.00    -0.079 Cl
ENDROOT
BRANCH   2   7
HETATM    7  O6  UNL     1     -43.400   7.642  -0.144  1.00 20.00    -0.381 OA
HETATM    8  C5  UNL     1     -43.417   9.045  -0.324  1.00 20.00     0.202 C 
ENDBRANCH   2   7
TORSDOF 1
ENDMDL
