MODEL 1
REMARK VINA RESULT:      -3.7      0.000      0.000
REMARK  2 active torsions:
REMARK  status: ('A' for Active; 'I' for Inactive)
REMARK    1  A    between atoms: C1_1  and  C7_7 
REMARK    2  A    between atoms: C4_4  and  C7_7 
ROOT
HETATM    1  C2  UNL     1     -39.729  12.089   4.649  1.00 20.00     0.197 C 
HETATM    2  C3  UNL     1     -38.846  12.024   5.865  1.00 20.00     0.197 C 
HETATM    3  C4  UNL     1     -40.786  13.070   6.399  1.00 20.00     0.169 C 
HETATM    4  C5  UNL     1     -42.142  12.475   6.758  1.00 20.00     0.080 C 
HETATM    5  O9  UNL     1     -40.655  13.127   4.969  1.00 20.00    -0.353 OA
HETATM    6  O10 UNL     1     -39.756  12.230   6.945  1.00 20.00    -0.353 OA
ENDROOT
BRANCH   3   7
HETATM    7  C7  UNL     1     -40.634  14.480   6.957  1.00 20.00     0.105 C 
HETATM    8  C6  UNL     1     -41.855  15.333   6.632  1.00 20.00     0.023 C 
BRANCH   7   9
HETATM    9  C1  UNL     1     -40.389  14.397   8.452  1.00 20.00     0.240 C 
HETATM   10  O8  UNL     1     -39.976  15.323   9.144  1.00 20.00    -0.306 OA
ENDBRANCH   7   9
ENDBRANCH   3   7
TORSDOF 2
ENDMDL
MODEL 2
REMARK VINA RESULT:      -3.6      1.528      3.771
REMARK  2 active torsions:
REMARK  status: ('A' for Active; 'I' for Inactive)
REMARK    1  A    between atoms: C1_1  and  C7_7 
REMARK    2  A    between atoms: C4_4  and  C7_7 
ROOT
HETATM    1  C2  UNL     1     -40.216  14.684   9.213  1.00 20.00     0.197 C 
HETATM    2  C3  UNL     1     -40.555  15.837   8.309  1.00 20.00     0.197 C 
HETATM    3  C4  UNL     1     -41.298  13.908   7.377  1.00 20.00     0.169 C 
HETATM    4  C5  UNL     1     -42.575  13.126   7.656  1.00 20.00     0.080 C 
HETATM    5  O9  UNL     1     -40.300  13.552   8.349  1.00 20.00    -0.353 OA
HETATM    6  O10 UNL     1     -41.588  15.312   7.476  1.00 20.00    -0.353 OA
ENDROOT
BRANCH   3   7
HETATM    7  C7  UNL     1     -40.752  13.603   5.987  1.00 20.00     0.105 C 
HETATM    8  C6  UNL     1     -40.353  12.137   5.864  1.00 20.00     0.023 C 
BRANCH   7   9
HETATM    9  C1  UNL     1     -41.791  13.991   4.952  1.00 20.00     0.240 C 
HETATM   10  O8  UNL     1     -41.596  14.007   3.741  1.00 20.00    -0.306 OA
ENDBRANCH   7   9
ENDBRANCH   3   7
TORSDOF 2
ENDMDL
MODEL 3
REMARK VINA RESULT:      -3.5     12.227     13.312
REMARK  2 active torsions:
REMARK  status: ('A' for Active; 'I' for Inactive)
REMARK    1  A    between atoms: C1_1  and  C7_7 
REMARK    2  A    between atoms: C4_4  and  C7_7 
ROOT
HETATM    1  C2  UNL     1     -35.882  15.259  -6.792  1.00 20.00     0.197 C 
HETATM    2  C3  UNL     1     -34.502  15.567  -7.304  1.00 20.00     0.197 C 
HETATM    3  C4  UNL     1     -34.453  15.447  -5.040  1.00 20.00     0.169 C 
HETATM    4  C5  UNL     1     -34.366  14.224  -4.137  1.00 20.00     0.080 C 
HETATM    5  O9  UNL     1     -35.822  15.660  -5.423  1.00 20.00    -0.353 OA
HETATM    6  O10 UNL     1     -33.655  15.210  -6.212  1.00 20.00    -0.353 OA
ENDROOT
BRANCH   3   7
HETATM    7  C7  UNL     1     -33.947  16.698  -4.332  1.00 20.00     0.105 C 
HETATM    8  C6  UNL     1     -35.070  17.708  -4.131  1.00 20.00     0.023 C 
BRANCH   7   9
HETATM    9  C1  UNL     1     -33.310  16.297  -3.014  1.00 20.00     0.240 C 
HETATM   10  O8  UNL     1     -33.571  16.809  -1.930  1.00 20.00    -0.306 OA
ENDBRANCH   7   9
ENDBRANCH   3   7
TORSDOF 2
ENDMDL
MODEL 4
REMARK VINA RESULT:      -3.4     17.104     18.236
REMARK  2 active torsions:
REMARK  status: ('A' for Active; 'I' for Inactive)
REMARK    1  A    between atoms: C1_1  and  C7_7 
REMARK    2  A    between atoms: C4_4  and  C7_7 
ROOT
HETATM    1  C2  UNL     1     -25.997  19.231  10.762  1.00 20.00     0.197 C 
HETATM    2  C3  UNL     1     -25.371  19.260   9.395  1.00 20.00     0.197 C 
HETATM    3  C4  UNL     1     -24.016  18.127  10.818  1.00 20.00     0.169 C 
HETATM    4  C5  UNL     1     -24.092  16.677  11.281  1.00 20.00     0.080 C 
HETATM    5  O9  UNL     1     -24.898  18.929  11.622  1.00 20.00    -0.353 OA
HETATM    6  O10 UNL     1     -24.425  18.191   9.442  1.00 20.00    -0.353 OA
ENDROOT
BRANCH   3   7
HETATM    7  C7  UNL     1     -22.602  18.678  10.950  1.00 20.00     0.105 C 
HETATM    8  C6  UNL     1     -22.028  18.391  12.332  1.00 20.00     0.023 C 
BRANCH   7   9
HETATM    9  C1  UNL     1     -21.737  18.090   9.850  1.00 20.00     0.240 C 
HETATM   10  O8  UNL     1     -21.524  18.629   8.768  1.00 20.00    -0.306 OA
ENDBRANCH   7   9
ENDBRANCH   3   7
TORSDOF 2
ENDMDL
MODEL 5
REMARK VINA RESULT:      -3.4      9.020     10.535
REMARK  2 active torsions:
REMARK  status: ('A' for Active; 'I' for Inactive)
REMARK    1  A    between atoms: C1_1  and  C7_7 
REMARK    2  A    between atoms: C4_4  and  C7_7 
ROOT
HETATM    1  C2  UNL     1     -35.275   5.535   5.585  1.00 20.00     0.197 C 
HETATM    2  C3  UNL     1     -33.988   5.392   6.350  1.00 20.00     0.197 C 
HETATM    3  C4  UNL     1     -33.702   6.892   4.673  1.00 20.00     0.169 C 
HETATM    4  C5  UNL     1     -34.069   8.369   4.622  1.00 20.00     0.080 C 
HETATM    5  O9  UNL     1     -34.859   6.104   4.344  1.00 20.00    -0.353 OA
HETATM    6  O10 UNL     1     -33.264   6.573   6.004  1.00 20.00    -0.353 OA
ENDROOT
BRANCH   3   7
HETATM    7  C7  UNL     1     -32.591   6.561   3.684  1.00 20.00     0.105 C 
HETATM    8  C6  UNL     1     -33.008   5.434   2.747  1.00 20.00     0.023 C 
BRANCH   7   9
HETATM    9  C1  UNL     1     -32.219   7.817   2.920  1.00 20.00     0.240 C 
HETATM   10  O8  UNL     1     -32.146   7.894   1.697  1.00 20.00    -0.306 OA
ENDBRANCH   7   9
ENDBRANCH   3   7
TORSDOF 2
ENDMDL
MODEL 6
REMARK VINA RESULT:      -3.4     12.507     13.703
REMARK  2 active torsions:
REMARK  status: ('A' for Active; 'I' for Inactive)
REMARK    1  A    between atoms: C1_1  and  C7_7 
REMARK    2  A    between atoms: C4_4  and  C7_7 
ROOT
HETATM    1  C2  UNL     1     -36.643  17.521  -5.362  1.00 20.00     0.197 C 
HETATM    2  C3  UNL     1     -35.496  17.744  -4.415  1.00 20.00     0.197 C 
HETATM    3  C4  UNL     1     -34.934  16.134  -5.910  1.00 20.00     0.169 C 
HETATM    4  C5  UNL     1     -34.414  16.273  -7.334  1.00 20.00     0.080 C 
HETATM    5  O9  UNL     1     -36.368  16.234  -5.915  1.00 20.00    -0.353 OA
HETATM    6  O10 UNL     1     -34.379  17.193  -5.113  1.00 20.00    -0.353 OA
ENDROOT
BRANCH   3   7
HETATM    7  C7  UNL     1     -34.544  14.791  -5.305  1.00 20.00     0.105 C 
HETATM    8  C6  UNL     1     -33.617  14.975  -4.110  1.00 20.00     0.023 C 
BRANCH   7   9
HETATM    9  C1  UNL     1     -35.804  14.033  -4.927  1.00 20.00     0.240 C 
HETATM   10  O8  UNL     1     -35.820  12.962  -4.329  1.00 20.00    -0.306 OA
ENDBRANCH   7   9
ENDBRANCH   3   7
TORSDOF 2
ENDMDL
MODEL 7
REMARK VINA RESULT:      -3.3     12.500     14.092
REMARK  2 active torsions:
REMARK  status: ('A' for Active; 'I' for Inactive)
REMARK    1  A    between atoms: C1_1  and  C7_7 
REMARK    2  A    between atoms: C4_4  and  C7_7 
ROOT
HETATM    1  C2  UNL     1     -34.444  18.058  -6.669  1.00 20.00     0.197 C 
HETATM    2  C3  UNL     1     -34.382  17.045  -7.779  1.00 20.00     0.197 C 
HETATM    3  C4  UNL     1     -35.469  16.147  -6.003  1.00 20.00     0.169 C 
HETATM    4  C5  UNL     1     -36.923  16.303  -5.577  1.00 20.00     0.080 C 
HETATM    5  O9  UNL     1     -34.708  17.263  -5.513  1.00 20.00    -0.353 OA
HETATM    6  O10 UNL     1     -35.412  16.117  -7.439  1.00 20.00    -0.353 OA
ENDROOT
BRANCH   3   7
HETATM    7  C7  UNL     1     -34.863  14.864  -5.448  1.00 20.00     0.105 C 
HETATM    8  C6  UNL     1     -33.887  15.163  -4.316  1.00 20.00     0.023 C 
BRANCH   7   9
HETATM    9  C1  UNL     1     -35.982  13.943  -4.997  1.00 20.00     0.240 C 
HETATM   10  O8  UNL     1     -35.830  12.965  -4.272  1.00 20.00    -0.306 OA
ENDBRANCH   7   9
ENDBRANCH   3   7
TORSDOF 2
ENDMDL
MODEL 8
REMARK VINA RESULT:      -3.3      9.029     10.477
REMARK  2 active torsions:
REMARK  status: ('A' for Active; 'I' for Inactive)
REMARK    1  A    between atoms: C1_1  and  C7_7 
REMARK    2  A    between atoms: C4_4  and  C7_7 
ROOT
HETATM    1  C2  UNL     1     -31.932   8.681   4.439  1.00 20.00     0.197 C 
HETATM    2  C3  UNL     1     -33.154   9.144   3.694  1.00 20.00     0.197 C 
HETATM    3  C4  UNL     1     -33.616   7.195   4.757  1.00 20.00     0.169 C 
HETATM    4  C5  UNL     1     -34.004   6.952   6.210  1.00 20.00     0.080 C 
HETATM    5  O9  UNL     1     -32.185   7.293   4.657  1.00 20.00    -0.353 OA
HETATM    6  O10 UNL     1     -34.216   8.426   4.322  1.00 20.00    -0.353 OA
ENDROOT
BRANCH   3   7
HETATM    7  C7  UNL     1     -34.089   6.059   3.859  1.00 20.00     0.105 C 
HETATM    8  C6  UNL     1     -32.997   5.640   2.883  1.00 20.00     0.023 C 
BRANCH   7   9
HETATM    9  C1  UNL     1     -34.542   4.899   4.727  1.00 20.00     0.240 C 
HETATM   10  O8  UNL     1     -34.039   3.780   4.713  1.00 20.00    -0.306 OA
ENDBRANCH   7   9
ENDBRANCH   3   7
TORSDOF 2
ENDMDL
MODEL 9
REMARK VINA RESULT:      -3.2      1.971      3.644
REMARK  2 active torsions:
REMARK  status: ('A' for Active; 'I' for Inactive)
REMARK    1  A    between atoms: C1_1  and  C7_7 
REMARK    2  A    between atoms: C4_4  and  C7_7 
ROOT
HETATM    1  C2  UNL     1     -43.417  14.740   8.547  1.00 20.00     0.197 C 
HETATM    2  C3  UNL     1     -42.959  13.384   9.008  1.00 20.00     0.197 C 
HETATM    3  C4  UNL     1     -41.529  14.165   7.431  1.00 20.00     0.169 C 
HETATM    4  C5  UNL     1     -40.366  15.139   7.574  1.00 20.00     0.080 C 
HETATM    5  O9  UNL     1     -42.754  14.904   7.294  1.00 20.00    -0.353 OA
HETATM    6  O10 UNL     1     -41.589  13.345   8.610  1.00 20.00    -0.353 OA
ENDROOT
BRANCH   3   7
HETATM    7  C7  UNL     1     -41.359  13.274   6.206  1.00 20.00     0.105 C 
HETATM    8  C6  UNL     1     -41.824  13.986   4.942  1.00 20.00     0.023 C 
BRANCH   7   9
HETATM    9  C1  UNL     1     -39.909  12.841   6.106  1.00 20.00     0.240 C 
HETATM   10  O8  UNL     1     -39.446  11.829   6.623  1.00 20.00    -0.306 OA
ENDBRANCH   7   9
ENDBRANCH   3   7
TORSDOF 2
ENDMDL
