MODEL 1
REMARK VINA RESULT:      -4.7      0.000      0.000
REMARK  2 active torsions:
REMARK  status: ('A' for Active; 'I' for Inactive)
REMARK    1  A    between atoms: C2_2  and  C6_6 
REMARK    2  A    between atoms: C3_3  and  C6_6 
ROOT
HETATM    1  C1  UNL     1     -32.932   8.246   4.888  1.00 20.00    -0.110 C 
HETATM    2  C2  UNL     1     -33.646   7.281   4.903  1.00 20.00    -0.092 C 
HETATM    3  C4  UNL     1     -32.063   9.422   4.869  1.00 20.00     0.112 C 
ENDROOT
BRANCH   2   4
HETATM    4  C6  UNL     1     -34.525   6.097   4.922  1.00 20.00     0.162 C 
HETATM    5  C5  UNL     1     -34.755   5.632   6.356  1.00 20.00     0.035 C 
BRANCH   4   6
HETATM    6  C3  UNL     1     -33.931   5.000   4.019  1.00 20.00     0.188 C 
HETATM    7  O7  UNL     1     -34.091   3.821   4.452  1.00 20.00    -0.647 OA
HETATM    8  O8  UNL     1     -33.359   5.390   2.963  1.00 20.00    -0.647 OA
ENDBRANCH   4   6
ENDBRANCH   2   4
TORSDOF 2
ENDMDL
MODEL 2
REMARK VINA RESULT:      -4.0     12.187     12.835
REMARK  2 active torsions:
REMARK  status: ('A' for Active; 'I' for Inactive)
REMARK    1  A    between atoms: C2_2  and  C6_6 
REMARK    2  A    between atoms: C3_3  and  C6_6 
ROOT
HETATM    1  C1  UNL     1     -33.571  16.157  -3.192  1.00 20.00    -0.110 C 
HETATM    2  C2  UNL     1     -33.885  15.436  -4.100  1.00 20.00    -0.092 C 
HETATM    3  C4  UNL     1     -33.189  17.036  -2.088  1.00 20.00     0.112 C 
ENDROOT
BRANCH   2   4
HETATM    4  C6  UNL     1     -34.272  14.551  -5.215  1.00 20.00     0.162 C 
HETATM    5  C5  UNL     1     -34.082  15.267  -6.548  1.00 20.00     0.035 C 
BRANCH   4   6
HETATM    6  C3  UNL     1     -35.712  14.050  -4.997  1.00 20.00     0.188 C 
HETATM    7  O7  UNL     1     -35.802  13.009  -4.281  1.00 20.00    -0.647 OA
HETATM    8  O8  UNL     1     -36.629  14.720  -5.546  1.00 20.00    -0.647 OA
ENDBRANCH   4   6
ENDBRANCH   2   4
TORSDOF 2
ENDMDL
MODEL 3
REMARK VINA RESULT:      -4.0     12.183     12.884
REMARK  2 active torsions:
REMARK  status: ('A' for Active; 'I' for Inactive)
REMARK    1  A    between atoms: C2_2  and  C6_6 
REMARK    2  A    between atoms: C3_3  and  C6_6 
ROOT
HETATM    1  C1  UNL     1     -33.571  16.153  -3.199  1.00 20.00    -0.110 C 
HETATM    2  C2  UNL     1     -33.891  15.441  -4.113  1.00 20.00    -0.092 C 
HETATM    3  C4  UNL     1     -33.180  17.019  -2.088  1.00 20.00     0.112 C 
ENDROOT
BRANCH   2   4
HETATM    4  C6  UNL     1     -34.284  14.570  -5.235  1.00 20.00     0.162 C 
HETATM    5  C5  UNL     1     -34.128  15.310  -6.559  1.00 20.00     0.035 C 
BRANCH   4   6
HETATM    6  C3  UNL     1     -35.713  14.043  -5.001  1.00 20.00     0.188 C 
HETATM    7  O7  UNL     1     -36.620  14.723  -5.563  1.00 20.00    -0.647 OA
HETATM    8  O8  UNL     1     -35.820  13.007  -4.288  1.00 20.00    -0.647 OA
ENDBRANCH   4   6
ENDBRANCH   2   4
TORSDOF 2
ENDMDL
MODEL 4
REMARK VINA RESULT:      -3.8      1.645      3.524
REMARK  2 active torsions:
REMARK  status: ('A' for Active; 'I' for Inactive)
REMARK    1  A    between atoms: C2_2  and  C6_6 
REMARK    2  A    between atoms: C3_3  and  C6_6 
ROOT
HETATM    1  C1  UNL     1     -33.982   6.699   5.666  1.00 20.00    -0.110 C 
HETATM    2  C2  UNL     1     -33.221   7.226   4.901  1.00 20.00    -0.092 C 
HETATM    3  C4  UNL     1     -34.908   6.057   6.598  1.00 20.00     0.112 C 
ENDROOT
BRANCH   2   4
HETATM    4  C6  UNL     1     -32.285   7.874   3.963  1.00 20.00     0.162 C 
HETATM    5  C5  UNL     1     -32.598   9.363   3.849  1.00 20.00     0.035 C 
BRANCH   4   6
HETATM    6  C3  UNL     1     -32.325   7.142   2.608  1.00 20.00     0.188 C 
HETATM    7  O7  UNL     1     -32.061   7.874   1.610  1.00 20.00    -0.647 OA
HETATM    8  O8  UNL     1     -32.610   5.913   2.642  1.00 20.00    -0.647 OA
ENDBRANCH   4   6
ENDBRANCH   2   4
TORSDOF 2
ENDMDL
MODEL 5
REMARK VINA RESULT:      -3.8      1.748      2.056
REMARK  2 active torsions:
REMARK  status: ('A' for Active; 'I' for Inactive)
REMARK    1  A    between atoms: C2_2  and  C6_6 
REMARK    2  A    between atoms: C3_3  and  C6_6 
ROOT
HETATM    1  C1  UNL     1     -32.809   7.295   3.286  1.00 20.00    -0.110 C 
HETATM    2  C2  UNL     1     -33.531   7.035   4.211  1.00 20.00    -0.092 C 
HETATM    3  C4  UNL     1     -31.932   7.611   2.160  1.00 20.00     0.112 C 
ENDROOT
BRANCH   2   4
HETATM    4  C6  UNL     1     -34.418   6.717   5.344  1.00 20.00     0.162 C 
HETATM    5  C5  UNL     1     -34.011   7.519   6.576  1.00 20.00     0.035 C 
BRANCH   4   6
HETATM    6  C3  UNL     1     -34.419   5.196   5.586  1.00 20.00     0.188 C 
HETATM    7  O7  UNL     1     -34.174   4.855   6.781  1.00 20.00    -0.647 OA
HETATM    8  O8  UNL     1     -34.661   4.468   4.584  1.00 20.00    -0.647 OA
ENDBRANCH   4   6
ENDBRANCH   2   4
TORSDOF 2
ENDMDL
MODEL 6
REMARK VINA RESULT:      -3.6      2.409      3.628
REMARK  2 active torsions:
REMARK  status: ('A' for Active; 'I' for Inactive)
REMARK    1  A    between atoms: C2_2  and  C6_6 
REMARK    2  A    between atoms: C3_3  and  C6_6 
ROOT
HETATM    1  C1  UNL     1     -34.364   5.966   5.385  1.00 20.00    -0.110 C 
HETATM    2  C2  UNL     1     -33.909   6.090   4.280  1.00 20.00    -0.092 C 
HETATM    3  C4  UNL     1     -34.918   5.814   6.729  1.00 20.00     0.112 C 
ENDROOT
BRANCH   2   4
HETATM    4  C6  UNL     1     -33.349   6.241   2.924  1.00 20.00     0.162 C 
HETATM    5  C5  UNL     1     -32.735   4.926   2.456  1.00 20.00     0.035 C 
BRANCH   4   6
HETATM    6  C3  UNL     1     -32.351   7.414   2.907  1.00 20.00     0.188 C 
HETATM    7  O7  UNL     1     -32.037   7.818   1.749  1.00 20.00    -0.647 OA
HETATM    8  O8  UNL     1     -31.963   7.838   4.031  1.00 20.00    -0.647 OA
ENDBRANCH   4   6
ENDBRANCH   2   4
TORSDOF 2
ENDMDL
MODEL 7
REMARK VINA RESULT:      -3.5      2.028      3.483
REMARK  2 active torsions:
REMARK  status: ('A' for Active; 'I' for Inactive)
REMARK    1  A    between atoms: C2_2  and  C6_6 
REMARK    2  A    between atoms: C3_3  and  C6_6 
ROOT
HETATM    1  C1  UNL     1     -33.156   5.363   2.925  1.00 20.00    -0.110 C 
HETATM    2  C2  UNL     1     -33.520   6.159   3.748  1.00 20.00    -0.092 C 
HETATM    3  C4  UNL     1     -32.716   4.394   1.923  1.00 20.00     0.112 C 
ENDROOT
BRANCH   2   4
HETATM    4  C6  UNL     1     -33.965   7.137   4.757  1.00 20.00     0.162 C 
HETATM    5  C5  UNL     1     -32.875   8.176   5.003  1.00 20.00     0.035 C 
BRANCH   4   6
HETATM    6  C3  UNL     1     -34.394   6.397   6.038  1.00 20.00     0.188 C 
HETATM    7  O7  UNL     1     -34.439   7.125   7.073  1.00 20.00    -0.647 OA
HETATM    8  O8  UNL     1     -34.650   5.167   5.917  1.00 20.00    -0.647 OA
ENDBRANCH   4   6
ENDBRANCH   2   4
TORSDOF 2
ENDMDL
MODEL 8
REMARK VINA RESULT:      -3.5     10.161     10.499
REMARK  2 active torsions:
REMARK  status: ('A' for Active; 'I' for Inactive)
REMARK    1  A    between atoms: C2_2  and  C6_6 
REMARK    2  A    between atoms: C3_3  and  C6_6 
ROOT
HETATM    1  C1  UNL     1     -39.793  12.124   4.942  1.00 20.00    -0.110 C 
HETATM    2  C2  UNL     1     -40.524  12.574   5.783  1.00 20.00    -0.092 C 
HETATM    3  C4  UNL     1     -38.904  11.577   3.919  1.00 20.00     0.112 C 
ENDROOT
BRANCH   2   4
HETATM    4  C6  UNL     1     -41.419  13.127   6.816  1.00 20.00     0.162 C 
HETATM    5  C5  UNL     1     -42.664  13.727   6.170  1.00 20.00     0.035 C 
BRANCH   4   6
HETATM    6  C3  UNL     1     -40.642  14.135   7.684  1.00 20.00     0.188 C 
HETATM    7  O7  UNL     1     -40.179  13.653   8.759  1.00 20.00    -0.647 OA
HETATM    8  O8  UNL     1     -40.553  15.312   7.235  1.00 20.00    -0.647 OA
ENDBRANCH   4   6
ENDBRANCH   2   4
TORSDOF 2
ENDMDL
MODEL 9
REMARK VINA RESULT:      -3.5      3.051      3.702
REMARK  2 active torsions:
REMARK  status: ('A' for Active; 'I' for Inactive)
REMARK    1  A    between atoms: C2_2  and  C6_6 
REMARK    2  A    between atoms: C3_3  and  C6_6 
ROOT
HETATM    1  C1  UNL     1     -32.493   8.583   1.181  1.00 20.00    -0.110 C 
HETATM    2  C2  UNL     1     -32.432   7.810   2.099  1.00 20.00    -0.092 C 
HETATM    3  C4  UNL     1     -32.566   9.523   0.064  1.00 20.00     0.112 C 
ENDROOT
BRANCH   2   4
HETATM    4  C6  UNL     1     -32.357   6.860   3.224  1.00 20.00     0.162 C 
HETATM    5  C5  UNL     1     -32.966   5.520   2.825  1.00 20.00     0.035 C 
BRANCH   4   6
HETATM    6  C3  UNL     1     -33.022   7.481   4.467  1.00 20.00     0.188 C 
HETATM    7  O7  UNL     1     -32.460   8.533   4.890  1.00 20.00    -0.647 OA
HETATM    8  O8  UNL     1     -34.037   6.882   4.919  1.00 20.00    -0.647 OA
ENDBRANCH   4   6
ENDBRANCH   2   4
TORSDOF 2
ENDMDL
