MODEL 1
REMARK VINA RESULT:      -4.2      0.000      0.000
REMARK  2 active torsions:
REMARK  status: ('A' for Active; 'I' for Inactive)
REMARK    1  A    between atoms: C4_4  and  C8_8 
REMARK    2  A    between atoms: C5_5  and  C9_9 
ROOT
HETATM    1  C1  UNL     1     -34.835  18.832  -1.591  1.00 20.00     0.139 C 
HETATM    2  C6  UNL     1     -35.033  19.262  -0.156  1.00 20.00     0.080 C 
HETATM    3  C7  UNL     1     -33.701  18.887   0.486  1.00 20.00     0.017 C 
HETATM    4  C8  UNL     1     -32.685  19.055  -0.648  1.00 20.00     0.027 C 
HETATM    5  C9  UNL     1     -33.389  18.439  -1.886  1.00 20.00     0.041 C 
HETATM    6  C10 UNL     1     -32.897  19.050  -3.194  1.00 20.00     0.028 C 
HETATM    7  O11 UNL     1     -35.746  18.802  -2.411  1.00 20.00    -0.297 OA
ENDROOT
BRANCH   5   8
HETATM    8  C5  UNL     1     -33.374  16.938  -1.958  1.00 20.00    -0.019 C 
HETATM    9  C3  UNL     1     -33.338  16.245  -3.101  1.00 20.00     0.008 C 
ENDBRANCH   5   8
BRANCH   4  10
HETATM   10  C4  UNL     1     -31.336  18.501  -0.320  1.00 20.00    -0.031 C 
HETATM   11  C2  UNL     1     -30.848  18.407   0.922  1.00 20.00     0.007 C 
ENDBRANCH   4  10
TORSDOF 2
ENDMDL
MODEL 2
REMARK VINA RESULT:      -3.6     12.313     13.341
REMARK  2 active torsions:
REMARK  status: ('A' for Active; 'I' for Inactive)
REMARK    1  A    between atoms: C4_4  and  C8_8 
REMARK    2  A    between atoms: C5_5  and  C9_9 
ROOT
HETATM    1  C1  UNL     1     -33.640   8.251   5.065  1.00 20.00     0.139 C 
HETATM    2  C6  UNL     1     -32.411   8.724   4.323  1.00 20.00     0.080 C 
HETATM    3  C7  UNL     1     -31.899   7.438   3.683  1.00 20.00     0.017 C 
HETATM    4  C8  UNL     1     -33.169   6.622   3.426  1.00 20.00     0.027 C 
HETATM    5  C9  UNL     1     -34.013   6.813   4.714  1.00 20.00     0.041 C 
HETATM    6  C10 UNL     1     -35.509   6.668   4.452  1.00 20.00     0.028 C 
HETATM    7  O11 UNL     1     -34.254   8.956   5.859  1.00 20.00    -0.297 OA
ENDROOT
BRANCH   5   8
HETATM    8  C5  UNL     1     -33.594   5.977   5.891  1.00 20.00    -0.019 C 
HETATM    9  C3  UNL     1     -34.423   5.183   6.577  1.00 20.00     0.008 C 
ENDBRANCH   5   8
BRANCH   4  10
HETATM   10  C4  UNL     1     -32.893   5.208   3.028  1.00 20.00    -0.031 C 
HETATM   11  C2  UNL     1     -32.970   4.755   1.773  1.00 20.00     0.007 C 
ENDBRANCH   4  10
TORSDOF 2
ENDMDL
MODEL 3
REMARK VINA RESULT:      -3.5     11.065     12.336
REMARK  2 active torsions:
REMARK  status: ('A' for Active; 'I' for Inactive)
REMARK    1  A    between atoms: C4_4  and  C8_8 
REMARK    2  A    between atoms: C5_5  and  C9_9 
ROOT
HETATM    1  C1  UNL     1     -42.580  14.873   6.188  1.00 20.00     0.139 C 
HETATM    2  C6  UNL     1     -42.504  14.526   4.719  1.00 20.00     0.080 C 
HETATM    3  C7  UNL     1     -41.275  13.627   4.657  1.00 20.00     0.017 C 
HETATM    4  C8  UNL     1     -41.261  12.926   6.019  1.00 20.00     0.027 C 
HETATM    5  C9  UNL     1     -41.608  14.050   7.029  1.00 20.00     0.041 C 
HETATM    6  C10 UNL     1     -42.276  13.509   8.290  1.00 20.00     0.028 C 
HETATM    7  O11 UNL     1     -43.338  15.727   6.634  1.00 20.00    -0.297 OA
ENDROOT
BRANCH   5   8
HETATM    8  C5  UNL     1     -40.477  14.976   7.381  1.00 20.00    -0.019 C 
HETATM    9  C3  UNL     1     -40.316  15.536   8.585  1.00 20.00     0.008 C 
ENDBRANCH   5   8
BRANCH   4  10
HETATM   10  C4  UNL     1     -39.996  12.176   6.284  1.00 20.00    -0.031 C 
HETATM   11  C2  UNL     1     -38.975  12.102   5.423  1.00 20.00     0.007 C 
ENDBRANCH   4  10
TORSDOF 2
ENDMDL
MODEL 4
REMARK VINA RESULT:      -3.5     11.340     12.481
REMARK  2 active torsions:
REMARK  status: ('A' for Active; 'I' for Inactive)
REMARK    1  A    between atoms: C4_4  and  C8_8 
REMARK    2  A    between atoms: C5_5  and  C9_9 
ROOT
HETATM    1  C1  UNL     1     -41.210  14.228   7.732  1.00 20.00     0.139 C 
HETATM    2  C6  UNL     1     -41.417  15.723   7.648  1.00 20.00     0.080 C 
HETATM    3  C7  UNL     1     -41.917  15.905   6.219  1.00 20.00     0.017 C 
HETATM    4  C8  UNL     1     -42.678  14.609   5.926  1.00 20.00     0.027 C 
HETATM    5  C9  UNL     1     -41.776  13.495   6.519  1.00 20.00     0.041 C 
HETATM    6  C10 UNL     1     -42.574  12.261   6.930  1.00 20.00     0.028 C 
HETATM    7  O11 UNL     1     -40.645  13.684   8.674  1.00 20.00    -0.297 OA
ENDROOT
BRANCH   5   8
HETATM    8  C5  UNL     1     -40.591  13.107   5.679  1.00 20.00    -0.019 C 
HETATM    9  C3  UNL     1     -40.003  11.906   5.723  1.00 20.00     0.008 C 
ENDBRANCH   5   8
BRANCH   4  10
HETATM   10  C4  UNL     1     -43.049  14.453   4.486  1.00 20.00    -0.031 C 
HETATM   11  C2  UNL     1     -42.613  15.257   3.510  1.00 20.00     0.007 C 
ENDBRANCH   4  10
TORSDOF 2
ENDMDL
MODEL 5
REMARK VINA RESULT:      -3.5      2.908      4.703
REMARK  2 active torsions:
REMARK  status: ('A' for Active; 'I' for Inactive)
REMARK    1  A    between atoms: C4_4  and  C8_8 
REMARK    2  A    between atoms: C5_5  and  C9_9 
ROOT
HETATM    1  C1  UNL     1     -34.077  15.601  -5.861  1.00 20.00     0.139 C 
HETATM    2  C6  UNL     1     -34.637  17.004  -5.869  1.00 20.00     0.080 C 
HETATM    3  C7  UNL     1     -34.729  17.329  -4.382  1.00 20.00     0.017 C 
HETATM    4  C8  UNL     1     -33.570  16.544  -3.760  1.00 20.00     0.027 C 
HETATM    5  C9  UNL     1     -33.617  15.167  -4.472  1.00 20.00     0.041 C 
HETATM    6  C10 UNL     1     -32.250  14.492  -4.517  1.00 20.00     0.028 C 
HETATM    7  O11 UNL     1     -34.011  14.902  -6.866  1.00 20.00    -0.297 OA
ENDROOT
BRANCH   5   8
HETATM    8  C5  UNL     1     -34.665  14.214  -3.967  1.00 20.00    -0.019 C 
HETATM    9  C3  UNL     1     -35.716  13.808  -4.688  1.00 20.00     0.008 C 
ENDBRANCH   5   8
BRANCH   4  10
HETATM   10  C4  UNL     1     -33.613  16.511  -2.266  1.00 20.00    -0.031 C 
HETATM   11  C2  UNL     1     -33.514  17.596  -1.491  1.00 20.00     0.007 C 
ENDBRANCH   4  10
TORSDOF 2
ENDMDL
MODEL 6
REMARK VINA RESULT:      -3.4      3.814      5.709
REMARK  2 active torsions:
REMARK  status: ('A' for Active; 'I' for Inactive)
REMARK    1  A    between atoms: C4_4  and  C8_8 
REMARK    2  A    between atoms: C5_5  and  C9_9 
ROOT
HETATM    1  C1  UNL     1     -33.848  15.077  -4.333  1.00 20.00     0.139 C 
HETATM    2  C6  UNL     1     -33.324  16.123  -3.375  1.00 20.00     0.080 C 
HETATM    3  C7  UNL     1     -33.817  17.421  -4.006  1.00 20.00     0.017 C 
HETATM    4  C8  UNL     1     -35.129  17.024  -4.690  1.00 20.00     0.027 C 
HETATM    5  C9  UNL     1     -34.812  15.662  -5.361  1.00 20.00     0.041 C 
HETATM    6  C10 UNL     1     -36.057  14.793  -5.522  1.00 20.00     0.028 C 
HETATM    7  O11 UNL     1     -33.520  13.897  -4.277  1.00 20.00    -0.297 OA
ENDROOT
BRANCH   5   8
HETATM    8  C5  UNL     1     -34.045  15.739  -6.652  1.00 20.00    -0.019 C 
HETATM    9  C3  UNL     1     -34.596  15.577  -7.860  1.00 20.00     0.008 C 
ENDBRANCH   5   8
BRANCH   4  10
HETATM   10  C4  UNL     1     -35.670  18.087  -5.591  1.00 20.00    -0.031 C 
HETATM   11  C2  UNL     1     -36.964  18.413  -5.671  1.00 20.00     0.007 C 
ENDBRANCH   4  10
TORSDOF 2
ENDMDL
MODEL 7
REMARK VINA RESULT:      -3.4      3.238      5.027
REMARK  2 active torsions:
REMARK  status: ('A' for Active; 'I' for Inactive)
REMARK    1  A    between atoms: C4_4  and  C8_8 
REMARK    2  A    between atoms: C5_5  and  C9_9 
ROOT
HETATM    1  C1  UNL     1     -35.241  14.953  -5.229  1.00 20.00     0.139 C 
HETATM    2  C6  UNL     1     -34.235  14.358  -4.270  1.00 20.00     0.080 C 
HETATM    3  C7  UNL     1     -33.335  15.549  -3.958  1.00 20.00     0.017 C 
HETATM    4  C8  UNL     1     -34.273  16.756  -4.057  1.00 20.00     0.027 C 
HETATM    5  C9  UNL     1     -35.128  16.473  -5.320  1.00 20.00     0.041 C 
HETATM    6  C10 UNL     1     -36.496  17.143  -5.255  1.00 20.00     0.028 C 
HETATM    7  O11 UNL     1     -36.047  14.276  -5.857  1.00 20.00    -0.297 OA
ENDROOT
BRANCH   5   8
HETATM    8  C5  UNL     1     -34.455  16.760  -6.633  1.00 20.00    -0.019 C 
HETATM    9  C3  UNL     1     -34.915  17.636  -7.533  1.00 20.00     0.008 C 
ENDBRANCH   5   8
BRANCH   4  10
HETATM   10  C4  UNL     1     -33.553  18.066  -4.034  1.00 20.00    -0.031 C 
HETATM   11  C2  UNL     1     -32.948  18.569  -2.953  1.00 20.00     0.007 C 
ENDBRANCH   4  10
TORSDOF 2
ENDMDL
MODEL 8
REMARK VINA RESULT:      -3.4     12.482     13.465
REMARK  2 active torsions:
REMARK  status: ('A' for Active; 'I' for Inactive)
REMARK    1  A    between atoms: C4_4  and  C8_8 
REMARK    2  A    between atoms: C5_5  and  C9_9 
ROOT
HETATM    1  C1  UNL     1     -33.765   5.039   4.108  1.00 20.00     0.139 C 
HETATM    2  C6  UNL     1     -32.907   5.071   2.864  1.00 20.00     0.080 C 
HETATM    3  C7  UNL     1     -32.694   6.566   2.650  1.00 20.00     0.017 C 
HETATM    4  C8  UNL     1     -32.708   7.147   4.067  1.00 20.00     0.027 C 
HETATM    5  C9  UNL     1     -33.878   6.409   4.770  1.00 20.00     0.041 C 
HETATM    6  C10 UNL     1     -33.682   6.321   6.281  1.00 20.00     0.028 C 
HETATM    7  O11 UNL     1     -34.305   4.019   4.520  1.00 20.00    -0.297 OA
ENDROOT
BRANCH   5   8
HETATM    8  C5  UNL     1     -35.254   6.917   4.440  1.00 20.00    -0.019 C 
HETATM    9  C3  UNL     1     -36.245   6.146   3.981  1.00 20.00     0.008 C 
ENDBRANCH   5   8
BRANCH   4  10
HETATM   10  C4  UNL     1     -32.766   8.640   4.093  1.00 20.00    -0.031 C 
HETATM   11  C2  UNL     1     -32.124   9.399   4.988  1.00 20.00     0.007 C 
ENDBRANCH   4  10
TORSDOF 2
ENDMDL
MODEL 9
REMARK VINA RESULT:      -3.4     12.737     13.531
REMARK  2 active torsions:
REMARK  status: ('A' for Active; 'I' for Inactive)
REMARK    1  A    between atoms: C4_4  and  C8_8 
REMARK    2  A    between atoms: C5_5  and  C9_9 
ROOT
HETATM    1  C1  UNL     1     -34.600   5.689   5.993  1.00 20.00     0.139 C 
HETATM    2  C6  UNL     1     -33.911   6.624   6.960  1.00 20.00     0.080 C 
HETATM    3  C7  UNL     1     -33.140   7.552   6.026  1.00 20.00     0.017 C 
HETATM    4  C8  UNL     1     -34.011   7.615   4.767  1.00 20.00     0.027 C 
HETATM    5  C9  UNL     1     -34.466   6.149   4.544  1.00 20.00     0.041 C 
HETATM    6  C10 UNL     1     -35.797   6.063   3.802  1.00 20.00     0.028 C 
HETATM    7  O11 UNL     1     -35.190   4.675   6.350  1.00 20.00    -0.297 OA
ENDROOT
BRANCH   5   8
HETATM    8  C5  UNL     1     -33.445   5.244   3.914  1.00 20.00    -0.019 C 
HETATM    9  C3  UNL     1     -33.217   5.175   2.597  1.00 20.00     0.008 C 
ENDBRANCH   5   8
BRANCH   4  10
HETATM   10  C4  UNL     1     -33.330   8.273   3.611  1.00 20.00    -0.031 C 
HETATM   11  C2  UNL     1     -32.042   8.630   3.605  1.00 20.00     0.007 C 
ENDBRANCH   4  10
TORSDOF 2
ENDMDL
