MODEL 1
REMARK VINA RESULT:      -5.4      0.000      0.000
REMARK  0 active torsions:
REMARK  status: ('A' for Active; 'I' for Inactive)
ROOT
HETATM    1  C1  UNL     1     -32.383   7.524   2.559  1.00 20.00     0.064 C 
HETATM    2  C2  UNL     1     -34.446   5.138   4.690  1.00 20.00     0.012 C 
HETATM    3  C3  UNL     1     -34.536   5.816   5.841  1.00 20.00     0.090 C 
HETATM    4  C4  UNL     1     -33.708   5.653   3.489  1.00 20.00     0.049 C 
HETATM    5  C5  UNL     1     -33.936   7.173   6.042  1.00 20.00     0.071 C 
HETATM    6  C6  UNL     1     -33.524   7.847   4.729  1.00 20.00     0.026 C 
HETATM    7  C7  UNL     1     -32.804   6.859   3.803  1.00 20.00     0.096 C 
HETATM    8  N8  UNL     1     -32.051   8.049   1.579  1.00 20.00    -0.197 NA
HETATM    9  F9  UNL     1     -35.222   5.259   6.864  1.00 20.00    -0.211 F 
ENDROOT
TORSDOF 0
ENDMDL
MODEL 2
REMARK VINA RESULT:      -4.9      3.302      4.063
REMARK  0 active torsions:
REMARK  status: ('A' for Active; 'I' for Inactive)
ROOT
HETATM    1  C1  UNL     1     -34.547   5.895   5.869  1.00 20.00     0.064 C 
HETATM    2  C2  UNL     1     -32.752   6.118   2.519  1.00 20.00     0.012 C 
HETATM    3  C3  UNL     1     -32.363   7.400   2.509  1.00 20.00     0.090 C 
HETATM    4  C4  UNL     1     -33.526   5.504   3.650  1.00 20.00     0.049 C 
HETATM    5  C5  UNL     1     -32.633   8.347   3.636  1.00 20.00     0.071 C 
HETATM    6  C6  UNL     1     -33.074   7.640   4.921  1.00 20.00     0.026 C 
HETATM    7  C7  UNL     1     -34.105   6.545   4.624  1.00 20.00     0.096 C 
HETATM    8  N8  UNL     1     -34.895   5.382   6.850  1.00 20.00    -0.197 NA
HETATM    9  F9  UNL     1     -31.673   7.854   1.439  1.00 20.00    -0.211 F 
ENDROOT
TORSDOF 0
ENDMDL
MODEL 3
REMARK VINA RESULT:      -4.7      0.447      1.723
REMARK  0 active torsions:
REMARK  status: ('A' for Active; 'I' for Inactive)
ROOT
HETATM    1  C1  UNL     1     -32.593   7.595   2.780  1.00 20.00     0.064 C 
HETATM    2  C2  UNL     1     -33.894   6.917   6.293  1.00 20.00     0.012 C 
HETATM    3  C3  UNL     1     -34.589   5.787   6.107  1.00 20.00     0.090 C 
HETATM    4  C4  UNL     1     -33.168   7.625   5.186  1.00 20.00     0.049 C 
HETATM    5  C5  UNL     1     -34.690   5.095   4.783  1.00 20.00     0.071 C 
HETATM    6  C6  UNL     1     -33.660   5.594   3.766  1.00 20.00     0.026 C 
HETATM    7  C7  UNL     1     -33.561   7.124   3.784  1.00 20.00     0.096 C 
HETATM    8  N8  UNL     1     -31.831   7.966   1.988  1.00 20.00    -0.197 NA
HETATM    9  F9  UNL     1     -35.210   5.232   7.172  1.00 20.00    -0.211 F 
ENDROOT
TORSDOF 0
ENDMDL
MODEL 4
REMARK VINA RESULT:      -4.4      1.645      2.429
REMARK  0 active torsions:
REMARK  status: ('A' for Active; 'I' for Inactive)
ROOT
HETATM    1  C1  UNL     1     -33.225   5.051   2.665  1.00 20.00     0.064 C 
HETATM    2  C2  UNL     1     -33.501   7.591   5.487  1.00 20.00     0.012 C 
HETATM    3  C3  UNL     1     -34.289   6.943   6.355  1.00 20.00     0.090 C 
HETATM    4  C4  UNL     1     -33.081   7.011   4.168  1.00 20.00     0.049 C 
HETATM    5  C5  UNL     1     -34.810   5.559   6.114  1.00 20.00     0.071 C 
HETATM    6  C6  UNL     1     -34.087   4.837   4.973  1.00 20.00     0.026 C 
HETATM    7  C7  UNL     1     -33.891   5.765   3.767  1.00 20.00     0.096 C 
HETATM    8  N8  UNL     1     -32.701   4.489   1.796  1.00 20.00    -0.197 NA
HETATM    9  F9  UNL     1     -34.612   7.557   7.515  1.00 20.00    -0.211 F 
ENDROOT
TORSDOF 0
ENDMDL
MODEL 5
REMARK VINA RESULT:      -4.3      2.990      3.748
REMARK  0 active torsions:
REMARK  status: ('A' for Active; 'I' for Inactive)
ROOT
HETATM    1  C1  UNL     1     -34.104   5.062   4.461  1.00 20.00     0.064 C 
HETATM    2  C2  UNL     1     -32.130   8.149   3.429  1.00 20.00     0.012 C 
HETATM    3  C3  UNL     1     -32.470   9.017   4.390  1.00 20.00     0.090 C 
HETATM    4  C4  UNL     1     -32.657   6.744   3.369  1.00 20.00     0.049 C 
HETATM    5  C5  UNL     1     -33.386   8.670   5.522  1.00 20.00     0.071 C 
HETATM    6  C6  UNL     1     -33.613   7.163   5.669  1.00 20.00     0.026 C 
HETATM    7  C7  UNL     1     -33.854   6.504   4.306  1.00 20.00     0.096 C 
HETATM    8  N8  UNL     1     -34.302   3.925   4.584  1.00 20.00    -0.197 NA
HETATM    9  F9  UNL     1     -31.940  10.261   4.350  1.00 20.00    -0.211 F 
ENDROOT
TORSDOF 0
ENDMDL
MODEL 6
REMARK VINA RESULT:      -4.2      3.278      4.371
REMARK  0 active torsions:
REMARK  status: ('A' for Active; 'I' for Inactive)
ROOT
HETATM    1  C1  UNL     1     -34.404   6.147   6.070  1.00 20.00     0.064 C 
HETATM    2  C2  UNL     1     -32.665   8.312   3.466  1.00 20.00     0.012 C 
HETATM    3  C3  UNL     1     -32.370   7.409   2.522  1.00 20.00     0.090 C 
HETATM    4  C4  UNL     1     -33.370   7.962   4.745  1.00 20.00     0.049 C 
HETATM    5  C5  UNL     1     -32.739   5.962   2.627  1.00 20.00     0.071 C 
HETATM    6  C6  UNL     1     -33.769   5.685   3.726  1.00 20.00     0.026 C 
HETATM    7  C7  UNL     1     -33.426   6.447   5.011  1.00 20.00     0.096 C 
HETATM    8  N8  UNL     1     -35.174   5.911   6.905  1.00 20.00    -0.197 NA
HETATM    9  F9  UNL     1     -31.729   7.830   1.408  1.00 20.00    -0.211 F 
ENDROOT
TORSDOF 0
ENDMDL
MODEL 7
REMARK VINA RESULT:      -4.2      1.665      2.502
REMARK  0 active torsions:
REMARK  status: ('A' for Active; 'I' for Inactive)
ROOT
HETATM    1  C1  UNL     1     -32.456   9.047   4.951  1.00 20.00     0.064 C 
HETATM    2  C2  UNL     1     -34.494   5.976   5.904  1.00 20.00     0.012 C 
HETATM    3  C3  UNL     1     -34.484   5.283   4.759  1.00 20.00     0.090 C 
HETATM    4  C4  UNL     1     -33.816   7.306   6.064  1.00 20.00     0.049 C 
HETATM    5  C5  UNL     1     -33.771   5.746   3.526  1.00 20.00     0.071 C 
HETATM    6  C6  UNL     1     -32.785   6.886   3.797  1.00 20.00     0.026 C 
HETATM    7  C7  UNL     1     -33.399   7.940   4.725  1.00 20.00     0.096 C 
HETATM    8  N8  UNL     1     -31.712   9.920   5.130  1.00 20.00    -0.197 NA
HETATM    9  F9  UNL     1     -35.129   4.095   4.720  1.00 20.00    -0.211 F 
ENDROOT
TORSDOF 0
ENDMDL
MODEL 8
REMARK VINA RESULT:      -4.1      1.572      1.916
REMARK  0 active torsions:
REMARK  status: ('A' for Active; 'I' for Inactive)
ROOT
HETATM    1  C1  UNL     1     -33.051   5.167   2.644  1.00 20.00     0.064 C 
HETATM    2  C2  UNL     1     -34.764   5.760   5.992  1.00 20.00     0.012 C 
HETATM    3  C3  UNL     1     -34.262   6.952   6.341  1.00 20.00     0.090 C 
HETATM    4  C4  UNL     1     -34.393   5.056   4.719  1.00 20.00     0.049 C 
HETATM    5  C5  UNL     1     -33.303   7.721   5.486  1.00 20.00     0.071 C 
HETATM    6  C6  UNL     1     -33.225   7.194   4.050  1.00 20.00     0.026 C 
HETATM    7  C7  UNL     1     -33.159   5.662   4.026  1.00 20.00     0.096 C 
HETATM    8  N8  UNL     1     -32.965   4.778   1.554  1.00 20.00    -0.197 NA
HETATM    9  F9  UNL     1     -34.660   7.499   7.512  1.00 20.00    -0.211 F 
ENDROOT
TORSDOF 0
ENDMDL
MODEL 9
REMARK VINA RESULT:      -4.0     12.487     13.437
REMARK  0 active torsions:
REMARK  status: ('A' for Active; 'I' for Inactive)
ROOT
HETATM    1  C1  UNL     1     -35.447  15.059  -6.749  1.00 20.00     0.064 C 
HETATM    2  C2  UNL     1     -33.231  15.420  -3.675  1.00 20.00     0.012 C 
HETATM    3  C3  UNL     1     -33.442  16.700  -3.343  1.00 20.00     0.090 C 
HETATM    4  C4  UNL     1     -33.885  14.760  -4.855  1.00 20.00     0.049 C 
HETATM    5  C5  UNL     1     -34.373  17.600  -4.094  1.00 20.00     0.071 C 
HETATM    6  C6  UNL     1     -35.308  16.840  -5.040  1.00 20.00     0.026 C 
HETATM    7  C7  UNL     1     -34.547  15.760  -5.819  1.00 20.00     0.096 C 
HETATM    8  N8  UNL     1     -36.156  14.506  -7.483  1.00 20.00    -0.197 NA
HETATM    9  F9  UNL     1     -32.800  17.198  -2.262  1.00 20.00    -0.211 F 
ENDROOT
TORSDOF 0
ENDMDL
