MODEL 1
REMARK VINA RESULT:      -4.2      0.000      0.000
REMARK  0 active torsions:
REMARK  status: ('A' for Active; 'I' for Inactive)
ROOT
HETATM    1  C1  UNL     1     -33.866   5.428   4.339  1.00 20.00     0.135 C 
HETATM    2  C2  UNL     1     -33.468   6.000   2.996  1.00 20.00     0.110 C 
HETATM    3  C3  UNL     1     -33.978   7.801   4.987  1.00 20.00     0.179 C 
HETATM    4  C4  UNL     1     -33.763   6.384   5.521  1.00 20.00     0.075 C 
HETATM    5  C5  UNL     1     -32.461   7.125   3.229  1.00 20.00     0.124 C 
HETATM    6  C6  UNL     1     -34.782   6.044   6.601  1.00 20.00     0.020 C 
HETATM    7  C7  UNL     1     -31.983   7.718   1.911  1.00 20.00     0.040 C 
HETATM    8  O8  UNL     1     -34.248   4.265   4.452  1.00 20.00    -0.297 OA
HETATM    9  O9  UNL     1     -33.010   8.192   4.010  1.00 20.00    -0.385 OA
ENDROOT
TORSDOF 0
ENDMDL
MODEL 2
REMARK VINA RESULT:      -4.1      0.791      3.938
REMARK  0 active torsions:
REMARK  status: ('A' for Active; 'I' for Inactive)
ROOT
HETATM    1  C1  UNL     1     -32.808   8.008   4.448  1.00 20.00     0.135 C 
HETATM    2  C2  UNL     1     -33.839   7.541   5.452  1.00 20.00     0.110 C 
HETATM    3  C3  UNL     1     -33.668   6.117   3.126  1.00 20.00     0.179 C 
HETATM    4  C4  UNL     1     -32.445   7.007   3.359  1.00 20.00     0.075 C 
HETATM    5  C5  UNL     1     -33.772   6.018   5.541  1.00 20.00     0.124 C 
HETATM    6  C6  UNL     1     -32.026   7.709   2.075  1.00 20.00     0.020 C 
HETATM    7  C7  UNL     1     -34.757   5.482   6.570  1.00 20.00     0.040 C 
HETATM    8  O8  UNL     1     -32.306   9.128   4.519  1.00 20.00    -0.297 OA
HETATM    9  O9  UNL     1     -34.067   5.388   4.289  1.00 20.00    -0.385 OA
ENDROOT
TORSDOF 0
ENDMDL
MODEL 3
REMARK VINA RESULT:      -3.8      1.455      2.212
REMARK  0 active torsions:
REMARK  status: ('A' for Active; 'I' for Inactive)
ROOT
HETATM    1  C1  UNL     1     -33.648   7.279   5.091  1.00 20.00     0.135 C 
HETATM    2  C2  UNL     1     -32.577   7.830   4.176  1.00 20.00     0.110 C 
HETATM    3  C3  UNL     1     -33.365   5.253   3.721  1.00 20.00     0.179 C 
HETATM    4  C4  UNL     1     -34.353   6.020   4.603  1.00 20.00     0.075 C 
HETATM    5  C5  UNL     1     -32.908   7.418   2.743  1.00 20.00     0.124 C 
HETATM    6  C6  UNL     1     -34.830   5.162   5.766  1.00 20.00     0.020 C 
HETATM    7  C7  UNL     1     -31.890   7.978   1.759  1.00 20.00     0.040 C 
HETATM    8  O8  UNL     1     -33.919   7.824   6.160  1.00 20.00    -0.297 OA
HETATM    9  O9  UNL     1     -32.930   5.995   2.579  1.00 20.00    -0.385 OA
ENDROOT
TORSDOF 0
ENDMDL
MODEL 4
REMARK VINA RESULT:      -3.6      0.777      2.788
REMARK  0 active torsions:
REMARK  status: ('A' for Active; 'I' for Inactive)
ROOT
HETATM    1  C1  UNL     1     -34.010   5.516   4.423  1.00 20.00     0.135 C 
HETATM    2  C2  UNL     1     -33.904   6.554   5.519  1.00 20.00     0.110 C 
HETATM    3  C3  UNL     1     -32.298   6.913   3.338  1.00 20.00     0.179 C 
HETATM    4  C4  UNL     1     -33.429   5.918   3.074  1.00 20.00     0.075 C 
HETATM    5  C5  UNL     1     -33.864   7.937   4.872  1.00 20.00     0.124 C 
HETATM    6  C6  UNL     1     -32.925   4.706   2.303  1.00 20.00     0.020 C 
HETATM    7  C7  UNL     1     -33.801   9.036   5.924  1.00 20.00     0.040 C 
HETATM    8  O8  UNL     1     -34.533   4.421   4.627  1.00 20.00    -0.297 OA
HETATM    9  O9  UNL     1     -32.732   8.099   4.009  1.00 20.00    -0.385 OA
ENDROOT
TORSDOF 0
ENDMDL
MODEL 5
REMARK VINA RESULT:      -3.6      1.529      2.140
REMARK  0 active torsions:
REMARK  status: ('A' for Active; 'I' for Inactive)
ROOT
HETATM    1  C1  UNL     1     -34.149   6.528   5.309  1.00 20.00     0.135 C 
HETATM    2  C2  UNL     1     -34.238   5.647   4.082  1.00 20.00     0.110 C 
HETATM    3  C3  UNL     1     -32.980   8.052   3.769  1.00 20.00     0.179 C 
HETATM    4  C4  UNL     1     -33.129   7.657   5.240  1.00 20.00     0.075 C 
HETATM    5  C5  UNL     1     -32.885   5.668   3.373  1.00 20.00     0.124 C 
HETATM    6  C6  UNL     1     -33.558   8.847   6.087  1.00 20.00     0.020 C 
HETATM    7  C7  UNL     1     -32.891   4.763   2.149  1.00 20.00     0.040 C 
HETATM    8  O8  UNL     1     -34.863   6.333   6.291  1.00 20.00    -0.297 OA
HETATM    9  O9  UNL     1     -32.521   6.983   2.939  1.00 20.00    -0.385 OA
ENDROOT
TORSDOF 0
ENDMDL
MODEL 6
REMARK VINA RESULT:      -3.6      1.697      3.326
REMARK  0 active torsions:
REMARK  status: ('A' for Active; 'I' for Inactive)
ROOT
HETATM    1  C1  UNL     1     -32.776   7.381   3.642  1.00 20.00     0.135 C 
HETATM    2  C2  UNL     1     -33.372   6.008   3.859  1.00 20.00     0.110 C 
HETATM    3  C3  UNL     1     -33.231   7.637   6.048  1.00 20.00     0.179 C 
HETATM    4  C4  UNL     1     -33.055   8.404   4.736  1.00 20.00     0.075 C 
HETATM    5  C5  UNL     1     -34.617   6.154   4.733  1.00 20.00     0.124 C 
HETATM    6  C6  UNL     1     -31.931   9.425   4.843  1.00 20.00     0.020 C 
HETATM    7  C7  UNL     1     -35.294   4.809   4.956  1.00 20.00     0.040 C 
HETATM    8  O8  UNL     1     -32.109   7.639   2.642  1.00 20.00    -0.297 OA
HETATM    9  O9  UNL     1     -34.315   6.705   6.019  1.00 20.00    -0.385 OA
ENDROOT
TORSDOF 0
ENDMDL
MODEL 7
REMARK VINA RESULT:      -3.6      1.303      3.569
REMARK  0 active torsions:
REMARK  status: ('A' for Active; 'I' for Inactive)
ROOT
HETATM    1  C1  UNL     1     -32.762   7.066   3.451  1.00 20.00     0.135 C 
HETATM    2  C2  UNL     1     -33.411   7.873   4.554  1.00 20.00     0.110 C 
HETATM    3  C3  UNL     1     -34.380   5.349   4.156  1.00 20.00     0.179 C 
HETATM    4  C4  UNL     1     -33.019   5.565   3.490  1.00 20.00     0.075 C 
HETATM    5  C5  UNL     1     -33.593   6.969   5.772  1.00 20.00     0.124 C 
HETATM    6  C6  UNL     1     -32.989   4.959   2.094  1.00 20.00     0.020 C 
HETATM    7  C7  UNL     1     -34.203   7.731   6.939  1.00 20.00     0.040 C 
HETATM    8  O8  UNL     1     -32.076   7.604   2.583  1.00 20.00    -0.297 OA
HETATM    9  O9  UNL     1     -34.442   5.850   5.494  1.00 20.00    -0.385 OA
ENDROOT
TORSDOF 0
ENDMDL
MODEL 8
REMARK VINA RESULT:      -3.6     11.866     13.294
REMARK  0 active torsions:
REMARK  status: ('A' for Active; 'I' for Inactive)
ROOT
HETATM    1  C1  UNL     1     -34.412  14.733  -4.524  1.00 20.00     0.135 C 
HETATM    2  C2  UNL     1     -35.408  14.698  -5.663  1.00 20.00     0.110 C 
HETATM    3  C3  UNL     1     -34.598  17.170  -4.824  1.00 20.00     0.179 C 
HETATM    4  C4  UNL     1     -33.678  16.053  -4.328  1.00 20.00     0.075 C 
HETATM    5  C5  UNL     1     -34.970  15.711  -6.718  1.00 20.00     0.124 C 
HETATM    6  C6  UNL     1     -33.295  16.265  -2.869  1.00 20.00     0.020 C 
HETATM    7  C7  UNL     1     -35.907  15.697  -7.918  1.00 20.00     0.040 C 
HETATM    8  O8  UNL     1     -34.222  13.750  -3.809  1.00 20.00    -0.297 OA
HETATM    9  O9  UNL     1     -34.940  17.049  -6.207  1.00 20.00    -0.385 OA
ENDROOT
TORSDOF 0
ENDMDL
MODEL 9
REMARK VINA RESULT:      -3.5      8.686     10.181
REMARK  0 active torsions:
REMARK  status: ('A' for Active; 'I' for Inactive)
ROOT
HETATM    1  C1  UNL     1     -40.770  13.335   4.883  1.00 20.00     0.135 C 
HETATM    2  C2  UNL     1     -41.470  13.733   6.164  1.00 20.00     0.110 C 
HETATM    3  C3  UNL     1     -39.468  11.886   6.389  1.00 20.00     0.179 C 
HETATM    4  C4  UNL     1     -39.431  12.630   5.052  1.00 20.00     0.075 C 
HETATM    5  C5  UNL     1     -40.413  13.941   7.247  1.00 20.00     0.124 C 
HETATM    6  C6  UNL     1     -39.155  11.674   3.900  1.00 20.00     0.020 C 
HETATM    7  C7  UNL     1     -41.047  14.387   8.557  1.00 20.00     0.040 C 
HETATM    8  O8  UNL     1     -41.267  13.570   3.782  1.00 20.00    -0.297 OA
HETATM    9  O9  UNL     1     -39.665  12.749   7.512  1.00 20.00    -0.385 OA
ENDROOT
TORSDOF 0
ENDMDL
