MODEL 1
REMARK VINA RESULT:      -4.5      0.000      0.000
REMARK  1 active torsions:
REMARK  status: ('A' for Active; 'I' for Inactive)
REMARK    1  A    between atoms: C1_1  and  C3_3 
ROOT
HETATM    1  C1  UNL     1     -33.560   7.069   5.714  1.00 20.00     0.064 C 
HETATM    2  C2  UNL     1     -34.526   6.144   5.777  1.00 20.00     0.184 C 
HETATM    3  F4  UNL     1     -34.723   5.450   6.920  1.00 20.00    -0.193 F 
HETATM    4 CL5  UNL     1     -35.538   5.817   4.421  1.00 20.00    -0.052 Cl
ENDROOT
BRANCH   1   5
HETATM    5  C3  UNL     1     -33.269   7.886   4.495  1.00 20.00     0.205 C 
HETATM    6 CL6  UNL     1     -32.190   9.235   4.920  1.00 20.00    -0.104 Cl
HETATM    7 CL7  UNL     1     -32.508   6.866   3.254  1.00 20.00    -0.104 Cl
ENDBRANCH   1   5
TORSDOF 1
ENDMDL
MODEL 2
REMARK VINA RESULT:      -4.5      2.174      3.565
REMARK  1 active torsions:
REMARK  status: ('A' for Active; 'I' for Inactive)
REMARK    1  A    between atoms: C1_1  and  C3_3 
ROOT
HETATM    1  C1  UNL     1     -33.672   7.472   5.392  1.00 20.00     0.064 C 
HETATM    2  C2  UNL     1     -32.787   8.133   4.636  1.00 20.00     0.184 C 
HETATM    3  F4  UNL     1     -32.399   9.379   4.984  1.00 20.00    -0.193 F 
HETATM    4 CL5  UNL     1     -32.121   7.423   3.214  1.00 20.00    -0.052 Cl
ENDROOT
BRANCH   1   5
HETATM    5  C3  UNL     1     -34.159   6.091   5.087  1.00 20.00     0.205 C 
HETATM    6 CL6  UNL     1     -34.320   5.164   6.596  1.00 20.00    -0.104 Cl
HETATM    7 CL7  UNL     1     -35.728   6.176   4.254  1.00 20.00    -0.104 Cl
ENDBRANCH   1   5
TORSDOF 1
ENDMDL
MODEL 3
REMARK VINA RESULT:      -4.3      2.712      3.499
REMARK  1 active torsions:
REMARK  status: ('A' for Active; 'I' for Inactive)
REMARK    1  A    between atoms: C1_1  and  C3_3 
ROOT
HETATM    1  C1  UNL     1     -33.255   7.192   4.198  1.00 20.00     0.064 C 
HETATM    2  C2  UNL     1     -32.689   6.767   3.063  1.00 20.00     0.184 C 
HETATM    3  F4  UNL     1     -32.011   7.635   2.279  1.00 20.00    -0.193 F 
HETATM    4 CL5  UNL     1     -32.802   5.119   2.571  1.00 20.00    -0.052 Cl
ENDROOT
BRANCH   1   5
HETATM    5  C3  UNL     1     -34.022   6.306   5.128  1.00 20.00     0.205 C 
HETATM    6 CL6  UNL     1     -34.249   7.127   6.690  1.00 20.00    -0.104 Cl
HETATM    7 CL7  UNL     1     -35.601   5.907   4.414  1.00 20.00    -0.104 Cl
ENDBRANCH   1   5
TORSDOF 1
ENDMDL
MODEL 4
REMARK VINA RESULT:      -4.1      2.325      3.539
REMARK  1 active torsions:
REMARK  status: ('A' for Active; 'I' for Inactive)
REMARK    1  A    between atoms: C1_1  and  C3_3 
ROOT
HETATM    1  C1  UNL     1     -33.342   7.537   5.383  1.00 20.00     0.064 C 
HETATM    2  C2  UNL     1     -32.677   8.484   4.710  1.00 20.00     0.184 C 
HETATM    3  F4  UNL     1     -31.894   9.361   5.376  1.00 20.00    -0.193 F 
HETATM    4 CL5  UNL     1     -32.794   8.610   2.996  1.00 20.00    -0.052 Cl
ENDROOT
BRANCH   1   5
HETATM    5  C3  UNL     1     -34.230   6.523   4.734  1.00 20.00     0.205 C 
HETATM    6 CL6  UNL     1     -33.311   5.615   3.511  1.00 20.00    -0.104 Cl
HETATM    7 CL7  UNL     1     -34.872   5.409   5.962  1.00 20.00    -0.104 Cl
ENDBRANCH   1   5
TORSDOF 1
ENDMDL
MODEL 5
REMARK VINA RESULT:      -4.0      2.350      2.639
REMARK  1 active torsions:
REMARK  status: ('A' for Active; 'I' for Inactive)
REMARK    1  A    between atoms: C1_1  and  C3_3 
ROOT
HETATM    1  C1  UNL     1     -33.012   6.776   3.823  1.00 20.00     0.064 C 
HETATM    2  C2  UNL     1     -33.603   5.590   3.634  1.00 20.00     0.184 C 
HETATM    3  F4  UNL     1     -33.129   4.741   2.695  1.00 20.00    -0.193 F 
HETATM    4 CL5  UNL     1     -34.968   5.113   4.571  1.00 20.00    -0.052 Cl
ENDROOT
BRANCH   1   5
HETATM    5  C3  UNL     1     -33.464   7.778   4.836  1.00 20.00     0.205 C 
HETATM    6 CL6  UNL     1     -33.596   7.003   6.431  1.00 20.00    -0.104 Cl
HETATM    7 CL7  UNL     1     -32.306   9.126   4.909  1.00 20.00    -0.104 Cl
ENDBRANCH   1   5
TORSDOF 1
ENDMDL
MODEL 6
REMARK VINA RESULT:      -4.0      2.405      3.172
REMARK  1 active torsions:
REMARK  status: ('A' for Active; 'I' for Inactive)
REMARK    1  A    between atoms: C1_1  and  C3_3 
ROOT
HETATM    1  C1  UNL     1     -33.147   7.200   4.170  1.00 20.00     0.064 C 
HETATM    2  C2  UNL     1     -33.265   7.979   5.253  1.00 20.00     0.184 C 
HETATM    3  F4  UNL     1     -32.787   9.242   5.231  1.00 20.00    -0.193 F 
HETATM    4 CL5  UNL     1     -34.023   7.402   6.689  1.00 20.00    -0.052 Cl
ENDROOT
BRANCH   1   5
HETATM    5  C3  UNL     1     -33.646   5.792   4.100  1.00 20.00     0.205 C 
HETATM    6 CL6  UNL     1     -35.419   5.774   4.245  1.00 20.00    -0.104 Cl
HETATM    7 CL7  UNL     1     -33.154   5.055   2.559  1.00 20.00    -0.104 Cl
ENDBRANCH   1   5
TORSDOF 1
ENDMDL
MODEL 7
REMARK VINA RESULT:      -3.9      2.527      3.929
REMARK  1 active torsions:
REMARK  status: ('A' for Active; 'I' for Inactive)
REMARK    1  A    between atoms: C1_1  and  C3_3 
ROOT
HETATM    1  C1  UNL     1     -33.293   6.805   3.939  1.00 20.00     0.064 C 
HETATM    2  C2  UNL     1     -32.342   7.738   3.815  1.00 20.00     0.184 C 
HETATM    3  F4  UNL     1     -31.375   7.597   2.882  1.00 20.00    -0.193 F 
HETATM    4 CL5  UNL     1     -32.323   9.133   4.826  1.00 20.00    -0.052 Cl
ENDROOT
BRANCH   1   5
HETATM    5  C3  UNL     1     -34.402   6.875   4.940  1.00 20.00     0.205 C 
HETATM    6 CL6  UNL     1     -35.635   5.652   4.557  1.00 20.00    -0.104 Cl
HETATM    7 CL7  UNL     1     -33.757   6.598   6.574  1.00 20.00    -0.104 Cl
ENDBRANCH   1   5
TORSDOF 1
ENDMDL
MODEL 8
REMARK VINA RESULT:      -3.9      1.548      2.161
REMARK  1 active torsions:
REMARK  status: ('A' for Active; 'I' for Inactive)
REMARK    1  A    between atoms: C1_1  and  C3_3 
ROOT
HETATM    1  C1  UNL     1     -34.139   7.204   4.571  1.00 20.00     0.064 C 
HETATM    2  C2  UNL     1     -34.689   5.992   4.430  1.00 20.00     0.184 C 
HETATM    3  F4  UNL     1     -36.018   5.828   4.613  1.00 20.00    -0.193 F 
HETATM    4 CL5  UNL     1     -33.732   4.620   4.013  1.00 20.00    -0.052 Cl
ENDROOT
BRANCH   1   5
HETATM    5  C3  UNL     1     -32.680   7.482   4.387  1.00 20.00     0.205 C 
HETATM    6 CL6  UNL     1     -32.266   7.402   2.659  1.00 20.00    -0.104 Cl
HETATM    7 CL7  UNL     1     -32.288   9.092   5.033  1.00 20.00    -0.104 Cl
ENDBRANCH   1   5
TORSDOF 1
ENDMDL
MODEL 9
REMARK VINA RESULT:      -3.8      2.630      3.560
REMARK  1 active torsions:
REMARK  status: ('A' for Active; 'I' for Inactive)
REMARK    1  A    between atoms: C1_1  and  C3_3 
ROOT
HETATM    1  C1  UNL     1     -33.779   5.516   3.962  1.00 20.00     0.064 C 
HETATM    2  C2  UNL     1     -32.951   5.736   2.933  1.00 20.00     0.184 C 
HETATM    3  F4  UNL     1     -32.566   4.709   2.144  1.00 20.00    -0.193 F 
HETATM    4 CL5  UNL     1     -32.361   7.318   2.586  1.00 20.00    -0.052 Cl
ENDROOT
BRANCH   1   5
HETATM    5  C3  UNL     1     -34.259   6.588   4.887  1.00 20.00     0.205 C 
HETATM    6 CL6  UNL     1     -34.909   5.854   6.372  1.00 20.00    -0.104 Cl
HETATM    7 CL7  UNL     1     -32.917   7.684   5.288  1.00 20.00    -0.104 Cl
ENDBRANCH   1   5
TORSDOF 1
ENDMDL
