MODEL 1
REMARK VINA RESULT:      -4.1      0.000      0.000
REMARK  1 active torsions:
REMARK  status: ('A' for Active; 'I' for Inactive)
REMARK    1  A    between atoms: C1_1  and  C7_7 
ROOT
HETATM    1  C2  UNL     1     -34.438  18.045  -5.144  1.00 20.00     0.007 C 
HETATM    2  C3  UNL     1     -35.385  16.845  -5.229  1.00 20.00     0.020 C 
HETATM    3  C4  UNL     1     -34.029  15.472  -3.611  1.00 20.00     0.026 C 
HETATM    4  C5  UNL     1     -33.309  17.912  -4.168  1.00 20.00    -0.002 A 
HETATM    5  C6  UNL     1     -33.086  16.622  -3.414  1.00 20.00    -0.000 A 
HETATM    6  C7  UNL     1     -34.689  15.504  -4.992  1.00 20.00     0.045 C 
HETATM    7  C8  UNL     1     -33.455  17.893  -2.655  1.00 20.00    -0.040 A 
HETATM    8  C9  UNL     1     -33.728  15.125  -6.117  1.00 20.00     0.027 C 
HETATM    9  C10 UNL     1     -32.348  18.546  -1.858  1.00 20.00     0.015 C 
HETATM   10  C11 UNL     1     -34.806  18.066  -2.014  1.00 20.00     0.015 C 
ENDROOT
BRANCH   6  11
HETATM   11  C1  UNL     1     -35.797  14.456  -4.972  1.00 20.00     0.181 C 
HETATM   12  O12 UNL     1     -35.517  13.385  -4.366  1.00 20.00    -0.647 OA
HETATM   13  O13 UNL     1     -36.858  14.796  -5.568  1.00 20.00    -0.647 OA
ENDBRANCH   6  11
TORSDOF 1
ENDMDL
MODEL 2
REMARK VINA RESULT:      -4.0     12.280     13.766
REMARK  1 active torsions:
REMARK  status: ('A' for Active; 'I' for Inactive)
REMARK    1  A    between atoms: C1_1  and  C7_7 
ROOT
HETATM    1  C2  UNL     1     -43.292  13.379   7.332  1.00 20.00     0.007 C 
HETATM    2  C3  UNL     1     -42.130  12.522   6.826  1.00 20.00     0.020 C 
HETATM    3  C4  UNL     1     -40.483  14.424   6.935  1.00 20.00     0.026 C 
HETATM    4  C5  UNL     1     -42.941  14.785   7.716  1.00 20.00    -0.002 A 
HETATM    5  C6  UNL     1     -41.544  15.320   7.501  1.00 20.00    -0.000 A 
HETATM    6  C7  UNL     1     -41.076  13.320   6.056  1.00 20.00     0.045 C 
HETATM    7  C8  UNL     1     -42.097  15.182   8.917  1.00 20.00    -0.040 A 
HETATM    8  C9  UNL     1     -41.586  13.840   4.714  1.00 20.00     0.027 C 
HETATM    9  C10 UNL     1     -42.478  16.465   9.619  1.00 20.00     0.015 C 
HETATM   10  C11 UNL     1     -41.579  14.136   9.867  1.00 20.00     0.015 C 
ENDROOT
BRANCH   6  11
HETATM   11  C1  UNL     1     -39.944  12.340   5.760  1.00 20.00     0.181 C 
HETATM   12  O12 UNL     1     -39.742  12.103   4.537  1.00 20.00    -0.647 OA
HETATM   13  O13 UNL     1     -39.353  11.890   6.782  1.00 20.00    -0.647 OA
ENDBRANCH   6  11
TORSDOF 1
ENDMDL
MODEL 3
REMARK VINA RESULT:      -3.8      3.362      4.924
REMARK  1 active torsions:
REMARK  status: ('A' for Active; 'I' for Inactive)
REMARK    1  A    between atoms: C1_1  and  C7_7 
ROOT
HETATM    1  C2  UNL     1     -33.371  16.344  -2.930  1.00 20.00     0.007 C 
HETATM    2  C3  UNL     1     -33.737  16.836  -1.528  1.00 20.00     0.020 C 
HETATM    3  C4  UNL     1     -33.656  19.263  -2.196  1.00 20.00     0.026 C 
HETATM    4  C5  UNL     1     -33.241  17.408  -3.977  1.00 20.00    -0.002 A 
HETATM    5  C6  UNL     1     -33.361  18.870  -3.613  1.00 20.00    -0.000 A 
HETATM    6  C7  UNL     1     -33.161  18.214  -1.197  1.00 20.00     0.045 C 
HETATM    7  C8  UNL     1     -34.389  18.229  -4.541  1.00 20.00    -0.040 A 
HETATM    8  C9  UNL     1     -31.641  18.204  -1.053  1.00 20.00     0.027 C 
HETATM    9  C10 UNL     1     -34.301  18.603  -6.004  1.00 20.00     0.015 C 
HETATM   10  C11 UNL     1     -35.804  17.974  -4.096  1.00 20.00     0.015 C 
ENDROOT
BRANCH   6  11
HETATM   11  C1  UNL     1     -33.741  18.594   0.162  1.00 20.00     0.181 C 
HETATM   12  O12 UNL     1     -34.944  18.975   0.147  1.00 20.00    -0.647 OA
HETATM   13  O13 UNL     1     -32.939  18.478   1.131  1.00 20.00    -0.647 OA
ENDBRANCH   6  11
TORSDOF 1
ENDMDL
MODEL 4
REMARK VINA RESULT:      -3.8     24.213     25.382
REMARK  1 active torsions:
REMARK  status: ('A' for Active; 'I' for Inactive)
REMARK    1  A    between atoms: C1_1  and  C7_7 
ROOT
HETATM    1  C2  UNL     1     -27.514  -1.781   9.689  1.00 20.00     0.007 C 
HETATM    2  C3  UNL     1     -28.893  -1.933  10.335  1.00 20.00     0.020 C 
HETATM    3  C4  UNL     1     -27.986  -3.170  12.332  1.00 20.00     0.026 C 
HETATM    4  C5  UNL     1     -26.360  -2.294  10.496  1.00 20.00    -0.002 A 
HETATM    5  C6  UNL     1     -26.590  -3.009  11.807  1.00 20.00    -0.000 A 
HETATM    6  C7  UNL     1     -29.022  -3.184  11.205  1.00 20.00     0.045 C 
HETATM    7  C8  UNL     1     -25.847  -1.675  11.786  1.00 20.00    -0.040 A 
HETATM    8  C9  UNL     1     -28.999  -4.478  10.394  1.00 20.00     0.027 C 
HETATM    9  C10 UNL     1     -24.355  -1.732  12.020  1.00 20.00     0.015 C 
HETATM   10  C11 UNL     1     -26.469  -0.417  12.332  1.00 20.00     0.015 C 
ENDROOT
BRANCH   6  11
HETATM   11  C1  UNL     1     -30.393  -3.092  11.869  1.00 20.00     0.181 C 
HETATM   12  O12 UNL     1     -31.057  -4.165  11.885  1.00 20.00    -0.647 OA
HETATM   13  O13 UNL     1     -30.688  -1.949  12.318  1.00 20.00    -0.647 OA
ENDBRANCH   6  11
TORSDOF 1
ENDMDL
MODEL 5
REMARK VINA RESULT:      -3.6      1.572      2.583
REMARK  1 active torsions:
REMARK  status: ('A' for Active; 'I' for Inactive)
REMARK    1  A    between atoms: C1_1  and  C7_7 
ROOT
HETATM    1  C2  UNL     1     -33.271  15.702  -3.750  1.00 20.00     0.007 C 
HETATM    2  C3  UNL     1     -33.508  15.264  -5.197  1.00 20.00     0.020 C 
HETATM    3  C4  UNL     1     -35.528  16.741  -5.471  1.00 20.00     0.026 C 
HETATM    4  C5  UNL     1     -34.189  16.770  -3.237  1.00 20.00    -0.002 A 
HETATM    5  C6  UNL     1     -35.333  17.278  -4.084  1.00 20.00    -0.000 A 
HETATM    6  C7  UNL     1     -34.977  15.321  -5.616  1.00 20.00     0.045 C 
HETATM    7  C8  UNL     1     -34.194  18.219  -3.698  1.00 20.00    -0.040 A 
HETATM    8  C9  UNL     1     -35.838  14.276  -4.911  1.00 20.00     0.027 C 
HETATM    9  C10 UNL     1     -34.509  19.263  -2.651  1.00 20.00     0.015 C 
HETATM   10  C11 UNL     1     -33.192  18.703  -4.712  1.00 20.00     0.015 C 
ENDROOT
BRANCH   6  11
HETATM   11  C1  UNL     1     -34.999  14.992  -7.107  1.00 20.00     0.181 C 
HETATM   12  O12 UNL     1     -36.096  14.547  -7.545  1.00 20.00    -0.647 OA
HETATM   13  O13 UNL     1     -33.912  15.209  -7.713  1.00 20.00    -0.647 OA
ENDBRANCH   6  11
TORSDOF 1
ENDMDL
MODEL 6
REMARK VINA RESULT:      -3.6     12.683     14.274
REMARK  1 active torsions:
REMARK  status: ('A' for Active; 'I' for Inactive)
REMARK    1  A    between atoms: C1_1  and  C7_7 
ROOT
HETATM    1  C2  UNL     1     -42.888  12.760   7.060  1.00 20.00     0.007 C 
HETATM    2  C3  UNL     1     -43.171  14.190   7.528  1.00 20.00     0.020 C 
HETATM    3  C4  UNL     1     -40.757  14.883   7.359  1.00 20.00     0.026 C 
HETATM    4  C5  UNL     1     -41.471  12.477   6.662  1.00 20.00    -0.002 A 
HETATM    5  C6  UNL     1     -40.397  13.527   6.829  1.00 20.00    -0.000 A 
HETATM    6  C7  UNL     1     -41.993  14.835   8.260  1.00 20.00     0.045 C 
HETATM    7  C8  UNL     1     -40.776  13.040   5.433  1.00 20.00    -0.040 A 
HETATM    8  C9  UNL     1     -41.714  14.195   9.617  1.00 20.00     0.027 C 
HETATM    9  C10 UNL     1     -39.781  12.136   4.742  1.00 20.00     0.015 C 
HETATM   10  C11 UNL     1     -41.523  13.920   4.467  1.00 20.00     0.015 C 
ENDROOT
BRANCH   6  11
HETATM   11  C1  UNL     1     -42.404  16.281   8.518  1.00 20.00     0.181 C 
HETATM   12  O12 UNL     1     -41.750  16.875   9.420  1.00 20.00    -0.647 OA
HETATM   13  O13 UNL     1     -43.350  16.701   7.794  1.00 20.00    -0.647 OA
ENDBRANCH   6  11
TORSDOF 1
ENDMDL
MODEL 7
REMARK VINA RESULT:      -3.6      2.367      4.340
REMARK  1 active torsions:
REMARK  status: ('A' for Active; 'I' for Inactive)
REMARK    1  A    between atoms: C1_1  and  C7_7 
ROOT
HETATM    1  C2  UNL     1     -33.201  15.278  -4.418  1.00 20.00     0.007 C 
HETATM    2  C3  UNL     1     -33.636  16.043  -3.166  1.00 20.00     0.020 C 
HETATM    3  C4  UNL     1     -35.270  17.482  -4.431  1.00 20.00     0.026 C 
HETATM    4  C5  UNL     1     -33.935  15.626  -5.678  1.00 20.00    -0.002 A 
HETATM    5  C6  UNL     1     -34.954  16.741  -5.696  1.00 20.00    -0.000 A 
HETATM    6  C7  UNL     1     -34.090  17.474  -3.455  1.00 20.00     0.045 C 
HETATM    7  C8  UNL     1     -35.393  15.304  -5.961  1.00 20.00    -0.040 A 
HETATM    8  C9  UNL     1     -32.947  18.383  -3.899  1.00 20.00     0.027 C 
HETATM    9  C10 UNL     1     -35.747  14.961  -7.391  1.00 20.00     0.015 C 
HETATM   10  C11 UNL     1     -36.214  14.532  -4.963  1.00 20.00     0.015 C 
ENDROOT
BRANCH   6  11
HETATM   11  C1  UNL     1     -34.613  18.022  -2.130  1.00 20.00     0.181 C 
HETATM   12  O12 UNL     1     -33.951  17.687  -1.109  1.00 20.00    -0.647 OA
HETATM   13  O13 UNL     1     -35.647  18.742  -2.226  1.00 20.00    -0.647 OA
ENDBRANCH   6  11
TORSDOF 1
ENDMDL
MODEL 8
REMARK VINA RESULT:      -3.6     12.390     13.682
REMARK  1 active torsions:
REMARK  status: ('A' for Active; 'I' for Inactive)
REMARK    1  A    between atoms: C1_1  and  C7_7 
ROOT
HETATM    1  C2  UNL     1     -41.629  14.837   8.974  1.00 20.00     0.007 C 
HETATM    2  C3  UNL     1     -40.737  13.937   8.117  1.00 20.00     0.020 C 
HETATM    3  C4  UNL     1     -41.804  14.679   5.960  1.00 20.00     0.026 C 
HETATM    4  C5  UNL     1     -42.566  15.729   8.218  1.00 20.00    -0.002 A 
HETATM    5  C6  UNL     1     -42.674  15.641   6.714  1.00 20.00    -0.000 A 
HETATM    6  C7  UNL     1     -41.404  13.477   6.820  1.00 20.00     0.045 C 
HETATM    7  C8  UNL     1     -42.150  16.917   7.366  1.00 20.00    -0.040 A 
HETATM    8  C9  UNL     1     -42.558  12.506   7.055  1.00 20.00     0.027 C 
HETATM    9  C10 UNL     1     -43.082  18.108   7.360  1.00 20.00     0.015 C 
HETATM   10  C11 UNL     1     -40.703  17.318   7.266  1.00 20.00     0.015 C 
ENDROOT
BRANCH   6  11
HETATM   11  C1  UNL     1     -40.329  12.721   6.043  1.00 20.00     0.181 C 
HETATM   12  O12 UNL     1     -40.408  12.812   4.786  1.00 20.00    -0.647 OA
HETATM   13  O13 UNL     1     -39.496  12.099   6.760  1.00 20.00    -0.647 OA
ENDBRANCH   6  11
TORSDOF 1
ENDMDL
MODEL 9
REMARK VINA RESULT:      -3.6     24.470     25.733
REMARK  1 active torsions:
REMARK  status: ('A' for Active; 'I' for Inactive)
REMARK    1  A    between atoms: C1_1  and  C7_7 
ROOT
HETATM    1  C2  UNL     1     -25.294  -1.284  12.247  1.00 20.00     0.007 C 
HETATM    2  C3  UNL     1     -26.795  -1.569  12.331  1.00 20.00     0.020 C 
HETATM    3  C4  UNL     1     -26.786  -3.028  10.279  1.00 20.00     0.026 C 
HETATM    4  C5  UNL     1     -24.558  -2.004  11.158  1.00 20.00    -0.002 A 
HETATM    5  C6  UNL     1     -25.300  -2.860  10.158  1.00 20.00    -0.000 A 
HETATM    6  C7  UNL     1     -27.442  -1.829  10.970  1.00 20.00     0.045 C 
HETATM    7  C8  UNL     1     -24.299  -3.501  11.114  1.00 20.00    -0.040 A 
HETATM    8  C9  UNL     1     -27.487  -0.586  10.085  1.00 20.00     0.027 C 
HETATM    9  C10 UNL     1     -22.984  -3.946  10.514  1.00 20.00     0.015 C 
HETATM   10  C11 UNL     1     -24.745  -4.388  12.246  1.00 20.00     0.015 C 
ENDROOT
BRANCH   6  11
HETATM   11  C1  UNL     1     -28.885  -2.229  11.263  1.00 20.00     0.181 C 
HETATM   12  O12 UNL     1     -29.544  -1.401  11.952  1.00 20.00    -0.647 OA
HETATM   13  O13 UNL     1     -29.236  -3.340  10.777  1.00 20.00    -0.647 OA
ENDBRANCH   6  11
TORSDOF 1
ENDMDL
