MODEL 1
REMARK VINA RESULT:      -3.4      0.000      0.000
REMARK  1 active torsions:
REMARK  status: ('A' for Active; 'I' for Inactive)
REMARK    1  A    between atoms: C1_1  and  C3_3 
ROOT
HETATM    1  C1  UNL     1     -33.657   7.562   4.742  1.00 20.00     0.181 A 
HETATM    2  C2  UNL     1     -33.621   6.853   6.066  1.00 20.00     0.247 A 
HETATM    3  O4  UNL     1     -34.094   8.202   5.948  1.00 20.00    -0.358 OA
HETATM    4 CL5  UNL     1     -34.765   5.586   6.404  1.00 20.00    -0.092 Cl
ENDROOT
BRANCH   1   5
HETATM    5  C3  UNL     1     -32.425   8.143   4.150  1.00 20.00     0.150 C 
HETATM    6 CL6  UNL     1     -32.099   7.463   2.529  1.00 20.00    -0.128 Cl
ENDBRANCH   1   5
TORSDOF 1
ENDMDL
MODEL 2
REMARK VINA RESULT:      -3.4      0.851      3.320
REMARK  1 active torsions:
REMARK  status: ('A' for Active; 'I' for Inactive)
REMARK    1  A    between atoms: C1_1  and  C3_3 
ROOT
HETATM    1  C1  UNL     1     -33.107   7.346   5.526  1.00 20.00     0.181 A 
HETATM    2  C2  UNL     1     -33.321   7.903   4.148  1.00 20.00     0.247 A 
HETATM    3  O4  UNL     1     -32.950   8.743   5.249  1.00 20.00    -0.358 OA
HETATM    4 CL5  UNL     1     -32.154   7.593   2.895  1.00 20.00    -0.092 Cl
ENDROOT
BRANCH   1   5
HETATM    5  C3  UNL     1     -34.257   7.019   6.408  1.00 20.00     0.150 C 
HETATM    6 CL6  UNL     1     -34.750   5.310   6.228  1.00 20.00    -0.128 Cl
ENDBRANCH   1   5
TORSDOF 1
ENDMDL
MODEL 3
REMARK VINA RESULT:      -3.4      1.338      3.549
REMARK  1 active torsions:
REMARK  status: ('A' for Active; 'I' for Inactive)
REMARK    1  A    between atoms: C1_1  and  C3_3 
ROOT
HETATM    1  C1  UNL     1     -33.882   7.461   4.844  1.00 20.00     0.181 A 
HETATM    2  C2  UNL     1     -32.588   7.814   4.169  1.00 20.00     0.247 A 
HETATM    3  O4  UNL     1     -33.256   6.572   3.911  1.00 20.00    -0.358 OA
HETATM    4 CL5  UNL     1     -32.562   9.030   2.923  1.00 20.00    -0.092 Cl
ENDROOT
BRANCH   1   5
HETATM    5  C3  UNL     1     -33.905   6.965   6.245  1.00 20.00     0.150 C 
HETATM    6 CL6  UNL     1     -34.649   5.344   6.349  1.00 20.00    -0.128 Cl
ENDBRANCH   1   5
TORSDOF 1
ENDMDL
MODEL 4
REMARK VINA RESULT:      -3.2      1.443      3.077
REMARK  1 active torsions:
REMARK  status: ('A' for Active; 'I' for Inactive)
REMARK    1  A    between atoms: C1_1  and  C3_3 
ROOT
HETATM    1  C1  UNL     1     -33.665   6.747   5.990  1.00 20.00     0.181 A 
HETATM    2  C2  UNL     1     -33.632   7.815   4.935  1.00 20.00     0.247 A 
HETATM    3  O4  UNL     1     -34.202   8.054   6.228  1.00 20.00    -0.358 OA
HETATM    4 CL5  UNL     1     -32.126   8.585   4.524  1.00 20.00    -0.092 Cl
ENDROOT
BRANCH   1   5
HETATM    5  C3  UNL     1     -34.680   5.663   5.951  1.00 20.00     0.150 C 
HETATM    6 CL6  UNL     1     -34.328   4.489   4.650  1.00 20.00    -0.128 Cl
ENDBRANCH   1   5
TORSDOF 1
ENDMDL
MODEL 5
REMARK VINA RESULT:      -3.2      2.819      3.841
REMARK  1 active torsions:
REMARK  status: ('A' for Active; 'I' for Inactive)
REMARK    1  A    between atoms: C1_1  and  C3_3 
ROOT
HETATM    1  C1  UNL     1     -34.625   5.344   4.685  1.00 20.00     0.181 A 
HETATM    2  C2  UNL     1     -33.306   5.021   4.044  1.00 20.00     0.247 A 
HETATM    3  O4  UNL     1     -34.254   3.996   4.372  1.00 20.00    -0.358 OA
HETATM    4 CL5  UNL     1     -33.035   5.412   2.369  1.00 20.00    -0.092 Cl
ENDROOT
BRANCH   1   5
HETATM    5  C3  UNL     1     -34.720   5.634   6.139  1.00 20.00     0.150 C 
HETATM    6 CL6  UNL     1     -34.157   7.289   6.510  1.00 20.00    -0.128 Cl
ENDBRANCH   1   5
TORSDOF 1
ENDMDL
MODEL 6
REMARK VINA RESULT:      -3.2      1.391      1.391
REMARK  1 active torsions:
REMARK  status: ('A' for Active; 'I' for Inactive)
REMARK    1  A    between atoms: C1_1  and  C3_3 
ROOT
HETATM    1  C1  UNL     1     -33.359   7.609   4.207  1.00 20.00     0.181 A 
HETATM    2  C2  UNL     1     -33.105   7.283   5.651  1.00 20.00     0.247 A 
HETATM    3  O4  UNL     1     -32.861   8.593   5.122  1.00 20.00    -0.358 OA
HETATM    4 CL5  UNL     1     -34.445   7.050   6.738  1.00 20.00    -0.092 Cl
ENDROOT
BRANCH   1   5
HETATM    5  C3  UNL     1     -32.395   7.208   3.150  1.00 20.00     0.150 C 
HETATM    6 CL6  UNL     1     -32.734   5.558   2.552  1.00 20.00    -0.128 Cl
ENDBRANCH   1   5
TORSDOF 1
ENDMDL
MODEL 7
REMARK VINA RESULT:      -3.1      1.345      3.458
REMARK  1 active torsions:
REMARK  status: ('A' for Active; 'I' for Inactive)
REMARK    1  A    between atoms: C1_1  and  C3_3 
ROOT
HETATM    1  C1  UNL     1     -33.630   6.657   4.476  1.00 20.00     0.181 A 
HETATM    2  C2  UNL     1     -33.562   8.156   4.527  1.00 20.00     0.247 A 
HETATM    3  O4  UNL     1     -33.019   7.343   5.576  1.00 20.00    -0.358 OA
HETATM    4 CL5  UNL     1     -32.470   9.012   3.476  1.00 20.00    -0.092 Cl
ENDROOT
BRANCH   1   5
HETATM    5  C3  UNL     1     -34.881   5.934   4.821  1.00 20.00     0.150 C 
HETATM    6 CL6  UNL     1     -34.822   5.286   6.485  1.00 20.00    -0.128 Cl
ENDBRANCH   1   5
TORSDOF 1
ENDMDL
MODEL 8
REMARK VINA RESULT:      -3.0      2.461      2.484
REMARK  1 active torsions:
REMARK  status: ('A' for Active; 'I' for Inactive)
REMARK    1  A    between atoms: C1_1  and  C3_3 
ROOT
HETATM    1  C1  UNL     1     -33.395   5.287   4.184  1.00 20.00     0.181 A 
HETATM    2  C2  UNL     1     -34.721   5.628   4.802  1.00 20.00     0.247 A 
HETATM    3  O4  UNL     1     -34.398   4.288   4.406  1.00 20.00    -0.358 OA
HETATM    4 CL5  UNL     1     -34.817   6.005   6.499  1.00 20.00    -0.092 Cl
ENDROOT
BRANCH   1   5
HETATM    5  C3  UNL     1     -33.121   5.575   2.752  1.00 20.00     0.150 C 
HETATM    6 CL6  UNL     1     -32.245   7.120   2.555  1.00 20.00    -0.128 Cl
ENDBRANCH   1   5
TORSDOF 1
ENDMDL
MODEL 9
REMARK VINA RESULT:      -3.0      2.000      2.000
REMARK  1 active torsions:
REMARK  status: ('A' for Active; 'I' for Inactive)
REMARK    1  A    between atoms: C1_1  and  C3_3 
ROOT
HETATM    1  C1  UNL     1     -33.124   6.638   4.464  1.00 20.00     0.181 A 
HETATM    2  C2  UNL     1     -34.532   6.288   4.850  1.00 20.00     0.247 A 
HETATM    3  O4  UNL     1     -33.897   5.698   3.708  1.00 20.00    -0.358 OA
HETATM    4 CL5  UNL     1     -34.829   5.300   6.252  1.00 20.00    -0.092 Cl
ENDROOT
BRANCH   1   5
HETATM    5  C3  UNL     1     -32.818   7.902   3.745  1.00 20.00     0.150 C 
HETATM    6 CL6  UNL     1     -32.217   9.158   4.865  1.00 20.00    -0.128 Cl
ENDBRANCH   1   5
TORSDOF 1
ENDMDL
