MODEL 1
REMARK VINA RESULT:      -5.2      0.000      0.000
REMARK  3 active torsions:
REMARK  status: ('A' for Active; 'I' for Inactive)
REMARK    1  A    between atoms: C3_3  and  C4_4 
REMARK    2  A    between atoms: C4_4  and  C5_5 
REMARK    3  A    between atoms: C7_7  and  O10_10 
ROOT
HETATM    1  C1  UNL     1     -34.172   6.471   6.534  1.00 20.00     0.006 C 
HETATM    2  C2  UNL     1     -34.615   5.239   6.269  1.00 20.00    -0.023 C 
HETATM    3  C3  UNL     1     -33.891   7.187   5.317  1.00 20.00    -0.027 C 
HETATM    4  C6  UNL     1     -34.709   4.980   4.798  1.00 20.00     0.064 C 
HETATM    5  C7  UNL     1     -34.103   6.242   4.165  1.00 20.00     0.157 C 
ENDROOT
BRANCH   3   6
HETATM    6  C4  UNL     1     -33.523   8.468   5.236  1.00 20.00     0.051 C 
BRANCH   6   7
HETATM    7  C5  UNL     1     -32.350   8.793   4.403  1.00 20.00     0.259 C 
HETATM    8  O9  UNL     1     -32.453   9.102   3.222  1.00 20.00    -0.302 OA
ENDBRANCH   6   7
ENDBRANCH   3   6
BRANCH   5   9
HETATM    9  O10 UNL     1     -32.845   5.935   3.576  1.00 20.00    -0.386 OA
HETATM   10  C8  UNL     1     -32.989   5.045   2.478  1.00 20.00     0.202 C 
ENDBRANCH   5   9
TORSDOF 3
ENDMDL
MODEL 2
REMARK VINA RESULT:      -4.7      1.089      1.126
REMARK  3 active torsions:
REMARK  status: ('A' for Active; 'I' for Inactive)
REMARK    1  A    between atoms: C3_3  and  C4_4 
REMARK    2  A    between atoms: C4_4  and  C5_5 
REMARK    3  A    between atoms: C7_7  and  O10_10 
ROOT
HETATM    1  C1  UNL     1     -33.733   6.982   6.347  1.00 20.00     0.006 C 
HETATM    2  C2  UNL     1     -34.501   5.933   6.649  1.00 20.00    -0.023 C 
HETATM    3  C3  UNL     1     -33.747   7.236   4.931  1.00 20.00    -0.027 C 
HETATM    4  C6  UNL     1     -35.162   5.352   5.439  1.00 20.00     0.064 C 
HETATM    5  C7  UNL     1     -34.554   6.148   4.274  1.00 20.00     0.157 C 
ENDROOT
BRANCH   3   6
HETATM    6  C4  UNL     1     -33.157   8.266   4.319  1.00 20.00     0.051 C 
BRANCH   6   7
HETATM    7  C5  UNL     1     -31.988   7.980   3.466  1.00 20.00     0.259 C 
HETATM    8  O9  UNL     1     -32.083   7.838   2.253  1.00 20.00    -0.302 OA
ENDBRANCH   6   7
ENDBRANCH   3   6
BRANCH   5   9
HETATM    9  O10 UNL     1     -33.685   5.315   3.516  1.00 20.00    -0.386 OA
HETATM   10  C8  UNL     1     -33.712   3.973   3.984  1.00 20.00     0.202 C 
ENDBRANCH   5   9
TORSDOF 3
ENDMDL
MODEL 3
REMARK VINA RESULT:      -4.6      1.212      2.678
REMARK  3 active torsions:
REMARK  status: ('A' for Active; 'I' for Inactive)
REMARK    1  A    between atoms: C3_3  and  C4_4 
REMARK    2  A    between atoms: C4_4  and  C5_5 
REMARK    3  A    between atoms: C7_7  and  O10_10 
ROOT
HETATM    1  C1  UNL     1     -34.805   5.187   4.783  1.00 20.00     0.006 C 
HETATM    2  C2  UNL     1     -34.973   5.498   6.071  1.00 20.00    -0.023 C 
HETATM    3  C3  UNL     1     -33.754   5.977   4.198  1.00 20.00    -0.027 C 
HETATM    4  C6  UNL     1     -34.011   6.550   6.525  1.00 20.00     0.064 C 
HETATM    5  C7  UNL     1     -33.281   6.959   5.236  1.00 20.00     0.157 C 
ENDROOT
BRANCH   3   6
HETATM    6  C4  UNL     1     -33.279   5.844   2.957  1.00 20.00     0.051 C 
BRANCH   6   7
HETATM    7  C5  UNL     1     -32.101   6.648   2.583  1.00 20.00     0.259 C 
HETATM    8  O9  UNL     1     -32.185   7.633   1.858  1.00 20.00    -0.302 OA
ENDBRANCH   6   7
ENDBRANCH   3   6
BRANCH   5   9
HETATM    9  O10 UNL     1     -33.673   8.271   4.851  1.00 20.00    -0.386 OA
HETATM   10  C8  UNL     1     -32.590   9.186   4.943  1.00 20.00     0.202 C 
ENDBRANCH   5   9
TORSDOF 3
ENDMDL
MODEL 4
REMARK VINA RESULT:      -4.5      1.636      3.703
REMARK  3 active torsions:
REMARK  status: ('A' for Active; 'I' for Inactive)
REMARK    1  A    between atoms: C3_3  and  C4_4 
REMARK    2  A    between atoms: C4_4  and  C5_5 
REMARK    3  A    between atoms: C7_7  and  O10_10 
ROOT
HETATM    1  C1  UNL     1     -33.547   5.037   3.344  1.00 20.00     0.006 C 
HETATM    2  C2  UNL     1     -32.604   5.531   2.538  1.00 20.00    -0.023 C 
HETATM    3  C3  UNL     1     -34.126   6.077   4.152  1.00 20.00    -0.027 C 
HETATM    4  C6  UNL     1     -32.447   7.011   2.697  1.00 20.00     0.064 C 
HETATM    5  C7  UNL     1     -33.380   7.353   3.869  1.00 20.00     0.157 C 
ENDROOT
BRANCH   3   6
HETATM    6  C4  UNL     1     -35.155   5.928   4.990  1.00 20.00     0.051 C 
BRANCH   6   7
HETATM    7  C5  UNL     1     -34.852   5.725   6.419  1.00 20.00     0.259 C 
HETATM    8  O9  UNL     1     -33.882   5.077   6.796  1.00 20.00    -0.302 OA
ENDBRANCH   6   7
ENDBRANCH   3   6
BRANCH   5   9
HETATM    9  O10 UNL     1     -32.613   7.708   5.013  1.00 20.00    -0.386 OA
HETATM   10  C8  UNL     1     -32.229   9.076   4.977  1.00 20.00     0.202 C 
ENDBRANCH   5   9
TORSDOF 3
ENDMDL
MODEL 5
REMARK VINA RESULT:      -4.3      1.218      3.273
REMARK  3 active torsions:
REMARK  status: ('A' for Active; 'I' for Inactive)
REMARK    1  A    between atoms: C3_3  and  C4_4 
REMARK    2  A    between atoms: C4_4  and  C5_5 
REMARK    3  A    between atoms: C7_7  and  O10_10 
ROOT
HETATM    1  C1  UNL     1     -33.437   8.755   5.360  1.00 20.00     0.006 C 
HETATM    2  C2  UNL     1     -32.521   9.115   4.457  1.00 20.00    -0.023 C 
HETATM    3  C3  UNL     1     -33.603   7.326   5.378  1.00 20.00    -0.027 C 
HETATM    4  C6  UNL     1     -31.928   7.934   3.756  1.00 20.00     0.064 C 
HETATM    5  C7  UNL     1     -32.746   6.746   4.286  1.00 20.00     0.157 C 
ENDROOT
BRANCH   3   6
HETATM    6  C4  UNL     1     -34.374   6.644   6.230  1.00 20.00     0.051 C 
BRANCH   6   7
HETATM    7  C5  UNL     1     -34.453   5.181   6.061  1.00 20.00     0.259 C 
HETATM    8  O9  UNL     1     -35.212   4.656   5.254  1.00 20.00    -0.302 OA
ENDBRANCH   6   7
ENDBRANCH   3   6
BRANCH   5   9
HETATM    9  O10 UNL     1     -33.585   6.236   3.256  1.00 20.00    -0.386 OA
HETATM   10  C8  UNL     1     -32.964   5.160   2.564  1.00 20.00     0.202 C 
ENDBRANCH   5   9
TORSDOF 3
ENDMDL
MODEL 6
REMARK VINA RESULT:      -4.2      1.541      3.464
REMARK  3 active torsions:
REMARK  status: ('A' for Active; 'I' for Inactive)
REMARK    1  A    between atoms: C3_3  and  C4_4 
REMARK    2  A    between atoms: C4_4  and  C5_5 
REMARK    3  A    between atoms: C7_7  and  O10_10 
ROOT
HETATM    1  C1  UNL     1     -33.714   8.316   5.206  1.00 20.00     0.006 C 
HETATM    2  C2  UNL     1     -32.548   8.916   4.950  1.00 20.00    -0.023 C 
HETATM    3  C3  UNL     1     -33.798   7.051   4.525  1.00 20.00    -0.027 C 
HETATM    4  C6  UNL     1     -31.674   8.091   4.059  1.00 20.00     0.064 C 
HETATM    5  C7  UNL     1     -32.566   6.900   3.674  1.00 20.00     0.157 C 
ENDROOT
BRANCH   3   6
HETATM    6  C4  UNL     1     -34.792   6.167   4.647  1.00 20.00     0.051 C 
BRANCH   6   7
HETATM    7  C5  UNL     1     -34.462   4.835   5.187  1.00 20.00     0.259 C 
HETATM    8  O9  UNL     1     -34.094   3.911   4.471  1.00 20.00    -0.302 OA
ENDBRANCH   6   7
ENDBRANCH   3   6
BRANCH   5   9
HETATM    9  O10 UNL     1     -32.933   6.992   2.302  1.00 20.00    -0.386 OA
HETATM   10  C8  UNL     1     -32.165   7.976   1.623  1.00 20.00     0.202 C 
ENDBRANCH   5   9
TORSDOF 3
ENDMDL
MODEL 7
REMARK VINA RESULT:      -4.1     15.296     16.092
REMARK  3 active torsions:
REMARK  status: ('A' for Active; 'I' for Inactive)
REMARK    1  A    between atoms: C3_3  and  C4_4 
REMARK    2  A    between atoms: C4_4  and  C5_5 
REMARK    3  A    between atoms: C7_7  and  O10_10 
ROOT
HETATM    1  C1  UNL     1     -23.885  16.888  10.315  1.00 20.00     0.006 C 
HETATM    2  C2  UNL     1     -24.409  16.422  11.452  1.00 20.00    -0.023 C 
HETATM    3  C3  UNL     1     -23.991  18.322  10.254  1.00 20.00    -0.027 C 
HETATM    4  C6  UNL     1     -24.925  17.521  12.326  1.00 20.00     0.064 C 
HETATM    5  C7  UNL     1     -24.758  18.782  11.464  1.00 20.00     0.157 C 
ENDROOT
BRANCH   3   6
HETATM    6  C4  UNL     1     -23.481  19.099   9.294  1.00 20.00     0.051 C 
BRANCH   6   7
HETATM    7  C5  UNL     1     -22.441  18.520   8.424  1.00 20.00     0.259 C 
HETATM    8  O9  UNL     1     -22.536  18.520   7.202  1.00 20.00    -0.302 OA
ENDBRANCH   6   7
ENDBRANCH   3   6
BRANCH   5   9
HETATM    9  O10 UNL     1     -26.033  19.263  11.054  1.00 20.00    -0.386 OA
HETATM   10  C8  UNL     1     -26.982  19.186  12.108  1.00 20.00     0.202 C 
ENDBRANCH   5   9
TORSDOF 3
ENDMDL
MODEL 8
REMARK VINA RESULT:      -4.0      1.706      3.856
REMARK  3 active torsions:
REMARK  status: ('A' for Active; 'I' for Inactive)
REMARK    1  A    between atoms: C3_3  and  C4_4 
REMARK    2  A    between atoms: C4_4  and  C5_5 
REMARK    3  A    between atoms: C7_7  and  O10_10 
ROOT
HETATM    1  C1  UNL     1     -31.981   8.035   3.691  1.00 20.00     0.006 C 
HETATM    2  C2  UNL     1     -32.332   9.058   4.475  1.00 20.00    -0.023 C 
HETATM    3  C3  UNL     1     -32.877   6.923   3.869  1.00 20.00    -0.027 C 
HETATM    4  C6  UNL     1     -33.555   8.754   5.282  1.00 20.00     0.064 C 
HETATM    5  C7  UNL     1     -33.843   7.278   4.967  1.00 20.00     0.157 C 
ENDROOT
BRANCH   3   6
HETATM    6  C4  UNL     1     -32.856   5.786   3.168  1.00 20.00     0.051 C 
BRANCH   6   7
HETATM    7  C5  UNL     1     -33.974   4.843   3.355  1.00 20.00     0.259 C 
HETATM    8  O9  UNL     1     -33.903   3.889   4.121  1.00 20.00    -0.302 OA
ENDBRANCH   6   7
ENDBRANCH   3   6
BRANCH   5   9
HETATM    9  O10 UNL     1     -33.567   6.475   6.109  1.00 20.00    -0.386 OA
HETATM   10  C8  UNL     1     -34.751   5.882   6.626  1.00 20.00     0.202 C 
ENDBRANCH   5   9
TORSDOF 3
ENDMDL
MODEL 9
REMARK VINA RESULT:      -4.0      1.363      1.821
REMARK  3 active torsions:
REMARK  status: ('A' for Active; 'I' for Inactive)
REMARK    1  A    between atoms: C3_3  and  C4_4 
REMARK    2  A    between atoms: C4_4  and  C5_5 
REMARK    3  A    between atoms: C7_7  and  O10_10 
ROOT
HETATM    1  C1  UNL     1     -32.994   7.766   5.630  1.00 20.00     0.006 C 
HETATM    2  C2  UNL     1     -33.997   7.121   6.234  1.00 20.00    -0.023 C 
HETATM    3  C3  UNL     1     -32.980   7.483   4.220  1.00 20.00    -0.027 C 
HETATM    4  C6  UNL     1     -34.813   6.322   5.267  1.00 20.00     0.064 C 
HETATM    5  C7  UNL     1     -34.053   6.465   3.940  1.00 20.00     0.157 C 
ENDROOT
BRANCH   3   6
HETATM    6  C4  UNL     1     -32.163   8.042   3.322  1.00 20.00     0.051 C 
BRANCH   6   7
HETATM    7  C5  UNL     1     -32.767   8.895   2.282  1.00 20.00     0.259 C 
HETATM    8  O9  UNL     1     -32.439   8.821   1.104  1.00 20.00    -0.302 OA
ENDBRANCH   6   7
ENDBRANCH   3   6
BRANCH   5   9
HETATM    9  O10 UNL     1     -33.444   5.227   3.593  1.00 20.00    -0.386 OA
HETATM   10  C8  UNL     1     -33.975   4.154   4.357  1.00 20.00     0.202 C 
ENDBRANCH   5   9
TORSDOF 3
ENDMDL
