MODEL 1
REMARK VINA RESULT:      -4.7      0.000      0.000
REMARK  0 active torsions:
REMARK  status: ('A' for Active; 'I' for Inactive)
ROOT
HETATM    1  C1  UNL     1     -31.871   9.772   5.129  1.00 20.00     0.012 C 
HETATM    2  C2  UNL     1     -32.580   8.845   4.846  1.00 20.00    -0.113 C 
HETATM    3  C3  UNL     1     -34.125   4.877   4.439  1.00 20.00     0.127 C 
HETATM    4  C4  UNL     1     -34.794   5.785   5.447  1.00 20.00     0.079 C 
HETATM    5  C5  UNL     1     -33.573   5.539   3.197  1.00 20.00     0.079 C 
HETATM    6  C6  UNL     1     -33.905   6.979   5.769  1.00 20.00     0.024 C 
HETATM    7  C7  UNL     1     -32.710   6.738   3.566  1.00 20.00     0.024 C 
HETATM    8  C8  UNL     1     -33.448   7.708   4.498  1.00 20.00     0.065 C 
HETATM    9  O9  UNL     1     -34.123   3.655   4.573  1.00 20.00    -0.298 OA
ENDROOT
TORSDOF 0
ENDMDL
MODEL 2
REMARK VINA RESULT:      -4.5      1.610      2.674
REMARK  0 active torsions:
REMARK  status: ('A' for Active; 'I' for Inactive)
ROOT
HETATM    1  C1  UNL     1     -32.074   8.389   1.058  1.00 20.00     0.012 C 
HETATM    2  C2  UNL     1     -32.283   7.819   2.094  1.00 20.00    -0.113 C 
HETATM    3  C3  UNL     1     -34.272   6.140   5.488  1.00 20.00     0.127 C 
HETATM    4  C4  UNL     1     -33.767   5.181   4.433  1.00 20.00     0.079 C 
HETATM    5  C5  UNL     1     -33.453   7.390   5.711  1.00 20.00     0.079 C 
HETATM    6  C6  UNL     1     -33.466   5.920   3.135  1.00 20.00     0.024 C 
HETATM    7  C7  UNL     1     -33.159   8.083   4.387  1.00 20.00     0.024 C 
HETATM    8  C8  UNL     1     -32.538   7.121   3.365  1.00 20.00     0.065 C 
HETATM    9  O9  UNL     1     -35.238   5.866   6.199  1.00 20.00    -0.298 OA
ENDROOT
TORSDOF 0
ENDMDL
MODEL 3
REMARK VINA RESULT:      -4.4      2.367      3.761
REMARK  0 active torsions:
REMARK  status: ('A' for Active; 'I' for Inactive)
ROOT
HETATM    1  C1  UNL     1     -34.998   5.408   6.676  1.00 20.00     0.012 C 
HETATM    2  C2  UNL     1     -34.218   6.017   5.997  1.00 20.00    -0.113 C 
HETATM    3  C3  UNL     1     -32.566   8.567   2.986  1.00 20.00     0.127 C 
HETATM    4  C4  UNL     1     -32.559   9.076   4.410  1.00 20.00     0.079 C 
HETATM    5  C5  UNL     1     -32.400   7.076   2.801  1.00 20.00     0.079 C 
HETATM    6  C6  UNL     1     -33.521   8.271   5.274  1.00 20.00     0.024 C 
HETATM    7  C7  UNL     1     -33.366   6.313   3.699  1.00 20.00     0.024 C 
HETATM    8  C8  UNL     1     -33.261   6.763   5.162  1.00 20.00     0.065 C 
HETATM    9  O9  UNL     1     -32.600   9.336   2.026  1.00 20.00    -0.298 OA
ENDROOT
TORSDOF 0
ENDMDL
MODEL 4
REMARK VINA RESULT:      -4.4     12.394     13.128
REMARK  0 active torsions:
REMARK  status: ('A' for Active; 'I' for Inactive)
ROOT
HETATM    1  C1  UNL     1     -33.317  16.291  -3.038  1.00 20.00     0.012 C 
HETATM    2  C2  UNL     1     -33.165  17.137  -2.199  1.00 20.00    -0.113 C 
HETATM    3  C3  UNL     1     -32.269  19.084   1.502  1.00 20.00     0.127 C 
HETATM    4  C4  UNL     1     -31.287  19.263   0.367  1.00 20.00     0.079 C 
HETATM    5  C5  UNL     1     -33.726  18.954   1.120  1.00 20.00     0.079 C 
HETATM    6  C6  UNL     1     -31.515  18.211  -0.711  1.00 20.00     0.024 C 
HETATM    7  C7  UNL     1     -33.903  17.909   0.027  1.00 20.00     0.024 C 
HETATM    8  C8  UNL     1     -32.979  18.173  -1.170  1.00 20.00     0.065 C 
HETATM    9  O9  UNL     1     -31.914  19.147   2.678  1.00 20.00    -0.298 OA
ENDROOT
TORSDOF 0
ENDMDL
MODEL 5
REMARK VINA RESULT:      -4.3      1.483      2.138
REMARK  0 active torsions:
REMARK  status: ('A' for Active; 'I' for Inactive)
ROOT
HETATM    1  C1  UNL     1     -31.814   8.100   1.984  1.00 20.00     0.012 C 
HETATM    2  C2  UNL     1     -32.612   7.741   2.805  1.00 20.00    -0.113 C 
HETATM    3  C3  UNL     1     -34.421   5.724   6.115  1.00 20.00     0.127 C 
HETATM    4  C4  UNL     1     -34.080   7.186   6.293  1.00 20.00     0.079 C 
HETATM    5  C5  UNL     1     -34.837   5.292   4.727  1.00 20.00     0.079 C 
HETATM    6  C6  UNL     1     -33.097   7.643   5.223  1.00 20.00     0.024 C 
HETATM    7  C7  UNL     1     -33.839   5.789   3.689  1.00 20.00     0.024 C 
HETATM    8  C8  UNL     1     -33.592   7.299   3.811  1.00 20.00     0.065 C 
HETATM    9  O9  UNL     1     -34.460   4.949   7.070  1.00 20.00    -0.298 OA
ENDROOT
TORSDOF 0
ENDMDL
MODEL 6
REMARK VINA RESULT:      -4.2     12.266     13.249
REMARK  0 active torsions:
REMARK  status: ('A' for Active; 'I' for Inactive)
ROOT
HETATM    1  C1  UNL     1     -33.632  17.429  -1.103  1.00 20.00     0.012 C 
HETATM    2  C2  UNL     1     -33.585  17.080  -2.250  1.00 20.00    -0.113 C 
HETATM    3  C3  UNL     1     -34.612  15.341  -6.021  1.00 20.00     0.127 C 
HETATM    4  C4  UNL     1     -34.659  16.849  -5.914  1.00 20.00     0.079 C 
HETATM    5  C5  UNL     1     -33.558  14.639  -5.196  1.00 20.00     0.079 C 
HETATM    6  C6  UNL     1     -34.677  17.284  -4.454  1.00 20.00     0.024 C 
HETATM    7  C7  UNL     1     -33.598  15.120  -3.751  1.00 20.00     0.024 C 
HETATM    8  C8  UNL     1     -33.528  16.650  -3.657  1.00 20.00     0.065 C 
HETATM    9  O9  UNL     1     -35.323  14.728  -6.816  1.00 20.00    -0.298 OA
ENDROOT
TORSDOF 0
ENDMDL
MODEL 7
REMARK VINA RESULT:      -4.1     12.518     13.215
REMARK  0 active torsions:
REMARK  status: ('A' for Active; 'I' for Inactive)
ROOT
HETATM    1  C1  UNL     1     -32.544  18.093  -1.492  1.00 20.00     0.012 C 
HETATM    2  C2  UNL     1     -33.135  17.391  -2.266  1.00 20.00    -0.113 C 
HETATM    3  C3  UNL     1     -34.284  15.330  -5.833  1.00 20.00     0.127 C 
HETATM    4  C4  UNL     1     -33.655  14.511  -4.729  1.00 20.00     0.079 C 
HETATM    5  C5  UNL     1     -35.136  16.502  -5.403  1.00 20.00     0.079 C 
HETATM    6  C6  UNL     1     -32.942  15.414  -3.730  1.00 20.00     0.024 C 
HETATM    7  C7  UNL     1     -34.393  17.363  -4.390  1.00 20.00     0.024 C 
HETATM    8  C8  UNL     1     -33.860  16.531  -3.216  1.00 20.00     0.065 C 
HETATM    9  O9  UNL     1     -34.194  14.998  -7.014  1.00 20.00    -0.298 OA
ENDROOT
TORSDOF 0
ENDMDL
MODEL 8
REMARK VINA RESULT:      -3.7     12.806     14.173
REMARK  0 active torsions:
REMARK  status: ('A' for Active; 'I' for Inactive)
ROOT
HETATM    1  C1  UNL     1     -34.322  15.192  -6.346  1.00 20.00     0.012 C 
HETATM    2  C2  UNL     1     -34.280  15.935  -5.404  1.00 20.00    -0.113 C 
HETATM    3  C3  UNL     1     -32.845  18.604  -2.386  1.00 20.00     0.127 C 
HETATM    4  C4  UNL     1     -33.661  19.200  -3.510  1.00 20.00     0.079 C 
HETATM    5  C5  UNL     1     -33.210  17.201  -1.956  1.00 20.00     0.079 C 
HETATM    6  C6  UNL     1     -33.743  18.234  -4.685  1.00 20.00     0.024 C 
HETATM    7  C7  UNL     1     -33.301  16.277  -3.163  1.00 20.00     0.024 C 
HETATM    8  C8  UNL     1     -34.228  16.845  -4.248  1.00 20.00     0.065 C 
HETATM    9  O9  UNL     1     -31.999  19.263  -1.783  1.00 20.00    -0.298 OA
ENDROOT
TORSDOF 0
ENDMDL
MODEL 9
REMARK VINA RESULT:      -3.7     10.435     11.127
REMARK  0 active torsions:
REMARK  status: ('A' for Active; 'I' for Inactive)
ROOT
HETATM    1  C1  UNL     1     -38.961  11.629   4.141  1.00 20.00     0.012 C 
HETATM    2  C2  UNL     1     -39.796  12.147   4.830  1.00 20.00    -0.113 C 
HETATM    3  C3  UNL     1     -42.048  15.068   6.996  1.00 20.00     0.127 C 
HETATM    4  C4  UNL     1     -42.654  14.528   5.721  1.00 20.00     0.079 C 
HETATM    5  C5  UNL     1     -41.199  14.109   7.799  1.00 20.00     0.079 C 
HETATM    6  C6  UNL     1     -41.595  13.837   4.872  1.00 20.00     0.024 C 
HETATM    7  C7  UNL     1     -40.170  13.426   6.908  1.00 20.00     0.024 C 
HETATM    8  C8  UNL     1     -40.820  12.782   5.676  1.00 20.00     0.065 C 
HETATM    9  O9  UNL     1     -42.315  16.194   7.411  1.00 20.00    -0.298 OA
ENDROOT
TORSDOF 0
ENDMDL
