MODEL 1
REMARK VINA RESULT:      -4.3      0.000      0.000
REMARK  2 active torsions:
REMARK  status: ('A' for Active; 'I' for Inactive)
REMARK    1  A    between atoms: C3_3  and  C4_4 
REMARK    2  A    between atoms: C4_4  and  S7_7 
ROOT
HETATM    1  C4  UNL     1     -33.336   6.432   3.841  1.00 20.00     0.162 C 
ENDROOT
BRANCH   1   2
HETATM    2  C3  UNL     1     -33.429   7.877   4.190  1.00 20.00     0.001 A 
HETATM    3  C1  UNL     1     -32.302   8.555   4.919  1.00 20.00     0.006 A 
HETATM    4  C2  UNL     1     -32.570   8.885   3.478  1.00 20.00     0.006 A 
ENDBRANCH   1   2
BRANCH   1   5
HETATM    5  S7  UNL     1     -34.579   5.465   4.653  1.00 20.00     0.230 S 
HETATM    6  O5  UNL     1     -34.200   4.069   4.577  1.00 20.00    -0.211 OA
HETATM    7  O6  UNL     1     -35.880   5.932   4.224  1.00 20.00    -0.211 OA
HETATM    8 CL8  UNL     1     -34.471   5.937   6.641  1.00 20.00     0.018 Cl
ENDBRANCH   1   5
TORSDOF 2
ENDMDL
MODEL 2
REMARK VINA RESULT:      -4.2      1.578      1.987
REMARK  2 active torsions:
REMARK  status: ('A' for Active; 'I' for Inactive)
REMARK    1  A    between atoms: C3_3  and  C4_4 
REMARK    2  A    between atoms: C4_4  and  S7_7 
ROOT
HETATM    1  C4  UNL     1     -33.715   6.968   5.571  1.00 20.00     0.162 C 
ENDROOT
BRANCH   1   2
HETATM    2  C3  UNL     1     -33.433   8.050   4.586  1.00 20.00     0.001 A 
HETATM    3  C1  UNL     1     -32.343   9.050   4.852  1.00 20.00     0.006 A 
HETATM    4  C2  UNL     1     -32.170   8.020   3.772  1.00 20.00     0.006 A 
ENDBRANCH   1   2
BRANCH   1   5
HETATM    5  S7  UNL     1     -34.569   5.599   4.836  1.00 20.00     0.230 S 
HETATM    6  O5  UNL     1     -35.823   6.078   4.290  1.00 20.00    -0.211 OA
HETATM    7  O6  UNL     1     -34.507   4.475   5.746  1.00 20.00    -0.211 OA
HETATM    8 CL8  UNL     1     -33.462   5.033   3.210  1.00 20.00     0.018 Cl
ENDBRANCH   1   5
TORSDOF 2
ENDMDL
MODEL 3
REMARK VINA RESULT:      -3.9      3.333      3.971
REMARK  2 active torsions:
REMARK  status: ('A' for Active; 'I' for Inactive)
REMARK    1  A    between atoms: C3_3  and  C4_4 
REMARK    2  A    between atoms: C4_4  and  S7_7 
ROOT
HETATM    1  C4  UNL     1     -33.251   7.133   5.954  1.00 20.00     0.162 C 
ENDROOT
BRANCH   1   2
HETATM    2  C3  UNL     1     -34.536   6.386   5.852  1.00 20.00     0.001 A 
HETATM    3  C1  UNL     1     -34.698   5.296   4.829  1.00 20.00     0.006 A 
HETATM    4  C2  UNL     1     -34.611   4.949   6.288  1.00 20.00     0.006 A 
ENDBRANCH   1   2
BRANCH   1   5
HETATM    5  S7  UNL     1     -33.017   8.251   4.599  1.00 20.00     0.230 S 
HETATM    6  O5  UNL     1     -32.036   9.244   4.984  1.00 20.00    -0.211 OA
HETATM    7  O6  UNL     1     -34.316   8.617   4.074  1.00 20.00    -0.211 OA
HETATM    8 CL8  UNL     1     -32.123   7.171   3.108  1.00 20.00     0.018 Cl
ENDBRANCH   1   5
TORSDOF 2
ENDMDL
MODEL 4
REMARK VINA RESULT:      -3.8      3.688      4.085
REMARK  2 active torsions:
REMARK  status: ('A' for Active; 'I' for Inactive)
REMARK    1  A    between atoms: C3_3  and  C4_4 
REMARK    2  A    between atoms: C4_4  and  S7_7 
ROOT
HETATM    1  C4  UNL     1     -34.058   7.785   4.534  1.00 20.00     0.162 C 
ENDROOT
BRANCH   1   2
HETATM    2  C3  UNL     1     -33.928   6.392   5.044  1.00 20.00     0.001 A 
HETATM    3  C1  UNL     1     -34.617   5.983   6.316  1.00 20.00     0.006 A 
HETATM    4  C2  UNL     1     -35.104   5.456   4.996  1.00 20.00     0.006 A 
ENDBRANCH   1   2
BRANCH   1   5
HETATM    5  S7  UNL     1     -32.524   8.416   3.910  1.00 20.00     0.230 S 
HETATM    6  O5  UNL     1     -31.765   7.315   3.353  1.00 20.00    -0.211 OA
HETATM    7  O6  UNL     1     -31.961   9.316   4.894  1.00 20.00    -0.211 OA
HETATM    8 CL8  UNL     1     -32.994   9.601   2.309  1.00 20.00     0.018 Cl
ENDBRANCH   1   5
TORSDOF 2
ENDMDL
MODEL 5
REMARK VINA RESULT:      -3.6      9.254      9.696
REMARK  2 active torsions:
REMARK  status: ('A' for Active; 'I' for Inactive)
REMARK    1  A    between atoms: C3_3  and  C4_4 
REMARK    2  A    between atoms: C4_4  and  S7_7 
ROOT
HETATM    1  C4  UNL     1     -40.695  13.125   5.442  1.00 20.00     0.162 C 
ENDROOT
BRANCH   1   2
HETATM    2  C3  UNL     1     -39.867  11.895   5.300  1.00 20.00     0.001 A 
HETATM    3  C1  UNL     1     -39.081  11.652   4.041  1.00 20.00     0.006 A 
HETATM    4  C2  UNL     1     -38.366  11.987   5.319  1.00 20.00     0.006 A 
ENDBRANCH   1   2
BRANCH   1   5
HETATM    5  S7  UNL     1     -41.379  13.287   7.069  1.00 20.00     0.230 S 
HETATM    6  O5  UNL     1     -40.296  13.507   8.005  1.00 20.00    -0.211 OA
HETATM    7  O6  UNL     1     -42.361  12.240   7.263  1.00 20.00    -0.211 OA
HETATM    8 CL8  UNL     1     -42.450  15.031   7.075  1.00 20.00     0.018 Cl
ENDBRANCH   1   5
TORSDOF 2
ENDMDL
MODEL 6
REMARK VINA RESULT:      -3.6      9.309      9.922
REMARK  2 active torsions:
REMARK  status: ('A' for Active; 'I' for Inactive)
REMARK    1  A    between atoms: C3_3  and  C4_4 
REMARK    2  A    between atoms: C4_4  and  S7_7 
ROOT
HETATM    1  C4  UNL     1     -40.843  13.262   5.408  1.00 20.00     0.162 C 
ENDROOT
BRANCH   1   2
HETATM    2  C3  UNL     1     -40.028  12.015   5.441  1.00 20.00     0.001 A 
HETATM    3  C1  UNL     1     -39.192  11.625   4.255  1.00 20.00     0.006 A 
HETATM    4  C2  UNL     1     -38.529  12.093   5.519  1.00 20.00     0.006 A 
ENDBRANCH   1   2
BRANCH   1   5
HETATM    5  S7  UNL     1     -41.722  13.529   6.924  1.00 20.00     0.230 S 
HETATM    6  O5  UNL     1     -42.575  14.688   6.764  1.00 20.00    -0.211 OA
HETATM    7  O6  UNL     1     -40.789  13.407   8.025  1.00 20.00    -0.211 OA
HETATM    8 CL8  UNL     1     -43.004  11.948   7.134  1.00 20.00     0.018 Cl
ENDBRANCH   1   5
TORSDOF 2
ENDMDL
MODEL 7
REMARK VINA RESULT:      -3.6      9.202      9.750
REMARK  2 active torsions:
REMARK  status: ('A' for Active; 'I' for Inactive)
REMARK    1  A    between atoms: C3_3  and  C4_4 
REMARK    2  A    between atoms: C4_4  and  S7_7 
ROOT
HETATM    1  C4  UNL     1     -40.829  13.224   5.260  1.00 20.00     0.162 C 
ENDROOT
BRANCH   1   2
HETATM    2  C3  UNL     1     -40.002  11.987   5.324  1.00 20.00     0.001 A 
HETATM    3  C1  UNL     1     -39.095  11.622   4.182  1.00 20.00     0.006 A 
HETATM    4  C2  UNL     1     -38.510  12.083   5.487  1.00 20.00     0.006 A 
ENDBRANCH   1   2
BRANCH   1   5
HETATM    5  S7  UNL     1     -41.744  13.496   6.753  1.00 20.00     0.230 S 
HETATM    6  O5  UNL     1     -42.209  12.217   7.249  1.00 20.00    -0.211 OA
HETATM    7  O6  UNL     1     -42.644  14.611   6.546  1.00 20.00    -0.211 OA
HETATM    8 CL8  UNL     1     -40.396  14.150   8.147  1.00 20.00     0.018 Cl
ENDBRANCH   1   5
TORSDOF 2
ENDMDL
MODEL 8
REMARK VINA RESULT:      -3.5     12.152     12.778
REMARK  2 active torsions:
REMARK  status: ('A' for Active; 'I' for Inactive)
REMARK    1  A    between atoms: C3_3  and  C4_4 
REMARK    2  A    between atoms: C4_4  and  S7_7 
ROOT
HETATM    1  C4  UNL     1     -34.242  16.461  -4.243  1.00 20.00     0.162 C 
ENDROOT
BRANCH   1   2
HETATM    2  C3  UNL     1     -33.216  16.611  -3.173  1.00 20.00     0.001 A 
HETATM    3  C1  UNL     1     -32.907  17.968  -2.605  1.00 20.00     0.006 A 
HETATM    4  C2  UNL     1     -33.633  16.952  -1.770  1.00 20.00     0.006 A 
ENDBRANCH   1   2
BRANCH   1   5
HETATM    5  S7  UNL     1     -34.121  14.898  -5.071  1.00 20.00     0.230 S 
HETATM    6  O5  UNL     1     -33.294  14.016  -4.273  1.00 20.00    -0.211 OA
HETATM    7  O6  UNL     1     -33.855  15.139  -6.474  1.00 20.00    -0.211 OA
HETATM    8 CL8  UNL     1     -35.991  14.069  -5.016  1.00 20.00     0.018 Cl
ENDBRANCH   1   5
TORSDOF 2
ENDMDL
MODEL 9
REMARK VINA RESULT:      -3.3     12.541     13.026
REMARK  2 active torsions:
REMARK  status: ('A' for Active; 'I' for Inactive)
REMARK    1  A    between atoms: C3_3  and  C4_4 
REMARK    2  A    between atoms: C4_4  and  S7_7 
ROOT
HETATM    1  C4  UNL     1     -34.376  16.558  -4.324  1.00 20.00     0.162 C 
ENDROOT
BRANCH   1   2
HETATM    2  C3  UNL     1     -33.261  16.705  -3.348  1.00 20.00     0.001 A 
HETATM    3  C1  UNL     1     -32.980  18.039  -2.713  1.00 20.00     0.006 A 
HETATM    4  C2  UNL     1     -33.555  16.921  -1.890  1.00 20.00     0.006 A 
ENDBRANCH   1   2
BRANCH   1   5
HETATM    5  S7  UNL     1     -34.421  14.942  -5.052  1.00 20.00     0.230 S 
HETATM    6  O5  UNL     1     -35.804  14.531  -5.177  1.00 20.00    -0.211 OA
HETATM    7  O6  UNL     1     -33.430  14.114  -4.397  1.00 20.00    -0.211 OA
HETATM    8 CL8  UNL     1     -33.753  15.155  -6.974  1.00 20.00     0.018 Cl
ENDBRANCH   1   5
TORSDOF 2
ENDMDL
