MODEL 1
REMARK VINA RESULT:      -3.0      0.000      0.000
REMARK  0 active torsions:
REMARK  status: ('A' for Active; 'I' for Inactive)
ROOT
HETATM    1  C1  UNL     1     -33.577   7.591   5.164  1.00 20.00     0.200 C 
HETATM    2  C2  UNL     1     -33.990   6.949   6.251  1.00 20.00     0.113 C 
HETATM    3  F3  UNL     1     -33.024   8.816   5.237  1.00 20.00    -0.219 F 
HETATM    4 CL4  UNL     1     -34.699   5.392   6.199  1.00 20.00    -0.095 Cl
ENDROOT
TORSDOF 0
ENDMDL
MODEL 2
REMARK VINA RESULT:      -2.9      2.758      2.911
REMARK  0 active torsions:
REMARK  status: ('A' for Active; 'I' for Inactive)
ROOT
HETATM    1  C1  UNL     1     -34.032   6.887   6.360  1.00 20.00     0.200 C 
HETATM    2  C2  UNL     1     -33.665   7.301   5.153  1.00 20.00     0.113 C 
HETATM    3  F3  UNL     1     -34.884   5.857   6.523  1.00 20.00    -0.219 F 
HETATM    4 CL4  UNL     1     -32.588   8.607   4.905  1.00 20.00    -0.095 Cl
ENDROOT
TORSDOF 0
ENDMDL
MODEL 3
REMARK VINA RESULT:      -2.9      1.958      2.065
REMARK  0 active torsions:
REMARK  status: ('A' for Active; 'I' for Inactive)
ROOT
HETATM    1  C1  UNL     1     -34.170   6.623   5.976  1.00 20.00     0.200 C 
HETATM    2  C2  UNL     1     -34.614   5.387   5.785  1.00 20.00     0.113 C 
HETATM    3  F3  UNL     1     -34.525   7.339   7.059  1.00 20.00    -0.219 F 
HETATM    4 CL4  UNL     1     -34.187   4.446   4.421  1.00 20.00    -0.095 Cl
ENDROOT
TORSDOF 0
ENDMDL
MODEL 4
REMARK VINA RESULT:      -2.9      2.540      2.686
REMARK  0 active torsions:
REMARK  status: ('A' for Active; 'I' for Inactive)
ROOT
HETATM    1  C1  UNL     1     -33.821   7.066   5.662  1.00 20.00     0.200 C 
HETATM    2  C2  UNL     1     -33.032   7.970   5.095  1.00 20.00     0.113 C 
HETATM    3  F3  UNL     1     -34.445   7.308   6.830  1.00 20.00    -0.219 F 
HETATM    4 CL4  UNL     1     -32.220   7.698   3.613  1.00 20.00    -0.095 Cl
ENDROOT
TORSDOF 0
ENDMDL
MODEL 5
REMARK VINA RESULT:      -2.8      1.274      1.382
REMARK  0 active torsions:
REMARK  status: ('A' for Active; 'I' for Inactive)
ROOT
HETATM    1  C1  UNL     1     -32.782   8.335   4.932  1.00 20.00     0.200 C 
HETATM    2  C2  UNL     1     -33.678   7.357   4.987  1.00 20.00     0.113 C 
HETATM    3  F3  UNL     1     -32.379   8.856   3.758  1.00 20.00    -0.219 F 
HETATM    4 CL4  UNL     1     -34.213   6.668   6.459  1.00 20.00    -0.095 Cl
ENDROOT
TORSDOF 0
ENDMDL
MODEL 6
REMARK VINA RESULT:      -2.7      2.866      2.866
REMARK  0 active torsions:
REMARK  status: ('A' for Active; 'I' for Inactive)
ROOT
HETATM    1  C1  UNL     1     -33.661   5.660   3.779  1.00 20.00     0.200 C 
HETATM    2  C2  UNL     1     -34.401   4.938   4.612  1.00 20.00     0.113 C 
HETATM    3  F3  UNL     1     -33.363   5.222   2.542  1.00 20.00    -0.219 F 
HETATM    4 CL4  UNL     1     -34.800   5.459   6.192  1.00 20.00    -0.095 Cl
ENDROOT
TORSDOF 0
ENDMDL
MODEL 7
REMARK VINA RESULT:      -2.7      3.117      3.254
REMARK  0 active torsions:
REMARK  status: ('A' for Active; 'I' for Inactive)
ROOT
HETATM    1  C1  UNL     1     -34.496   5.019   5.307  1.00 20.00     0.200 C 
HETATM    2  C2  UNL     1     -34.155   5.800   4.289  1.00 20.00     0.113 C 
HETATM    3  F3  UNL     1     -35.192   5.495   6.357  1.00 20.00    -0.219 F 
HETATM    4 CL4  UNL     1     -33.269   5.234   2.939  1.00 20.00    -0.095 Cl
ENDROOT
TORSDOF 0
ENDMDL
MODEL 8
REMARK VINA RESULT:      -2.7      2.434      2.715
REMARK  0 active torsions:
REMARK  status: ('A' for Active; 'I' for Inactive)
ROOT
HETATM    1  C1  UNL     1     -32.657   8.002   4.563  1.00 20.00     0.200 C 
HETATM    2  C2  UNL     1     -32.273   7.534   3.381  1.00 20.00     0.113 C 
HETATM    3  F3  UNL     1     -32.273   9.216   4.998  1.00 20.00    -0.219 F 
HETATM    4 CL4  UNL     1     -32.739   5.996   2.794  1.00 20.00    -0.095 Cl
ENDROOT
TORSDOF 0
ENDMDL
MODEL 9
REMARK VINA RESULT:      -2.3      7.615      7.632
REMARK  0 active torsions:
REMARK  status: ('A' for Active; 'I' for Inactive)
ROOT
HETATM    1  C1  UNL     1     -39.331  11.813   4.499  1.00 20.00     0.200 C 
HETATM    2  C2  UNL     1     -39.643  11.954   5.782  1.00 20.00     0.113 C 
HETATM    3  F3  UNL     1     -38.068  11.564   4.105  1.00 20.00    -0.219 F 
HETATM    4 CL4  UNL     1     -41.235  12.274   6.321  1.00 20.00    -0.095 Cl
ENDROOT
TORSDOF 0
ENDMDL
