MODEL 1
REMARK VINA RESULT:      -5.2      0.000      0.000
REMARK  0 active torsions:
REMARK  status: ('A' for Active; 'I' for Inactive)
ROOT
HETATM    1  C1  UNL     1     -34.401   4.873   4.776  1.00 20.00     0.099 A 
HETATM    2  C2  UNL     1     -34.092   6.882   6.096  1.00 20.00     0.063 A 
HETATM    3  C3  UNL     1     -31.994   8.558   3.378  1.00 20.00     0.167 A 
HETATM    4  C4  UNL     1     -33.098   6.711   3.865  1.00 20.00     0.124 A 
HETATM    5  C5  UNL     1     -33.643   5.415   3.734  1.00 20.00     0.204 A 
HETATM    6  C6  UNL     1     -34.621   5.598   5.941  1.00 20.00     0.121 A 
HETATM    7  C7  UNL     1     -33.333   7.421   5.046  1.00 20.00     0.042 A 
HETATM    8  N8  UNL     1     -32.329   7.375   2.919  1.00 20.00    -0.249 NA
HETATM    9  O9  UNL     1     -33.391   4.825   2.633  1.00 20.00    -0.286 OA
HETATM   10  F10 UNL     1     -35.349   5.060   6.929  1.00 20.00    -0.206 F 
HETATM   11  S11 UNL     1     -32.560   8.959   4.942  1.00 20.00    -0.080 SA
ENDROOT
TORSDOF 0
ENDMDL
MODEL 2
REMARK VINA RESULT:      -5.0      3.308      4.304
REMARK  0 active torsions:
REMARK  status: ('A' for Active; 'I' for Inactive)
ROOT
HETATM    1  C1  UNL     1     -32.163   8.441   3.476  1.00 20.00     0.099 A 
HETATM    2  C2  UNL     1     -33.049   6.258   2.906  1.00 20.00     0.063 A 
HETATM    3  C3  UNL     1     -34.665   5.821   6.341  1.00 20.00     0.167 A 
HETATM    4  C4  UNL     1     -33.459   7.212   5.124  1.00 20.00     0.124 A 
HETATM    5  C5  UNL     1     -32.723   8.359   4.754  1.00 20.00     0.204 A 
HETATM    6  C6  UNL     1     -32.325   7.403   2.566  1.00 20.00     0.121 A 
HETATM    7  C7  UNL     1     -33.609   6.181   4.191  1.00 20.00     0.042 A 
HETATM    8  N8  UNL     1     -34.070   6.991   6.350  1.00 20.00    -0.249 NA
HETATM    9  O9  UNL     1     -32.627   9.258   5.652  1.00 20.00    -0.286 OA
HETATM   10  F10 UNL     1     -31.779   7.501   1.345  1.00 20.00    -0.206 F 
HETATM   11  S11 UNL     1     -34.543   4.915   4.895  1.00 20.00    -0.080 SA
ENDROOT
TORSDOF 0
ENDMDL
MODEL 3
REMARK VINA RESULT:      -5.0      1.344      1.506
REMARK  0 active torsions:
REMARK  status: ('A' for Active; 'I' for Inactive)
ROOT
HETATM    1  C1  UNL     1     -34.586   5.556   5.977  1.00 20.00     0.099 A 
HETATM    2  C2  UNL     1     -33.693   7.796   5.725  1.00 20.00     0.063 A 
HETATM    3  C3  UNL     1     -32.232   7.016   2.282  1.00 20.00     0.167 A 
HETATM    4  C4  UNL     1     -33.372   6.136   3.954  1.00 20.00     0.124 A 
HETATM    5  C5  UNL     1     -34.082   5.191   4.726  1.00 20.00     0.204 A 
HETATM    6  C6  UNL     1     -34.393   6.842   6.469  1.00 20.00     0.121 A 
HETATM    7  C7  UNL     1     -33.190   7.423   4.469  1.00 20.00     0.042 A 
HETATM    8  N8  UNL     1     -32.817   5.918   2.701  1.00 20.00    -0.249 NA
HETATM    9  O9  UNL     1     -34.211   4.039   4.196  1.00 20.00    -0.286 OA
HETATM   10  F10 UNL     1     -34.883   7.172   7.672  1.00 20.00    -0.206 F 
HETATM   11  S11 UNL     1     -32.298   8.364   3.333  1.00 20.00    -0.080 SA
ENDROOT
TORSDOF 0
ENDMDL
MODEL 4
REMARK VINA RESULT:      -4.9      2.635      3.538
REMARK  0 active torsions:
REMARK  status: ('A' for Active; 'I' for Inactive)
ROOT
HETATM    1  C1  UNL     1     -32.347   7.604   2.927  1.00 20.00     0.099 A 
HETATM    2  C2  UNL     1     -33.231   8.283   5.079  1.00 20.00     0.063 A 
HETATM    3  C3  UNL     1     -34.768   4.846   5.730  1.00 20.00     0.167 A 
HETATM    4  C4  UNL     1     -33.599   6.004   4.261  1.00 20.00     0.124 A 
HETATM    5  C5  UNL     1     -32.879   6.321   3.088  1.00 20.00     0.204 A 
HETATM    6  C6  UNL     1     -32.522   8.571   3.910  1.00 20.00     0.121 A 
HETATM    7  C7  UNL     1     -33.762   6.993   5.236  1.00 20.00     0.042 A 
HETATM    8  N8  UNL     1     -34.181   4.780   4.558  1.00 20.00    -0.249 NA
HETATM    9  O9  UNL     1     -32.768   5.374   2.243  1.00 20.00    -0.286 OA
HETATM   10  F10 UNL     1     -32.006   9.795   3.735  1.00 20.00    -0.206 F 
HETATM   11  S11 UNL     1     -34.672   6.345   6.549  1.00 20.00    -0.080 SA
ENDROOT
TORSDOF 0
ENDMDL
MODEL 5
REMARK VINA RESULT:      -4.7      2.154      2.611
REMARK  0 active torsions:
REMARK  status: ('A' for Active; 'I' for Inactive)
ROOT
HETATM    1  C1  UNL     1     -34.180   7.164   6.362  1.00 20.00     0.099 A 
HETATM    2  C2  UNL     1     -34.339   5.230   4.911  1.00 20.00     0.063 A 
HETATM    3  C3  UNL     1     -32.189   6.862   2.207  1.00 20.00     0.167 A 
HETATM    4  C4  UNL     1     -33.059   7.196   4.206  1.00 20.00     0.124 A 
HETATM    5  C5  UNL     1     -33.388   7.831   5.424  1.00 20.00     0.204 A 
HETATM    6  C6  UNL     1     -34.649   5.881   6.107  1.00 20.00     0.121 A 
HETATM    7  C7  UNL     1     -33.542   5.904   3.973  1.00 20.00     0.042 A 
HETATM    8  N8  UNL     1     -32.286   7.730   3.186  1.00 20.00    -0.249 NA
HETATM    9  O9  UNL     1     -32.914   9.005   5.571  1.00 20.00    -0.286 OA
HETATM   10  F10 UNL     1     -35.408   5.259   7.020  1.00 20.00    -0.206 F 
HETATM   11  S11 UNL     1     -32.998   5.371   2.426  1.00 20.00    -0.080 SA
ENDROOT
TORSDOF 0
ENDMDL
MODEL 6
REMARK VINA RESULT:      -4.6      2.473      2.994
REMARK  0 active torsions:
REMARK  status: ('A' for Active; 'I' for Inactive)
ROOT
HETATM    1  C1  UNL     1     -33.946   4.647   3.808  1.00 20.00     0.099 A 
HETATM    2  C2  UNL     1     -32.561   6.413   2.892  1.00 20.00     0.063 A 
HETATM    3  C3  UNL     1     -33.409   8.802   5.751  1.00 20.00     0.167 A 
HETATM    4  C4  UNL     1     -33.790   6.770   4.980  1.00 20.00     0.124 A 
HETATM    5  C5  UNL     1     -34.306   5.459   4.887  1.00 20.00     0.204 A 
HETATM    6  C6  UNL     1     -33.085   5.120   2.824  1.00 20.00     0.121 A 
HETATM    7  C7  UNL     1     -32.926   7.223   3.978  1.00 20.00     0.042 A 
HETATM    8  N8  UNL     1     -34.057   7.685   5.988  1.00 20.00    -0.249 NA
HETATM    9  O9  UNL     1     -35.086   5.111   5.833  1.00 20.00    -0.286 OA
HETATM   10  F10 UNL     1     -32.753   4.326   1.797  1.00 20.00    -0.206 F 
HETATM   11  S11 UNL     1     -32.451   8.842   4.335  1.00 20.00    -0.080 SA
ENDROOT
TORSDOF 0
ENDMDL
MODEL 7
REMARK VINA RESULT:      -4.5      3.111      3.992
REMARK  0 active torsions:
REMARK  status: ('A' for Active; 'I' for Inactive)
ROOT
HETATM    1  C1  UNL     1     -33.285   8.482   5.648  1.00 20.00     0.099 A 
HETATM    2  C2  UNL     1     -32.397   7.760   3.512  1.00 20.00     0.063 A 
HETATM    3  C3  UNL     1     -33.996   4.303   3.815  1.00 20.00     0.167 A 
HETATM    4  C4  UNL     1     -33.770   6.238   4.851  1.00 20.00     0.124 A 
HETATM    5  C5  UNL     1     -33.902   7.242   5.836  1.00 20.00     0.204 A 
HETATM    6  C6  UNL     1     -32.542   8.736   4.501  1.00 20.00     0.121 A 
HETATM    7  C7  UNL     1     -33.019   6.517   3.705  1.00 20.00     0.042 A 
HETATM    8  N8  UNL     1     -34.324   4.967   4.899  1.00 20.00    -0.249 NA
HETATM    9  O9  UNL     1     -34.600   6.921   6.852  1.00 20.00    -0.286 OA
HETATM   10  F10 UNL     1     -31.958   9.931   4.341  1.00 20.00    -0.206 F 
HETATM   11  S11 UNL     1     -33.022   5.132   2.679  1.00 20.00    -0.080 SA
ENDROOT
TORSDOF 0
ENDMDL
MODEL 8
REMARK VINA RESULT:      -4.1     13.084     13.974
REMARK  0 active torsions:
REMARK  status: ('A' for Active; 'I' for Inactive)
ROOT
HETATM    1  C1  UNL     1     -33.299  16.084  -3.345  1.00 20.00     0.099 A 
HETATM    2  C2  UNL     1     -34.200  17.915  -4.653  1.00 20.00     0.063 A 
HETATM    3  C3  UNL     1     -35.351  15.581  -7.451  1.00 20.00     0.167 A 
HETATM    4  C4  UNL     1     -34.344  15.617  -5.488  1.00 20.00     0.124 A 
HETATM    5  C5  UNL     1     -33.688  15.164  -4.323  1.00 20.00     0.204 A 
HETATM    6  C6  UNL     1     -33.552  17.441  -3.510  1.00 20.00     0.121 A 
HETATM    7  C7  UNL     1     -34.588  16.986  -5.631  1.00 20.00     0.042 A 
HETATM    8  N8  UNL     1     -34.786  14.825  -6.539  1.00 20.00    -0.249 NA
HETATM    9  O9  UNL     1     -33.498  13.906  -4.257  1.00 20.00    -0.286 OA
HETATM   10  F10 UNL     1     -33.170  18.306  -2.560  1.00 20.00    -0.206 F 
HETATM   11  S11 UNL     1     -35.395  17.261  -7.130  1.00 20.00    -0.080 SA
ENDROOT
TORSDOF 0
ENDMDL
MODEL 9
REMARK VINA RESULT:      -4.0      2.670      3.424
REMARK  0 active torsions:
REMARK  status: ('A' for Active; 'I' for Inactive)
ROOT
HETATM    1  C1  UNL     1     -32.888   5.712   2.594  1.00 20.00     0.099 A 
HETATM    2  C2  UNL     1     -32.630   7.901   3.605  1.00 20.00     0.063 A 
HETATM    3  C3  UNL     1     -34.477   6.846   6.780  1.00 20.00     0.167 A 
HETATM    4  C4  UNL     1     -33.796   6.116   4.812  1.00 20.00     0.124 A 
HETATM    5  C5  UNL     1     -33.573   5.248   3.721  1.00 20.00     0.204 A 
HETATM    6  C6  UNL     1     -32.423   7.021   2.539  1.00 20.00     0.121 A 
HETATM    7  C7  UNL     1     -33.319   7.429   4.733  1.00 20.00     0.042 A 
HETATM    8  N8  UNL     1     -34.457   5.798   5.990  1.00 20.00    -0.249 NA
HETATM    9  O9  UNL     1     -34.033   4.068   3.860  1.00 20.00    -0.286 OA
HETATM   10  F10 UNL     1     -31.769   7.447   1.450  1.00 20.00    -0.206 F 
HETATM   11  S11 UNL     1     -33.724   8.263   6.187  1.00 20.00    -0.080 SA
ENDROOT
TORSDOF 0
ENDMDL
