MODEL 1
REMARK VINA RESULT:      -5.5      0.000      0.000
REMARK  0 active torsions:
REMARK  status: ('A' for Active; 'I' for Inactive)
ROOT
HETATM    1  C1  UNL     1     -34.246   6.194   6.687  1.00 20.00    -0.024 C 
HETATM    2  C2  UNL     1     -34.759   5.021   6.248  1.00 20.00    -0.024 C 
HETATM    3  C3  UNL     1     -32.579   7.843   3.800  1.00 20.00     0.272 C 
HETATM    4  C4  UNL     1     -32.854   5.809   2.786  1.00 20.00     0.272 C 
HETATM    5  C5  UNL     1     -34.725   6.950   5.471  1.00 20.00     0.031 C 
HETATM    6  C6  UNL     1     -34.884   5.515   4.812  1.00 20.00     0.031 C 
HETATM    7  C7  UNL     1     -33.899   7.253   4.253  1.00 20.00     0.108 C 
HETATM    8  C8  UNL     1     -33.519   5.734   4.158  1.00 20.00     0.108 C 
HETATM    9  O9  UNL     1     -31.993   8.850   4.169  1.00 20.00    -0.264 OA
HETATM   10  O10 UNL     1     -32.856   5.004   1.866  1.00 20.00    -0.264 OA
HETATM   11  O11 UNL     1     -32.132   7.012   2.765  1.00 20.00    -0.244 OA
ENDROOT
TORSDOF 0
ENDMDL
MODEL 2
REMARK VINA RESULT:      -4.9      2.134      3.587
REMARK  0 active torsions:
REMARK  status: ('A' for Active; 'I' for Inactive)
ROOT
HETATM    1  C1  UNL     1     -31.952   8.391   4.261  1.00 20.00    -0.024 C 
HETATM    2  C2  UNL     1     -32.464   8.933   5.391  1.00 20.00    -0.024 C 
HETATM    3  C3  UNL     1     -33.700   5.163   3.669  1.00 20.00     0.272 C 
HETATM    4  C4  UNL     1     -34.480   5.468   5.800  1.00 20.00     0.272 C 
HETATM    5  C5  UNL     1     -33.313   7.998   3.738  1.00 20.00     0.031 C 
HETATM    6  C6  UNL     1     -33.797   8.211   5.235  1.00 20.00     0.031 C 
HETATM    7  C7  UNL     1     -33.943   6.642   3.886  1.00 20.00     0.108 C 
HETATM    8  C8  UNL     1     -33.660   6.700   5.427  1.00 20.00     0.108 C 
HETATM    9  O9  UNL     1     -33.192   4.573   2.727  1.00 20.00    -0.264 OA
HETATM   10  O10 UNL     1     -35.171   5.251   6.784  1.00 20.00    -0.264 OA
HETATM   11  O11 UNL     1     -34.251   4.524   4.787  1.00 20.00    -0.244 OA
ENDROOT
TORSDOF 0
ENDMDL
MODEL 3
REMARK VINA RESULT:      -4.6     11.892     13.288
REMARK  0 active torsions:
REMARK  status: ('A' for Active; 'I' for Inactive)
ROOT
HETATM    1  C1  UNL     1     -33.640  16.279  -2.655  1.00 20.00    -0.024 C 
HETATM    2  C2  UNL     1     -33.560  17.474  -3.285  1.00 20.00    -0.024 C 
HETATM    3  C3  UNL     1     -35.627  13.998  -4.819  1.00 20.00     0.272 C 
HETATM    4  C4  UNL     1     -36.133  15.915  -5.965  1.00 20.00     0.272 C 
HETATM    5  C5  UNL     1     -33.364  15.504  -3.922  1.00 20.00     0.031 C 
HETATM    6  C6  UNL     1     -33.738  16.855  -4.666  1.00 20.00     0.031 C 
HETATM    7  C7  UNL     1     -34.408  14.898  -4.816  1.00 20.00     0.108 C 
HETATM    8  C8  UNL     1     -35.142  16.283  -4.864  1.00 20.00     0.108 C 
HETATM    9  O9  UNL     1     -35.832  12.940  -4.242  1.00 20.00    -0.264 OA
HETATM   10  O10 UNL     1     -36.580  16.591  -6.880  1.00 20.00    -0.264 OA
HETATM   11  O11 UNL     1     -36.530  14.593  -5.708  1.00 20.00    -0.244 OA
ENDROOT
TORSDOF 0
ENDMDL
MODEL 4
REMARK VINA RESULT:      -4.5     15.601     16.145
REMARK  0 active torsions:
REMARK  status: ('A' for Active; 'I' for Inactive)
ROOT
HETATM    1  C1  UNL     1     -24.014  16.267  12.134  1.00 20.00    -0.024 C 
HETATM    2  C2  UNL     1     -25.196  16.915  12.254  1.00 20.00    -0.024 C 
HETATM    3  C3  UNL     1     -22.311  17.581   9.100  1.00 20.00     0.272 C 
HETATM    4  C4  UNL     1     -24.346  18.536   8.664  1.00 20.00     0.272 C 
HETATM    5  C5  UNL     1     -23.263  17.533  11.800  1.00 20.00     0.031 C 
HETATM    6  C6  UNL     1     -24.698  18.140  11.497  1.00 20.00     0.031 C 
HETATM    7  C7  UNL     1     -22.934  18.009  10.413  1.00 20.00     0.108 C 
HETATM    8  C8  UNL     1     -24.443  17.841  10.019  1.00 20.00     0.108 C 
HETATM    9  O9  UNL     1     -21.293  16.943   8.877  1.00 20.00    -0.264 OA
HETATM   10  O10 UNL     1     -25.145  19.263   8.093  1.00 20.00    -0.264 OA
HETATM   11  O11 UNL     1     -23.126  18.129   8.102  1.00 20.00    -0.244 OA
ENDROOT
TORSDOF 0
ENDMDL
MODEL 5
REMARK VINA RESULT:      -4.5      2.132      3.443
REMARK  0 active torsions:
REMARK  status: ('A' for Active; 'I' for Inactive)
ROOT
HETATM    1  C1  UNL     1     -32.784   8.957   3.105  1.00 20.00    -0.024 C 
HETATM    2  C2  UNL     1     -32.510   8.060   2.130  1.00 20.00    -0.024 C 
HETATM    3  C3  UNL     1     -34.032   7.066   6.054  1.00 20.00     0.272 C 
HETATM    4  C4  UNL     1     -34.154   5.317   4.581  1.00 20.00     0.272 C 
HETATM    5  C5  UNL     1     -32.140   8.109   4.176  1.00 20.00     0.031 C 
HETATM    6  C6  UNL     1     -32.262   6.930   3.121  1.00 20.00     0.031 C 
HETATM    7  C7  UNL     1     -32.867   7.165   5.091  1.00 20.00     0.108 C 
HETATM    8  C8  UNL     1     -33.543   6.504   3.840  1.00 20.00     0.108 C 
HETATM    9  O9  UNL     1     -34.410   7.838   6.923  1.00 20.00    -0.264 OA
HETATM   10  O10 UNL     1     -34.297   4.157   4.226  1.00 20.00    -0.264 OA
HETATM   11  O11 UNL     1     -34.618   5.819   5.807  1.00 20.00    -0.244 OA
ENDROOT
TORSDOF 0
ENDMDL
MODEL 6
REMARK VINA RESULT:      -4.4     12.082     13.367
REMARK  0 active torsions:
REMARK  status: ('A' for Active; 'I' for Inactive)
ROOT
HETATM    1  C1  UNL     1     -32.674  18.864  -2.299  1.00 20.00    -0.024 C 
HETATM    2  C2  UNL     1     -32.428  17.892  -1.389  1.00 20.00    -0.024 C 
HETATM    3  C3  UNL     1     -34.397  17.289  -5.193  1.00 20.00     0.272 C 
HETATM    4  C4  UNL     1     -33.776  15.327  -4.190  1.00 20.00     0.272 C 
HETATM    5  C5  UNL     1     -34.077  18.373  -2.563  1.00 20.00     0.031 C 
HETATM    6  C6  UNL     1     -33.589  17.030  -1.871  1.00 20.00     0.031 C 
HETATM    7  C7  UNL     1     -34.483  17.467  -3.691  1.00 20.00     0.108 C 
HETATM    8  C8  UNL     1     -33.347  16.470  -3.274  1.00 20.00     0.108 C 
HETATM    9  O9  UNL     1     -34.535  18.101  -6.097  1.00 20.00    -0.264 OA
HETATM   10  O10 UNL     1     -33.752  14.119  -4.005  1.00 20.00    -0.264 OA
HETATM   11  O11 UNL     1     -34.176  15.921  -5.397  1.00 20.00    -0.244 OA
ENDROOT
TORSDOF 0
ENDMDL
MODEL 7
REMARK VINA RESULT:      -4.4     11.977     13.355
REMARK  0 active torsions:
REMARK  status: ('A' for Active; 'I' for Inactive)
ROOT
HETATM    1  C1  UNL     1     -33.826  17.279  -1.529  1.00 20.00    -0.024 C 
HETATM    2  C2  UNL     1     -33.770  18.528  -2.049  1.00 20.00    -0.024 C 
HETATM    3  C3  UNL     1     -34.198  14.897  -4.360  1.00 20.00     0.272 C 
HETATM    4  C4  UNL     1     -34.615  16.787  -5.584  1.00 20.00     0.272 C 
HETATM    5  C5  UNL     1     -32.894  16.716  -2.576  1.00 20.00     0.031 C 
HETATM    6  C6  UNL     1     -33.229  18.038  -3.387  1.00 20.00     0.031 C 
HETATM    7  C7  UNL     1     -33.322  16.015  -3.834  1.00 20.00     0.108 C 
HETATM    8  C8  UNL     1     -34.265  17.223  -4.164  1.00 20.00     0.108 C 
HETATM    9  O9  UNL     1     -34.375  13.763  -3.939  1.00 20.00    -0.264 OA
HETATM   10  O10 UNL     1     -34.793  17.455  -6.591  1.00 20.00    -0.264 OA
HETATM   11  O11 UNL     1     -34.773  15.393  -5.537  1.00 20.00    -0.244 OA
ENDROOT
TORSDOF 0
ENDMDL
MODEL 8
REMARK VINA RESULT:      -4.3      9.164     10.348
REMARK  0 active torsions:
REMARK  status: ('A' for Active; 'I' for Inactive)
ROOT
HETATM    1  C1  UNL     1     -38.202  12.173   5.528  1.00 20.00    -0.024 C 
HETATM    2  C2  UNL     1     -38.811  11.672   4.427  1.00 20.00    -0.024 C 
HETATM    3  C3  UNL     1     -40.653  14.357   7.275  1.00 20.00     0.272 C 
HETATM    4  C4  UNL     1     -41.865  14.135   5.346  1.00 20.00     0.272 C 
HETATM    5  C5  UNL     1     -39.409  11.930   6.403  1.00 20.00     0.031 C 
HETATM    6  C6  UNL     1     -40.203  11.801   5.035  1.00 20.00     0.031 C 
HETATM    7  C7  UNL     1     -40.457  12.952   6.741  1.00 20.00     0.108 C 
HETATM    8  C8  UNL     1     -40.621  13.261   5.213  1.00 20.00     0.108 C 
HETATM    9  O9  UNL     1     -40.115  14.930   8.212  1.00 20.00    -0.264 OA
HETATM   10  O10 UNL     1     -42.839  14.234   4.615  1.00 20.00    -0.264 OA
HETATM   11  O11 UNL     1     -41.674  14.915   6.497  1.00 20.00    -0.244 OA
ENDROOT
TORSDOF 0
ENDMDL
MODEL 9
REMARK VINA RESULT:      -4.2      1.260      2.784
REMARK  0 active torsions:
REMARK  status: ('A' for Active; 'I' for Inactive)
ROOT
HETATM    1  C1  UNL     1     -35.114   5.675   4.442  1.00 20.00    -0.024 C 
HETATM    2  C2  UNL     1     -35.130   5.965   5.764  1.00 20.00    -0.024 C 
HETATM    3  C3  UNL     1     -32.479   7.771   2.861  1.00 20.00     0.272 C 
HETATM    4  C4  UNL     1     -32.490   8.875   4.867  1.00 20.00     0.272 C 
HETATM    5  C5  UNL     1     -33.606   5.628   4.390  1.00 20.00     0.031 C 
HETATM    6  C6  UNL     1     -33.671   6.405   5.772  1.00 20.00     0.031 C 
HETATM    7  C7  UNL     1     -32.714   6.761   3.966  1.00 20.00     0.108 C 
HETATM    8  C8  UNL     1     -33.455   7.698   4.983  1.00 20.00     0.108 C 
HETATM    9  O9  UNL     1     -32.504   7.636   1.647  1.00 20.00    -0.264 OA
HETATM   10  O10 UNL     1     -32.097   9.656   5.720  1.00 20.00    -0.264 OA
HETATM   11  O11 UNL     1     -32.144   8.965   3.510  1.00 20.00    -0.244 OA
ENDROOT
TORSDOF 0
ENDMDL
