MODEL 1
REMARK VINA RESULT:      -2.9      0.000      0.000
REMARK  1 active torsions:
REMARK  status: ('A' for Active; 'I' for Inactive)
REMARK    1  A    between atoms: C5_5  and  P6_6 
ROOT
HETATM    1  C1  UNL     1     -42.873   4.781  -1.205  1.00 20.00     0.021 C 
HETATM    2  C2  UNL     1     -40.631   5.667  -0.497  1.00 20.00     0.021 C 
HETATM    3  C3  UNL     1     -42.303   4.951   1.236  1.00 20.00     0.021 C 
HETATM    4  C5  UNL     1     -42.124   5.600  -0.144  1.00 20.00    -0.015 C 
ENDROOT
BRANCH   4   5
HETATM    5  P6  UNL     1     -42.823   7.348  -0.113  1.00 20.00    -0.013 P 
HETATM    6  C4  UNL     1     -43.392   7.366   1.624  1.00 20.00     0.062 C 
HETATM    7 CL7  UNL     1     -41.029   8.412   0.052  1.00 20.00    -0.096 Cl
ENDBRANCH   4   5
TORSDOF 1
ENDMDL
MODEL 2
REMARK VINA RESULT:      -2.9      0.038      1.634
REMARK  1 active torsions:
REMARK  status: ('A' for Active; 'I' for Inactive)
REMARK    1  A    between atoms: C5_5  and  P6_6 
ROOT
HETATM    1  C1  UNL     1     -42.342   4.936   1.214  1.00 20.00     0.021 C 
HETATM    2  C2  UNL     1     -42.861   4.794  -1.240  1.00 20.00     0.021 C 
HETATM    3  C3  UNL     1     -40.637   5.678  -0.476  1.00 20.00     0.021 C 
HETATM    4  C5  UNL     1     -42.137   5.602  -0.154  1.00 20.00    -0.015 C 
ENDROOT
BRANCH   4   5
HETATM    5  P6  UNL     1     -42.858   7.341  -0.103  1.00 20.00    -0.013 P 
HETATM    6  C4  UNL     1     -43.414   7.337   1.638  1.00 20.00     0.062 C 
HETATM    7 CL7  UNL     1     -41.076   8.427   0.059  1.00 20.00    -0.096 Cl
ENDBRANCH   4   5
TORSDOF 1
ENDMDL
MODEL 3
REMARK VINA RESULT:      -2.8      0.149      1.665
REMARK  1 active torsions:
REMARK  status: ('A' for Active; 'I' for Inactive)
REMARK    1  A    between atoms: C5_5  and  P6_6 
ROOT
HETATM    1  C1  UNL     1     -40.702   5.689  -0.420  1.00 20.00     0.021 C 
HETATM    2  C2  UNL     1     -42.381   4.859   1.255  1.00 20.00     0.021 C 
HETATM    3  C3  UNL     1     -42.877   4.703  -1.203  1.00 20.00     0.021 C 
HETATM    4  C5  UNL     1     -42.198   5.540  -0.109  1.00 20.00    -0.015 C 
ENDROOT
BRANCH   4   5
HETATM    5  P6  UNL     1     -42.984   7.250  -0.048  1.00 20.00    -0.013 P 
HETATM    6  C4  UNL     1     -43.417   7.271   1.727  1.00 20.00     0.062 C 
HETATM    7 CL7  UNL     1     -41.241   8.408  -0.039  1.00 20.00    -0.096 Cl
ENDBRANCH   4   5
TORSDOF 1
ENDMDL
MODEL 4
REMARK VINA RESULT:      -2.8      8.921      9.654
REMARK  1 active torsions:
REMARK  status: ('A' for Active; 'I' for Inactive)
REMARK    1  A    between atoms: C5_5  and  P6_6 
ROOT
HETATM    1  C1  UNL     1     -34.396   5.156   5.868  1.00 20.00     0.021 C 
HETATM    2  C2  UNL     1     -35.930   5.974   4.054  1.00 20.00     0.021 C 
HETATM    3  C3  UNL     1     -33.595   5.242   3.488  1.00 20.00     0.021 C 
HETATM    4  C5  UNL     1     -34.475   5.927   4.543  1.00 20.00    -0.015 C 
ENDROOT
BRANCH   4   5
HETATM    5  P6  UNL     1     -33.867   7.688   4.821  1.00 20.00    -0.013 P 
HETATM    6  C4  UNL     1     -33.197   7.464   6.507  1.00 20.00     0.062 C 
HETATM    7 CL7  UNL     1     -32.109   7.607   3.689  1.00 20.00    -0.096 Cl
ENDBRANCH   4   5
TORSDOF 1
ENDMDL
MODEL 5
REMARK VINA RESULT:      -2.8      8.912      9.499
REMARK  1 active torsions:
REMARK  status: ('A' for Active; 'I' for Inactive)
REMARK    1  A    between atoms: C5_5  and  P6_6 
ROOT
HETATM    1  C1  UNL     1     -35.972   5.957   4.103  1.00 20.00     0.021 C 
HETATM    2  C2  UNL     1     -33.648   5.161   3.573  1.00 20.00     0.021 C 
HETATM    3  C3  UNL     1     -34.453   5.192   5.953  1.00 20.00     0.021 C 
HETATM    4  C5  UNL     1     -34.518   5.906   4.595  1.00 20.00    -0.015 C 
ENDROOT
BRANCH   4   5
HETATM    5  P6  UNL     1     -33.872   7.666   4.780  1.00 20.00    -0.013 P 
HETATM    6  C4  UNL     1     -33.169   7.507   6.459  1.00 20.00     0.062 C 
HETATM    7 CL7  UNL     1     -32.142   7.500   3.614  1.00 20.00    -0.096 Cl
ENDBRANCH   4   5
TORSDOF 1
ENDMDL
MODEL 6
REMARK VINA RESULT:      -2.7      2.334      3.370
REMARK  1 active torsions:
REMARK  status: ('A' for Active; 'I' for Inactive)
REMARK    1  A    between atoms: C5_5  and  P6_6 
ROOT
HETATM    1  C1  UNL     1     -43.417   6.887   1.976  1.00 20.00     0.021 C 
HETATM    2  C2  UNL     1     -41.220   7.647   1.024  1.00 20.00     0.021 C 
HETATM    3  C3  UNL     1     -43.372   8.393  -0.035  1.00 20.00     0.021 C 
HETATM    4  C5  UNL     1     -42.661   7.239   0.687  1.00 20.00    -0.015 C 
ENDROOT
BRANCH   4   5
HETATM    5  P6  UNL     1     -42.622   5.726  -0.433  1.00 20.00    -0.013 P 
HETATM    6  C4  UNL     1     -40.808   5.556  -0.573  1.00 20.00     0.062 C 
HETATM    7 CL7  UNL     1     -43.044   4.255   0.994  1.00 20.00    -0.096 Cl
ENDBRANCH   4   5
TORSDOF 1
ENDMDL
MODEL 7
REMARK VINA RESULT:      -2.6     12.754     13.329
REMARK  1 active torsions:
REMARK  status: ('A' for Active; 'I' for Inactive)
REMARK    1  A    between atoms: C5_5  and  P6_6 
ROOT
HETATM    1  C1  UNL     1     -33.952  15.240  -6.606  1.00 20.00     0.021 C 
HETATM    2  C2  UNL     1     -34.209  14.410  -4.248  1.00 20.00     0.021 C 
HETATM    3  C3  UNL     1     -36.177  15.407  -5.451  1.00 20.00     0.021 C 
HETATM    4  C5  UNL     1     -34.655  15.475  -5.261  1.00 20.00    -0.015 C 
ENDROOT
BRANCH   4   5
HETATM    5  P6  UNL     1     -34.177  17.176  -4.610  1.00 20.00    -0.013 P 
HETATM    6  C4  UNL     1     -35.861  17.803  -4.272  1.00 20.00     0.062 C 
HETATM    7 CL7  UNL     1     -33.571  16.628  -2.684  1.00 20.00    -0.096 Cl
ENDBRANCH   4   5
TORSDOF 1
ENDMDL
MODEL 8
REMARK VINA RESULT:      -2.6      2.236      2.792
REMARK  1 active torsions:
REMARK  status: ('A' for Active; 'I' for Inactive)
REMARK    1  A    between atoms: C5_5  and  P6_6 
ROOT
HETATM    1  C1  UNL     1     -40.811   5.862  -0.570  1.00 20.00     0.021 C 
HETATM    2  C2  UNL     1     -41.705   8.192  -0.860  1.00 20.00     0.021 C 
HETATM    3  C3  UNL     1     -41.064   7.368   1.425  1.00 20.00     0.021 C 
HETATM    4  C5  UNL     1     -41.662   6.970   0.068  1.00 20.00    -0.015 C 
ENDROOT
BRANCH   4   5
HETATM    5  P6  UNL     1     -43.415   6.329   0.317  1.00 20.00    -0.013 P 
HETATM    6  C4  UNL     1     -43.302   4.850  -0.751  1.00 20.00     0.062 C 
HETATM    7 CL7  UNL     1     -43.179   5.464   2.208  1.00 20.00    -0.096 Cl
ENDBRANCH   4   5
TORSDOF 1
ENDMDL
MODEL 9
REMARK VINA RESULT:      -2.5     12.816     13.704
REMARK  1 active torsions:
REMARK  status: ('A' for Active; 'I' for Inactive)
REMARK    1  A    between atoms: C5_5  and  P6_6 
ROOT
HETATM    1  C1  UNL     1     -33.698  14.711  -4.301  1.00 20.00     0.021 C 
HETATM    2  C2  UNL     1     -35.938  14.434  -5.406  1.00 20.00     0.021 C 
HETATM    3  C3  UNL     1     -33.959  15.197  -6.753  1.00 20.00     0.021 C 
HETATM    4  C5  UNL     1     -34.644  15.259  -5.380  1.00 20.00    -0.015 C 
ENDROOT
BRANCH   4   5
HETATM    5  P6  UNL     1     -35.068  17.048  -4.969  1.00 20.00    -0.013 P 
HETATM    6  C4  UNL     1     -33.664  17.395  -3.853  1.00 20.00     0.062 C 
HETATM    7 CL7  UNL     1     -34.398  17.953  -6.733  1.00 20.00    -0.096 Cl
ENDBRANCH   4   5
TORSDOF 1
ENDMDL
