MODEL 1
REMARK VINA RESULT:      -3.5      0.000      0.000
REMARK  1 active torsions:
REMARK  status: ('A' for Active; 'I' for Inactive)
REMARK    1  A    between atoms: C4_4  and  S6_6 
ROOT
HETATM    1  C1  UNL     1     -34.473   5.346   6.112  1.00 20.00     0.030 C 
HETATM    2  C2  UNL     1     -35.919   6.028   4.174  1.00 20.00     0.030 C 
HETATM    3  C3  UNL     1     -33.676   4.972   3.756  1.00 20.00     0.030 C 
HETATM    4  C4  UNL     1     -34.480   5.890   4.680  1.00 20.00     0.042 C 
ENDROOT
BRANCH   4   5
HETATM    5  S6  UNL     1     -33.707   7.571   4.694  1.00 20.00     0.120 S 
HETATM    6  O5  UNL     1     -32.868   7.624   5.922  1.00 20.00    -0.240 OA
HETATM    7 CL7  UNL     1     -32.291   7.289   3.306  1.00 20.00    -0.010 Cl
ENDBRANCH   4   5
TORSDOF 1
ENDMDL
MODEL 2
REMARK VINA RESULT:      -3.5      0.035      1.653
REMARK  1 active torsions:
REMARK  status: ('A' for Active; 'I' for Inactive)
REMARK    1  A    between atoms: C4_4  and  S6_6 
ROOT
HETATM    1  C1  UNL     1     -33.659   5.005   3.722  1.00 20.00     0.030 C 
HETATM    2  C2  UNL     1     -34.430   5.349   6.088  1.00 20.00     0.030 C 
HETATM    3  C3  UNL     1     -35.914   6.021   4.174  1.00 20.00     0.030 C 
HETATM    4  C4  UNL     1     -34.468   5.905   4.662  1.00 20.00     0.042 C 
ENDROOT
BRANCH   4   5
HETATM    5  S6  UNL     1     -33.690   7.583   4.671  1.00 20.00     0.120 S 
HETATM    6  O5  UNL     1     -32.848   7.636   5.897  1.00 20.00    -0.240 OA
HETATM    7 CL7  UNL     1     -32.278   7.295   3.280  1.00 20.00    -0.010 Cl
ENDBRANCH   4   5
TORSDOF 1
ENDMDL
MODEL 3
REMARK VINA RESULT:      -3.5      0.049      1.651
REMARK  1 active torsions:
REMARK  status: ('A' for Active; 'I' for Inactive)
REMARK    1  A    between atoms: C4_4  and  S6_6 
ROOT
HETATM    1  C1  UNL     1     -35.928   6.049   4.187  1.00 20.00     0.030 C 
HETATM    2  C2  UNL     1     -33.691   4.975   3.794  1.00 20.00     0.030 C 
HETATM    3  C3  UNL     1     -34.492   5.385   6.142  1.00 20.00     0.030 C 
HETATM    4  C4  UNL     1     -34.492   5.911   4.704  1.00 20.00     0.042 C 
ENDROOT
BRANCH   4   5
HETATM    5  S6  UNL     1     -33.698   7.581   4.664  1.00 20.00     0.120 S 
HETATM    6  O5  UNL     1     -32.832   7.650   5.872  1.00 20.00    -0.240 OA
HETATM    7 CL7  UNL     1     -32.315   7.250   3.253  1.00 20.00    -0.010 Cl
ENDBRANCH   4   5
TORSDOF 1
ENDMDL
MODEL 4
REMARK VINA RESULT:      -3.1      9.008      9.353
REMARK  1 active torsions:
REMARK  status: ('A' for Active; 'I' for Inactive)
REMARK    1  A    between atoms: C4_4  and  S6_6 
ROOT
HETATM    1  C1  UNL     1     -42.615   4.812   1.663  1.00 20.00     0.030 C 
HETATM    2  C2  UNL     1     -43.380   7.201   1.525  1.00 20.00     0.030 C 
HETATM    3  C3  UNL     1     -43.305   5.784  -0.551  1.00 20.00     0.030 C 
HETATM    4  C4  UNL     1     -42.640   6.075   0.797  1.00 20.00     0.042 C 
ENDROOT
BRANCH   4   5
HETATM    5  S6  UNL     1     -40.894   6.616   0.512  1.00 20.00     0.120 S 
HETATM    6  O5  UNL     1     -40.418   5.853  -0.674  1.00 20.00    -0.240 OA
HETATM    7 CL7  UNL     1     -41.240   8.401  -0.329  1.00 20.00    -0.010 Cl
ENDBRANCH   4   5
TORSDOF 1
ENDMDL
MODEL 5
REMARK VINA RESULT:      -3.0      8.773      9.500
REMARK  1 active torsions:
REMARK  status: ('A' for Active; 'I' for Inactive)
REMARK    1  A    between atoms: C4_4  and  S6_6 
ROOT
HETATM    1  C1  UNL     1     -43.121   7.141   1.689  1.00 20.00     0.030 C 
HETATM    2  C2  UNL     1     -40.778   7.778   1.043  1.00 20.00     0.030 C 
HETATM    3  C3  UNL     1     -42.699   8.356  -0.472  1.00 20.00     0.030 C 
HETATM    4  C4  UNL     1     -42.147   7.331   0.522  1.00 20.00     0.042 C 
ENDROOT
BRANCH   4   5
HETATM    5  S6  UNL     1     -41.940   5.703  -0.332  1.00 20.00     0.120 S 
HETATM    6  O5  UNL     1     -40.497   5.606  -0.681  1.00 20.00    -0.240 OA
HETATM    7 CL7  UNL     1     -42.004   4.489   1.260  1.00 20.00    -0.010 Cl
ENDBRANCH   4   5
TORSDOF 1
ENDMDL
MODEL 6
REMARK VINA RESULT:      -3.0      9.130      9.614
REMARK  1 active torsions:
REMARK  status: ('A' for Active; 'I' for Inactive)
REMARK    1  A    between atoms: C4_4  and  S6_6 
ROOT
HETATM    1  C1  UNL     1     -40.687   5.737  -0.500  1.00 20.00     0.030 C 
HETATM    2  C2  UNL     1     -42.287   5.026   1.302  1.00 20.00     0.030 C 
HETATM    3  C3  UNL     1     -42.959   4.849  -1.114  1.00 20.00     0.030 C 
HETATM    4  C4  UNL     1     -42.160   5.657  -0.088  1.00 20.00     0.042 C 
ENDROOT
BRANCH   4   5
HETATM    5  S6  UNL     1     -42.835   7.378  -0.008  1.00 20.00     0.120 S 
HETATM    6  O5  UNL     1     -43.173   7.618   1.421  1.00 20.00    -0.240 OA
HETATM    7 CL7  UNL     1     -41.122   8.406  -0.147  1.00 20.00    -0.010 Cl
ENDBRANCH   4   5
TORSDOF 1
ENDMDL
MODEL 7
REMARK VINA RESULT:      -2.9      8.919      9.639
REMARK  1 active torsions:
REMARK  status: ('A' for Active; 'I' for Inactive)
REMARK    1  A    between atoms: C4_4  and  S6_6 
ROOT
HETATM    1  C1  UNL     1     -40.830   7.654   1.030  1.00 20.00     0.030 C 
HETATM    2  C2  UNL     1     -42.717   8.401  -0.452  1.00 20.00     0.030 C 
HETATM    3  C3  UNL     1     -43.209   7.165   1.681  1.00 20.00     0.030 C 
HETATM    4  C4  UNL     1     -42.231   7.315   0.513  1.00 20.00     0.042 C 
ENDROOT
BRANCH   4   5
HETATM    5  S6  UNL     1     -42.137   5.716  -0.413  1.00 20.00     0.120 S 
HETATM    6  O5  UNL     1     -40.690   5.473  -0.661  1.00 20.00    -0.240 OA
HETATM    7 CL7  UNL     1     -42.457   4.444   1.101  1.00 20.00    -0.010 Cl
ENDBRANCH   4   5
TORSDOF 1
ENDMDL
MODEL 8
REMARK VINA RESULT:      -2.9      1.965      2.261
REMARK  1 active torsions:
REMARK  status: ('A' for Active; 'I' for Inactive)
REMARK    1  A    between atoms: C4_4  and  S6_6 
ROOT
HETATM    1  C1  UNL     1     -33.983   7.663   5.358  1.00 20.00     0.030 C 
HETATM    2  C2  UNL     1     -35.626   6.111   4.260  1.00 20.00     0.030 C 
HETATM    3  C3  UNL     1     -34.258   5.314   6.213  1.00 20.00     0.030 C 
HETATM    4  C4  UNL     1     -34.273   6.209   4.971  1.00 20.00     0.042 C 
ENDROOT
BRANCH   4   5
HETATM    5  S6  UNL     1     -32.958   5.647   3.798  1.00 20.00     0.120 S 
HETATM    6  O5  UNL     1     -33.669   5.225   2.560  1.00 20.00    -0.240 OA
HETATM    7 CL7  UNL     1     -32.257   7.431   3.215  1.00 20.00    -0.010 Cl
ENDBRANCH   4   5
TORSDOF 1
ENDMDL
MODEL 9
REMARK VINA RESULT:      -2.9     13.620     14.003
REMARK  1 active torsions:
REMARK  status: ('A' for Active; 'I' for Inactive)
REMARK    1  A    between atoms: C4_4  and  S6_6 
ROOT
HETATM    1  C1  UNL     1     -33.713  15.435  -7.121  1.00 20.00     0.030 C 
HETATM    2  C2  UNL     1     -34.449  17.142  -5.431  1.00 20.00     0.030 C 
HETATM    3  C3  UNL     1     -33.541  14.927  -4.664  1.00 20.00     0.030 C 
HETATM    4  C4  UNL     1     -34.352  15.646  -5.745  1.00 20.00     0.042 C 
ENDROOT
BRANCH   4   5
HETATM    5  S6  UNL     1     -36.065  14.949  -5.788  1.00 20.00     0.120 S 
HETATM    6  O5  UNL     1     -36.162  14.181  -7.058  1.00 20.00    -0.240 OA
HETATM    7 CL7  UNL     1     -35.839  13.449  -4.480  1.00 20.00    -0.010 Cl
ENDBRANCH   4   5
TORSDOF 1
ENDMDL
