MODEL 1
REMARK VINA RESULT:      -4.5      0.000      0.000
REMARK  2 active torsions:
REMARK  status: ('A' for Active; 'I' for Inactive)
REMARK    1  A    between atoms: C1_1  and  C5_5 
REMARK    2  A    between atoms: C4_4  and  C5_5 
ROOT
HETATM    1  C2  UNL     1     -35.799   6.343   4.275  1.00 20.00     0.032 C 
HETATM    2  C3  UNL     1     -34.571   5.456   6.263  1.00 20.00     0.032 C 
HETATM    3  C5  UNL     1     -34.418   5.977   4.831  1.00 20.00     0.100 C 
ENDROOT
BRANCH   3   4
HETATM    4  C1  UNL     1     -33.728   4.910   3.930  1.00 20.00     0.186 C 
HETATM    5  O6  UNL     1     -33.865   3.708   4.298  1.00 20.00    -0.647 OA
HETATM    6  O7  UNL     1     -33.121   5.357   2.915  1.00 20.00    -0.647 OA
ENDBRANCH   3   4
BRANCH   3   7
HETATM    7  C4  UNL     1     -33.504   7.203   4.813  1.00 20.00     0.371 C 
HETATM    8  F8  UNL     1     -33.002   7.444   6.050  1.00 20.00    -0.213 F 
HETATM    9  F9  UNL     1     -34.197   8.313   4.452  1.00 20.00    -0.213 F 
ENDBRANCH   3   7
TORSDOF 2
ENDMDL
MODEL 2
REMARK VINA RESULT:      -4.5      1.659      2.303
REMARK  2 active torsions:
REMARK  status: ('A' for Active; 'I' for Inactive)
REMARK    1  A    between atoms: C1_1  and  C5_5 
REMARK    2  A    between atoms: C4_4  and  C5_5 
ROOT
HETATM    1  C2  UNL     1     -35.642   6.214   4.413  1.00 20.00     0.032 C 
HETATM    2  C3  UNL     1     -33.905   4.416   4.351  1.00 20.00     0.032 C 
HETATM    3  C5  UNL     1     -34.176   5.880   4.713  1.00 20.00     0.100 C 
ENDROOT
BRANCH   3   4
HETATM    4  C1  UNL     1     -33.224   6.825   3.921  1.00 20.00     0.186 C 
HETATM    5  O6  UNL     1     -33.139   8.010   4.354  1.00 20.00    -0.647 OA
HETATM    6  O7  UNL     1     -32.621   6.302   2.940  1.00 20.00    -0.647 OA
ENDBRANCH   3   4
BRANCH   3   7
HETATM    7  C4  UNL     1     -33.877   6.119   6.194  1.00 20.00     0.371 C 
HETATM    8  F8  UNL     1     -34.000   4.967   6.899  1.00 20.00    -0.213 F 
HETATM    9  F9  UNL     1     -34.763   6.998   6.727  1.00 20.00    -0.213 F 
ENDBRANCH   3   7
TORSDOF 2
ENDMDL
MODEL 3
REMARK VINA RESULT:      -4.5      1.668      2.307
REMARK  2 active torsions:
REMARK  status: ('A' for Active; 'I' for Inactive)
REMARK    1  A    between atoms: C1_1  and  C5_5 
REMARK    2  A    between atoms: C4_4  and  C5_5 
ROOT
HETATM    1  C2  UNL     1     -35.663   6.168   4.427  1.00 20.00     0.032 C 
HETATM    2  C3  UNL     1     -33.876   4.423   4.337  1.00 20.00     0.032 C 
HETATM    3  C5  UNL     1     -34.189   5.872   4.723  1.00 20.00     0.100 C 
ENDROOT
BRANCH   3   4
HETATM    4  C1  UNL     1     -33.264   6.857   3.950  1.00 20.00     0.186 C 
HETATM    5  O6  UNL     1     -32.626   6.364   2.975  1.00 20.00    -0.647 OA
HETATM    6  O7  UNL     1     -33.262   8.052   4.365  1.00 20.00    -0.647 OA
ENDBRANCH   3   4
BRANCH   3   7
HETATM    7  C4  UNL     1     -33.898   6.094   6.209  1.00 20.00     0.371 C 
HETATM    8  F8  UNL     1     -34.062   4.941   6.906  1.00 20.00    -0.213 F 
HETATM    9  F9  UNL     1     -34.765   6.995   6.738  1.00 20.00    -0.213 F 
ENDBRANCH   3   7
TORSDOF 2
ENDMDL
MODEL 4
REMARK VINA RESULT:      -4.4      1.226      1.962
REMARK  2 active torsions:
REMARK  status: ('A' for Active; 'I' for Inactive)
REMARK    1  A    between atoms: C1_1  and  C5_5 
REMARK    2  A    between atoms: C4_4  and  C5_5 
ROOT
HETATM    1  C2  UNL     1     -33.602   7.528   4.336  1.00 20.00     0.032 C 
HETATM    2  C3  UNL     1     -35.812   6.361   4.285  1.00 20.00     0.032 C 
HETATM    3  C5  UNL     1     -34.334   6.220   4.661  1.00 20.00     0.100 C 
ENDROOT
BRANCH   3   4
HETATM    4  C1  UNL     1     -33.687   5.024   3.903  1.00 20.00     0.186 C 
HETATM    5  O6  UNL     1     -33.924   3.877   4.380  1.00 20.00    -0.647 OA
HETATM    6  O7  UNL     1     -33.008   5.324   2.880  1.00 20.00    -0.647 OA
ENDBRANCH   3   4
BRANCH   3   7
HETATM    7  C4  UNL     1     -34.200   5.902   6.152  1.00 20.00     0.371 C 
HETATM    8  F8  UNL     1     -35.278   5.205   6.591  1.00 20.00    -0.213 F 
HETATM    9  F9  UNL     1     -34.151   7.045   6.884  1.00 20.00    -0.213 F 
ENDBRANCH   3   7
TORSDOF 2
ENDMDL
MODEL 5
REMARK VINA RESULT:      -4.3      2.413      3.237
REMARK  2 active torsions:
REMARK  status: ('A' for Active; 'I' for Inactive)
REMARK    1  A    between atoms: C1_1  and  C5_5 
REMARK    2  A    between atoms: C4_4  and  C5_5 
ROOT
HETATM    1  C2  UNL     1     -34.458   5.561   6.284  1.00 20.00     0.032 C 
HETATM    2  C3  UNL     1     -35.715   6.212   4.223  1.00 20.00     0.032 C 
HETATM    3  C5  UNL     1     -34.321   6.051   4.838  1.00 20.00     0.100 C 
ENDROOT
BRANCH   3   4
HETATM    4  C1  UNL     1     -33.539   7.397   4.784  1.00 20.00     0.186 C 
HETATM    5  O6  UNL     1     -32.604   7.457   3.935  1.00 20.00    -0.647 OA
HETATM    6  O7  UNL     1     -33.935   8.295   5.582  1.00 20.00    -0.647 OA
ENDBRANCH   3   4
BRANCH   3   7
HETATM    7  C4  UNL     1     -33.500   5.050   4.022  1.00 20.00     0.371 C 
HETATM    8  F8  UNL     1     -33.711   5.228   2.694  1.00 20.00    -0.213 F 
HETATM    9  F9  UNL     1     -33.875   3.777   4.308  1.00 20.00    -0.213 F 
ENDBRANCH   3   7
TORSDOF 2
ENDMDL
MODEL 6
REMARK VINA RESULT:      -4.0      2.092      2.841
REMARK  2 active torsions:
REMARK  status: ('A' for Active; 'I' for Inactive)
REMARK    1  A    between atoms: C1_1  and  C5_5 
REMARK    2  A    between atoms: C4_4  and  C5_5 
ROOT
HETATM    1  C2  UNL     1     -34.111   7.411   6.006  1.00 20.00     0.032 C 
HETATM    2  C3  UNL     1     -35.542   6.225   4.335  1.00 20.00     0.032 C 
HETATM    3  C5  UNL     1     -34.130   6.329   4.920  1.00 20.00     0.100 C 
ENDROOT
BRANCH   3   4
HETATM    4  C1  UNL     1     -33.096   6.654   3.802  1.00 20.00     0.186 C 
HETATM    5  O6  UNL     1     -32.454   7.734   3.943  1.00 20.00    -0.647 OA
HETATM    6  O7  UNL     1     -32.993   5.793   2.881  1.00 20.00    -0.647 OA
ENDBRANCH   3   4
BRANCH   3   7
HETATM    7  C4  UNL     1     -33.706   4.984   5.513  1.00 20.00     0.371 C 
HETATM    8  F8  UNL     1     -34.147   3.960   4.739  1.00 20.00    -0.213 F 
HETATM    9  F9  UNL     1     -34.256   4.807   6.741  1.00 20.00    -0.213 F 
ENDBRANCH   3   7
TORSDOF 2
ENDMDL
MODEL 7
REMARK VINA RESULT:      -4.0      1.963      2.595
REMARK  2 active torsions:
REMARK  status: ('A' for Active; 'I' for Inactive)
REMARK    1  A    between atoms: C1_1  and  C5_5 
REMARK    2  A    between atoms: C4_4  and  C5_5 
ROOT
HETATM    1  C2  UNL     1     -33.938   4.586   4.183  1.00 20.00     0.032 C 
HETATM    2  C3  UNL     1     -35.702   6.359   4.164  1.00 20.00     0.032 C 
HETATM    3  C5  UNL     1     -34.314   5.982   4.694  1.00 20.00     0.100 C 
ENDROOT
BRANCH   3   4
HETATM    4  C1  UNL     1     -34.293   6.022   6.250  1.00 20.00     0.186 C 
HETATM    5  O6  UNL     1     -34.163   4.905   6.828  1.00 20.00    -0.647 OA
HETATM    6  O7  UNL     1     -34.389   7.169   6.772  1.00 20.00    -0.647 OA
ENDBRANCH   3   4
BRANCH   3   7
HETATM    7  C4  UNL     1     -33.278   7.007   4.228  1.00 20.00     0.371 C 
HETATM    8  F8  UNL     1     -33.860   8.214   4.018  1.00 20.00    -0.213 F 
HETATM    9  F9  UNL     1     -32.728   6.629   3.046  1.00 20.00    -0.213 F 
ENDBRANCH   3   7
TORSDOF 2
ENDMDL
MODEL 8
REMARK VINA RESULT:      -3.9     12.214     13.117
REMARK  2 active torsions:
REMARK  status: ('A' for Active; 'I' for Inactive)
REMARK    1  A    between atoms: C1_1  and  C5_5 
REMARK    2  A    between atoms: C4_4  and  C5_5 
ROOT
HETATM    1  C2  UNL     1     -34.005  15.068  -6.450  1.00 20.00     0.032 C 
HETATM    2  C3  UNL     1     -35.078  16.646  -4.835  1.00 20.00     0.032 C 
HETATM    3  C5  UNL     1     -34.675  15.187  -5.077  1.00 20.00     0.100 C 
ENDROOT
BRANCH   3   4
HETATM    4  C1  UNL     1     -35.918  14.253  -4.987  1.00 20.00     0.186 C 
HETATM    5  O6  UNL     1     -36.975  14.691  -5.525  1.00 20.00    -0.647 OA
HETATM    6  O7  UNL     1     -35.733  13.147  -4.404  1.00 20.00    -0.647 OA
ENDBRANCH   3   4
BRANCH   3   7
HETATM    7  C4  UNL     1     -33.713  14.721  -3.982  1.00 20.00     0.371 C 
HETATM    8  F8  UNL     1     -33.838  15.493  -2.873  1.00 20.00    -0.213 F 
HETATM    9  F9  UNL     1     -32.425  14.839  -4.394  1.00 20.00    -0.213 F 
ENDBRANCH   3   7
TORSDOF 2
ENDMDL
MODEL 9
REMARK VINA RESULT:      -3.8      2.507      3.164
REMARK  2 active torsions:
REMARK  status: ('A' for Active; 'I' for Inactive)
REMARK    1  A    between atoms: C1_1  and  C5_5 
REMARK    2  A    between atoms: C4_4  and  C5_5 
ROOT
HETATM    1  C2  UNL     1     -35.761   6.146   4.206  1.00 20.00     0.032 C 
HETATM    2  C3  UNL     1     -33.795   7.690   4.160  1.00 20.00     0.032 C 
HETATM    3  C5  UNL     1     -34.293   6.314   4.615  1.00 20.00     0.100 C 
ENDROOT
BRANCH   3   4
HETATM    4  C1  UNL     1     -34.128   6.154   6.155  1.00 20.00     0.186 C 
HETATM    5  O6  UNL     1     -33.293   6.928   6.703  1.00 20.00    -0.647 OA
HETATM    6  O7  UNL     1     -34.862   5.279   6.698  1.00 20.00    -0.647 OA
ENDBRANCH   3   4
BRANCH   3   7
HETATM    7  C4  UNL     1     -33.442   5.212   3.979  1.00 20.00     0.371 C 
HETATM    8  F8  UNL     1     -33.345   5.396   2.639  1.00 20.00    -0.213 F 
HETATM    9  F9  UNL     1     -34.017   3.997   4.165  1.00 20.00    -0.213 F 
ENDBRANCH   3   7
TORSDOF 2
ENDMDL
