MODEL 1
REMARK VINA RESULT:      -4.6      0.000      0.000
REMARK  1 active torsions:
REMARK  status: ('A' for Active; 'I' for Inactive)
REMARK    1  A    between atoms: C5_5  and  C10_10 
ROOT
HETATM    1  C1  UNL     1     -33.735   5.796   3.952  1.00 20.00     0.027 A 
HETATM    2  C2  UNL     1     -33.639   7.231   5.879  1.00 20.00     0.027 A 
HETATM    3  C3  UNL     1     -34.692   5.051   4.622  1.00 20.00     0.116 A 
HETATM    4  C4  UNL     1     -34.601   6.423   6.462  1.00 20.00     0.116 A 
HETATM    5  C5  UNL     1     -33.203   6.905   4.600  1.00 20.00    -0.051 A 
HETATM    6  N11 UNL     1     -35.141   5.337   5.864  1.00 20.00    -0.273 NA
ENDROOT
BRANCH   5   7
HETATM    7  C10 UNL     1     -32.091   7.807   3.873  1.00 20.00     0.026 C 
HETATM    8  C8  UNL     1     -31.917   7.684   2.326  1.00 20.00     0.043 C 
HETATM    9  C6  UNL     1     -32.607   9.023   2.269  1.00 20.00    -0.088 C 
HETATM   10  C7  UNL     1     -33.218   9.691   1.289  1.00 20.00     0.014 C 
HETATM   11  C9  UNL     1     -32.351   9.339   3.721  1.00 20.00     0.043 C 
ENDBRANCH   5   7
TORSDOF 1
ENDMDL
MODEL 2
REMARK VINA RESULT:      -4.5      0.102      1.421
REMARK  1 active torsions:
REMARK  status: ('A' for Active; 'I' for Inactive)
REMARK    1  A    between atoms: C5_5  and  C10_10 
ROOT
HETATM    1  C1  UNL     1     -33.598   7.261   5.794  1.00 20.00     0.027 A 
HETATM    2  C2  UNL     1     -33.771   5.781   3.907  1.00 20.00     0.027 A 
HETATM    3  C3  UNL     1     -34.566   6.491   6.419  1.00 20.00     0.116 A 
HETATM    4  C4  UNL     1     -34.729   5.076   4.616  1.00 20.00     0.116 A 
HETATM    5  C5  UNL     1     -33.199   6.893   4.515  1.00 20.00    -0.051 A 
HETATM    6  N11 UNL     1     -35.144   5.404   5.861  1.00 20.00    -0.273 NA
ENDROOT
BRANCH   5   7
HETATM    7  C10 UNL     1     -32.081   7.748   3.742  1.00 20.00     0.026 C 
HETATM    8  C8  UNL     1     -31.994   7.639   2.186  1.00 20.00     0.043 C 
HETATM    9  C6  UNL     1     -32.616   9.011   2.181  1.00 20.00    -0.088 C 
HETATM   10  C7  UNL     1     -33.242   9.722   1.241  1.00 20.00     0.014 C 
HETATM   11  C9  UNL     1     -32.270   9.294   3.621  1.00 20.00     0.043 C 
ENDBRANCH   5   7
TORSDOF 1
ENDMDL
MODEL 3
REMARK VINA RESULT:      -4.4     11.653     12.671
REMARK  1 active torsions:
REMARK  status: ('A' for Active; 'I' for Inactive)
REMARK    1  A    between atoms: C5_5  and  C10_10 
ROOT
HETATM    1  C1  UNL     1     -34.713  17.299  -4.628  1.00 20.00     0.027 A 
HETATM    2  C2  UNL     1     -33.258  15.931  -3.288  1.00 20.00     0.027 A 
HETATM    3  C3  UNL     1     -34.654  16.314  -5.601  1.00 20.00     0.116 A 
HETATM    4  C4  UNL     1     -33.265  15.008  -4.320  1.00 20.00     0.116 A 
HETATM    5  C5  UNL     1     -33.999  17.097  -3.453  1.00 20.00    -0.051 A 
HETATM    6  N11 UNL     1     -33.947  15.170  -5.477  1.00 20.00    -0.273 NA
ENDROOT
BRANCH   5   7
HETATM    7  C10 UNL     1     -34.029  18.204  -2.289  1.00 20.00     0.026 C 
HETATM    8  C8  UNL     1     -33.723  17.761  -0.823  1.00 20.00     0.043 C 
HETATM    9  C6  UNL     1     -32.397  18.447  -1.028  1.00 20.00    -0.088 C 
HETATM   10  C7  UNL     1     -31.229  18.378  -0.386  1.00 20.00     0.014 C 
HETATM   11  C9  UNL     1     -32.868  19.245  -2.216  1.00 20.00     0.043 C 
ENDBRANCH   5   7
TORSDOF 1
ENDMDL
MODEL 4
REMARK VINA RESULT:      -4.3     11.584     12.646
REMARK  1 active torsions:
REMARK  status: ('A' for Active; 'I' for Inactive)
REMARK    1  A    between atoms: C5_5  and  C10_10 
ROOT
HETATM    1  C1  UNL     1     -33.292  15.894  -3.207  1.00 20.00     0.027 A 
HETATM    2  C2  UNL     1     -34.690  17.288  -4.581  1.00 20.00     0.027 A 
HETATM    3  C3  UNL     1     -33.300  14.965  -4.236  1.00 20.00     0.116 A 
HETATM    4  C4  UNL     1     -34.634  16.298  -5.547  1.00 20.00     0.116 A 
HETATM    5  C5  UNL     1     -34.003  17.074  -3.390  1.00 20.00    -0.051 A 
HETATM    6  N11 UNL     1     -33.955  15.138  -5.406  1.00 20.00    -0.273 NA
ENDROOT
BRANCH   5   7
HETATM    7  C10 UNL     1     -34.031  18.187  -2.233  1.00 20.00     0.026 C 
HETATM    8  C8  UNL     1     -33.667  17.764  -0.775  1.00 20.00     0.043 C 
HETATM    9  C6  UNL     1     -32.368  18.487  -1.023  1.00 20.00    -0.088 C 
HETATM   10  C7  UNL     1     -31.180  18.457  -0.417  1.00 20.00     0.014 C 
HETATM   11  C9  UNL     1     -32.899  19.263  -2.202  1.00 20.00     0.043 C 
ENDBRANCH   5   7
TORSDOF 1
ENDMDL
MODEL 5
REMARK VINA RESULT:      -4.1     11.597     12.311
REMARK  1 active torsions:
REMARK  status: ('A' for Active; 'I' for Inactive)
REMARK    1  A    between atoms: C5_5  and  C10_10 
ROOT
HETATM    1  C1  UNL     1     -32.967  19.262   1.714  1.00 20.00     0.027 A 
HETATM    2  C2  UNL     1     -31.044  18.562   0.452  1.00 20.00     0.027 A 
HETATM    3  C3  UNL     1     -32.199  19.124   2.859  1.00 20.00     0.116 A 
HETATM    4  C4  UNL     1     -30.362  18.456   1.652  1.00 20.00     0.116 A 
HETATM    5  C5  UNL     1     -32.372  18.973   0.492  1.00 20.00    -0.051 A 
HETATM    6  N11 UNL     1     -30.907  18.727   2.860  1.00 20.00    -0.273 NA
ENDROOT
BRANCH   5   7
HETATM    7  C10 UNL     1     -33.213  19.116  -0.869  1.00 20.00     0.026 C 
HETATM    8  C8  UNL     1     -32.519  18.756  -2.222  1.00 20.00     0.043 C 
HETATM    9  C6  UNL     1     -33.368  17.512  -2.181  1.00 20.00    -0.088 C 
HETATM   10  C7  UNL     1     -33.295  16.340  -2.815  1.00 20.00     0.014 C 
HETATM   11  C9  UNL     1     -34.335  18.072  -1.168  1.00 20.00     0.043 C 
ENDBRANCH   5   7
TORSDOF 1
ENDMDL
MODEL 6
REMARK VINA RESULT:      -4.0     11.468     12.510
REMARK  1 active torsions:
REMARK  status: ('A' for Active; 'I' for Inactive)
REMARK    1  A    between atoms: C5_5  and  C10_10 
ROOT
HETATM    1  C1  UNL     1     -33.450  17.017  -1.763  1.00 20.00     0.027 A 
HETATM    2  C2  UNL     1     -34.853  18.331  -3.208  1.00 20.00     0.027 A 
HETATM    3  C3  UNL     1     -33.814  17.864  -0.729  1.00 20.00     0.116 A 
HETATM    4  C4  UNL     1     -35.155  19.118  -2.110  1.00 20.00     0.116 A 
HETATM    5  C5  UNL     1     -33.983  17.262  -3.024  1.00 20.00    -0.051 A 
HETATM    6  N11 UNL     1     -34.656  18.912  -0.870  1.00 20.00    -0.273 NA
ENDROOT
BRANCH   5   7
HETATM    7  C10 UNL     1     -33.597  16.314  -4.261  1.00 20.00     0.026 C 
HETATM    8  C8  UNL     1     -33.690  14.765  -4.079  1.00 20.00     0.043 C 
HETATM    9  C6  UNL     1     -34.929  14.866  -4.931  1.00 20.00    -0.088 C 
HETATM   10  C7  UNL     1     -35.960  14.045  -5.137  1.00 20.00     0.014 C 
HETATM   11  C9  UNL     1     -34.578  16.229  -5.473  1.00 20.00     0.043 C 
ENDBRANCH   5   7
TORSDOF 1
ENDMDL
MODEL 7
REMARK VINA RESULT:      -3.8     12.041     13.400
REMARK  1 active torsions:
REMARK  status: ('A' for Active; 'I' for Inactive)
REMARK    1  A    between atoms: C5_5  and  C10_10 
ROOT
HETATM    1  C1  UNL     1     -33.365  16.771  -2.574  1.00 20.00     0.027 A 
HETATM    2  C2  UNL     1     -33.661  18.361  -4.354  1.00 20.00     0.027 A 
HETATM    3  C3  UNL     1     -32.648  17.745  -1.897  1.00 20.00     0.116 A 
HETATM    4  C4  UNL     1     -32.932  19.263  -3.598  1.00 20.00     0.116 A 
HETATM    5  C5  UNL     1     -33.877  17.093  -3.826  1.00 20.00    -0.051 A 
HETATM    6  N11 UNL     1     -32.418  18.987  -2.378  1.00 20.00    -0.273 NA
ENDROOT
BRANCH   5   7
HETATM    7  C10 UNL     1     -34.717  16.005  -4.658  1.00 20.00     0.026 C 
HETATM    8  C8  UNL     1     -35.406  16.446  -5.988  1.00 20.00     0.043 C 
HETATM    9  C6  UNL     1     -34.305  15.672  -6.667  1.00 20.00    -0.088 C 
HETATM   10  C7  UNL     1     -33.829  15.674  -7.913  1.00 20.00     0.014 C 
HETATM   11  C9  UNL     1     -33.941  14.892  -5.430  1.00 20.00     0.043 C 
ENDBRANCH   5   7
TORSDOF 1
ENDMDL
MODEL 8
REMARK VINA RESULT:      -3.7     11.715     13.125
REMARK  1 active torsions:
REMARK  status: ('A' for Active; 'I' for Inactive)
REMARK    1  A    between atoms: C5_5  and  C10_10 
ROOT
HETATM    1  C1  UNL     1     -34.408  17.540  -4.615  1.00 20.00     0.027 A 
HETATM    2  C2  UNL     1     -33.393  16.069  -3.005  1.00 20.00     0.027 A 
HETATM    3  C3  UNL     1     -34.177  18.580  -3.729  1.00 20.00     0.116 A 
HETATM    4  C4  UNL     1     -33.208  17.175  -2.193  1.00 20.00     0.116 A 
HETATM    5  C5  UNL     1     -34.006  16.264  -4.239  1.00 20.00    -0.051 A 
HETATM    6  N11 UNL     1     -33.585  18.430  -2.523  1.00 20.00    -0.273 NA
ENDROOT
BRANCH   5   7
HETATM    7  C10 UNL     1     -34.247  15.019  -5.225  1.00 20.00     0.026 C 
HETATM    8  C8  UNL     1     -35.713  14.602  -5.564  1.00 20.00     0.043 C 
HETATM    9  C6  UNL     1     -35.445  15.228  -6.909  1.00 20.00    -0.088 C 
HETATM   10  C7  UNL     1     -36.244  15.650  -7.890  1.00 20.00     0.014 C 
HETATM   11  C9  UNL     1     -33.947  15.200  -6.746  1.00 20.00     0.043 C 
ENDBRANCH   5   7
TORSDOF 1
ENDMDL
MODEL 9
REMARK VINA RESULT:      -3.7     10.430     11.228
REMARK  1 active torsions:
REMARK  status: ('A' for Active; 'I' for Inactive)
REMARK    1  A    between atoms: C5_5  and  C10_10 
ROOT
HETATM    1  C1  UNL     1     -40.605  14.494   8.271  1.00 20.00     0.027 A 
HETATM    2  C2  UNL     1     -41.710  16.035   6.793  1.00 20.00     0.027 A 
HETATM    3  C3  UNL     1     -40.300  15.575   9.082  1.00 20.00     0.116 A 
HETATM    4  C4  UNL     1     -41.357  17.047   7.670  1.00 20.00     0.116 A 
HETATM    5  C5  UNL     1     -41.323  14.737   7.106  1.00 20.00    -0.051 A 
HETATM    6  N11 UNL     1     -40.658  16.850   8.811  1.00 20.00    -0.273 NA
ENDROOT
BRANCH   5   7
HETATM    7  C10 UNL     1     -41.706  13.523   6.126  1.00 20.00     0.026 C 
HETATM    8  C8  UNL     1     -41.153  13.533   4.666  1.00 20.00     0.043 C 
HETATM    9  C6  UNL     1     -40.218  12.453   5.148  1.00 20.00    -0.088 C 
HETATM   10  C7  UNL     1     -39.076  11.958   4.667  1.00 20.00     0.014 C 
HETATM   11  C9  UNL     1     -41.044  12.129   6.367  1.00 20.00     0.043 C 
ENDBRANCH   5   7
TORSDOF 1
ENDMDL
