MODEL 1
REMARK VINA RESULT:      -3.2      0.000      0.000
REMARK  1 active torsions:
REMARK  status: ('A' for Active; 'I' for Inactive)
REMARK    1  A    between atoms: N3_3  and  P4_4 
ROOT
HETATM    1  C1  UNL     1     -32.198   7.316   2.948  1.00 20.00     0.117 C 
HETATM    2  C2  UNL     1     -32.500   8.811   4.790  1.00 20.00     0.117 C 
HETATM    3  N3  UNL     1     -32.634   7.421   4.343  1.00 20.00    -0.274 NA
ENDROOT
BRANCH   3   4
HETATM    4  P4  UNL     1     -34.152   6.698   4.678  1.00 20.00     0.158 P 
HETATM    5 CL5  UNL     1     -34.102   4.635   4.282  1.00 20.00    -0.059 Cl
HETATM    6 CL6  UNL     1     -34.481   6.576   6.751  1.00 20.00    -0.059 Cl
ENDBRANCH   3   4
TORSDOF 1
ENDMDL
MODEL 2
REMARK VINA RESULT:      -3.1      0.652      1.522
REMARK  1 active torsions:
REMARK  status: ('A' for Active; 'I' for Inactive)
REMARK    1  A    between atoms: N3_3  and  P4_4 
ROOT
HETATM    1  C1  UNL     1     -32.764   8.134   5.104  1.00 20.00     0.117 C 
HETATM    2  C2  UNL     1     -32.421   6.872   3.102  1.00 20.00     0.117 C 
HETATM    3  N3  UNL     1     -33.429   7.372   4.042  1.00 20.00    -0.274 NA
ENDROOT
BRANCH   3   4
HETATM    4  P4  UNL     1     -34.550   6.198   4.591  1.00 20.00     0.158 P 
HETATM    5 CL5  UNL     1     -33.879   4.257   4.142  1.00 20.00    -0.059 Cl
HETATM    6 CL6  UNL     1     -34.495   6.034   6.686  1.00 20.00    -0.059 Cl
ENDBRANCH   3   4
TORSDOF 1
ENDMDL
MODEL 3
REMARK VINA RESULT:      -3.0      2.551      3.055
REMARK  1 active torsions:
REMARK  status: ('A' for Active; 'I' for Inactive)
REMARK    1  A    between atoms: N3_3  and  P4_4 
ROOT
HETATM    1  C1  UNL     1     -32.873   5.411   2.794  1.00 20.00     0.117 C 
HETATM    2  C2  UNL     1     -34.147   4.495   4.598  1.00 20.00     0.117 C 
HETATM    3  N3  UNL     1     -33.979   5.659   3.723  1.00 20.00    -0.274 NA
ENDROOT
BRANCH   3   4
HETATM    4  P4  UNL     1     -33.913   7.168   4.533  1.00 20.00     0.158 P 
HETATM    5 CL5  UNL     1     -33.823   6.895   6.616  1.00 20.00    -0.059 Cl
HETATM    6 CL6  UNL     1     -32.029   8.068   4.288  1.00 20.00    -0.059 Cl
ENDBRANCH   3   4
TORSDOF 1
ENDMDL
MODEL 4
REMARK VINA RESULT:      -2.9      3.037      3.786
REMARK  1 active torsions:
REMARK  status: ('A' for Active; 'I' for Inactive)
REMARK    1  A    between atoms: N3_3  and  P4_4 
ROOT
HETATM    1  C1  UNL     1     -34.318   6.791   6.560  1.00 20.00     0.117 C 
HETATM    2  C2  UNL     1     -34.830   5.385   4.694  1.00 20.00     0.117 C 
HETATM    3  N3  UNL     1     -33.889   6.378   5.220  1.00 20.00    -0.274 NA
ENDROOT
BRANCH   3   4
HETATM    4  P4  UNL     1     -33.528   7.668   4.151  1.00 20.00     0.158 P 
HETATM    5 CL5  UNL     1     -32.273   9.078   5.077  1.00 20.00    -0.059 Cl
HETATM    6 CL6  UNL     1     -32.190   7.046   2.653  1.00 20.00    -0.059 Cl
ENDBRANCH   3   4
TORSDOF 1
ENDMDL
MODEL 5
REMARK VINA RESULT:      -2.9      0.957      2.332
REMARK  1 active torsions:
REMARK  status: ('A' for Active; 'I' for Inactive)
REMARK    1  A    between atoms: N3_3  and  P4_4 
ROOT
HETATM    1  C1  UNL     1     -32.488   8.699   4.849  1.00 20.00     0.117 C 
HETATM    2  C2  UNL     1     -32.226   7.300   2.927  1.00 20.00     0.117 C 
HETATM    3  N3  UNL     1     -33.136   7.686   4.010  1.00 20.00    -0.274 NA
ENDROOT
BRANCH   3   4
HETATM    4  P4  UNL     1     -33.830   6.376   4.870  1.00 20.00     0.158 P 
HETATM    5 CL5  UNL     1     -34.333   6.950   6.828  1.00 20.00    -0.059 Cl
HETATM    6 CL6  UNL     1     -35.779   5.982   4.185  1.00 20.00    -0.059 Cl
ENDBRANCH   3   4
TORSDOF 1
ENDMDL
MODEL 6
REMARK VINA RESULT:      -2.7      3.044      3.065
REMARK  1 active torsions:
REMARK  status: ('A' for Active; 'I' for Inactive)
REMARK    1  A    between atoms: N3_3  and  P4_4 
ROOT
HETATM    1  C1  UNL     1     -35.155   5.783   4.633  1.00 20.00     0.117 C 
HETATM    2  C2  UNL     1     -34.148   6.949   6.462  1.00 20.00     0.117 C 
HETATM    3  N3  UNL     1     -34.302   6.916   5.005  1.00 20.00    -0.274 NA
ENDROOT
BRANCH   3   4
HETATM    4  P4  UNL     1     -32.838   7.035   4.121  1.00 20.00     0.158 P 
HETATM    5 CL5  UNL     1     -32.794   5.634   2.555  1.00 20.00    -0.059 Cl
HETATM    6 CL6  UNL     1     -32.816   8.774   2.940  1.00 20.00    -0.059 Cl
ENDBRANCH   3   4
TORSDOF 1
ENDMDL
MODEL 7
REMARK VINA RESULT:      -2.7     15.505     16.064
REMARK  1 active torsions:
REMARK  status: ('A' for Active; 'I' for Inactive)
REMARK    1  A    between atoms: N3_3  and  P4_4 
ROOT
HETATM    1  C1  UNL     1     -23.505  19.187   8.598  1.00 20.00     0.117 C 
HETATM    2  C2  UNL     1     -21.975  17.456   9.214  1.00 20.00     0.117 C 
HETATM    3  N3  UNL     1     -23.345  17.951   9.370  1.00 20.00    -0.274 NA
ENDROOT
BRANCH   3   4
HETATM    4  P4  UNL     1     -23.901  18.037  10.990  1.00 20.00     0.158 P 
HETATM    5 CL5  UNL     1     -24.449  16.134  11.694  1.00 20.00    -0.059 Cl
HETATM    6 CL6  UNL     1     -22.302  18.375  12.312  1.00 20.00    -0.059 Cl
ENDBRANCH   3   4
TORSDOF 1
ENDMDL
MODEL 8
REMARK VINA RESULT:      -2.6     15.365     16.010
REMARK  1 active torsions:
REMARK  status: ('A' for Active; 'I' for Inactive)
REMARK    1  A    between atoms: N3_3  and  P4_4 
ROOT
HETATM    1  C1  UNL     1     -25.061  19.128   9.015  1.00 20.00     0.117 C 
HETATM    2  C2  UNL     1     -25.792  19.085  11.291  1.00 20.00     0.117 C 
HETATM    3  N3  UNL     1     -24.621  19.046  10.411  1.00 20.00    -0.274 NA
ENDROOT
BRANCH   3   4
HETATM    4  P4  UNL     1     -23.511  17.782  10.742  1.00 20.00     0.158 P 
HETATM    5 CL5  UNL     1     -22.236  18.304  12.329  1.00 20.00    -0.059 Cl
HETATM    6 CL6  UNL     1     -24.476  16.166  11.678  1.00 20.00    -0.059 Cl
ENDBRANCH   3   4
TORSDOF 1
ENDMDL
MODEL 9
REMARK VINA RESULT:      -2.5      1.469      2.482
REMARK  1 active torsions:
REMARK  status: ('A' for Active; 'I' for Inactive)
REMARK    1  A    between atoms: N3_3  and  P4_4 
ROOT
HETATM    1  C1  UNL     1     -32.883   8.646   5.288  1.00 20.00     0.117 C 
HETATM    2  C2  UNL     1     -32.177   8.089   3.072  1.00 20.00     0.117 C 
HETATM    3  N3  UNL     1     -33.198   7.851   4.097  1.00 20.00    -0.274 NA
ENDROOT
BRANCH   3   4
HETATM    4  P4  UNL     1     -33.541   6.200   4.404  1.00 20.00     0.158 P 
HETATM    5 CL5  UNL     1     -35.616   5.864   4.453  1.00 20.00    -0.059 Cl
HETATM    6 CL6  UNL     1     -33.108   5.020   2.718  1.00 20.00    -0.059 Cl
ENDBRANCH   3   4
TORSDOF 1
ENDMDL
