MODEL 1
REMARK VINA RESULT:      -4.6      0.000      0.000
REMARK  2 active torsions:
REMARK  status: ('A' for Active; 'I' for Inactive)
REMARK    1  A    between atoms: C5_5  and  S7_7 
REMARK    2  A    between atoms: C6_6  and  S8_8 
ROOT
HETATM    1  C1  UNL     1     -34.825   5.285   6.076  1.00 20.00     0.001 A 
HETATM    2  C2  UNL     1     -34.545   6.553   6.586  1.00 20.00     0.001 A 
HETATM    3  C3  UNL     1     -34.355   4.921   4.813  1.00 20.00     0.019 A 
HETATM    4  C4  UNL     1     -33.796   7.457   5.834  1.00 20.00     0.019 A 
HETATM    5  C5  UNL     1     -33.605   5.825   4.061  1.00 20.00     0.014 A 
HETATM    6  C6  UNL     1     -33.325   7.094   4.571  1.00 20.00     0.014 A 
ENDROOT
BRANCH   5   7
HETATM    7  S7  UNL     1     -33.046   5.267   2.452  1.00 20.00    -0.142 SA
HETATM    8  H13 UNL     1     -34.257   4.978   1.954  1.00 20.00     0.107 HD
ENDBRANCH   5   7
BRANCH   6   9
HETATM    9  S8  UNL     1     -32.371   8.324   3.681  1.00 20.00    -0.142 SA
HETATM   10  H14 UNL     1     -32.169   9.149   4.717  1.00 20.00     0.107 HD
ENDBRANCH   6   9
TORSDOF 2
ENDMDL
MODEL 2
REMARK VINA RESULT:      -4.6      0.049      2.398
REMARK  2 active torsions:
REMARK  status: ('A' for Active; 'I' for Inactive)
REMARK    1  A    between atoms: C5_5  and  S7_7 
REMARK    2  A    between atoms: C6_6  and  S8_8 
ROOT
HETATM    1  C1  UNL     1     -34.529   6.622   6.576  1.00 20.00     0.001 A 
HETATM    2  C2  UNL     1     -34.820   5.347   6.090  1.00 20.00     0.001 A 
HETATM    3  C3  UNL     1     -33.775   7.508   5.806  1.00 20.00     0.019 A 
HETATM    4  C4  UNL     1     -34.357   4.958   4.833  1.00 20.00     0.019 A 
HETATM    5  C5  UNL     1     -33.312   7.119   4.548  1.00 20.00     0.014 A 
HETATM    6  C6  UNL     1     -33.603   5.844   4.062  1.00 20.00     0.014 A 
ENDROOT
BRANCH   5   7
HETATM    7  S7  UNL     1     -32.352   8.326   3.634  1.00 20.00    -0.142 SA
HETATM    8  H13 UNL     1     -32.900   8.090   2.434  1.00 20.00     0.107 HD
ENDBRANCH   5   7
BRANCH   6   9
HETATM    9  S8  UNL     1     -33.053   5.253   2.460  1.00 20.00    -0.142 SA
HETATM   10  H14 UNL     1     -32.259   4.275   2.916  1.00 20.00     0.107 HD
ENDBRANCH   6   9
TORSDOF 2
ENDMDL
MODEL 3
REMARK VINA RESULT:      -4.0      1.724      3.093
REMARK  2 active torsions:
REMARK  status: ('A' for Active; 'I' for Inactive)
REMARK    1  A    between atoms: C5_5  and  S7_7 
REMARK    2  A    between atoms: C6_6  and  S8_8 
ROOT
HETATM    1  C1  UNL     1     -32.966   8.775   5.283  1.00 20.00     0.001 A 
HETATM    2  C2  UNL     1     -32.198   8.718   4.120  1.00 20.00     0.001 A 
HETATM    3  C3  UNL     1     -33.772   7.694   5.641  1.00 20.00     0.019 A 
HETATM    4  C4  UNL     1     -32.235   7.580   3.314  1.00 20.00     0.019 A 
HETATM    5  C5  UNL     1     -33.809   6.555   4.835  1.00 20.00     0.014 A 
HETATM    6  C6  UNL     1     -33.041   6.498   3.672  1.00 20.00     0.014 A 
ENDROOT
BRANCH   5   7
HETATM    7  S7  UNL     1     -34.875   5.219   5.377  1.00 20.00    -0.142 SA
HETATM    8  H13 UNL     1     -35.813   5.369   4.432  1.00 20.00     0.107 HD
ENDBRANCH   5   7
BRANCH   6   9
HETATM    9  S8  UNL     1     -33.022   5.081   2.574  1.00 20.00    -0.142 SA
HETATM   10  H14 UNL     1     -34.247   5.260   2.061  1.00 20.00     0.107 HD
ENDBRANCH   6   9
TORSDOF 2
ENDMDL
MODEL 4
REMARK VINA RESULT:      -4.0      1.721      2.871
REMARK  2 active torsions:
REMARK  status: ('A' for Active; 'I' for Inactive)
REMARK    1  A    between atoms: C5_5  and  S7_7 
REMARK    2  A    between atoms: C6_6  and  S8_8 
ROOT
HETATM    1  C1  UNL     1     -32.195   8.731   4.137  1.00 20.00     0.001 A 
HETATM    2  C2  UNL     1     -32.970   8.781   5.296  1.00 20.00     0.001 A 
HETATM    3  C3  UNL     1     -32.224   7.595   3.327  1.00 20.00     0.019 A 
HETATM    4  C4  UNL     1     -33.774   7.696   5.645  1.00 20.00     0.019 A 
HETATM    5  C5  UNL     1     -33.029   6.510   3.676  1.00 20.00     0.014 A 
HETATM    6  C6  UNL     1     -33.804   6.560   4.835  1.00 20.00     0.014 A 
ENDROOT
BRANCH   5   7
HETATM    7  S7  UNL     1     -32.999   5.097   2.573  1.00 20.00    -0.142 SA
HETATM    8  H13 UNL     1     -31.870   5.421   1.929  1.00 20.00     0.107 HD
ENDBRANCH   5   7
BRANCH   6   9
HETATM    9  S8  UNL     1     -34.868   5.218   5.366  1.00 20.00    -0.142 SA
HETATM   10  H14 UNL     1     -35.730   5.283   4.342  1.00 20.00     0.107 HD
ENDBRANCH   6   9
TORSDOF 2
ENDMDL
MODEL 5
REMARK VINA RESULT:      -3.6      1.876      2.844
REMARK  2 active torsions:
REMARK  status: ('A' for Active; 'I' for Inactive)
REMARK    1  A    between atoms: C5_5  and  S7_7 
REMARK    2  A    between atoms: C6_6  and  S8_8 
ROOT
HETATM    1  C1  UNL     1     -33.763   4.610   3.300  1.00 20.00     0.001 A 
HETATM    2  C2  UNL     1     -32.933   5.395   2.499  1.00 20.00     0.001 A 
HETATM    3  C3  UNL     1     -34.194   5.089   4.538  1.00 20.00     0.019 A 
HETATM    4  C4  UNL     1     -32.534   6.659   2.935  1.00 20.00     0.019 A 
HETATM    5  C5  UNL     1     -33.796   6.353   4.974  1.00 20.00     0.014 A 
HETATM    6  C6  UNL     1     -32.966   7.138   4.173  1.00 20.00     0.014 A 
ENDROOT
BRANCH   5   7
HETATM    7  S7  UNL     1     -34.402   6.880   6.577  1.00 20.00    -0.142 SA
HETATM    8  H13 UNL     1     -35.131   5.787   6.840  1.00 20.00     0.107 HD
ENDBRANCH   5   7
BRANCH   6   9
HETATM    9  S8  UNL     1     -32.401   8.773   4.646  1.00 20.00    -0.142 SA
HETATM   10  H14 UNL     1     -33.503   9.437   4.271  1.00 20.00     0.107 HD
ENDBRANCH   6   9
TORSDOF 2
ENDMDL
MODEL 6
REMARK VINA RESULT:      -3.6      1.883      3.249
REMARK  2 active torsions:
REMARK  status: ('A' for Active; 'I' for Inactive)
REMARK    1  A    between atoms: C5_5  and  S7_7 
REMARK    2  A    between atoms: C6_6  and  S8_8 
ROOT
HETATM    1  C1  UNL     1     -32.920   5.417   2.490  1.00 20.00     0.001 A 
HETATM    2  C2  UNL     1     -33.748   4.626   3.288  1.00 20.00     0.001 A 
HETATM    3  C3  UNL     1     -32.526   6.681   2.931  1.00 20.00     0.019 A 
HETATM    4  C4  UNL     1     -34.180   5.098   4.527  1.00 20.00     0.019 A 
HETATM    5  C5  UNL     1     -32.958   7.153   4.171  1.00 20.00     0.014 A 
HETATM    6  C6  UNL     1     -33.785   6.362   4.969  1.00 20.00     0.014 A 
ENDROOT
BRANCH   5   7
HETATM    7  S7  UNL     1     -32.399   8.788   4.651  1.00 20.00    -0.142 SA
HETATM    8  H13 UNL     1     -32.407   8.577   5.974  1.00 20.00     0.107 HD
ENDBRANCH   5   7
BRANCH   6   9
HETATM    9  S8  UNL     1     -34.392   6.880   6.575  1.00 20.00    -0.142 SA
HETATM   10  H14 UNL     1     -33.196   6.997   7.167  1.00 20.00     0.107 HD
ENDBRANCH   6   9
TORSDOF 2
ENDMDL
MODEL 7
REMARK VINA RESULT:      -3.4      2.071      3.704
REMARK  2 active torsions:
REMARK  status: ('A' for Active; 'I' for Inactive)
REMARK    1  A    between atoms: C5_5  and  S7_7 
REMARK    2  A    between atoms: C6_6  and  S8_8 
ROOT
HETATM    1  C1  UNL     1     -32.305   6.607   2.382  1.00 20.00     0.001 A 
HETATM    2  C2  UNL     1     -32.931   5.373   2.562  1.00 20.00     0.001 A 
HETATM    3  C3  UNL     1     -32.442   7.606   3.347  1.00 20.00     0.019 A 
HETATM    4  C4  UNL     1     -33.692   5.137   3.706  1.00 20.00     0.019 A 
HETATM    5  C5  UNL     1     -33.203   7.370   4.492  1.00 20.00     0.014 A 
HETATM    6  C6  UNL     1     -33.829   6.136   4.672  1.00 20.00     0.014 A 
ENDROOT
BRANCH   5   7
HETATM    7  S7  UNL     1     -33.320   8.713   5.674  1.00 20.00    -0.142 SA
HETATM    8  H13 UNL     1     -32.080   8.597   6.170  1.00 20.00     0.107 HD
ENDBRANCH   5   7
BRANCH   6   9
HETATM    9  S8  UNL     1     -34.827   5.738   6.107  1.00 20.00    -0.142 SA
HETATM   10  H14 UNL     1     -34.577   6.863   6.791  1.00 20.00     0.107 HD
ENDBRANCH   6   9
TORSDOF 2
ENDMDL
MODEL 8
REMARK VINA RESULT:      -3.3     16.453     17.178
REMARK  2 active torsions:
REMARK  status: ('A' for Active; 'I' for Inactive)
REMARK    1  A    between atoms: C5_5  and  S7_7 
REMARK    2  A    between atoms: C6_6  and  S8_8 
ROOT
HETATM    1  C1  UNL     1     -24.017  19.197   8.122  1.00 20.00     0.001 A 
HETATM    2  C2  UNL     1     -22.673  18.904   8.358  1.00 20.00     0.001 A 
HETATM    3  C3  UNL     1     -24.927  19.193   9.179  1.00 20.00     0.019 A 
HETATM    4  C4  UNL     1     -22.240  18.608   9.650  1.00 20.00     0.019 A 
HETATM    5  C5  UNL     1     -24.494  18.898  10.472  1.00 20.00     0.014 A 
HETATM    6  C6  UNL     1     -23.150  18.605  10.708  1.00 20.00     0.014 A 
ENDROOT
BRANCH   5   7
HETATM    7  S7  UNL     1     -25.738  18.919  11.764  1.00 20.00    -0.142 SA
HETATM    8  H13 UNL     1     -25.764  20.247  11.939  1.00 20.00     0.107 HD
ENDBRANCH   5   7
BRANCH   6   9
HETATM    9  S8  UNL     1     -22.499  18.214  12.332  1.00 20.00    -0.142 SA
HETATM   10  H14 UNL     1     -22.276  19.476  12.723  1.00 20.00     0.107 HD
ENDBRANCH   6   9
TORSDOF 2
ENDMDL
MODEL 9
REMARK VINA RESULT:      -3.0     12.940     13.884
REMARK  2 active torsions:
REMARK  status: ('A' for Active; 'I' for Inactive)
REMARK    1  A    between atoms: C5_5  and  S7_7 
REMARK    2  A    between atoms: C6_6  and  S8_8 
ROOT
HETATM    1  C1  UNL     1     -33.325  16.711  -2.297  1.00 20.00     0.001 A 
HETATM    2  C2  UNL     1     -34.070  17.889  -2.224  1.00 20.00     0.001 A 
HETATM    3  C3  UNL     1     -33.394  15.912  -3.439  1.00 20.00     0.019 A 
HETATM    4  C4  UNL     1     -34.883  18.267  -3.291  1.00 20.00     0.019 A 
HETATM    5  C5  UNL     1     -34.207  16.291  -4.507  1.00 20.00     0.014 A 
HETATM    6  C6  UNL     1     -34.952  17.469  -4.434  1.00 20.00     0.014 A 
ENDROOT
BRANCH   5   7
HETATM    7  S7  UNL     1     -34.230  15.200  -5.930  1.00 20.00    -0.142 SA
HETATM    8  H13 UNL     1     -34.918  16.013  -6.744  1.00 20.00     0.107 HD
ENDBRANCH   5   7
BRANCH   6   9
HETATM    9  S8  UNL     1     -36.025  18.039  -5.753  1.00 20.00    -0.142 SA
HETATM   10  H14 UNL     1     -35.117  17.969  -6.737  1.00 20.00     0.107 HD
ENDBRANCH   6   9
TORSDOF 2
ENDMDL
