MODEL 1
REMARK VINA RESULT:      -5.9      0.000      0.000
REMARK  0 active torsions:
REMARK  status: ('A' for Active; 'I' for Inactive)
ROOT
HETATM    1  C1  UNL     1     -34.758   5.367   6.064  1.00 20.00     0.002 A 
HETATM    2  C2  UNL     1     -34.436   6.657   6.484  1.00 20.00     0.002 A 
HETATM    3  C3  UNL     1     -34.340   4.916   4.812  1.00 20.00     0.025 A 
HETATM    4  C4  UNL     1     -33.697   7.498   5.653  1.00 20.00     0.025 A 
HETATM    5  C5  UNL     1     -33.599   5.756   3.980  1.00 20.00     0.055 A 
HETATM    6  C6  UNL     1     -33.278   7.048   4.401  1.00 20.00     0.055 A 
HETATM    7 CL7  UNL     1     -33.109   5.142   2.441  1.00 20.00    -0.083 Cl
HETATM    8 CL8  UNL     1     -32.364   8.136   3.416  1.00 20.00    -0.083 Cl
ENDROOT
TORSDOF 0
ENDMDL
MODEL 2
REMARK VINA RESULT:      -5.9      0.021      2.353
REMARK  0 active torsions:
REMARK  status: ('A' for Active; 'I' for Inactive)
ROOT
HETATM    1  C1  UNL     1     -34.426   6.678   6.481  1.00 20.00     0.002 A 
HETATM    2  C2  UNL     1     -34.765   5.391   6.063  1.00 20.00     0.002 A 
HETATM    3  C3  UNL     1     -33.675   7.508   5.648  1.00 20.00     0.025 A 
HETATM    4  C4  UNL     1     -34.352   4.934   4.811  1.00 20.00     0.025 A 
HETATM    5  C5  UNL     1     -33.264   7.051   4.396  1.00 20.00     0.055 A 
HETATM    6  C6  UNL     1     -33.602   5.763   3.978  1.00 20.00     0.055 A 
HETATM    7 CL7  UNL     1     -32.336   8.124   3.409  1.00 20.00    -0.083 Cl
HETATM    8 CL8  UNL     1     -33.121   5.139   2.439  1.00 20.00    -0.083 Cl
ENDROOT
TORSDOF 0
ENDMDL
MODEL 3
REMARK VINA RESULT:      -5.8      1.024      1.197
REMARK  0 active torsions:
REMARK  status: ('A' for Active; 'I' for Inactive)
ROOT
HETATM    1  C1  UNL     1     -34.685   5.075   5.183  1.00 20.00     0.002 A 
HETATM    2  C2  UNL     1     -34.671   5.940   6.276  1.00 20.00     0.002 A 
HETATM    3  C3  UNL     1     -33.988   5.408   4.021  1.00 20.00     0.025 A 
HETATM    4  C4  UNL     1     -33.961   7.138   6.209  1.00 20.00     0.025 A 
HETATM    5  C5  UNL     1     -33.276   6.606   3.954  1.00 20.00     0.055 A 
HETATM    6  C6  UNL     1     -33.263   7.471   5.048  1.00 20.00     0.055 A 
HETATM    7 CL7  UNL     1     -32.432   6.963   2.489  1.00 20.00    -0.083 Cl
HETATM    8 CL8  UNL     1     -32.401   8.969   5.026  1.00 20.00    -0.083 Cl
ENDROOT
TORSDOF 0
ENDMDL
MODEL 4
REMARK VINA RESULT:      -5.8      1.022      2.437
REMARK  0 active torsions:
REMARK  status: ('A' for Active; 'I' for Inactive)
ROOT
HETATM    1  C1  UNL     1     -34.668   5.919   6.251  1.00 20.00     0.002 A 
HETATM    2  C2  UNL     1     -34.673   5.064   5.150  1.00 20.00     0.002 A 
HETATM    3  C3  UNL     1     -33.960   7.120   6.200  1.00 20.00     0.025 A 
HETATM    4  C4  UNL     1     -33.969   5.409   3.996  1.00 20.00     0.025 A 
HETATM    5  C5  UNL     1     -33.258   7.467   5.045  1.00 20.00     0.055 A 
HETATM    6  C6  UNL     1     -33.262   6.610   3.943  1.00 20.00     0.055 A 
HETATM    7 CL7  UNL     1     -32.401   8.967   5.041  1.00 20.00    -0.083 Cl
HETATM    8 CL8  UNL     1     -32.411   6.983   2.486  1.00 20.00    -0.083 Cl
ENDROOT
TORSDOF 0
ENDMDL
MODEL 5
REMARK VINA RESULT:      -5.5      1.591      2.819
REMARK  0 active torsions:
REMARK  status: ('A' for Active; 'I' for Inactive)
ROOT
HETATM    1  C1  UNL     1     -33.150   8.530   5.307  1.00 20.00     0.002 A 
HETATM    2  C2  UNL     1     -32.304   8.577   4.199  1.00 20.00     0.002 A 
HETATM    3  C3  UNL     1     -33.934   7.399   5.540  1.00 20.00     0.025 A 
HETATM    4  C4  UNL     1     -32.242   7.493   3.323  1.00 20.00     0.025 A 
HETATM    5  C5  UNL     1     -33.870   6.315   4.664  1.00 20.00     0.055 A 
HETATM    6  C6  UNL     1     -33.024   6.362   3.555  1.00 20.00     0.055 A 
HETATM    7 CL7  UNL     1     -34.864   4.943   5.004  1.00 20.00    -0.083 Cl
HETATM    8 CL8  UNL     1     -32.903   5.052   2.434  1.00 20.00    -0.083 Cl
ENDROOT
TORSDOF 0
ENDMDL
MODEL 6
REMARK VINA RESULT:      -5.5      1.589      2.754
REMARK  0 active torsions:
REMARK  status: ('A' for Active; 'I' for Inactive)
ROOT
HETATM    1  C1  UNL     1     -32.321   8.611   4.208  1.00 20.00     0.002 A 
HETATM    2  C2  UNL     1     -33.176   8.575   5.309  1.00 20.00     0.002 A 
HETATM    3  C3  UNL     1     -32.252   7.519   3.342  1.00 20.00     0.025 A 
HETATM    4  C4  UNL     1     -33.963   7.448   5.545  1.00 20.00     0.025 A 
HETATM    5  C5  UNL     1     -33.039   6.392   3.578  1.00 20.00     0.055 A 
HETATM    6  C6  UNL     1     -33.894   6.356   4.680  1.00 20.00     0.055 A 
HETATM    7 CL7  UNL     1     -32.911   5.071   2.471  1.00 20.00    -0.083 Cl
HETATM    8 CL8  UNL     1     -34.893   4.988   5.025  1.00 20.00    -0.083 Cl
ENDROOT
TORSDOF 0
ENDMDL
MODEL 7
REMARK VINA RESULT:      -5.1      2.071      3.689
REMARK  0 active torsions:
REMARK  status: ('A' for Active; 'I' for Inactive)
ROOT
HETATM    1  C1  UNL     1     -32.226   8.494   3.780  1.00 20.00     0.002 A 
HETATM    2  C2  UNL     1     -32.225   7.468   2.835  1.00 20.00     0.002 A 
HETATM    3  C3  UNL     1     -32.913   8.335   4.983  1.00 20.00     0.025 A 
HETATM    4  C4  UNL     1     -32.913   6.282   3.093  1.00 20.00     0.025 A 
HETATM    5  C5  UNL     1     -33.600   7.149   5.242  1.00 20.00     0.055 A 
HETATM    6  C6  UNL     1     -33.601   6.123   4.296  1.00 20.00     0.055 A 
HETATM    7 CL7  UNL     1     -34.433   7.011   6.750  1.00 20.00    -0.083 Cl
HETATM    8 CL8  UNL     1     -34.434   4.631   4.558  1.00 20.00    -0.083 Cl
ENDROOT
TORSDOF 0
ENDMDL
MODEL 8
REMARK VINA RESULT:      -5.0      1.960      3.254
REMARK  0 active torsions:
REMARK  status: ('A' for Active; 'I' for Inactive)
ROOT
HETATM    1  C1  UNL     1     -32.928   5.679   2.645  1.00 20.00     0.002 A 
HETATM    2  C2  UNL     1     -33.804   4.913   3.413  1.00 20.00     0.002 A 
HETATM    3  C3  UNL     1     -32.492   6.919   3.112  1.00 20.00     0.025 A 
HETATM    4  C4  UNL     1     -34.246   5.388   4.648  1.00 20.00     0.025 A 
HETATM    5  C5  UNL     1     -32.933   7.394   4.347  1.00 20.00     0.055 A 
HETATM    6  C6  UNL     1     -33.810   6.628   5.115  1.00 20.00     0.055 A 
HETATM    7 CL7  UNL     1     -32.358   8.937   4.872  1.00 20.00    -0.083 Cl
HETATM    8 CL8  UNL     1     -34.392   7.161   6.653  1.00 20.00    -0.083 Cl
ENDROOT
TORSDOF 0
ENDMDL
MODEL 9
REMARK VINA RESULT:      -5.0      1.956      2.812
REMARK  0 active torsions:
REMARK  status: ('A' for Active; 'I' for Inactive)
ROOT
HETATM    1  C1  UNL     1     -33.799   4.910   3.406  1.00 20.00     0.002 A 
HETATM    2  C2  UNL     1     -32.917   5.666   2.635  1.00 20.00     0.002 A 
HETATM    3  C3  UNL     1     -34.244   5.396   4.636  1.00 20.00     0.025 A 
HETATM    4  C4  UNL     1     -32.479   6.908   3.093  1.00 20.00     0.025 A 
HETATM    5  C5  UNL     1     -33.807   6.639   5.094  1.00 20.00     0.055 A 
HETATM    6  C6  UNL     1     -32.923   7.395   4.322  1.00 20.00     0.055 A 
HETATM    7 CL7  UNL     1     -34.393   7.188   6.624  1.00 20.00    -0.083 Cl
HETATM    8 CL8  UNL     1     -32.345   8.941   4.836  1.00 20.00    -0.083 Cl
ENDROOT
TORSDOF 0
ENDMDL
