MODEL 1
REMARK VINA RESULT:      -6.2      0.000      0.000
REMARK  0 active torsions:
REMARK  status: ('A' for Active; 'I' for Inactive)
ROOT
HETATM    1  C1  UNL     1     -34.710   5.650   6.250  1.00 20.00     0.001 A 
HETATM    2  C2  UNL     1     -34.624   4.950   5.043  1.00 20.00     0.003 A 
HETATM    3  C3  UNL     1     -34.101   6.903   6.406  1.00 20.00     0.016 A 
HETATM    4  C4  UNL     1     -33.927   5.471   3.947  1.00 20.00     0.040 A 
HETATM    5  C5  UNL     1     -32.664   8.605   5.029  1.00 20.00     0.161 A 
HETATM    6  C6  UNL     1     -33.399   7.439   5.317  1.00 20.00     0.019 A 
HETATM    7  C7  UNL     1     -33.334   6.716   4.138  1.00 20.00     0.113 A 
HETATM    8  N8  UNL     1     -32.184   8.611   3.783  1.00 20.00    -0.140 NA
HETATM    9  O9  UNL     1     -32.610   7.413   3.221  1.00 20.00    -0.213 OA
ENDROOT
TORSDOF 0
ENDMDL
MODEL 2
REMARK VINA RESULT:      -6.1      0.966      1.932
REMARK  0 active torsions:
REMARK  status: ('A' for Active; 'I' for Inactive)
ROOT
HETATM    1  C1  UNL     1     -34.589   4.932   4.898  1.00 20.00     0.001 A 
HETATM    2  C2  UNL     1     -34.752   5.576   6.129  1.00 20.00     0.003 A 
HETATM    3  C3  UNL     1     -33.850   5.524   3.864  1.00 20.00     0.016 A 
HETATM    4  C4  UNL     1     -34.186   6.831   6.374  1.00 20.00     0.040 A 
HETATM    5  C5  UNL     1     -32.494   7.712   3.383  1.00 20.00     0.161 A 
HETATM    6  C6  UNL     1     -33.277   6.783   4.095  1.00 20.00     0.019 A 
HETATM    7  C7  UNL     1     -33.461   7.389   5.326  1.00 20.00     0.113 A 
HETATM    8  N8  UNL     1     -32.214   8.801   4.104  1.00 20.00    -0.140 NA
HETATM    9  O9  UNL     1     -32.827   8.594   5.334  1.00 20.00    -0.213 OA
ENDROOT
TORSDOF 0
ENDMDL
MODEL 3
REMARK VINA RESULT:      -6.0      1.078      1.137
REMARK  0 active torsions:
REMARK  status: ('A' for Active; 'I' for Inactive)
ROOT
HETATM    1  C1  UNL     1     -34.536   6.464   6.467  1.00 20.00     0.001 A 
HETATM    2  C2  UNL     1     -34.792   5.269   5.787  1.00 20.00     0.003 A 
HETATM    3  C3  UNL     1     -33.748   7.470   5.892  1.00 20.00     0.016 A 
HETATM    4  C4  UNL     1     -34.271   5.032   4.510  1.00 20.00     0.040 A 
HETATM    5  C5  UNL     1     -32.410   7.940   3.690  1.00 20.00     0.161 A 
HETATM    6  C6  UNL     1     -33.218   7.248   4.612  1.00 20.00     0.019 A 
HETATM    7  C7  UNL     1     -33.492   6.052   3.970  1.00 20.00     0.113 A 
HETATM    8  N8  UNL     1     -32.198   7.240   2.572  1.00 20.00    -0.140 NA
HETATM    9  O9  UNL     1     -32.885   6.045   2.753  1.00 20.00    -0.213 OA
ENDROOT
TORSDOF 0
ENDMDL
MODEL 4
REMARK VINA RESULT:      -5.9      0.987      2.165
REMARK  0 active torsions:
REMARK  status: ('A' for Active; 'I' for Inactive)
ROOT
HETATM    1  C1  UNL     1     -34.817   5.368   5.970  1.00 20.00     0.001 A 
HETATM    2  C2  UNL     1     -34.446   6.617   6.478  1.00 20.00     0.003 A 
HETATM    3  C3  UNL     1     -34.393   4.945   4.703  1.00 20.00     0.016 A 
HETATM    4  C4  UNL     1     -33.639   7.491   5.741  1.00 20.00     0.040 A 
HETATM    5  C5  UNL     1     -32.954   5.810   2.693  1.00 20.00     0.161 A 
HETATM    6  C6  UNL     1     -33.583   5.811   3.953  1.00 20.00     0.019 A 
HETATM    7  C7  UNL     1     -33.237   7.039   4.488  1.00 20.00     0.113 A 
HETATM    8  N8  UNL     1     -32.275   6.937   2.462  1.00 20.00    -0.140 NA
HETATM    9  O9  UNL     1     -32.456   7.714   3.600  1.00 20.00    -0.213 OA
ENDROOT
TORSDOF 0
ENDMDL
MODEL 5
REMARK VINA RESULT:      -5.8      2.156      3.145
REMARK  0 active torsions:
REMARK  status: ('A' for Active; 'I' for Inactive)
ROOT
HETATM    1  C1  UNL     1     -32.479   8.557   4.251  1.00 20.00     0.001 A 
HETATM    2  C2  UNL     1     -32.163   7.760   3.146  1.00 20.00     0.003 A 
HETATM    3  C3  UNL     1     -33.338   8.094   5.257  1.00 20.00     0.016 A 
HETATM    4  C4  UNL     1     -32.691   6.472   3.004  1.00 20.00     0.040 A 
HETATM    5  C5  UNL     1     -34.741   5.965   5.855  1.00 20.00     0.161 A 
HETATM    6  C6  UNL     1     -33.876   6.805   5.128  1.00 20.00     0.019 A 
HETATM    7  C7  UNL     1     -33.540   6.045   4.021  1.00 20.00     0.113 A 
HETATM    8  N8  UNL     1     -34.930   4.786   5.255  1.00 20.00    -0.140 NA
HETATM    9  O9  UNL     1     -34.168   4.840   4.094  1.00 20.00    -0.213 OA
ENDROOT
TORSDOF 0
ENDMDL
MODEL 6
REMARK VINA RESULT:      -5.6      2.221      3.637
REMARK  0 active torsions:
REMARK  status: ('A' for Active; 'I' for Inactive)
ROOT
HETATM    1  C1  UNL     1     -32.293   7.449   3.007  1.00 20.00     0.001 A 
HETATM    2  C2  UNL     1     -32.322   8.425   4.008  1.00 20.00     0.003 A 
HETATM    3  C3  UNL     1     -32.991   6.241   3.152  1.00 20.00     0.016 A 
HETATM    4  C4  UNL     1     -33.046   8.234   5.190  1.00 20.00     0.040 A 
HETATM    5  C5  UNL     1     -34.533   5.027   4.886  1.00 20.00     0.161 A 
HETATM    6  C6  UNL     1     -33.722   6.036   4.331  1.00 20.00     0.019 A 
HETATM    7  C7  UNL     1     -33.726   7.025   5.300  1.00 20.00     0.113 A 
HETATM    8  N8  UNL     1     -35.002   5.356   6.093  1.00 20.00    -0.140 NA
HETATM    9  O9  UNL     1     -34.489   6.622   6.352  1.00 20.00    -0.213 OA
ENDROOT
TORSDOF 0
ENDMDL
MODEL 7
REMARK VINA RESULT:      -5.5      2.321      3.136
REMARK  0 active torsions:
REMARK  status: ('A' for Active; 'I' for Inactive)
ROOT
HETATM    1  C1  UNL     1     -32.354   7.629   3.292  1.00 20.00     0.001 A 
HETATM    2  C2  UNL     1     -32.562   6.455   2.561  1.00 20.00     0.003 A 
HETATM    3  C3  UNL     1     -32.914   7.797   4.566  1.00 20.00     0.016 A 
HETATM    4  C4  UNL     1     -33.334   5.406   3.072  1.00 20.00     0.040 A 
HETATM    5  C5  UNL     1     -34.415   6.495   6.271  1.00 20.00     0.161 A 
HETATM    6  C6  UNL     1     -33.691   6.755   5.092  1.00 20.00     0.019 A 
HETATM    7  C7  UNL     1     -33.874   5.608   4.339  1.00 20.00     0.113 A 
HETATM    8  N8  UNL     1     -34.999   5.293   6.256  1.00 20.00    -0.140 NA
HETATM    9  O9  UNL     1     -34.655   4.734   5.031  1.00 20.00    -0.213 OA
ENDROOT
TORSDOF 0
ENDMDL
MODEL 8
REMARK VINA RESULT:      -5.4      0.750      1.028
REMARK  0 active torsions:
REMARK  status: ('A' for Active; 'I' for Inactive)
ROOT
HETATM    1  C1  UNL     1     -34.763   4.990   4.832  1.00 20.00     0.001 A 
HETATM    2  C2  UNL     1     -34.040   4.707   3.669  1.00 20.00     0.003 A 
HETATM    3  C3  UNL     1     -34.594   6.205   5.512  1.00 20.00     0.016 A 
HETATM    4  C4  UNL     1     -33.123   5.622   3.141  1.00 20.00     0.040 A 
HETATM    5  C5  UNL     1     -33.203   8.415   5.327  1.00 20.00     0.161 A 
HETATM    6  C6  UNL     1     -33.678   7.132   4.995  1.00 20.00     0.019 A 
HETATM    7  C7  UNL     1     -32.980   6.816   3.842  1.00 20.00     0.113 A 
HETATM    8  N8  UNL     1     -32.290   8.861   4.459  1.00 20.00    -0.140 NA
HETATM    9  O9  UNL     1     -32.151   7.846   3.520  1.00 20.00    -0.213 OA
ENDROOT
TORSDOF 0
ENDMDL
MODEL 9
REMARK VINA RESULT:      -4.0     15.896     16.005
REMARK  0 active torsions:
REMARK  status: ('A' for Active; 'I' for Inactive)
ROOT
HETATM    1  C1  UNL     1     -24.201  18.018  11.245  1.00 20.00     0.001 A 
HETATM    2  C2  UNL     1     -25.028  18.904  10.547  1.00 20.00     0.003 A 
HETATM    3  C3  UNL     1     -23.066  17.457  10.641  1.00 20.00     0.016 A 
HETATM    4  C4  UNL     1     -24.756  19.263   9.223  1.00 20.00     0.040 A 
HETATM    5  C5  UNL     1     -21.800  17.506   8.350  1.00 20.00     0.161 A 
HETATM    6  C6  UNL     1     -22.781  17.808   9.314  1.00 20.00     0.019 A 
HETATM    7  C7  UNL     1     -23.623  18.687   8.655  1.00 20.00     0.113 A 
HETATM    8  N8  UNL     1     -22.010  18.139   7.193  1.00 20.00    -0.140 NA
HETATM    9  O9  UNL     1     -23.165  18.887   7.389  1.00 20.00    -0.213 OA
ENDROOT
TORSDOF 0
ENDMDL
