MODEL 1
REMARK VINA RESULT:      -4.2      0.000      0.000
REMARK  0 active torsions:
REMARK  status: ('A' for Active; 'I' for Inactive)
ROOT
HETATM    1  C1  UNL     1     -34.686   5.688   6.319  1.00 20.00     0.019 A 
HETATM    2  C2  UNL     1     -34.705   5.201   4.989  1.00 20.00     0.019 A 
HETATM    3  C3  UNL     1     -33.983   6.873   6.314  1.00 20.00     0.090 A 
HETATM    4  C4  UNL     1     -34.013   6.103   4.212  1.00 20.00     0.090 A 
HETATM    5  C5  UNL     1     -32.810   8.260   4.596  1.00 20.00     0.154 C 
HETATM    6  N6  UNL     1     -33.579   7.115   5.027  1.00 20.00    -0.371 N 
ENDROOT
TORSDOF 0
ENDMDL
MODEL 2
REMARK VINA RESULT:      -3.9      1.090      1.863
REMARK  0 active torsions:
REMARK  status: ('A' for Active; 'I' for Inactive)
ROOT
HETATM    1  C1  UNL     1     -34.182   6.892   6.024  1.00 20.00     0.019 A 
HETATM    2  C2  UNL     1     -34.790   5.613   6.069  1.00 20.00     0.019 A 
HETATM    3  C3  UNL     1     -33.532   6.996   4.814  1.00 20.00     0.090 A 
HETATM    4  C4  UNL     1     -34.492   4.975   4.885  1.00 20.00     0.090 A 
HETATM    5  C5  UNL     1     -33.204   5.529   2.816  1.00 20.00     0.154 C 
HETATM    6  N6  UNL     1     -33.727   5.824   4.131  1.00 20.00    -0.371 N 
ENDROOT
TORSDOF 0
ENDMDL
MODEL 3
REMARK VINA RESULT:      -3.7      1.518      2.948
REMARK  0 active torsions:
REMARK  status: ('A' for Active; 'I' for Inactive)
ROOT
HETATM    1  C1  UNL     1     -32.484   8.560   4.500  1.00 20.00     0.019 A 
HETATM    2  C2  UNL     1     -33.537   8.003   5.266  1.00 20.00     0.019 A 
HETATM    3  C3  UNL     1     -32.182   7.662   3.500  1.00 20.00     0.090 A 
HETATM    4  C4  UNL     1     -33.846   6.781   4.713  1.00 20.00     0.090 A 
HETATM    5  C5  UNL     1     -33.019   5.416   2.789  1.00 20.00     0.154 C 
HETATM    6  N6  UNL     1     -33.016   6.584   3.640  1.00 20.00    -0.371 N 
ENDROOT
TORSDOF 0
ENDMDL
MODEL 4
REMARK VINA RESULT:      -3.6      1.039      3.117
REMARK  0 active torsions:
REMARK  status: ('A' for Active; 'I' for Inactive)
ROOT
HETATM    1  C1  UNL     1     -32.194   7.614   3.435  1.00 20.00     0.019 A 
HETATM    2  C2  UNL     1     -32.493   8.427   4.556  1.00 20.00     0.019 A 
HETATM    3  C3  UNL     1     -33.046   6.532   3.472  1.00 20.00     0.090 A 
HETATM    4  C4  UNL     1     -33.518   7.817   5.244  1.00 20.00     0.090 A 
HETATM    5  C5  UNL     1     -34.877   5.736   4.978  1.00 20.00     0.154 C 
HETATM    6  N6  UNL     1     -33.846   6.667   4.577  1.00 20.00    -0.371 N 
ENDROOT
TORSDOF 0
ENDMDL
MODEL 5
REMARK VINA RESULT:      -3.6      1.039      2.743
REMARK  0 active torsions:
REMARK  status: ('A' for Active; 'I' for Inactive)
ROOT
HETATM    1  C1  UNL     1     -32.492   8.441   4.579  1.00 20.00     0.019 A 
HETATM    2  C2  UNL     1     -32.190   7.638   3.452  1.00 20.00     0.019 A 
HETATM    3  C3  UNL     1     -33.519   7.825   5.261  1.00 20.00     0.090 A 
HETATM    4  C4  UNL     1     -33.042   6.556   3.478  1.00 20.00     0.090 A 
HETATM    5  C5  UNL     1     -34.880   5.748   4.968  1.00 20.00     0.154 C 
HETATM    6  N6  UNL     1     -33.845   6.680   4.581  1.00 20.00    -0.371 N 
ENDROOT
TORSDOF 0
ENDMDL
MODEL 6
REMARK VINA RESULT:      -3.4      1.215      1.765
REMARK  0 active torsions:
REMARK  status: ('A' for Active; 'I' for Inactive)
ROOT
HETATM    1  C1  UNL     1     -34.169   5.509   4.100  1.00 20.00     0.019 A 
HETATM    2  C2  UNL     1     -33.243   5.528   3.027  1.00 20.00     0.019 A 
HETATM    3  C3  UNL     1     -33.983   6.665   4.825  1.00 20.00     0.090 A 
HETATM    4  C4  UNL     1     -32.519   6.695   3.130  1.00 20.00     0.090 A 
HETATM    5  C5  UNL     1     -32.474   8.654   4.682  1.00 20.00     0.154 C 
HETATM    6  N6  UNL     1     -32.977   7.378   4.226  1.00 20.00    -0.371 N 
ENDROOT
TORSDOF 0
ENDMDL
MODEL 7
REMARK VINA RESULT:      -2.8     15.650     16.625
REMARK  0 active torsions:
REMARK  status: ('A' for Active; 'I' for Inactive)
ROOT
HETATM    1  C1  UNL     1     -24.215  17.425  12.000  1.00 20.00     0.019 A 
HETATM    2  C2  UNL     1     -23.170  18.332  12.303  1.00 20.00     0.019 A 
HETATM    3  C3  UNL     1     -23.994  16.950  10.726  1.00 20.00     0.090 A 
HETATM    4  C4  UNL     1     -22.342  18.385  11.204  1.00 20.00     0.090 A 
HETATM    5  C5  UNL     1     -22.274  17.313   8.947  1.00 20.00     0.154 C 
HETATM    6  N6  UNL     1     -22.851  17.542  10.252  1.00 20.00    -0.371 N 
ENDROOT
TORSDOF 0
ENDMDL
MODEL 8
REMARK VINA RESULT:      -2.8     16.371     17.106
REMARK  0 active torsions:
REMARK  status: ('A' for Active; 'I' for Inactive)
ROOT
HETATM    1  C1  UNL     1     -23.185  19.124   8.845  1.00 20.00     0.019 A 
HETATM    2  C2  UNL     1     -24.506  18.939   9.323  1.00 20.00     0.019 A 
HETATM    3  C3  UNL     1     -22.330  18.898   9.900  1.00 20.00     0.090 A 
HETATM    4  C4  UNL     1     -24.417  18.606  10.656  1.00 20.00     0.090 A 
HETATM    5  C5  UNL     1     -22.573  18.278  12.311  1.00 20.00     0.154 C 
HETATM    6  N6  UNL     1     -23.090  18.584  10.996  1.00 20.00    -0.371 N 
ENDROOT
TORSDOF 0
ENDMDL
MODEL 9
REMARK VINA RESULT:      -2.8     15.279     15.703
REMARK  0 active torsions:
REMARK  status: ('A' for Active; 'I' for Inactive)
ROOT
HETATM    1  C1  UNL     1     -24.444  16.305  11.714  1.00 20.00     0.019 A 
HETATM    2  C2  UNL     1     -25.319  17.232  12.332  1.00 20.00     0.019 A 
HETATM    3  C3  UNL     1     -23.956  16.897  10.570  1.00 20.00     0.090 A 
HETATM    4  C4  UNL     1     -25.341  18.363  11.546  1.00 20.00     0.090 A 
HETATM    5  C5  UNL     1     -24.256  19.095   9.416  1.00 20.00     0.154 C 
HETATM    6  N6  UNL     1     -24.509  18.148  10.478  1.00 20.00    -0.371 N 
ENDROOT
TORSDOF 0
ENDMDL
