MODEL 1
REMARK VINA RESULT:      -5.3      0.000      0.000
REMARK  1 active torsions:
REMARK  status: ('A' for Active; 'I' for Inactive)
REMARK    1  A    between atoms: C1_1  and  C8_8 
ROOT
HETATM    1  C1  UNL     1     -32.856   7.367   2.955  1.00 20.00    -0.067 C 
HETATM    2  C2  UNL     1     -32.360   7.833   1.965  1.00 20.00    -0.105 C 
HETATM    3  C9  UNL     1     -31.758   8.401   0.760  1.00 20.00     0.112 C 
ENDROOT
BRANCH   1   4
HETATM    4  C8  UNL     1     -33.448   6.812   4.132  1.00 20.00     0.017 A 
HETATM    5  C6  UNL     1     -34.037   5.548   4.087  1.00 20.00     0.020 A 
HETATM    6  C4  UNL     1     -34.615   5.006   5.235  1.00 20.00     0.001 A 
HETATM    7  C3  UNL     1     -34.603   5.729   6.428  1.00 20.00     0.000 A 
HETATM    8  C5  UNL     1     -34.013   6.992   6.473  1.00 20.00     0.001 A 
HETATM    9  C7  UNL     1     -33.436   7.533   5.325  1.00 20.00     0.020 A 
ENDBRANCH   1   4
TORSDOF 1
ENDMDL
MODEL 2
REMARK VINA RESULT:      -5.3      0.001      1.611
REMARK  1 active torsions:
REMARK  status: ('A' for Active; 'I' for Inactive)
REMARK    1  A    between atoms: C1_1  and  C8_8 
ROOT
HETATM    1  C1  UNL     1     -32.856   7.367   2.955  1.00 20.00    -0.067 C 
HETATM    2  C2  UNL     1     -32.360   7.833   1.965  1.00 20.00    -0.105 C 
HETATM    3  C9  UNL     1     -31.757   8.401   0.760  1.00 20.00     0.112 C 
ENDROOT
BRANCH   1   4
HETATM    4  C8  UNL     1     -33.448   6.812   4.131  1.00 20.00     0.017 A 
HETATM    5  C6  UNL     1     -33.436   7.533   5.325  1.00 20.00     0.020 A 
HETATM    6  C4  UNL     1     -34.013   6.991   6.474  1.00 20.00     0.001 A 
HETATM    7  C3  UNL     1     -34.603   5.727   6.427  1.00 20.00     0.000 A 
HETATM    8  C5  UNL     1     -34.615   5.006   5.234  1.00 20.00     0.001 A 
HETATM    9  C7  UNL     1     -34.038   5.548   4.086  1.00 20.00     0.020 A 
ENDBRANCH   1   4
TORSDOF 1
ENDMDL
MODEL 3
REMARK VINA RESULT:      -4.4     11.934     12.401
REMARK  1 active torsions:
REMARK  status: ('A' for Active; 'I' for Inactive)
REMARK    1  A    between atoms: C1_1  and  C8_8 
ROOT
HETATM    1  C1  UNL     1     -33.242  16.778  -2.390  1.00 20.00    -0.067 C 
HETATM    2  C2  UNL     1     -33.440  16.069  -3.340  1.00 20.00    -0.105 C 
HETATM    3  C9  UNL     1     -33.681  15.206  -4.495  1.00 20.00     0.112 C 
ENDROOT
BRANCH   1   4
HETATM    4  C8  UNL     1     -33.005  17.619  -1.259  1.00 20.00     0.017 A 
HETATM    5  C6  UNL     1     -33.999  17.787  -0.295  1.00 20.00     0.020 A 
HETATM    6  C4  UNL     1     -33.768  18.609   0.809  1.00 20.00     0.001 A 
HETATM    7  C3  UNL     1     -32.543  19.262   0.947  1.00 20.00     0.000 A 
HETATM    8  C5  UNL     1     -31.550  19.094  -0.017  1.00 20.00     0.001 A 
HETATM    9  C7  UNL     1     -31.781  18.272  -1.120  1.00 20.00     0.020 A 
ENDBRANCH   1   4
TORSDOF 1
ENDMDL
MODEL 4
REMARK VINA RESULT:      -4.2     12.382     12.854
REMARK  1 active torsions:
REMARK  status: ('A' for Active; 'I' for Inactive)
REMARK    1  A    between atoms: C1_1  and  C8_8 
ROOT
HETATM    1  C1  UNL     1     -30.363  18.610   2.082  1.00 20.00    -0.067 C 
HETATM    2  C2  UNL     1     -29.475  18.647   2.890  1.00 20.00    -0.105 C 
HETATM    3  C9  UNL     1     -28.393  18.692   3.872  1.00 20.00     0.112 C 
ENDROOT
BRANCH   1   4
HETATM    4  C8  UNL     1     -31.419  18.563   1.120  1.00 20.00     0.017 A 
HETATM    5  C6  UNL     1     -32.745  18.693   1.533  1.00 20.00     0.020 A 
HETATM    6  C4  UNL     1     -33.776  18.647   0.595  1.00 20.00     0.001 A 
HETATM    7  C3  UNL     1     -33.480  18.472  -0.757  1.00 20.00     0.000 A 
HETATM    8  C5  UNL     1     -32.154  18.343  -1.170  1.00 20.00     0.001 A 
HETATM    9  C7  UNL     1     -31.124  18.389  -0.231  1.00 20.00     0.020 A 
ENDBRANCH   1   4
TORSDOF 1
ENDMDL
MODEL 5
REMARK VINA RESULT:      -3.9     11.860     13.061
REMARK  1 active torsions:
REMARK  status: ('A' for Active; 'I' for Inactive)
REMARK    1  A    between atoms: C1_1  and  C8_8 
ROOT
HETATM    1  C1  UNL     1     -33.287  17.283  -2.271  1.00 20.00    -0.067 C 
HETATM    2  C2  UNL     1     -32.964  17.799  -1.236  1.00 20.00    -0.105 C 
HETATM    3  C9  UNL     1     -32.571  18.427   0.025  1.00 20.00     0.112 C 
ENDROOT
BRANCH   1   4
HETATM    4  C8  UNL     1     -33.674  16.670  -3.503  1.00 20.00     0.017 A 
HETATM    5  C6  UNL     1     -33.353  15.335  -3.748  1.00 20.00     0.020 A 
HETATM    6  C4  UNL     1     -33.730  14.736  -4.951  1.00 20.00     0.001 A 
HETATM    7  C3  UNL     1     -34.427  15.473  -5.907  1.00 20.00     0.000 A 
HETATM    8  C5  UNL     1     -34.749  16.808  -5.662  1.00 20.00     0.001 A 
HETATM    9  C7  UNL     1     -34.372  17.406  -4.460  1.00 20.00     0.020 A 
ENDBRANCH   1   4
TORSDOF 1
ENDMDL
MODEL 6
REMARK VINA RESULT:      -3.9     11.864     13.100
REMARK  1 active torsions:
REMARK  status: ('A' for Active; 'I' for Inactive)
REMARK    1  A    between atoms: C1_1  and  C8_8 
ROOT
HETATM    1  C1  UNL     1     -33.292  17.270  -2.273  1.00 20.00    -0.067 C 
HETATM    2  C2  UNL     1     -32.973  17.785  -1.236  1.00 20.00    -0.105 C 
HETATM    3  C9  UNL     1     -32.586  18.412   0.027  1.00 20.00     0.112 C 
ENDROOT
BRANCH   1   4
HETATM    4  C8  UNL     1     -33.673  16.658  -3.507  1.00 20.00     0.017 A 
HETATM    5  C6  UNL     1     -34.389  17.388  -4.456  1.00 20.00     0.020 A 
HETATM    6  C4  UNL     1     -34.762  16.791  -5.661  1.00 20.00     0.001 A 
HETATM    7  C3  UNL     1     -34.418  15.464  -5.916  1.00 20.00     0.000 A 
HETATM    8  C5  UNL     1     -33.702  14.734  -4.968  1.00 20.00     0.001 A 
HETATM    9  C7  UNL     1     -33.330  15.331  -3.763  1.00 20.00     0.020 A 
ENDBRANCH   1   4
TORSDOF 1
ENDMDL
MODEL 7
REMARK VINA RESULT:      -3.9     12.155     13.509
REMARK  1 active torsions:
REMARK  status: ('A' for Active; 'I' for Inactive)
REMARK    1  A    between atoms: C1_1  and  C8_8 
ROOT
HETATM    1  C1  UNL     1     -31.822  18.382  -0.564  1.00 20.00    -0.067 C 
HETATM    2  C2  UNL     1     -31.230  18.532   0.471  1.00 20.00    -0.105 C 
HETATM    3  C9  UNL     1     -30.509  18.714   1.730  1.00 20.00     0.112 C 
ENDROOT
BRANCH   1   4
HETATM    4  C8  UNL     1     -32.529  18.203  -1.793  1.00 20.00     0.017 A 
HETATM    5  C6  UNL     1     -32.636  19.261  -2.697  1.00 20.00     0.020 A 
HETATM    6  C4  UNL     1     -33.326  19.086  -3.896  1.00 20.00     0.001 A 
HETATM    7  C3  UNL     1     -33.909  17.853  -4.192  1.00 20.00     0.000 A 
HETATM    8  C5  UNL     1     -33.801  16.796  -3.289  1.00 20.00     0.001 A 
HETATM    9  C7  UNL     1     -33.111  16.971  -2.089  1.00 20.00     0.020 A 
ENDBRANCH   1   4
TORSDOF 1
ENDMDL
MODEL 8
REMARK VINA RESULT:      -3.8     15.434     15.941
REMARK  1 active torsions:
REMARK  status: ('A' for Active; 'I' for Inactive)
REMARK    1  A    between atoms: C1_1  and  C8_8 
ROOT
HETATM    1  C1  UNL     1     -23.153  18.097   9.293  1.00 20.00    -0.067 C 
HETATM    2  C2  UNL     1     -22.321  18.144   8.428  1.00 20.00    -0.105 C 
HETATM    3  C9  UNL     1     -21.308  18.202   7.376  1.00 20.00     0.112 C 
ENDROOT
BRANCH   1   4
HETATM    4  C8  UNL     1     -24.144  18.044  10.322  1.00 20.00     0.017 A 
HETATM    5  C6  UNL     1     -25.033  19.106  10.491  1.00 20.00     0.020 A 
HETATM    6  C4  UNL     1     -25.999  19.054  11.495  1.00 20.00     0.001 A 
HETATM    7  C3  UNL     1     -26.077  17.940  12.330  1.00 20.00     0.000 A 
HETATM    8  C5  UNL     1     -25.189  16.878  12.162  1.00 20.00     0.001 A 
HETATM    9  C7  UNL     1     -24.222  16.930  11.158  1.00 20.00     0.020 A 
ENDBRANCH   1   4
TORSDOF 1
ENDMDL
MODEL 9
REMARK VINA RESULT:      -3.7      9.685     10.453
REMARK  1 active torsions:
REMARK  status: ('A' for Active; 'I' for Inactive)
REMARK    1  A    between atoms: C1_1  and  C8_8 
ROOT
HETATM    1  C1  UNL     1     -40.438  12.468   5.733  1.00 20.00    -0.067 C 
HETATM    2  C2  UNL     1     -39.719  12.070   4.857  1.00 20.00    -0.105 C 
HETATM    3  C9  UNL     1     -38.845  11.587   3.789  1.00 20.00     0.112 C 
ENDROOT
BRANCH   1   4
HETATM    4  C8  UNL     1     -41.295  12.940   6.775  1.00 20.00     0.017 A 
HETATM    5  C6  UNL     1     -42.567  12.391   6.935  1.00 20.00     0.020 A 
HETATM    6  C4  UNL     1     -43.404  12.852   7.951  1.00 20.00     0.001 A 
HETATM    7  C3  UNL     1     -42.967  13.862   8.808  1.00 20.00     0.000 A 
HETATM    8  C5  UNL     1     -41.696  14.411   8.649  1.00 20.00     0.001 A 
HETATM    9  C7  UNL     1     -40.859  13.950   7.632  1.00 20.00     0.020 A 
ENDBRANCH   1   4
TORSDOF 1
ENDMDL
