MODEL 1
REMARK VINA RESULT:      -4.6      0.000      0.000
REMARK  0 active torsions:
REMARK  status: ('A' for Active; 'I' for Inactive)
ROOT
HETATM    1  C1  UNL     1     -32.916   8.360   4.972  1.00 20.00     0.035 A 
HETATM    2  C2  UNL     1     -33.700   7.718   5.960  1.00 20.00     0.035 A 
HETATM    3  C3  UNL     1     -32.846   7.484   3.912  1.00 20.00     0.049 A 
HETATM    4  C4  UNL     1     -34.053   6.497   5.435  1.00 20.00     0.049 A 
HETATM    5  C5  UNL     1     -32.193   7.547   2.597  1.00 20.00     0.076 C 
HETATM    6  C6  UNL     1     -34.851   5.375   5.949  1.00 20.00     0.076 C 
HETATM    7  O7  UNL     1     -33.537   6.347   4.187  1.00 20.00    -0.320 OA
ENDROOT
TORSDOF 0
ENDMDL
MODEL 2
REMARK VINA RESULT:      -4.6      0.008      2.916
REMARK  0 active torsions:
REMARK  status: ('A' for Active; 'I' for Inactive)
ROOT
HETATM    1  C1  UNL     1     -33.699   7.722   5.966  1.00 20.00     0.035 A 
HETATM    2  C2  UNL     1     -32.911   8.361   4.979  1.00 20.00     0.035 A 
HETATM    3  C3  UNL     1     -34.057   6.502   5.438  1.00 20.00     0.049 A 
HETATM    4  C4  UNL     1     -32.844   7.487   3.919  1.00 20.00     0.049 A 
HETATM    5  C5  UNL     1     -34.859   5.381   5.949  1.00 20.00     0.076 C 
HETATM    6  C6  UNL     1     -32.187   7.550   2.606  1.00 20.00     0.076 C 
HETATM    7  O7  UNL     1     -33.539   6.352   4.191  1.00 20.00    -0.320 OA
ENDROOT
TORSDOF 0
ENDMDL
MODEL 3
REMARK VINA RESULT:      -4.4      1.297      1.792
REMARK  0 active torsions:
REMARK  status: ('A' for Active; 'I' for Inactive)
ROOT
HETATM    1  C1  UNL     1     -34.023   7.365   6.412  1.00 20.00     0.035 A 
HETATM    2  C2  UNL     1     -34.527   6.060   6.201  1.00 20.00     0.035 A 
HETATM    3  C3  UNL     1     -33.306   7.685   5.282  1.00 20.00     0.049 A 
HETATM    4  C4  UNL     1     -34.082   5.674   4.959  1.00 20.00     0.049 A 
HETATM    5  C5  UNL     1     -32.545   8.875   4.877  1.00 20.00     0.076 C 
HETATM    6  C6  UNL     1     -34.256   4.450   4.164  1.00 20.00     0.076 C 
HETATM    7  O7  UNL     1     -33.337   6.659   4.391  1.00 20.00    -0.320 OA
ENDROOT
TORSDOF 0
ENDMDL
MODEL 4
REMARK VINA RESULT:      -4.4      1.290      2.739
REMARK  0 active torsions:
REMARK  status: ('A' for Active; 'I' for Inactive)
ROOT
HETATM    1  C1  UNL     1     -34.507   6.017   6.161  1.00 20.00     0.035 A 
HETATM    2  C2  UNL     1     -34.008   7.322   6.391  1.00 20.00     0.035 A 
HETATM    3  C3  UNL     1     -34.065   5.654   4.909  1.00 20.00     0.049 A 
HETATM    4  C4  UNL     1     -33.299   7.663   5.264  1.00 20.00     0.049 A 
HETATM    5  C5  UNL     1     -34.234   4.442   4.096  1.00 20.00     0.076 C 
HETATM    6  C6  UNL     1     -32.546   8.864   4.875  1.00 20.00     0.076 C 
HETATM    7  O7  UNL     1     -33.328   6.652   4.356  1.00 20.00    -0.320 OA
ENDROOT
TORSDOF 0
ENDMDL
MODEL 5
REMARK VINA RESULT:      -4.3      1.187      2.035
REMARK  0 active torsions:
REMARK  status: ('A' for Active; 'I' for Inactive)
ROOT
HETATM    1  C1  UNL     1     -32.329   7.142   3.087  1.00 20.00     0.035 A 
HETATM    2  C2  UNL     1     -33.084   5.945   3.091  1.00 20.00     0.035 A 
HETATM    3  C3  UNL     1     -32.673   7.814   4.238  1.00 20.00     0.049 A 
HETATM    4  C4  UNL     1     -33.835   5.971   4.243  1.00 20.00     0.049 A 
HETATM    5  C5  UNL     1     -32.252   9.097   4.817  1.00 20.00     0.076 C 
HETATM    6  C6  UNL     1     -34.809   5.039   4.828  1.00 20.00     0.076 C 
HETATM    7  O7  UNL     1     -33.590   7.106   4.948  1.00 20.00    -0.320 OA
ENDROOT
TORSDOF 0
ENDMDL
MODEL 6
REMARK VINA RESULT:      -4.3      1.197      3.169
REMARK  0 active torsions:
REMARK  status: ('A' for Active; 'I' for Inactive)
ROOT
HETATM    1  C1  UNL     1     -33.091   5.870   3.086  1.00 20.00     0.035 A 
HETATM    2  C2  UNL     1     -32.337   7.068   3.057  1.00 20.00     0.035 A 
HETATM    3  C3  UNL     1     -33.846   5.923   4.235  1.00 20.00     0.049 A 
HETATM    4  C4  UNL     1     -32.684   7.766   4.190  1.00 20.00     0.049 A 
HETATM    5  C5  UNL     1     -34.823   5.006   4.839  1.00 20.00     0.076 C 
HETATM    6  C6  UNL     1     -32.265   9.063   4.739  1.00 20.00     0.076 C 
HETATM    7  O7  UNL     1     -33.604   7.075   4.913  1.00 20.00    -0.320 OA
ENDROOT
TORSDOF 0
ENDMDL
MODEL 7
REMARK VINA RESULT:      -3.3     14.973     16.147
REMARK  0 active torsions:
REMARK  status: ('A' for Active; 'I' for Inactive)
ROOT
HETATM    1  C1  UNL     1     -22.829  18.104  11.900  1.00 20.00     0.035 A 
HETATM    2  C2  UNL     1     -22.047  18.518  10.795  1.00 20.00     0.035 A 
HETATM    3  C3  UNL     1     -23.665  17.117  11.427  1.00 20.00     0.049 A 
HETATM    4  C4  UNL     1     -22.460  17.756   9.727  1.00 20.00     0.049 A 
HETATM    5  C5  UNL     1     -24.704  16.292  12.060  1.00 20.00     0.076 C 
HETATM    6  C6  UNL     1     -22.052  17.697   8.317  1.00 20.00     0.076 C 
HETATM    7  O7  UNL     1     -23.446  16.899  10.105  1.00 20.00    -0.320 OA
ENDROOT
TORSDOF 0
ENDMDL
MODEL 8
REMARK VINA RESULT:      -3.3      8.821      9.314
REMARK  0 active torsions:
REMARK  status: ('A' for Active; 'I' for Inactive)
ROOT
HETATM    1  C1  UNL     1     -39.596  12.217   6.150  1.00 20.00     0.035 A 
HETATM    2  C2  UNL     1     -40.622  13.079   6.604  1.00 20.00     0.035 A 
HETATM    3  C3  UNL     1     -39.666  12.230   4.775  1.00 20.00     0.049 A 
HETATM    4  C4  UNL     1     -41.247  13.557   5.477  1.00 20.00     0.049 A 
HETATM    5  C5  UNL     1     -38.893  11.558   3.722  1.00 20.00     0.076 C 
HETATM    6  C6  UNL     1     -42.372  14.479   5.265  1.00 20.00     0.076 C 
HETATM    7  O7  UNL     1     -40.670  13.045   4.357  1.00 20.00    -0.320 OA
ENDROOT
TORSDOF 0
ENDMDL
MODEL 9
REMARK VINA RESULT:      -3.3      8.868      9.516
REMARK  0 active torsions:
REMARK  status: ('A' for Active; 'I' for Inactive)
ROOT
HETATM    1  C1  UNL     1     -40.705  13.083   6.587  1.00 20.00     0.035 A 
HETATM    2  C2  UNL     1     -39.671  12.220   6.149  1.00 20.00     0.035 A 
HETATM    3  C3  UNL     1     -41.305  13.568   5.447  1.00 20.00     0.049 A 
HETATM    4  C4  UNL     1     -39.712  12.240   4.775  1.00 20.00     0.049 A 
HETATM    5  C5  UNL     1     -42.423  14.493   5.215  1.00 20.00     0.076 C 
HETATM    6  C6  UNL     1     -38.919  11.569   3.736  1.00 20.00     0.076 C 
HETATM    7  O7  UNL     1     -40.705  13.059   4.339  1.00 20.00    -0.320 OA
ENDROOT
TORSDOF 0
ENDMDL
