MODEL 1
REMARK VINA RESULT:      -5.5      0.000      0.000
REMARK  1 active torsions:
REMARK  status: ('A' for Active; 'I' for Inactive)
REMARK    1  A    between atoms: C4_4  and  C7_7 
ROOT
HETATM    1  C1  UNL     1     -34.756   5.872   5.847  1.00 20.00     0.006 A 
HETATM    2  C2  UNL     1     -34.498   5.188   4.659  1.00 20.00     0.043 A 
HETATM    3  C3  UNL     1     -34.126   7.091   6.100  1.00 20.00     0.043 A 
HETATM    4  C4  UNL     1     -32.979   6.940   3.979  1.00 20.00     0.029 A 
HETATM    5  C5  UNL     1     -33.609   5.721   3.725  1.00 20.00     0.126 A 
HETATM    6  C6  UNL     1     -33.238   7.624   5.166  1.00 20.00     0.126 A 
HETATM    7  F8  UNL     1     -33.366   5.055   2.587  1.00 20.00    -0.205 F 
HETATM    8  F9  UNL     1     -32.637   8.796   5.419  1.00 20.00    -0.205 F 
ENDROOT
BRANCH   4   9
HETATM    9  C7  UNL     1     -32.029   7.510   2.980  1.00 20.00     0.130 C 
HETATM   10 BR10 UNL     1     -32.858   9.024   2.084  1.00 20.00    -0.091 Br
ENDBRANCH   4   9
TORSDOF 1
ENDMDL
MODEL 2
REMARK VINA RESULT:      -5.5      0.018      2.616
REMARK  1 active torsions:
REMARK  status: ('A' for Active; 'I' for Inactive)
REMARK    1  A    between atoms: C4_4  and  C7_7 
ROOT
HETATM    1  C1  UNL     1     -34.752   5.865   5.833  1.00 20.00     0.006 A 
HETATM    2  C2  UNL     1     -34.115   7.079   6.094  1.00 20.00     0.043 A 
HETATM    3  C3  UNL     1     -34.500   5.187   4.640  1.00 20.00     0.043 A 
HETATM    4  C4  UNL     1     -32.975   6.937   3.968  1.00 20.00     0.029 A 
HETATM    5  C5  UNL     1     -33.227   7.615   5.161  1.00 20.00     0.126 A 
HETATM    6  C6  UNL     1     -33.612   5.724   3.708  1.00 20.00     0.126 A 
HETATM    7  F8  UNL     1     -32.621   8.782   5.420  1.00 20.00    -0.205 F 
HETATM    8  F9  UNL     1     -33.376   5.065   2.564  1.00 20.00    -0.205 F 
ENDROOT
BRANCH   4   9
HETATM    9  C7  UNL     1     -32.026   7.510   2.971  1.00 20.00     0.130 C 
HETATM   10 BR10 UNL     1     -32.851   9.035   2.088  1.00 20.00    -0.091 Br
ENDBRANCH   4   9
TORSDOF 1
ENDMDL
MODEL 3
REMARK VINA RESULT:      -5.2      2.191      4.024
REMARK  1 active torsions:
REMARK  status: ('A' for Active; 'I' for Inactive)
REMARK    1  A    between atoms: C4_4  and  C7_7 
ROOT
HETATM    1  C1  UNL     1     -31.722   8.359   3.613  1.00 20.00     0.006 A 
HETATM    2  C2  UNL     1     -32.495   8.682   4.728  1.00 20.00     0.043 A 
HETATM    3  C3  UNL     1     -32.008   7.210   2.875  1.00 20.00     0.043 A 
HETATM    4  C4  UNL     1     -33.840   6.707   4.370  1.00 20.00     0.029 A 
HETATM    5  C5  UNL     1     -33.553   7.856   5.107  1.00 20.00     0.126 A 
HETATM    6  C6  UNL     1     -33.066   6.385   3.255  1.00 20.00     0.126 A 
HETATM    7  F8  UNL     1     -34.289   8.175   6.181  1.00 20.00    -0.205 F 
HETATM    8  F9  UNL     1     -33.334   5.282   2.539  1.00 20.00    -0.205 F 
ENDROOT
BRANCH   4   9
HETATM    9  C7  UNL     1     -34.971   5.824   4.774  1.00 20.00     0.130 C 
HETATM   10 BR10 UNL     1     -34.619   5.082   6.537  1.00 20.00    -0.091 Br
ENDBRANCH   4   9
TORSDOF 1
ENDMDL
MODEL 4
REMARK VINA RESULT:      -5.1      2.191      3.162
REMARK  1 active torsions:
REMARK  status: ('A' for Active; 'I' for Inactive)
REMARK    1  A    between atoms: C4_4  and  C7_7 
ROOT
HETATM    1  C1  UNL     1     -31.730   8.391   3.628  1.00 20.00     0.006 A 
HETATM    2  C2  UNL     1     -32.012   7.250   2.877  1.00 20.00     0.043 A 
HETATM    3  C3  UNL     1     -32.501   8.696   4.750  1.00 20.00     0.043 A 
HETATM    4  C4  UNL     1     -33.839   6.720   4.368  1.00 20.00     0.029 A 
HETATM    5  C5  UNL     1     -33.067   6.415   3.246  1.00 20.00     0.126 A 
HETATM    6  C6  UNL     1     -33.555   7.861   5.118  1.00 20.00     0.126 A 
HETATM    7  F8  UNL     1     -33.332   5.321   2.517  1.00 20.00    -0.205 F 
HETATM    8  F9  UNL     1     -34.291   8.162   6.198  1.00 20.00    -0.205 F 
ENDROOT
BRANCH   4   9
HETATM    9  C7  UNL     1     -34.966   5.827   4.763  1.00 20.00     0.130 C 
HETATM   10 BR10 UNL     1     -34.611   5.069   6.519  1.00 20.00    -0.091 Br
ENDBRANCH   4   9
TORSDOF 1
ENDMDL
MODEL 5
REMARK VINA RESULT:      -5.0      0.866      1.008
REMARK  1 active torsions:
REMARK  status: ('A' for Active; 'I' for Inactive)
REMARK    1  A    between atoms: C4_4  and  C7_7 
ROOT
HETATM    1  C1  UNL     1     -34.755   5.003   5.028  1.00 20.00     0.006 A 
HETATM    2  C2  UNL     1     -33.956   4.894   3.889  1.00 20.00     0.043 A 
HETATM    3  C3  UNL     1     -34.730   6.173   5.789  1.00 20.00     0.043 A 
HETATM    4  C4  UNL     1     -33.105   7.123   4.273  1.00 20.00     0.029 A 
HETATM    5  C5  UNL     1     -33.131   5.954   3.512  1.00 20.00     0.126 A 
HETATM    6  C6  UNL     1     -33.904   7.231   5.411  1.00 20.00     0.126 A 
HETATM    7  F8  UNL     1     -32.366   5.839   2.417  1.00 20.00    -0.205 F 
HETATM    8  F9  UNL     1     -33.886   8.351   6.148  1.00 20.00    -0.205 F 
ENDROOT
BRANCH   4   9
HETATM    9  C7  UNL     1     -32.223   8.256   3.869  1.00 20.00     0.130 C 
HETATM   10 BR10 UNL     1     -32.845   8.995   2.181  1.00 20.00    -0.091 Br
ENDBRANCH   4   9
TORSDOF 1
ENDMDL
MODEL 6
REMARK VINA RESULT:      -4.3      2.239      3.104
REMARK  1 active torsions:
REMARK  status: ('A' for Active; 'I' for Inactive)
REMARK    1  A    between atoms: C4_4  and  C7_7 
ROOT
HETATM    1  C1  UNL     1     -32.245   8.873   4.601  1.00 20.00     0.006 A 
HETATM    2  C2  UNL     1     -32.216   8.007   3.508  1.00 20.00     0.043 A 
HETATM    3  C3  UNL     1     -33.069   8.593   5.691  1.00 20.00     0.043 A 
HETATM    4  C4  UNL     1     -33.836   6.581   4.594  1.00 20.00     0.029 A 
HETATM    5  C5  UNL     1     -33.012   6.862   3.504  1.00 20.00     0.126 A 
HETATM    6  C6  UNL     1     -33.865   7.447   5.687  1.00 20.00     0.126 A 
HETATM    7  F8  UNL     1     -32.977   6.036   2.448  1.00 20.00    -0.205 F 
HETATM    8  F9  UNL     1     -34.653   7.186   6.739  1.00 20.00    -0.205 F 
ENDROOT
BRANCH   4   9
HETATM    9  C7  UNL     1     -34.686   5.356   4.590  1.00 20.00     0.130 C 
HETATM   10 BR10 UNL     1     -33.552   3.777   4.534  1.00 20.00    -0.091 Br
ENDBRANCH   4   9
TORSDOF 1
ENDMDL
MODEL 7
REMARK VINA RESULT:      -4.1     15.954     16.836
REMARK  1 active torsions:
REMARK  status: ('A' for Active; 'I' for Inactive)
REMARK    1  A    between atoms: C4_4  and  C7_7 
ROOT
HETATM    1  C1  UNL     1     -21.653  18.701   8.550  1.00 20.00     0.006 A 
HETATM    2  C2  UNL     1     -22.997  18.834   8.201  1.00 20.00     0.043 A 
HETATM    3  C3  UNL     1     -21.293  18.528   9.887  1.00 20.00     0.043 A 
HETATM    4  C4  UNL     1     -23.622  18.621  10.526  1.00 20.00     0.029 A 
HETATM    5  C5  UNL     1     -23.982  18.795   9.189  1.00 20.00     0.126 A 
HETATM    6  C6  UNL     1     -22.278  18.489  10.874  1.00 20.00     0.126 A 
HETATM    7  F8  UNL     1     -25.270  18.924   8.844  1.00 20.00    -0.205 F 
HETATM    8  F9  UNL     1     -21.922  18.322  12.156  1.00 20.00    -0.205 F 
ENDROOT
BRANCH   4   9
HETATM    9  C7  UNL     1     -24.674  18.579  11.582  1.00 20.00     0.130 C 
HETATM   10 BR10 UNL     1     -25.037  16.730  12.065  1.00 20.00    -0.091 Br
ENDBRANCH   4   9
TORSDOF 1
ENDMDL
MODEL 8
REMARK VINA RESULT:      -4.1     15.943     16.937
REMARK  1 active torsions:
REMARK  status: ('A' for Active; 'I' for Inactive)
REMARK    1  A    between atoms: C4_4  and  C7_7 
ROOT
HETATM    1  C1  UNL     1     -21.775  18.748   8.442  1.00 20.00     0.006 A 
HETATM    2  C2  UNL     1     -21.297  18.584   9.742  1.00 20.00     0.043 A 
HETATM    3  C3  UNL     1     -23.147  18.852   8.211  1.00 20.00     0.043 A 
HETATM    4  C4  UNL     1     -23.563  18.625  10.581  1.00 20.00     0.029 A 
HETATM    5  C5  UNL     1     -22.191  18.521  10.812  1.00 20.00     0.126 A 
HETATM    6  C6  UNL     1     -24.040  18.789   9.281  1.00 20.00     0.126 A 
HETATM    7  F8  UNL     1     -21.722  18.363  12.057  1.00 20.00    -0.205 F 
HETATM    8  F9  UNL     1     -25.357  18.889   9.049  1.00 20.00    -0.205 F 
ENDROOT
BRANCH   4   9
HETATM    9  C7  UNL     1     -24.518  18.558  11.724  1.00 20.00     0.130 C 
HETATM   10 BR10 UNL     1     -25.015  16.706  12.050  1.00 20.00    -0.091 Br
ENDBRANCH   4   9
TORSDOF 1
ENDMDL
MODEL 9
REMARK VINA RESULT:      -4.0     15.805     16.695
REMARK  1 active torsions:
REMARK  status: ('A' for Active; 'I' for Inactive)
REMARK    1  A    between atoms: C4_4  and  C7_7 
ROOT
HETATM    1  C1  UNL     1     -24.935  18.280  12.033  1.00 20.00     0.006 A 
HETATM    2  C2  UNL     1     -25.361  18.620  10.749  1.00 20.00     0.043 A 
HETATM    3  C3  UNL     1     -23.572  18.250  12.332  1.00 20.00     0.043 A 
HETATM    4  C4  UNL     1     -23.061  18.900  10.061  1.00 20.00     0.029 A 
HETATM    5  C5  UNL     1     -24.424  18.929   9.763  1.00 20.00     0.126 A 
HETATM    6  C6  UNL     1     -22.637  18.560  11.345  1.00 20.00     0.126 A 
HETATM    7  F8  UNL     1     -24.842  19.254   8.531  1.00 20.00    -0.205 F 
HETATM    8  F9  UNL     1     -21.329  18.529  11.642  1.00 20.00    -0.205 F 
ENDROOT
BRANCH   4   9
HETATM    9  C7  UNL     1     -22.060  19.231   9.007  1.00 20.00     0.130 C 
HETATM   10 BR10 UNL     1     -21.635  17.630   7.987  1.00 20.00    -0.091 Br
ENDBRANCH   4   9
TORSDOF 1
ENDMDL
