MODEL 1
REMARK VINA RESULT:      -4.0      0.000      0.000
REMARK  1 active torsions:
REMARK  status: ('A' for Active; 'I' for Inactive)
REMARK    1  A    between atoms: C4_4  and  S7_7 
ROOT
HETATM    1  C1  UNL     1     -34.702   5.715   6.426  1.00 20.00     0.009 A 
HETATM    2  C2  UNL     1     -33.950   6.919   6.299  1.00 20.00     0.026 A 
HETATM    3  C3  UNL     1     -34.761   5.014   5.243  1.00 20.00     0.051 A 
HETATM    4  C4  UNL     1     -33.463   7.091   5.022  1.00 20.00     0.040 A 
HETATM    5  S6  UNL     1     -33.913   5.806   3.984  1.00 20.00    -0.095 SA
ENDROOT
BRANCH   4   6
HETATM    6  S7  UNL     1     -32.492   8.441   4.461  1.00 20.00    -0.127 SA
HETATM    7  C5  UNL     1     -32.152   7.918   2.761  1.00 20.00     0.096 C 
ENDBRANCH   4   6
TORSDOF 1
ENDMDL
MODEL 2
REMARK VINA RESULT:      -3.9      1.232      1.598
REMARK  1 active torsions:
REMARK  status: ('A' for Active; 'I' for Inactive)
REMARK    1  A    between atoms: C4_4  and  S7_7 
ROOT
HETATM    1  C1  UNL     1     -34.681   4.969   4.877  1.00 20.00     0.009 A 
HETATM    2  C2  UNL     1     -33.964   5.851   4.017  1.00 20.00     0.026 A 
HETATM    3  C3  UNL     1     -34.759   5.451   6.164  1.00 20.00     0.051 A 
HETATM    4  C4  UNL     1     -33.522   6.974   4.681  1.00 20.00     0.040 A 
HETATM    5  S6  UNL     1     -33.970   6.961   6.334  1.00 20.00    -0.095 SA
ENDROOT
BRANCH   4   6
HETATM    6  S7  UNL     1     -32.606   8.295   3.978  1.00 20.00    -0.127 SA
HETATM    7  C5  UNL     1     -32.173   7.577   2.373  1.00 20.00     0.096 C 
ENDBRANCH   4   6
TORSDOF 1
ENDMDL
MODEL 3
REMARK VINA RESULT:      -3.8      1.519      1.866
REMARK  1 active torsions:
REMARK  status: ('A' for Active; 'I' for Inactive)
REMARK    1  A    between atoms: C4_4  and  S7_7 
ROOT
HETATM    1  C1  UNL     1     -34.780   4.905   5.021  1.00 20.00     0.009 A 
HETATM    2  C2  UNL     1     -34.034   5.595   4.022  1.00 20.00     0.026 A 
HETATM    3  C3  UNL     1     -34.763   5.565   6.229  1.00 20.00     0.051 A 
HETATM    4  C4  UNL     1     -33.475   6.757   4.506  1.00 20.00     0.040 A 
HETATM    5  S6  UNL     1     -33.850   7.012   6.157  1.00 20.00    -0.095 SA
ENDROOT
BRANCH   4   6
HETATM    6  S7  UNL     1     -32.489   7.886   3.593  1.00 20.00    -0.127 SA
HETATM    7  C5  UNL     1     -32.177   9.146   4.856  1.00 20.00     0.096 C 
ENDBRANCH   4   6
TORSDOF 1
ENDMDL
MODEL 4
REMARK VINA RESULT:      -3.6      1.154      3.846
REMARK  1 active torsions:
REMARK  status: ('A' for Active; 'I' for Inactive)
REMARK    1  A    between atoms: C4_4  and  S7_7 
ROOT
HETATM    1  C1  UNL     1     -32.053   7.614   2.974  1.00 20.00     0.009 A 
HETATM    2  C2  UNL     1     -32.818   6.420   3.116  1.00 20.00     0.026 A 
HETATM    3  C3  UNL     1     -32.307   8.515   3.984  1.00 20.00     0.051 A 
HETATM    4  C4  UNL     1     -33.626   6.454   4.231  1.00 20.00     0.040 A 
HETATM    5  S6  UNL     1     -33.462   7.921   5.099  1.00 20.00    -0.095 SA
ENDROOT
BRANCH   4   6
HETATM    6  S7  UNL     1     -34.714   5.181   4.755  1.00 20.00    -0.127 SA
HETATM    7  C5  UNL     1     -34.613   5.381   6.552  1.00 20.00     0.096 C 
ENDBRANCH   4   6
TORSDOF 1
ENDMDL
MODEL 5
REMARK VINA RESULT:      -3.5      1.108      2.000
REMARK  1 active torsions:
REMARK  status: ('A' for Active; 'I' for Inactive)
REMARK    1  A    between atoms: C4_4  and  S7_7 
ROOT
HETATM    1  C1  UNL     1     -34.842   5.407   6.188  1.00 20.00     0.009 A 
HETATM    2  C2  UNL     1     -34.432   4.953   4.901  1.00 20.00     0.026 A 
HETATM    3  C3  UNL     1     -34.393   6.680   6.457  1.00 20.00     0.051 A 
HETATM    4  C4  UNL     1     -33.685   5.899   4.234  1.00 20.00     0.040 A 
HETATM    5  S6  UNL     1     -33.480   7.325   5.159  1.00 20.00    -0.095 SA
ENDROOT
BRANCH   4   6
HETATM    6  S7  UNL     1     -32.998   5.727   2.629  1.00 20.00    -0.127 SA
HETATM    7  C5  UNL     1     -32.173   7.329   2.451  1.00 20.00     0.096 C 
ENDBRANCH   4   6
TORSDOF 1
ENDMDL
MODEL 6
REMARK VINA RESULT:      -3.5      1.266      3.507
REMARK  1 active torsions:
REMARK  status: ('A' for Active; 'I' for Inactive)
REMARK    1  A    between atoms: C4_4  and  S7_7 
ROOT
HETATM    1  C1  UNL     1     -32.460   8.775   4.830  1.00 20.00     0.009 A 
HETATM    2  C2  UNL     1     -33.473   7.896   5.310  1.00 20.00     0.026 A 
HETATM    3  C3  UNL     1     -31.918   8.341   3.641  1.00 20.00     0.051 A 
HETATM    4  C4  UNL     1     -33.667   6.822   4.469  1.00 20.00     0.040 A 
HETATM    5  S6  UNL     1     -32.630   6.877   3.107  1.00 20.00    -0.095 SA
ENDROOT
BRANCH   4   6
HETATM    6  S7  UNL     1     -34.821   5.522   4.704  1.00 20.00    -0.127 SA
HETATM    7  C5  UNL     1     -34.674   5.271   6.491  1.00 20.00     0.096 C 
ENDBRANCH   4   6
TORSDOF 1
ENDMDL
MODEL 7
REMARK VINA RESULT:      -3.0      1.727      3.016
REMARK  1 active torsions:
REMARK  status: ('A' for Active; 'I' for Inactive)
REMARK    1  A    between atoms: C4_4  and  S7_7 
ROOT
HETATM    1  C1  UNL     1     -33.225   8.751   5.750  1.00 20.00     0.009 A 
HETATM    2  C2  UNL     1     -33.886   7.492   5.648  1.00 20.00     0.026 A 
HETATM    3  C3  UNL     1     -32.371   8.975   4.694  1.00 20.00     0.051 A 
HETATM    4  C4  UNL     1     -33.511   6.803   4.515  1.00 20.00     0.040 A 
HETATM    5  S6  UNL     1     -32.367   7.672   3.583  1.00 20.00    -0.095 SA
ENDROOT
BRANCH   4   6
HETATM    6  S7  UNL     1     -34.097   5.223   4.028  1.00 20.00    -0.127 SA
HETATM    7  C5  UNL     1     -33.054   4.917   2.580  1.00 20.00     0.096 C 
ENDBRANCH   4   6
TORSDOF 1
ENDMDL
MODEL 8
REMARK VINA RESULT:      -2.9     15.453     15.987
REMARK  1 active torsions:
REMARK  status: ('A' for Active; 'I' for Inactive)
REMARK    1  A    between atoms: C4_4  and  S7_7 
ROOT
HETATM    1  C1  UNL     1     -24.548  16.505  11.809  1.00 20.00     0.009 A 
HETATM    2  C2  UNL     1     -23.820  17.010  10.694  1.00 20.00     0.026 A 
HETATM    3  C3  UNL     1     -25.454  17.420  12.295  1.00 20.00     0.051 A 
HETATM    4  C4  UNL     1     -24.199  18.294  10.369  1.00 20.00     0.040 A 
HETATM    5  S6  UNL     1     -25.426  18.884  11.407  1.00 20.00    -0.095 SA
ENDROOT
BRANCH   4   6
HETATM    6  S7  UNL     1     -23.544  19.263   9.061  1.00 20.00    -0.127 SA
HETATM    7  C5  UNL     1     -21.779  18.901   9.235  1.00 20.00     0.096 C 
ENDBRANCH   4   6
TORSDOF 1
ENDMDL
MODEL 9
REMARK VINA RESULT:      -2.9     12.948     13.534
REMARK  1 active torsions:
REMARK  status: ('A' for Active; 'I' for Inactive)
REMARK    1  A    between atoms: C4_4  and  S7_7 
ROOT
HETATM    1  C1  UNL     1     -33.385  16.836  -2.367  1.00 20.00     0.009 A 
HETATM    2  C2  UNL     1     -33.352  15.878  -3.421  1.00 20.00     0.026 A 
HETATM    3  C3  UNL     1     -34.184  17.915  -2.671  1.00 20.00     0.051 A 
HETATM    4  C4  UNL     1     -34.129  16.262  -4.492  1.00 20.00     0.040 A 
HETATM    5  S6  UNL     1     -34.892  17.771  -4.224  1.00 20.00    -0.095 SA
ENDROOT
BRANCH   4   6
HETATM    6  S7  UNL     1     -34.353  15.360  -5.980  1.00 20.00    -0.127 SA
HETATM    7  C5  UNL     1     -35.914  14.516  -5.621  1.00 20.00     0.096 C 
ENDBRANCH   4   6
TORSDOF 1
ENDMDL
