MODEL 1
REMARK VINA RESULT:      -4.0      0.000      0.000
REMARK  3 active torsions:
REMARK  status: ('A' for Active; 'I' for Inactive)
REMARK    1  A    between atoms: C4_4  and  S10_10 
REMARK    2  A    between atoms: C5_5  and  C7_7 
REMARK    3  A    between atoms: C7_7  and  S10_10 
ROOT
HETATM    1  C1  UNL     1     -34.691   5.764   6.398  1.00 20.00     0.009 A 
HETATM    2  C2  UNL     1     -33.951   6.969   6.224  1.00 20.00     0.026 A 
HETATM    3  C3  UNL     1     -34.748   5.021   5.240  1.00 20.00     0.051 A 
HETATM    4  C4  UNL     1     -33.470   7.100   4.940  1.00 20.00     0.041 A 
HETATM    5  S9  UNL     1     -33.912   5.774   3.950  1.00 20.00    -0.095 SA
ENDROOT
BRANCH   4   6
HETATM    6  S10 UNL     1     -32.506   8.447   4.323  1.00 20.00    -0.115 SA
BRANCH   6   7
HETATM    7  C7  UNL     1     -32.159   7.851   2.653  1.00 20.00     0.157 C 
BRANCH   7   8
HETATM    8  C5  UNL     1     -32.539   8.871   1.606  1.00 20.00     0.132 C 
HETATM    9  C6  UNL     1     -32.250   8.460   0.199  1.00 20.00     0.091 C 
HETATM   10  O8  UNL     1     -33.047   9.962   1.824  1.00 20.00    -0.298 OA
ENDBRANCH   7   8
ENDBRANCH   6   7
ENDBRANCH   4   6
TORSDOF 3
ENDMDL
MODEL 2
REMARK VINA RESULT:      -3.9     11.815     12.480
REMARK  3 active torsions:
REMARK  status: ('A' for Active; 'I' for Inactive)
REMARK    1  A    between atoms: C4_4  and  S10_10 
REMARK    2  A    between atoms: C5_5  and  C7_7 
REMARK    3  A    between atoms: C7_7  and  S10_10 
ROOT
HETATM    1  C1  UNL     1     -33.711  15.364  -3.865  1.00 20.00     0.009 A 
HETATM    2  C2  UNL     1     -33.156  16.293  -2.940  1.00 20.00     0.026 A 
HETATM    3  C3  UNL     1     -34.392  15.993  -4.884  1.00 20.00     0.051 A 
HETATM    4  C4  UNL     1     -33.432  17.597  -3.287  1.00 20.00     0.041 A 
HETATM    5  S9  UNL     1     -34.359  17.697  -4.723  1.00 20.00    -0.095 SA
ENDROOT
BRANCH   4   6
HETATM    6  S10 UNL     1     -32.920  19.040  -2.402  1.00 20.00    -0.115 SA
BRANCH   6   7
HETATM    7  C7  UNL     1     -32.996  18.416  -0.708  1.00 20.00     0.157 C 
BRANCH   7   8
HETATM    8  C5  UNL     1     -31.666  18.551  -0.005  1.00 20.00     0.132 C 
HETATM    9  C6  UNL     1     -31.741  18.516   1.487  1.00 20.00     0.091 C 
HETATM   10  O8  UNL     1     -30.579  18.681  -0.551  1.00 20.00    -0.298 OA
ENDBRANCH   7   8
ENDBRANCH   6   7
ENDBRANCH   4   6
TORSDOF 3
ENDMDL
MODEL 3
REMARK VINA RESULT:      -3.8      1.016      1.328
REMARK  3 active torsions:
REMARK  status: ('A' for Active; 'I' for Inactive)
REMARK    1  A    between atoms: C4_4  and  S10_10 
REMARK    2  A    between atoms: C5_5  and  C7_7 
REMARK    3  A    between atoms: C7_7  and  S10_10 
ROOT
HETATM    1  C1  UNL     1     -34.671   5.009   4.732  1.00 20.00     0.009 A 
HETATM    2  C2  UNL     1     -33.929   5.947   3.958  1.00 20.00     0.026 A 
HETATM    3  C3  UNL     1     -34.789   5.402   6.047  1.00 20.00     0.051 A 
HETATM    4  C4  UNL     1     -33.510   7.022   4.710  1.00 20.00     0.041 A 
HETATM    5  S9  UNL     1     -34.009   6.897   6.344  1.00 20.00    -0.095 SA
ENDROOT
BRANCH   4   6
HETATM    6  S10 UNL     1     -32.568   8.398   4.123  1.00 20.00    -0.115 SA
BRANCH   6   7
HETATM    7  C7  UNL     1     -32.206   7.840   2.442  1.00 20.00     0.157 C 
BRANCH   7   8
HETATM    8  C5  UNL     1     -32.575   8.886   1.417  1.00 20.00     0.132 C 
HETATM    9  C6  UNL     1     -32.427   8.448  -0.003  1.00 20.00     0.091 C 
HETATM   10  O8  UNL     1     -32.970  10.018   1.662  1.00 20.00    -0.298 OA
ENDBRANCH   7   8
ENDBRANCH   6   7
ENDBRANCH   4   6
TORSDOF 3
ENDMDL
MODEL 4
REMARK VINA RESULT:      -3.8     11.980     12.656
REMARK  3 active torsions:
REMARK  status: ('A' for Active; 'I' for Inactive)
REMARK    1  A    between atoms: C4_4  and  S10_10 
REMARK    2  A    between atoms: C5_5  and  C7_7 
REMARK    3  A    between atoms: C7_7  and  S10_10 
ROOT
HETATM    1  C1  UNL     1     -33.327  16.986  -1.926  1.00 20.00     0.009 A 
HETATM    2  C2  UNL     1     -33.508  16.589  -3.282  1.00 20.00     0.026 A 
HETATM    3  C3  UNL     1     -34.084  18.092  -1.605  1.00 20.00     0.051 A 
HETATM    4  C4  UNL     1     -34.397  17.405  -3.946  1.00 20.00     0.041 A 
HETATM    5  S9  UNL     1     -35.009  18.645  -2.936  1.00 20.00    -0.095 SA
ENDROOT
BRANCH   4   6
HETATM    6  S10 UNL     1     -34.892  17.246  -5.635  1.00 20.00    -0.115 SA
BRANCH   6   7
HETATM    7  C7  UNL     1     -34.347  15.556  -5.969  1.00 20.00     0.157 C 
BRANCH   7   8
HETATM    8  C5  UNL     1     -35.517  14.618  -6.148  1.00 20.00     0.132 C 
HETATM    9  C6  UNL     1     -35.999  13.972  -4.890  1.00 20.00     0.091 C 
HETATM   10  O8  UNL     1     -36.073  14.365  -7.208  1.00 20.00    -0.298 OA
ENDBRANCH   7   8
ENDBRANCH   6   7
ENDBRANCH   4   6
TORSDOF 3
ENDMDL
MODEL 5
REMARK VINA RESULT:      -3.7     11.606     12.603
REMARK  3 active torsions:
REMARK  status: ('A' for Active; 'I' for Inactive)
REMARK    1  A    between atoms: C4_4  and  S10_10 
REMARK    2  A    between atoms: C5_5  and  C7_7 
REMARK    3  A    between atoms: C7_7  and  S10_10 
ROOT
HETATM    1  C1  UNL     1     -33.351  18.024  -2.065  1.00 20.00     0.009 A 
HETATM    2  C2  UNL     1     -33.244  16.640  -2.385  1.00 20.00     0.026 A 
HETATM    3  C3  UNL     1     -33.825  18.765  -3.126  1.00 20.00     0.051 A 
HETATM    4  C4  UNL     1     -33.640  16.376  -3.677  1.00 20.00     0.041 A 
HETATM    5  S9  UNL     1     -34.138  17.793  -4.500  1.00 20.00    -0.095 SA
ENDROOT
BRANCH   4   6
HETATM    6  S10 UNL     1     -33.659  14.788  -4.455  1.00 20.00    -0.115 SA
BRANCH   6   7
HETATM    7  C7  UNL     1     -34.237  15.249  -6.104  1.00 20.00     0.157 C 
BRANCH   7   8
HETATM    8  C5  UNL     1     -35.613  14.697  -6.386  1.00 20.00     0.132 C 
HETATM    9  C6  UNL     1     -36.473  14.512  -5.179  1.00 20.00     0.091 C 
HETATM   10  O8  UNL     1     -36.053  14.404  -7.490  1.00 20.00    -0.298 OA
ENDBRANCH   7   8
ENDBRANCH   6   7
ENDBRANCH   4   6
TORSDOF 3
ENDMDL
MODEL 6
REMARK VINA RESULT:      -3.6     15.410     16.638
REMARK  3 active torsions:
REMARK  status: ('A' for Active; 'I' for Inactive)
REMARK    1  A    between atoms: C4_4  and  S10_10 
REMARK    2  A    between atoms: C5_5  and  C7_7 
REMARK    3  A    between atoms: C7_7  and  S10_10 
ROOT
HETATM    1  C1  UNL     1     -21.656  18.256   8.202  1.00 20.00     0.009 A 
HETATM    2  C2  UNL     1     -21.483  18.003   9.593  1.00 20.00     0.026 A 
HETATM    3  C3  UNL     1     -22.857  18.876   7.934  1.00 20.00     0.051 A 
HETATM    4  C4  UNL     1     -22.558  18.439  10.336  1.00 20.00     0.041 A 
HETATM    5  S9  UNL     1     -23.769  19.151   9.357  1.00 20.00    -0.095 SA
ENDROOT
BRANCH   4   6
HETATM    6  S10 UNL     1     -22.729  18.313  12.091  1.00 20.00    -0.115 SA
BRANCH   6   7
HETATM    7  C7  UNL     1     -24.500  18.629  12.260  1.00 20.00     0.157 C 
BRANCH   7   8
HETATM    8  C5  UNL     1     -25.301  17.350  12.218  1.00 20.00     0.132 C 
HETATM    9  C6  UNL     1     -24.490  16.111  12.019  1.00 20.00     0.091 C 
HETATM   10  O8  UNL     1     -26.516  17.264  12.332  1.00 20.00    -0.298 OA
ENDBRANCH   7   8
ENDBRANCH   6   7
ENDBRANCH   4   6
TORSDOF 3
ENDMDL
MODEL 7
REMARK VINA RESULT:      -3.6     10.023     10.727
REMARK  3 active torsions:
REMARK  status: ('A' for Active; 'I' for Inactive)
REMARK    1  A    between atoms: C4_4  and  S10_10 
REMARK    2  A    between atoms: C5_5  and  C7_7 
REMARK    3  A    between atoms: C7_7  and  S10_10 
ROOT
HETATM    1  C1  UNL     1     -40.192  15.553   9.273  1.00 20.00     0.009 A 
HETATM    2  C2  UNL     1     -40.516  14.274   8.738  1.00 20.00     0.026 A 
HETATM    3  C3  UNL     1     -40.767  16.576   8.551  1.00 20.00     0.051 A 
HETATM    4  C4  UNL     1     -41.325  14.366   7.628  1.00 20.00     0.041 A 
HETATM    5  S9  UNL     1     -41.691  15.992   7.233  1.00 20.00    -0.095 SA
ENDROOT
BRANCH   4   6
HETATM    6  S10 UNL     1     -41.947  13.011   6.678  1.00 20.00    -0.115 SA
BRANCH   6   7
HETATM    7  C7  UNL     1     -40.806  13.055   5.278  1.00 20.00     0.157 C 
BRANCH   7   8
HETATM    8  C5  UNL     1     -39.660  12.089   5.463  1.00 20.00     0.132 C 
HETATM    9  C6  UNL     1     -38.992  11.662   4.197  1.00 20.00     0.091 C 
HETATM   10  O8  UNL     1     -39.258  11.653   6.533  1.00 20.00    -0.298 OA
ENDBRANCH   7   8
ENDBRANCH   6   7
ENDBRANCH   4   6
TORSDOF 3
ENDMDL
MODEL 8
REMARK VINA RESULT:      -3.4     11.620     12.451
REMARK  3 active torsions:
REMARK  status: ('A' for Active; 'I' for Inactive)
REMARK    1  A    between atoms: C4_4  and  S10_10 
REMARK    2  A    between atoms: C5_5  and  C7_7 
REMARK    3  A    between atoms: C7_7  and  S10_10 
ROOT
HETATM    1  C1  UNL     1     -33.923  14.613  -4.108  1.00 20.00     0.009 A 
HETATM    2  C2  UNL     1     -33.315  15.808  -3.629  1.00 20.00     0.026 A 
HETATM    3  C3  UNL     1     -34.914  14.870  -5.030  1.00 20.00     0.051 A 
HETATM    4  C4  UNL     1     -33.863  16.934  -4.204  1.00 20.00     0.041 A 
HETATM    5  S9  UNL     1     -35.107  16.547  -5.316  1.00 20.00    -0.095 SA
ENDROOT
BRANCH   4   6
HETATM    6  S10 UNL     1     -33.386  18.605  -3.879  1.00 20.00    -0.115 SA
BRANCH   6   7
HETATM    7  C7  UNL     1     -32.866  18.457  -2.155  1.00 20.00     0.157 C 
BRANCH   7   8
HETATM    8  C5  UNL     1     -34.044  18.510  -1.211  1.00 20.00     0.132 C 
HETATM    9  C6  UNL     1     -33.786  17.936   0.144  1.00 20.00     0.091 C 
HETATM   10  O8  UNL     1     -35.146  18.974  -1.470  1.00 20.00    -0.298 OA
ENDBRANCH   7   8
ENDBRANCH   6   7
ENDBRANCH   4   6
TORSDOF 3
ENDMDL
MODEL 9
REMARK VINA RESULT:      -3.3     11.597     12.007
REMARK  3 active torsions:
REMARK  status: ('A' for Active; 'I' for Inactive)
REMARK    1  A    between atoms: C4_4  and  S10_10 
REMARK    2  A    between atoms: C5_5  and  C7_7 
REMARK    3  A    between atoms: C7_7  and  S10_10 
ROOT
HETATM    1  C1  UNL     1     -31.743  19.221   2.343  1.00 20.00     0.009 A 
HETATM    2  C2  UNL     1     -32.969  19.160   1.622  1.00 20.00     0.026 A 
HETATM    3  C3  UNL     1     -30.659  18.922   1.547  1.00 20.00     0.051 A 
HETATM    4  C4  UNL     1     -32.777  18.817   0.302  1.00 20.00     0.041 A 
HETATM    5  S9  UNL     1     -31.122  18.569  -0.063  1.00 20.00    -0.095 SA
ENDROOT
BRANCH   4   6
HETATM    6  S10 UNL     1     -34.040  18.638  -0.922  1.00 20.00    -0.115 SA
BRANCH   6   7
HETATM    7  C7  UNL     1     -33.611  17.013  -1.586  1.00 20.00     0.157 C 
BRANCH   7   8
HETATM    8  C5  UNL     1     -33.329  17.073  -3.068  1.00 20.00     0.132 C 
HETATM    9  C6  UNL     1     -33.376  15.754  -3.767  1.00 20.00     0.091 C 
HETATM   10  O8  UNL     1     -33.078  18.086  -3.707  1.00 20.00    -0.298 OA
ENDBRANCH   7   8
ENDBRANCH   6   7
ENDBRANCH   4   6
TORSDOF 3
ENDMDL
