MODEL 1
REMARK VINA RESULT:      -6.4      0.000      0.000
REMARK  1 active torsions:
REMARK  status: ('A' for Active; 'I' for Inactive)
REMARK    1  A    between atoms: C6_6  and  C9_9 
ROOT
HETATM    1  C1  UNL     1     -34.828   5.093   5.925  1.00 20.00     0.001 A 
HETATM    2  C2  UNL     1     -34.580   6.339   6.500  1.00 20.00     0.001 A 
HETATM    3  C3  UNL     1     -34.331   4.799   4.655  1.00 20.00     0.007 A 
HETATM    4  C4  UNL     1     -33.834   7.292   5.805  1.00 20.00     0.007 A 
HETATM    5  C5  UNL     1     -33.585   5.751   3.961  1.00 20.00    -0.056 A 
HETATM    6  C6  UNL     1     -33.337   6.998   4.536  1.00 20.00    -0.053 A 
HETATM    7  C7  UNL     1     -33.061   5.414   2.603  1.00 20.00     0.049 C 
ENDROOT
BRANCH   6   8
HETATM    8  C9  UNL     1     -32.542   8.034   3.811  1.00 20.00     0.034 C 
HETATM    9  C8  UNL     1     -32.113   9.179   4.723  1.00 20.00     0.010 C 
ENDBRANCH   6   8
TORSDOF 1
ENDMDL
MODEL 2
REMARK VINA RESULT:      -6.1      0.804      3.157
REMARK  1 active torsions:
REMARK  status: ('A' for Active; 'I' for Inactive)
REMARK    1  A    between atoms: C6_6  and  C9_9 
ROOT
HETATM    1  C1  UNL     1     -32.128   8.607   3.924  1.00 20.00     0.001 A 
HETATM    2  C2  UNL     1     -32.948   8.708   5.047  1.00 20.00     0.001 A 
HETATM    3  C3  UNL     1     -32.161   7.456   3.137  1.00 20.00     0.007 A 
HETATM    4  C4  UNL     1     -33.803   7.658   5.383  1.00 20.00     0.007 A 
HETATM    5  C5  UNL     1     -33.016   6.406   3.473  1.00 20.00    -0.056 A 
HETATM    6  C6  UNL     1     -33.836   6.507   4.596  1.00 20.00    -0.053 A 
HETATM    7  C7  UNL     1     -33.035   5.183   2.615  1.00 20.00     0.049 C 
ENDROOT
BRANCH   6   8
HETATM    8  C9  UNL     1     -34.758   5.395   4.976  1.00 20.00     0.034 C 
HETATM    9  C8  UNL     1     -34.733   5.108   6.474  1.00 20.00     0.010 C 
ENDBRANCH   6   8
TORSDOF 1
ENDMDL
MODEL 3
REMARK VINA RESULT:      -6.0      0.580      2.763
REMARK  1 active torsions:
REMARK  status: ('A' for Active; 'I' for Inactive)
REMARK    1  A    between atoms: C6_6  and  C9_9 
ROOT
HETATM    1  C1  UNL     1     -34.599   6.472   6.642  1.00 20.00     0.001 A 
HETATM    2  C2  UNL     1     -34.836   5.351   5.848  1.00 20.00     0.001 A 
HETATM    3  C3  UNL     1     -33.798   7.510   6.164  1.00 20.00     0.007 A 
HETATM    4  C4  UNL     1     -34.274   5.268   4.574  1.00 20.00     0.007 A 
HETATM    5  C5  UNL     1     -33.236   7.426   4.891  1.00 20.00    -0.056 A 
HETATM    6  C6  UNL     1     -33.474   6.305   4.096  1.00 20.00    -0.053 A 
HETATM    7  C7  UNL     1     -32.383   8.550   4.399  1.00 20.00     0.049 C 
ENDROOT
BRANCH   6   8
HETATM    8  C9  UNL     1     -32.881   6.193   2.730  1.00 20.00     0.034 C 
HETATM    9  C8  UNL     1     -32.864   4.754   2.221  1.00 20.00     0.010 C 
ENDBRANCH   6   8
TORSDOF 1
ENDMDL
MODEL 4
REMARK VINA RESULT:      -5.6      0.731      3.610
REMARK  1 active torsions:
REMARK  status: ('A' for Active; 'I' for Inactive)
REMARK    1  A    between atoms: C6_6  and  C9_9 
ROOT
HETATM    1  C1  UNL     1     -32.364   6.419   2.266  1.00 20.00     0.001 A 
HETATM    2  C2  UNL     1     -33.199   5.403   2.732  1.00 20.00     0.001 A 
HETATM    3  C3  UNL     1     -32.162   7.564   3.035  1.00 20.00     0.007 A 
HETATM    4  C4  UNL     1     -33.830   5.533   3.969  1.00 20.00     0.007 A 
HETATM    5  C5  UNL     1     -32.794   7.694   4.272  1.00 20.00    -0.056 A 
HETATM    6  C6  UNL     1     -33.628   6.678   4.738  1.00 20.00    -0.053 A 
HETATM    7  C7  UNL     1     -32.561   8.929   5.080  1.00 20.00     0.049 C 
ENDROOT
BRANCH   6   8
HETATM    8  C9  UNL     1     -34.317   6.796   6.058  1.00 20.00     0.034 C 
HETATM    9  C8  UNL     1     -34.733   5.439   6.618  1.00 20.00     0.010 C 
ENDBRANCH   6   8
TORSDOF 1
ENDMDL
MODEL 5
REMARK VINA RESULT:      -5.4      0.851      2.533
REMARK  1 active torsions:
REMARK  status: ('A' for Active; 'I' for Inactive)
REMARK    1  A    between atoms: C6_6  and  C9_9 
ROOT
HETATM    1  C1  UNL     1     -33.566   4.536   3.226  1.00 20.00     0.001 A 
HETATM    2  C2  UNL     1     -32.876   5.611   2.665  1.00 20.00     0.001 A 
HETATM    3  C3  UNL     1     -34.216   4.687   4.451  1.00 20.00     0.007 A 
HETATM    4  C4  UNL     1     -32.837   6.837   3.329  1.00 20.00     0.007 A 
HETATM    5  C5  UNL     1     -34.177   5.913   5.115  1.00 20.00    -0.056 A 
HETATM    6  C6  UNL     1     -33.487   6.988   4.554  1.00 20.00    -0.053 A 
HETATM    7  C7  UNL     1     -34.881   6.051   6.425  1.00 20.00     0.049 C 
ENDROOT
BRANCH   6   8
HETATM    8  C9  UNL     1     -33.430   8.309   5.248  1.00 20.00     0.034 C 
HETATM    9  C8  UNL     1     -32.193   9.114   4.859  1.00 20.00     0.010 C 
ENDBRANCH   6   8
TORSDOF 1
ENDMDL
MODEL 6
REMARK VINA RESULT:      -5.4      0.832      2.529
REMARK  1 active torsions:
REMARK  status: ('A' for Active; 'I' for Inactive)
REMARK    1  A    between atoms: C6_6  and  C9_9 
ROOT
HETATM    1  C1  UNL     1     -34.754   5.222   5.885  1.00 20.00     0.001 A 
HETATM    2  C2  UNL     1     -34.328   4.852   4.610  1.00 20.00     0.001 A 
HETATM    3  C3  UNL     1     -34.475   6.498   6.371  1.00 20.00     0.007 A 
HETATM    4  C4  UNL     1     -33.623   5.760   3.820  1.00 20.00     0.007 A 
HETATM    5  C5  UNL     1     -33.770   7.407   5.582  1.00 20.00    -0.056 A 
HETATM    6  C6  UNL     1     -33.343   7.037   4.306  1.00 20.00    -0.053 A 
HETATM    7  C7  UNL     1     -33.483   8.769   6.123  1.00 20.00     0.049 C 
ENDROOT
BRANCH   6   8
HETATM    8  C9  UNL     1     -32.585   7.992   3.443  1.00 20.00     0.034 C 
HETATM    9  C8  UNL     1     -32.182   7.372   2.109  1.00 20.00     0.010 C 
ENDBRANCH   6   8
TORSDOF 1
ENDMDL
MODEL 7
REMARK VINA RESULT:      -5.4      0.817      3.475
REMARK  1 active torsions:
REMARK  status: ('A' for Active; 'I' for Inactive)
REMARK    1  A    between atoms: C6_6  and  C9_9 
ROOT
HETATM    1  C1  UNL     1     -32.866   8.863   5.289  1.00 20.00     0.001 A 
HETATM    2  C2  UNL     1     -32.344   8.540   4.037  1.00 20.00     0.001 A 
HETATM    3  C3  UNL     1     -33.668   7.947   5.969  1.00 20.00     0.007 A 
HETATM    4  C4  UNL     1     -32.622   7.298   3.466  1.00 20.00     0.007 A 
HETATM    5  C5  UNL     1     -33.947   6.705   5.397  1.00 20.00    -0.056 A 
HETATM    6  C6  UNL     1     -33.424   6.381   4.145  1.00 20.00    -0.053 A 
HETATM    7  C7  UNL     1     -34.807   5.739   6.145  1.00 20.00     0.049 C 
ENDROOT
BRANCH   6   8
HETATM    8  C9  UNL     1     -33.710   5.059   3.513  1.00 20.00     0.034 C 
HETATM    9  C8  UNL     1     -32.893   4.835   2.244  1.00 20.00     0.010 C 
ENDBRANCH   6   8
TORSDOF 1
ENDMDL
MODEL 8
REMARK VINA RESULT:      -3.8     12.534     13.263
REMARK  1 active torsions:
REMARK  status: ('A' for Active; 'I' for Inactive)
REMARK    1  A    between atoms: C6_6  and  C9_9 
ROOT
HETATM    1  C1  UNL     1     -31.109  19.192   1.509  1.00 20.00     0.001 A 
HETATM    2  C2  UNL     1     -30.699  18.706   0.268  1.00 20.00     0.001 A 
HETATM    3  C3  UNL     1     -32.467  19.261   1.817  1.00 20.00     0.007 A 
HETATM    4  C4  UNL     1     -31.648  18.288  -0.665  1.00 20.00     0.007 A 
HETATM    5  C5  UNL     1     -33.416  18.842   0.884  1.00 20.00    -0.056 A 
HETATM    6  C6  UNL     1     -33.006  18.356  -0.357  1.00 20.00    -0.053 A 
HETATM    7  C7  UNL     1     -34.866  18.924   1.237  1.00 20.00     0.049 C 
ENDROOT
BRANCH   6   8
HETATM    8  C9  UNL     1     -34.004  17.904  -1.372  1.00 20.00     0.034 C 
HETATM    9  C8  UNL     1     -33.470  16.772  -2.245  1.00 20.00     0.010 C 
ENDBRANCH   6   8
TORSDOF 1
ENDMDL
MODEL 9
REMARK VINA RESULT:      -3.7     12.326     13.558
REMARK  1 active torsions:
REMARK  status: ('A' for Active; 'I' for Inactive)
REMARK    1  A    between atoms: C6_6  and  C9_9 
ROOT
HETATM    1  C1  UNL     1     -34.703  15.090  -5.537  1.00 20.00     0.001 A 
HETATM    2  C2  UNL     1     -33.726  14.627  -4.656  1.00 20.00     0.001 A 
HETATM    3  C3  UNL     1     -35.160  16.405  -5.444  1.00 20.00     0.007 A 
HETATM    4  C4  UNL     1     -33.205  15.480  -3.683  1.00 20.00     0.007 A 
HETATM    5  C5  UNL     1     -34.640  17.257  -4.471  1.00 20.00    -0.056 A 
HETATM    6  C6  UNL     1     -33.662  16.794  -3.590  1.00 20.00    -0.053 A 
HETATM    7  C7  UNL     1     -35.143  18.661  -4.391  1.00 20.00     0.049 C 
ENDROOT
BRANCH   6   8
HETATM    8  C9  UNL     1     -33.091  17.688  -2.538  1.00 20.00     0.034 C 
HETATM    9  C8  UNL     1     -33.688  17.417  -1.161  1.00 20.00     0.010 C 
ENDBRANCH   6   8
TORSDOF 1
ENDMDL
