MODEL 1
REMARK VINA RESULT:      -5.1      0.000      0.000
REMARK  3 active torsions:
REMARK  status: ('A' for Active; 'I' for Inactive)
REMARK    1  A    between atoms: C5_5  and  O9_9 
REMARK    2  A    between atoms: C6_6  and  O10_10 
REMARK    3  A    between atoms: C8_8  and  O10_10 
ROOT
HETATM    1  C1  UNL     1     -34.746   5.593   6.020  1.00 20.00     0.003 A 
HETATM    2  C2  UNL     1     -34.240   6.850   6.352  1.00 20.00     0.003 A 
HETATM    3  C3  UNL     1     -34.439   5.021   4.785  1.00 20.00     0.039 A 
HETATM    4  C4  UNL     1     -33.427   7.535   5.448  1.00 20.00     0.039 A 
HETATM    5  C5  UNL     1     -33.626   5.706   3.883  1.00 20.00     0.099 A 
HETATM    6  C6  UNL     1     -33.120   6.962   4.214  1.00 20.00     0.101 A 
ENDROOT
BRANCH   6   7
HETATM    7  O10 UNL     1     -32.325   7.642   3.340  1.00 20.00    -0.349 OA
BRANCH   7   8
HETATM    8  C8  UNL     1     -32.585   9.034   3.175  1.00 20.00     0.171 C 
HETATM    9  C7  UNL     1     -32.792   9.326   1.704  1.00 20.00     0.034 C 
ENDBRANCH   7   8
ENDBRANCH   6   7
BRANCH   5  10
HETATM   10  O9  UNL     1     -33.335   5.137   2.679  1.00 20.00    -0.358 OA
HETATM   11  H20 UNL     1     -34.137   5.069   2.138  1.00 20.00     0.217 HD
ENDBRANCH   5  10
TORSDOF 3
ENDMDL
MODEL 2
REMARK VINA RESULT:      -4.9      0.966      2.181
REMARK  3 active torsions:
REMARK  status: ('A' for Active; 'I' for Inactive)
REMARK    1  A    between atoms: C5_5  and  O9_9 
REMARK    2  A    between atoms: C6_6  and  O10_10 
REMARK    3  A    between atoms: C8_8  and  O10_10 
ROOT
HETATM    1  C1  UNL     1     -34.669   5.976   6.017  1.00 20.00     0.003 A 
HETATM    2  C2  UNL     1     -34.649   5.333   4.779  1.00 20.00     0.003 A 
HETATM    3  C3  UNL     1     -33.871   7.099   6.233  1.00 20.00     0.039 A 
HETATM    4  C4  UNL     1     -33.830   5.814   3.757  1.00 20.00     0.039 A 
HETATM    5  C5  UNL     1     -33.053   7.580   5.211  1.00 20.00     0.099 A 
HETATM    6  C6  UNL     1     -33.033   6.938   3.973  1.00 20.00     0.101 A 
ENDROOT
BRANCH   6   7
HETATM    7  O10 UNL     1     -32.237   7.397   2.967  1.00 20.00    -0.349 OA
BRANCH   7   8
HETATM    8  C8  UNL     1     -32.652   8.589   2.304  1.00 20.00     0.171 C 
HETATM    9  C7  UNL     1     -32.246   8.511   0.848  1.00 20.00     0.034 C 
ENDBRANCH   7   8
ENDBRANCH   6   7
BRANCH   5  10
HETATM   10  O9  UNL     1     -32.276   8.677   5.435  1.00 20.00    -0.358 OA
HETATM   11  H20 UNL     1     -31.340   8.424   5.463  1.00 20.00     0.217 HD
ENDBRANCH   5  10
TORSDOF 3
ENDMDL
MODEL 3
REMARK VINA RESULT:      -4.1     15.514     17.201
REMARK  3 active torsions:
REMARK  status: ('A' for Active; 'I' for Inactive)
REMARK    1  A    between atoms: C5_5  and  O9_9 
REMARK    2  A    between atoms: C6_6  and  O10_10 
REMARK    3  A    between atoms: C8_8  and  O10_10 
ROOT
HETATM    1  C1  UNL     1     -21.912  19.025   8.807  1.00 20.00     0.003 A 
HETATM    2  C2  UNL     1     -23.303  19.119   8.732  1.00 20.00     0.003 A 
HETATM    3  C3  UNL     1     -21.300  18.703  10.019  1.00 20.00     0.039 A 
HETATM    4  C4  UNL     1     -24.080  18.892   9.868  1.00 20.00     0.039 A 
HETATM    5  C5  UNL     1     -22.078  18.475  11.154  1.00 20.00     0.099 A 
HETATM    6  C6  UNL     1     -23.467  18.570  11.079  1.00 20.00     0.101 A 
ENDROOT
BRANCH   6   7
HETATM    7  O10 UNL     1     -24.237  18.351  12.181  1.00 20.00    -0.349 OA
BRANCH   7   8
HETATM    8  C8  UNL     1     -25.239  17.341  12.083  1.00 20.00     0.171 C 
HETATM    9  C7  UNL     1     -24.569  15.986  12.020  1.00 20.00     0.034 C 
ENDBRANCH   7   8
ENDBRANCH   6   7
BRANCH   5  10
HETATM   10  O9  UNL     1     -21.467  18.163  12.332  1.00 20.00    -0.358 OA
HETATM   11  H20 UNL     1     -20.503  18.186  12.226  1.00 20.00     0.217 HD
ENDBRANCH   5  10
TORSDOF 3
ENDMDL
MODEL 4
REMARK VINA RESULT:      -4.1     11.763     13.048
REMARK  3 active torsions:
REMARK  status: ('A' for Active; 'I' for Inactive)
REMARK    1  A    between atoms: C5_5  and  O9_9 
REMARK    2  A    between atoms: C6_6  and  O10_10 
REMARK    3  A    between atoms: C8_8  and  O10_10 
ROOT
HETATM    1  C1  UNL     1     -34.618  16.275  -6.893  1.00 20.00     0.003 A 
HETATM    2  C2  UNL     1     -34.787  17.372  -6.048  1.00 20.00     0.003 A 
HETATM    3  C3  UNL     1     -34.082  15.088  -6.394  1.00 20.00     0.039 A 
HETATM    4  C4  UNL     1     -34.420  17.282  -4.705  1.00 20.00     0.039 A 
HETATM    5  C5  UNL     1     -33.715  14.998  -5.051  1.00 20.00     0.099 A 
HETATM    6  C6  UNL     1     -33.884  16.095  -4.207  1.00 20.00     0.101 A 
ENDROOT
BRANCH   6   7
HETATM    7  O10 UNL     1     -33.529  16.020  -2.893  1.00 20.00    -0.349 OA
BRANCH   7   8
HETATM    8  C8  UNL     1     -33.001  17.202  -2.296  1.00 20.00     0.171 C 
HETATM    9  C7  UNL     1     -33.741  17.475  -1.005  1.00 20.00     0.034 C 
ENDBRANCH   7   8
ENDBRANCH   6   7
BRANCH   5  10
HETATM   10  O9  UNL     1     -33.191  13.833  -4.577  1.00 20.00    -0.358 OA
HETATM   11  H20 UNL     1     -32.455  13.543  -5.139  1.00 20.00     0.217 HD
ENDBRANCH   5  10
TORSDOF 3
ENDMDL
MODEL 5
REMARK VINA RESULT:      -4.1      1.436      3.595
REMARK  3 active torsions:
REMARK  status: ('A' for Active; 'I' for Inactive)
REMARK    1  A    between atoms: C5_5  and  O9_9 
REMARK    2  A    between atoms: C6_6  and  O10_10 
REMARK    3  A    between atoms: C8_8  and  O10_10 
ROOT
HETATM    1  C1  UNL     1     -31.804   8.519   3.912  1.00 20.00     0.003 A 
HETATM    2  C2  UNL     1     -32.772   8.789   4.879  1.00 20.00     0.003 A 
HETATM    3  C3  UNL     1     -31.908   7.374   3.123  1.00 20.00     0.039 A 
HETATM    4  C4  UNL     1     -33.844   7.914   5.057  1.00 20.00     0.039 A 
HETATM    5  C5  UNL     1     -32.980   6.499   3.300  1.00 20.00     0.099 A 
HETATM    6  C6  UNL     1     -33.948   6.770   4.267  1.00 20.00     0.101 A 
ENDROOT
BRANCH   6   7
HETATM    7  O10 UNL     1     -34.999   5.922   4.452  1.00 20.00    -0.349 OA
BRANCH   7   8
HETATM    8  C8  UNL     1     -34.785   4.798   5.303  1.00 20.00     0.171 C 
HETATM    9  C7  UNL     1     -34.358   5.288   6.669  1.00 20.00     0.034 C 
ENDBRANCH   7   8
ENDBRANCH   6   7
BRANCH   5  10
HETATM   10  O9  UNL     1     -33.069   5.383   2.524  1.00 20.00    -0.358 OA
HETATM   11  H20 UNL     1     -32.761   4.606   3.017  1.00 20.00     0.217 HD
ENDBRANCH   5  10
TORSDOF 3
ENDMDL
MODEL 6
REMARK VINA RESULT:      -3.9     11.760     13.131
REMARK  3 active torsions:
REMARK  status: ('A' for Active; 'I' for Inactive)
REMARK    1  A    between atoms: C5_5  and  O9_9 
REMARK    2  A    between atoms: C6_6  and  O10_10 
REMARK    3  A    between atoms: C8_8  and  O10_10 
ROOT
HETATM    1  C1  UNL     1     -33.617  17.190  -3.073  1.00 20.00     0.003 A 
HETATM    2  C2  UNL     1     -34.622  17.743  -3.867  1.00 20.00     0.003 A 
HETATM    3  C3  UNL     1     -33.181  15.886  -3.309  1.00 20.00     0.039 A 
HETATM    4  C4  UNL     1     -35.191  16.992  -4.896  1.00 20.00     0.039 A 
HETATM    5  C5  UNL     1     -33.750  15.136  -4.337  1.00 20.00     0.099 A 
HETATM    6  C6  UNL     1     -34.755  15.688  -5.130  1.00 20.00     0.101 A 
ENDROOT
BRANCH   6   7
HETATM    7  O10 UNL     1     -35.320  14.965  -6.138  1.00 20.00    -0.349 OA
BRANCH   7   8
HETATM    8  C8  UNL     1     -35.261  15.522  -7.449  1.00 20.00     0.171 C 
HETATM    9  C7  UNL     1     -33.822  15.533  -7.916  1.00 20.00     0.034 C 
ENDBRANCH   7   8
ENDBRANCH   6   7
BRANCH   5  10
HETATM   10  O9  UNL     1     -33.317  13.862  -4.556  1.00 20.00    -0.358 OA
HETATM   11  H20 UNL     1     -32.403  13.761  -4.245  1.00 20.00     0.217 HD
ENDBRANCH   5  10
TORSDOF 3
ENDMDL
MODEL 7
REMARK VINA RESULT:      -3.8      1.809      4.212
REMARK  3 active torsions:
REMARK  status: ('A' for Active; 'I' for Inactive)
REMARK    1  A    between atoms: C5_5  and  O9_9 
REMARK    2  A    between atoms: C6_6  and  O10_10 
REMARK    3  A    between atoms: C8_8  and  O10_10 
ROOT
HETATM    1  C1  UNL     1     -31.628   7.995   3.256  1.00 20.00     0.003 A 
HETATM    2  C2  UNL     1     -32.113   6.820   2.683  1.00 20.00     0.003 A 
HETATM    3  C3  UNL     1     -32.309   8.585   4.320  1.00 20.00     0.039 A 
HETATM    4  C4  UNL     1     -33.281   6.235   3.174  1.00 20.00     0.039 A 
HETATM    5  C5  UNL     1     -33.476   8.000   4.811  1.00 20.00     0.099 A 
HETATM    6  C6  UNL     1     -33.961   6.825   4.238  1.00 20.00     0.101 A 
ENDROOT
BRANCH   6   7
HETATM    7  O10 UNL     1     -35.101   6.244   4.708  1.00 20.00    -0.349 OA
BRANCH   7   8
HETATM    8  C8  UNL     1     -34.969   4.973   5.340  1.00 20.00     0.171 C 
HETATM    9  C7  UNL     1     -34.243   5.149   6.656  1.00 20.00     0.034 C 
ENDBRANCH   7   8
ENDBRANCH   6   7
BRANCH   5  10
HETATM   10  O9  UNL     1     -34.134   8.588   5.850  1.00 20.00    -0.358 OA
HETATM   11  H20 UNL     1     -33.846   9.509   5.951  1.00 20.00     0.217 HD
ENDBRANCH   5  10
TORSDOF 3
ENDMDL
MODEL 8
REMARK VINA RESULT:      -3.7      9.916     10.651
REMARK  3 active torsions:
REMARK  status: ('A' for Active; 'I' for Inactive)
REMARK    1  A    between atoms: C5_5  and  O9_9 
REMARK    2  A    between atoms: C6_6  and  O10_10 
REMARK    3  A    between atoms: C8_8  and  O10_10 
ROOT
HETATM    1  C1  UNL     1     -42.120  15.711   6.521  1.00 20.00     0.003 A 
HETATM    2  C2  UNL     1     -42.302  14.891   5.406  1.00 20.00     0.003 A 
HETATM    3  C3  UNL     1     -41.294  15.294   7.564  1.00 20.00     0.039 A 
HETATM    4  C4  UNL     1     -41.657  13.656   5.335  1.00 20.00     0.039 A 
HETATM    5  C5  UNL     1     -40.649  14.059   7.493  1.00 20.00     0.099 A 
HETATM    6  C6  UNL     1     -40.831  13.241   6.379  1.00 20.00     0.101 A 
ENDROOT
BRANCH   6   7
HETATM    7  O10 UNL     1     -40.208  12.031   6.298  1.00 20.00    -0.349 OA
BRANCH   7   8
HETATM    8  C8  UNL     1     -38.920  12.004   5.687  1.00 20.00     0.171 C 
HETATM    9  C7  UNL     1     -39.072  11.617   4.232  1.00 20.00     0.034 C 
ENDBRANCH   7   8
ENDBRANCH   6   7
BRANCH   5  10
HETATM   10  O9  UNL     1     -39.846  13.663   8.520  1.00 20.00    -0.358 OA
HETATM   11  H20 UNL     1     -39.301  12.907   8.247  1.00 20.00     0.217 HD
ENDBRANCH   5  10
TORSDOF 3
ENDMDL
MODEL 9
REMARK VINA RESULT:      -3.6     10.096     10.950
REMARK  3 active torsions:
REMARK  status: ('A' for Active; 'I' for Inactive)
REMARK    1  A    between atoms: C5_5  and  O9_9 
REMARK    2  A    between atoms: C6_6  and  O10_10 
REMARK    3  A    between atoms: C8_8  and  O10_10 
ROOT
HETATM    1  C1  UNL     1     -41.469  13.673   4.824  1.00 20.00     0.003 A 
HETATM    2  C2  UNL     1     -42.051  14.584   5.706  1.00 20.00     0.003 A 
HETATM    3  C3  UNL     1     -40.438  12.842   5.260  1.00 20.00     0.039 A 
HETATM    4  C4  UNL     1     -41.601  14.664   7.024  1.00 20.00     0.039 A 
HETATM    5  C5  UNL     1     -39.989  12.921   6.578  1.00 20.00     0.099 A 
HETATM    6  C6  UNL     1     -40.570  13.832   7.459  1.00 20.00     0.101 A 
ENDROOT
BRANCH   6   7
HETATM    7  O10 UNL     1     -40.139  13.921   8.749  1.00 20.00    -0.349 OA
BRANCH   7   8
HETATM    8  C8  UNL     1     -40.152  15.213   9.351  1.00 20.00     0.171 C 
HETATM    9  C7  UNL     1     -40.309  15.060  10.848  1.00 20.00     0.034 C 
ENDBRANCH   7   8
ENDBRANCH   6   7
BRANCH   5  10
HETATM   10  O9  UNL     1     -38.979  12.105   6.992  1.00 20.00    -0.358 OA
HETATM   11  H20 UNL     1     -38.599  12.436   7.821  1.00 20.00     0.217 HD
ENDBRANCH   5  10
TORSDOF 3
ENDMDL
