MODEL 1
REMARK VINA RESULT:      -5.0      0.000      0.000
REMARK  1 active torsions:
REMARK  status: ('A' for Active; 'I' for Inactive)
REMARK    1  A    between atoms: C4_4  and  C6_6 
ROOT
HETATM    1  C1  UNL     1     -34.717   5.592   6.321  1.00 20.00     0.027 A 
HETATM    2  C2  UNL     1     -34.056   6.844   6.341  1.00 20.00     0.034 A 
HETATM    3  C3  UNL     1     -34.651   5.147   5.021  1.00 20.00     0.142 A 
HETATM    4  C4  UNL     1     -33.633   7.074   5.053  1.00 20.00     0.052 A 
HETATM    5  O7  UNL     1     -33.993   6.045   4.242  1.00 20.00    -0.327 OA
ENDROOT
BRANCH   4   6
HETATM    6  C6  UNL     1     -32.898   8.177   4.418  1.00 20.00     0.060 C 
HETATM    7  C5  UNL     1     -32.166   7.755   3.137  1.00 20.00     0.012 C 
ENDBRANCH   4   6
TORSDOF 1
ENDMDL
MODEL 2
REMARK VINA RESULT:      -4.8      0.930      3.177
REMARK  1 active torsions:
REMARK  status: ('A' for Active; 'I' for Inactive)
REMARK    1  A    between atoms: C4_4  and  C6_6 
ROOT
HETATM    1  C1  UNL     1     -32.314   8.608   4.426  1.00 20.00     0.027 A 
HETATM    2  C2  UNL     1     -33.391   8.113   5.202  1.00 20.00     0.034 A 
HETATM    3  C3  UNL     1     -32.112   7.686   3.425  1.00 20.00     0.142 A 
HETATM    4  C4  UNL     1     -33.769   6.926   4.618  1.00 20.00     0.052 A 
HETATM    5  O7  UNL     1     -32.993   6.659   3.535  1.00 20.00    -0.327 OA
ENDROOT
BRANCH   4   6
HETATM    6  C6  UNL     1     -34.809   5.937   4.936  1.00 20.00     0.060 C 
HETATM    7  C5  UNL     1     -34.669   5.348   6.347  1.00 20.00     0.012 C 
ENDBRANCH   4   6
TORSDOF 1
ENDMDL
MODEL 3
REMARK VINA RESULT:      -4.6      1.130      1.516
REMARK  1 active torsions:
REMARK  status: ('A' for Active; 'I' for Inactive)
REMARK    1  A    between atoms: C4_4  and  C6_6 
ROOT
HETATM    1  C1  UNL     1     -34.714   5.002   5.049  1.00 20.00     0.027 A 
HETATM    2  C2  UNL     1     -34.202   6.101   4.319  1.00 20.00     0.034 A 
HETATM    3  C3  UNL     1     -34.632   5.355   6.376  1.00 20.00     0.142 A 
HETATM    4  C4  UNL     1     -33.846   7.047   5.251  1.00 20.00     0.052 A 
HETATM    5  O7  UNL     1     -34.104   6.600   6.508  1.00 20.00    -0.327 OA
ENDROOT
BRANCH   4   6
HETATM    6  C6  UNL     1     -33.263   8.392   5.146  1.00 20.00     0.060 C 
HETATM    7  C5  UNL     1     -32.276   8.531   3.977  1.00 20.00     0.012 C 
ENDBRANCH   4   6
TORSDOF 1
ENDMDL
MODEL 4
REMARK VINA RESULT:      -4.4      1.025      3.449
REMARK  1 active torsions:
REMARK  status: ('A' for Active; 'I' for Inactive)
REMARK    1  A    between atoms: C4_4  and  C6_6 
ROOT
HETATM    1  C1  UNL     1     -32.091   7.640   3.287  1.00 20.00     0.027 A 
HETATM    2  C2  UNL     1     -32.893   6.475   3.232  1.00 20.00     0.034 A 
HETATM    3  C3  UNL     1     -32.486   8.321   4.415  1.00 20.00     0.142 A 
HETATM    4  C4  UNL     1     -33.719   6.527   4.330  1.00 20.00     0.052 A 
HETATM    5  O7  UNL     1     -33.478   7.649   5.056  1.00 20.00    -0.327 OA
ENDROOT
BRANCH   4   6
HETATM    6  C6  UNL     1     -34.768   5.634   4.841  1.00 20.00     0.060 C 
HETATM    7  C5  UNL     1     -34.677   5.401   6.356  1.00 20.00     0.012 C 
ENDBRANCH   4   6
TORSDOF 1
ENDMDL
MODEL 5
REMARK VINA RESULT:      -4.3      1.069      1.712
REMARK  1 active torsions:
REMARK  status: ('A' for Active; 'I' for Inactive)
REMARK    1  A    between atoms: C4_4  and  C6_6 
ROOT
HETATM    1  C1  UNL     1     -34.831   5.668   6.252  1.00 20.00     0.027 A 
HETATM    2  C2  UNL     1     -34.555   5.131   4.971  1.00 20.00     0.034 A 
HETATM    3  C3  UNL     1     -34.143   6.858   6.322  1.00 20.00     0.142 A 
HETATM    4  C4  UNL     1     -33.720   6.031   4.351  1.00 20.00     0.052 A 
HETATM    5  O7  UNL     1     -33.463   7.085   5.168  1.00 20.00    -0.327 OA
ENDROOT
BRANCH   4   6
HETATM    6  C6  UNL     1     -33.081   6.061   3.028  1.00 20.00     0.060 C 
HETATM    7  C5  UNL     1     -32.203   7.302   2.811  1.00 20.00     0.012 C 
ENDBRANCH   4   6
TORSDOF 1
ENDMDL
MODEL 6
REMARK VINA RESULT:      -4.2      1.265      1.605
REMARK  1 active torsions:
REMARK  status: ('A' for Active; 'I' for Inactive)
REMARK    1  A    between atoms: C4_4  and  C6_6 
ROOT
HETATM    1  C1  UNL     1     -34.275   6.973   6.502  1.00 20.00     0.027 A 
HETATM    2  C2  UNL     1     -33.462   7.520   5.480  1.00 20.00     0.034 A 
HETATM    3  C3  UNL     1     -34.728   5.766   6.023  1.00 20.00     0.142 A 
HETATM    4  C4  UNL     1     -33.476   6.608   4.451  1.00 20.00     0.052 A 
HETATM    5  O7  UNL     1     -34.246   5.536   4.774  1.00 20.00    -0.327 OA
ENDROOT
BRANCH   4   6
HETATM    6  C6  UNL     1     -32.841   6.579   3.126  1.00 20.00     0.060 C 
HETATM    7  C5  UNL     1     -32.882   5.192   2.469  1.00 20.00     0.012 C 
ENDBRANCH   4   6
TORSDOF 1
ENDMDL
MODEL 7
REMARK VINA RESULT:      -4.2      1.404      2.277
REMARK  1 active torsions:
REMARK  status: ('A' for Active; 'I' for Inactive)
REMARK    1  A    between atoms: C4_4  and  C6_6 
ROOT
HETATM    1  C1  UNL     1     -34.189   7.235   6.559  1.00 20.00     0.027 A 
HETATM    2  C2  UNL     1     -34.450   5.932   6.070  1.00 20.00     0.034 A 
HETATM    3  C3  UNL     1     -33.561   7.906   5.536  1.00 20.00     0.142 A 
HETATM    4  C4  UNL     1     -33.964   5.901   4.784  1.00 20.00     0.052 A 
HETATM    5  O7  UNL     1     -33.420   7.101   4.451  1.00 20.00    -0.327 OA
ENDROOT
BRANCH   4   6
HETATM    6  C6  UNL     1     -33.925   4.858   3.749  1.00 20.00     0.060 C 
HETATM    7  C5  UNL     1     -32.899   5.145   2.643  1.00 20.00     0.012 C 
ENDBRANCH   4   6
TORSDOF 1
ENDMDL
MODEL 8
REMARK VINA RESULT:      -3.8      1.561      2.294
REMARK  1 active torsions:
REMARK  status: ('A' for Active; 'I' for Inactive)
REMARK    1  A    between atoms: C4_4  and  C6_6 
ROOT
HETATM    1  C1  UNL     1     -32.988   5.264   2.787  1.00 20.00     0.027 A 
HETATM    2  C2  UNL     1     -32.632   6.591   3.128  1.00 20.00     0.034 A 
HETATM    3  C3  UNL     1     -33.923   4.870   3.716  1.00 20.00     0.142 A 
HETATM    4  C4  UNL     1     -33.375   6.913   4.240  1.00 20.00     0.052 A 
HETATM    5  O7  UNL     1     -34.164   5.868   4.605  1.00 20.00    -0.327 OA
ENDROOT
BRANCH   4   6
HETATM    6  C6  UNL     1     -33.469   8.122   5.070  1.00 20.00     0.060 C 
HETATM    7  C5  UNL     1     -32.275   9.070   4.890  1.00 20.00     0.012 C 
ENDBRANCH   4   6
TORSDOF 1
ENDMDL
MODEL 9
REMARK VINA RESULT:      -3.4     12.730     13.128
REMARK  1 active torsions:
REMARK  status: ('A' for Active; 'I' for Inactive)
REMARK    1  A    between atoms: C4_4  and  C6_6 
ROOT
HETATM    1  C1  UNL     1     -31.868  18.744   1.523  1.00 20.00     0.027 A 
HETATM    2  C2  UNL     1     -32.858  18.449   0.554  1.00 20.00     0.034 A 
HETATM    3  C3  UNL     1     -30.688  18.885   0.830  1.00 20.00     0.142 A 
HETATM    4  C4  UNL     1     -32.212  18.432  -0.660  1.00 20.00     0.052 A 
HETATM    5  O7  UNL     1     -30.889  18.696  -0.500  1.00 20.00    -0.327 OA
ENDROOT
BRANCH   4   6
HETATM    6  C6  UNL     1     -32.666  18.191  -2.036  1.00 20.00     0.060 C 
HETATM    7  C5  UNL     1     -33.404  16.854  -2.202  1.00 20.00     0.012 C 
ENDBRANCH   4   6
TORSDOF 1
ENDMDL
