MODEL 1
REMARK VINA RESULT:      -5.6      0.000      0.000
REMARK  0 active torsions:
REMARK  status: ('A' for Active; 'I' for Inactive)
ROOT
HETATM    1  C1  UNL     1     -34.809   5.160   6.042  1.00 20.00     0.001 A 
HETATM    2  C2  UNL     1     -34.539   6.437   6.536  1.00 20.00     0.001 A 
HETATM    3  C3  UNL     1     -34.350   4.792   4.777  1.00 20.00     0.008 A 
HETATM    4  C4  UNL     1     -33.811   7.343   5.766  1.00 20.00     0.019 A 
HETATM    5  C5  UNL     1     -33.622   5.698   4.008  1.00 20.00    -0.045 A 
HETATM    6  C6  UNL     1     -33.352   6.975   4.502  1.00 20.00     0.012 A 
HETATM    7  C7  UNL     1     -33.155   5.247   2.661  1.00 20.00     0.049 C 
HETATM    8  I8  UNL     1     -32.266   8.383   3.401  1.00 20.00    -0.044 I 
ENDROOT
TORSDOF 0
ENDMDL
MODEL 2
REMARK VINA RESULT:      -5.1      0.981      2.399
REMARK  0 active torsions:
REMARK  status: ('A' for Active; 'I' for Inactive)
ROOT
HETATM    1  C1  UNL     1     -34.718   5.794   6.332  1.00 20.00     0.001 A 
HETATM    2  C2  UNL     1     -34.678   5.040   5.158  1.00 20.00     0.001 A 
HETATM    3  C3  UNL     1     -34.079   7.032   6.387  1.00 20.00     0.008 A 
HETATM    4  C4  UNL     1     -33.999   5.526   4.041  1.00 20.00     0.019 A 
HETATM    5  C5  UNL     1     -33.401   7.518   5.269  1.00 20.00    -0.045 A 
HETATM    6  C6  UNL     1     -33.361   6.764   4.095  1.00 20.00     0.012 A 
HETATM    7  C7  UNL     1     -32.736   8.851   5.387  1.00 20.00     0.049 C 
HETATM    8  I8  UNL     1     -32.362   7.433   2.383  1.00 20.00    -0.044 I 
ENDROOT
TORSDOF 0
ENDMDL
MODEL 3
REMARK VINA RESULT:      -5.0      2.173      3.144
REMARK  0 active torsions:
REMARK  status: ('A' for Active; 'I' for Inactive)
ROOT
HETATM    1  C1  UNL     1     -32.089   8.763   3.463  1.00 20.00     0.001 A 
HETATM    2  C2  UNL     1     -32.697   9.007   4.695  1.00 20.00     0.001 A 
HETATM    3  C3  UNL     1     -32.231   7.517   2.851  1.00 20.00     0.008 A 
HETATM    4  C4  UNL     1     -33.445   8.005   5.314  1.00 20.00     0.019 A 
HETATM    5  C5  UNL     1     -32.979   6.516   3.470  1.00 20.00    -0.045 A 
HETATM    6  C6  UNL     1     -33.587   6.761   4.702  1.00 20.00     0.012 A 
HETATM    7  C7  UNL     1     -33.097   5.203   2.767  1.00 20.00     0.049 C 
HETATM    8  I8  UNL     1     -34.723   5.305   5.686  1.00 20.00    -0.044 I 
ENDROOT
TORSDOF 0
ENDMDL
MODEL 4
REMARK VINA RESULT:      -4.7      1.414      2.402
REMARK  0 active torsions:
REMARK  status: ('A' for Active; 'I' for Inactive)
ROOT
HETATM    1  C1  UNL     1     -34.422   6.838   6.659  1.00 20.00     0.001 A 
HETATM    2  C2  UNL     1     -34.782   5.555   6.244  1.00 20.00     0.001 A 
HETATM    3  C3  UNL     1     -33.679   7.660   5.813  1.00 20.00     0.008 A 
HETATM    4  C4  UNL     1     -34.397   5.096   4.984  1.00 20.00     0.019 A 
HETATM    5  C5  UNL     1     -33.295   7.202   4.553  1.00 20.00    -0.045 A 
HETATM    6  C6  UNL     1     -33.655   5.919   4.138  1.00 20.00     0.012 A 
HETATM    7  C7  UNL     1     -32.501   8.128   3.690  1.00 20.00     0.049 C 
HETATM    8  I8  UNL     1     -33.113   5.169   2.262  1.00 20.00    -0.044 I 
ENDROOT
TORSDOF 0
ENDMDL
MODEL 5
REMARK VINA RESULT:      -4.5      0.879      2.623
REMARK  0 active torsions:
REMARK  status: ('A' for Active; 'I' for Inactive)
ROOT
HETATM    1  C1  UNL     1     -34.059   4.311   3.922  1.00 20.00     0.001 A 
HETATM    2  C2  UNL     1     -33.294   4.949   2.945  1.00 20.00     0.001 A 
HETATM    3  C3  UNL     1     -34.395   4.986   5.095  1.00 20.00     0.008 A 
HETATM    4  C4  UNL     1     -32.866   6.262   3.142  1.00 20.00     0.019 A 
HETATM    5  C5  UNL     1     -33.967   6.299   5.292  1.00 20.00    -0.045 A 
HETATM    6  C6  UNL     1     -33.202   6.937   4.315  1.00 20.00     0.012 A 
HETATM    7  C7  UNL     1     -34.359   6.972   6.567  1.00 20.00     0.049 C 
HETATM    8  I8  UNL     1     -32.529   8.904   4.545  1.00 20.00    -0.044 I 
ENDROOT
TORSDOF 0
ENDMDL
MODEL 6
REMARK VINA RESULT:      -4.4      2.184      3.896
REMARK  0 active torsions:
REMARK  status: ('A' for Active; 'I' for Inactive)
ROOT
HETATM    1  C1  UNL     1     -32.155   7.642   2.494  1.00 20.00     0.001 A 
HETATM    2  C2  UNL     1     -32.524   6.301   2.380  1.00 20.00     0.001 A 
HETATM    3  C3  UNL     1     -32.529   8.374   3.621  1.00 20.00     0.008 A 
HETATM    4  C4  UNL     1     -33.266   5.694   3.393  1.00 20.00     0.019 A 
HETATM    5  C5  UNL     1     -33.269   7.766   4.635  1.00 20.00    -0.045 A 
HETATM    6  C6  UNL     1     -33.638   6.425   4.521  1.00 20.00     0.012 A 
HETATM    7  C7  UNL     1     -33.640   8.599   5.819  1.00 20.00     0.049 C 
HETATM    8  I8  UNL     1     -34.749   5.452   6.002  1.00 20.00    -0.044 I 
ENDROOT
TORSDOF 0
ENDMDL
MODEL 7
REMARK VINA RESULT:      -4.3      1.719      2.964
REMARK  0 active torsions:
REMARK  status: ('A' for Active; 'I' for Inactive)
ROOT
HETATM    1  C1  UNL     1     -33.220   8.693   5.668  1.00 20.00     0.001 A 
HETATM    2  C2  UNL     1     -32.401   8.739   4.538  1.00 20.00     0.001 A 
HETATM    3  C3  UNL     1     -34.020   7.575   5.903  1.00 20.00     0.008 A 
HETATM    4  C4  UNL     1     -32.384   7.667   3.646  1.00 20.00     0.019 A 
HETATM    5  C5  UNL     1     -34.001   6.503   5.011  1.00 20.00    -0.045 A 
HETATM    6  C6  UNL     1     -33.183   6.549   3.882  1.00 20.00     0.012 A 
HETATM    7  C7  UNL     1     -34.878   5.332   5.316  1.00 20.00     0.049 C 
HETATM    8  I8  UNL     1     -33.106   4.977   2.504  1.00 20.00    -0.044 I 
ENDROOT
TORSDOF 0
ENDMDL
MODEL 8
REMARK VINA RESULT:      -3.8     16.510     17.342
REMARK  0 active torsions:
REMARK  status: ('A' for Active; 'I' for Inactive)
ROOT
HETATM    1  C1  UNL     1     -22.578  18.909   8.552  1.00 20.00     0.001 A 
HETATM    2  C2  UNL     1     -23.931  19.159   8.319  1.00 20.00     0.001 A 
HETATM    3  C3  UNL     1     -22.136  18.616   9.842  1.00 20.00     0.008 A 
HETATM    4  C4  UNL     1     -24.840  19.118   9.376  1.00 20.00     0.019 A 
HETATM    5  C5  UNL     1     -23.045  18.574  10.899  1.00 20.00    -0.045 A 
HETATM    6  C6  UNL     1     -24.398  18.825  10.666  1.00 20.00     0.012 A 
HETATM    7  C7  UNL     1     -22.514  18.254  12.259  1.00 20.00     0.049 C 
HETATM    8  I8  UNL     1     -25.815  18.777  12.204  1.00 20.00    -0.044 I 
ENDROOT
TORSDOF 0
ENDMDL
MODEL 9
REMARK VINA RESULT:      -3.6     16.407     17.539
REMARK  0 active torsions:
REMARK  status: ('A' for Active; 'I' for Inactive)
ROOT
HETATM    1  C1  UNL     1     -21.450  18.767   9.737  1.00 20.00     0.001 A 
HETATM    2  C2  UNL     1     -21.437  18.448  11.096  1.00 20.00     0.001 A 
HETATM    3  C3  UNL     1     -22.660  19.028   9.095  1.00 20.00     0.008 A 
HETATM    4  C4  UNL     1     -22.634  18.391  11.810  1.00 20.00     0.019 A 
HETATM    5  C5  UNL     1     -23.856  18.972   9.809  1.00 20.00    -0.045 A 
HETATM    6  C6  UNL     1     -23.843  18.653  11.168  1.00 20.00     0.012 A 
HETATM    7  C7  UNL     1     -25.121  19.263   9.069  1.00 20.00     0.049 C 
HETATM    8  I8  UNL     1     -25.600  18.552  12.299  1.00 20.00    -0.044 I 
ENDROOT
TORSDOF 0
ENDMDL
