MODEL 1
REMARK VINA RESULT:      -3.2      0.000      0.000
REMARK  0 active torsions:
REMARK  status: ('A' for Active; 'I' for Inactive)
ROOT
HETATM    1  C1  UNL     1     -34.530   5.640   6.401  1.00 20.00     0.021 C 
HETATM    2  C2  UNL     1     -34.107   5.178   3.963  1.00 20.00     0.021 C 
HETATM    3  C3  UNL     1     -34.549   6.218   4.989  1.00 20.00     0.045 C 
HETATM    4  I4  UNL     1     -33.247   7.936   4.890  1.00 20.00    -0.086 I 
ENDROOT
TORSDOF 0
ENDMDL
MODEL 2
REMARK VINA RESULT:      -2.8      1.015      1.944
REMARK  0 active torsions:
REMARK  status: ('A' for Active; 'I' for Inactive)
ROOT
HETATM    1  C1  UNL     1     -35.133   5.939   4.419  1.00 20.00     0.021 C 
HETATM    2  C2  UNL     1     -34.322   6.741   6.663  1.00 20.00     0.021 C 
HETATM    3  C3  UNL     1     -33.917   6.347   5.245  1.00 20.00     0.045 C 
HETATM    4  I4  UNL     1     -32.910   8.000   4.290  1.00 20.00    -0.086 I 
ENDROOT
TORSDOF 0
ENDMDL
MODEL 3
REMARK VINA RESULT:      -2.8      2.215      2.914
REMARK  0 active torsions:
REMARK  status: ('A' for Active; 'I' for Inactive)
ROOT
HETATM    1  C1  UNL     1     -32.851   6.425   3.365  1.00 20.00     0.021 C 
HETATM    2  C2  UNL     1     -32.854   8.266   5.081  1.00 20.00     0.021 C 
HETATM    3  C3  UNL     1     -33.685   7.191   4.387  1.00 20.00     0.045 C 
HETATM    4  I4  UNL     1     -34.475   5.821   5.855  1.00 20.00    -0.086 I 
ENDROOT
TORSDOF 0
ENDMDL
MODEL 4
REMARK VINA RESULT:      -2.7      2.412      2.623
REMARK  0 active torsions:
REMARK  status: ('A' for Active; 'I' for Inactive)
ROOT
HETATM    1  C1  UNL     1     -33.598   8.488   5.227  1.00 20.00     0.021 C 
HETATM    2  C2  UNL     1     -32.532   7.207   3.341  1.00 20.00     0.021 C 
HETATM    3  C3  UNL     1     -33.089   7.128   4.759  1.00 20.00     0.045 C 
HETATM    4  I4  UNL     1     -34.695   5.688   4.830  1.00 20.00    -0.086 I 
ENDROOT
TORSDOF 0
ENDMDL
MODEL 5
REMARK VINA RESULT:      -2.6      1.730      2.147
REMARK  0 active torsions:
REMARK  status: ('A' for Active; 'I' for Inactive)
ROOT
HETATM    1  C1  UNL     1     -33.592   7.619   5.406  1.00 20.00     0.021 C 
HETATM    2  C2  UNL     1     -34.606   5.370   5.905  1.00 20.00     0.021 C 
HETATM    3  C3  UNL     1     -34.336   6.419   4.830  1.00 20.00     0.045 C 
HETATM    4  I4  UNL     1     -33.176   5.542   3.235  1.00 20.00    -0.086 I 
ENDROOT
TORSDOF 0
ENDMDL
MODEL 6
REMARK VINA RESULT:      -2.4      2.272      2.458
REMARK  0 active torsions:
REMARK  status: ('A' for Active; 'I' for Inactive)
ROOT
HETATM    1  C1  UNL     1     -34.011   7.649   6.670  1.00 20.00     0.021 C 
HETATM    2  C2  UNL     1     -33.211   8.080   4.323  1.00 20.00     0.021 C 
HETATM    3  C3  UNL     1     -33.401   7.032   5.415  1.00 20.00     0.045 C 
HETATM    4  I4  UNL     1     -34.678   5.450   4.690  1.00 20.00    -0.086 I 
ENDROOT
TORSDOF 0
ENDMDL
MODEL 7
REMARK VINA RESULT:      -2.4      2.544      3.240
REMARK  0 active torsions:
REMARK  status: ('A' for Active; 'I' for Inactive)
ROOT
HETATM    1  C1  UNL     1     -32.270   7.983   2.000  1.00 20.00     0.021 C 
HETATM    2  C2  UNL     1     -32.967   5.701   2.801  1.00 20.00     0.021 C 
HETATM    3  C3  UNL     1     -32.275   7.009   3.174  1.00 20.00     0.045 C 
HETATM    4  I4  UNL     1     -33.281   7.908   4.859  1.00 20.00    -0.086 I 
ENDROOT
TORSDOF 0
ENDMDL
MODEL 8
REMARK VINA RESULT:      -2.4      8.880      9.043
REMARK  0 active torsions:
REMARK  status: ('A' for Active; 'I' for Inactive)
ROOT
HETATM    1  C1  UNL     1     -40.884   8.376  -0.035  1.00 20.00     0.021 C 
HETATM    2  C2  UNL     1     -40.772   5.890  -0.412  1.00 20.00     0.021 C 
HETATM    3  C3  UNL     1     -41.075   6.999   0.592  1.00 20.00     0.045 C 
HETATM    4  I4  UNL     1     -43.101   6.799   1.306  1.00 20.00    -0.086 I 
ENDROOT
TORSDOF 0
ENDMDL
MODEL 9
REMARK VINA RESULT:      -2.3      9.087      9.370
REMARK  0 active torsions:
REMARK  status: ('A' for Active; 'I' for Inactive)
ROOT
HETATM    1  C1  UNL     1     -40.809   5.899  -0.392  1.00 20.00     0.021 C 
HETATM    2  C2  UNL     1     -40.931   8.393  -0.076  1.00 20.00     0.021 C 
HETATM    3  C3  UNL     1     -41.729   7.112  -0.305  1.00 20.00     0.045 C 
HETATM    4  I4  UNL     1     -43.143   6.839   1.302  1.00 20.00    -0.086 I 
ENDROOT
TORSDOF 0
ENDMDL
