MODEL 1
REMARK VINA RESULT:      -6.0      0.000      0.000
REMARK  0 active torsions:
REMARK  status: ('A' for Active; 'I' for Inactive)
ROOT
HETATM    1  C1  UNL     1     -34.499   6.171   6.531  1.00 20.00     0.001 A 
HETATM    2  C2  UNL     1     -34.677   5.054   5.711  1.00 20.00     0.003 A 
HETATM    3  C3  UNL     1     -33.838   7.314   6.062  1.00 20.00     0.014 A 
HETATM    4  C4  UNL     1     -34.201   5.036   4.396  1.00 20.00     0.038 A 
HETATM    5  C5  UNL     1     -32.655   8.242   3.919  1.00 20.00     0.046 A 
HETATM    6  C6  UNL     1     -33.352   7.318   4.742  1.00 20.00     0.000 A 
HETATM    7  C7  UNL     1     -33.549   6.186   3.958  1.00 20.00     0.086 A 
HETATM    8  C8  UNL     1     -32.476   7.621   2.704  1.00 20.00     0.050 A 
HETATM    9  C9  UNL     1     -31.838   8.039   1.449  1.00 20.00     0.077 C 
HETATM   10  O10 UNL     1     -33.014   6.373   2.718  1.00 20.00    -0.315 OA
ENDROOT
TORSDOF 0
ENDMDL
MODEL 2
REMARK VINA RESULT:      -4.7      1.477      2.420
REMARK  0 active torsions:
REMARK  status: ('A' for Active; 'I' for Inactive)
ROOT
HETATM    1  C1  UNL     1     -34.466   4.634   4.504  1.00 20.00     0.001 A 
HETATM    2  C2  UNL     1     -34.849   5.045   5.784  1.00 20.00     0.003 A 
HETATM    3  C3  UNL     1     -33.669   5.451   3.691  1.00 20.00     0.014 A 
HETATM    4  C4  UNL     1     -34.452   6.284   6.297  1.00 20.00     0.038 A 
HETATM    5  C5  UNL     1     -32.477   7.781   3.699  1.00 20.00     0.046 A 
HETATM    6  C6  UNL     1     -33.258   6.701   4.187  1.00 20.00     0.000 A 
HETATM    7  C7  UNL     1     -33.660   7.074   5.466  1.00 20.00     0.086 A 
HETATM    8  C8  UNL     1     -32.454   8.727   4.698  1.00 20.00     0.050 A 
HETATM    9  C9  UNL     1     -31.826  10.051   4.811  1.00 20.00     0.077 C 
HETATM   10  O10 UNL     1     -33.170   8.308   5.774  1.00 20.00    -0.315 OA
ENDROOT
TORSDOF 0
ENDMDL
MODEL 3
REMARK VINA RESULT:      -4.5      1.459      2.089
REMARK  0 active torsions:
REMARK  status: ('A' for Active; 'I' for Inactive)
ROOT
HETATM    1  C1  UNL     1     -33.811   8.029   6.246  1.00 20.00     0.001 A 
HETATM    2  C2  UNL     1     -34.496   6.888   6.672  1.00 20.00     0.003 A 
HETATM    3  C3  UNL     1     -33.144   8.053   5.014  1.00 20.00     0.014 A 
HETATM    4  C4  UNL     1     -34.539   5.732   5.886  1.00 20.00     0.038 A 
HETATM    5  C5  UNL     1     -32.648   6.534   2.941  1.00 20.00     0.046 A 
HETATM    6  C6  UNL     1     -33.175   6.902   4.207  1.00 20.00     0.000 A 
HETATM    7  C7  UNL     1     -33.868   5.786   4.666  1.00 20.00     0.086 A 
HETATM    8  C8  UNL     1     -33.049   5.237   2.715  1.00 20.00     0.050 A 
HETATM    9  C9  UNL     1     -32.834   4.300   1.604  1.00 20.00     0.077 C 
HETATM   10  O10 UNL     1     -33.789   4.774   3.757  1.00 20.00    -0.315 OA
ENDROOT
TORSDOF 0
ENDMDL
MODEL 4
REMARK VINA RESULT:      -4.5      1.110      3.736
REMARK  0 active torsions:
REMARK  status: ('A' for Active; 'I' for Inactive)
ROOT
HETATM    1  C1  UNL     1     -32.088   8.765   3.173  1.00 20.00     0.001 A 
HETATM    2  C2  UNL     1     -32.193   7.636   2.356  1.00 20.00     0.003 A 
HETATM    3  C3  UNL     1     -32.618   8.769   4.470  1.00 20.00     0.014 A 
HETATM    4  C4  UNL     1     -32.830   6.474   2.802  1.00 20.00     0.038 A 
HETATM    5  C5  UNL     1     -33.908   7.224   6.144  1.00 20.00     0.046 A 
HETATM    6  C6  UNL     1     -33.264   7.611   4.939  1.00 20.00     0.000 A 
HETATM    7  C7  UNL     1     -33.347   6.508   4.095  1.00 20.00     0.086 A 
HETATM    8  C8  UNL     1     -34.336   5.930   5.957  1.00 20.00     0.050 A 
HETATM    9  C9  UNL     1     -35.058   4.979   6.813  1.00 20.00     0.077 C 
HETATM   10  O10 UNL     1     -34.001   5.487   4.717  1.00 20.00    -0.315 OA
ENDROOT
TORSDOF 0
ENDMDL
MODEL 5
REMARK VINA RESULT:      -4.4      1.506      2.135
REMARK  0 active torsions:
REMARK  status: ('A' for Active; 'I' for Inactive)
ROOT
HETATM    1  C1  UNL     1     -34.774   4.697   4.860  1.00 20.00     0.001 A 
HETATM    2  C2  UNL     1     -33.996   4.563   3.707  1.00 20.00     0.003 A 
HETATM    3  C3  UNL     1     -34.715   5.859   5.640  1.00 20.00     0.014 A 
HETATM    4  C4  UNL     1     -33.132   5.581   3.292  1.00 20.00     0.038 A 
HETATM    5  C5  UNL     1     -33.516   8.183   5.737  1.00 20.00     0.046 A 
HETATM    6  C6  UNL     1     -33.853   6.896   5.242  1.00 20.00     0.000 A 
HETATM    7  C7  UNL     1     -33.095   6.724   4.088  1.00 20.00     0.086 A 
HETATM    8  C8  UNL     1     -32.588   8.704   4.865  1.00 20.00     0.050 A 
HETATM    9  C9  UNL     1     -31.859   9.979   4.820  1.00 20.00     0.077 C 
HETATM   10  O10 UNL     1     -32.326   7.826   3.861  1.00 20.00    -0.315 OA
ENDROOT
TORSDOF 0
ENDMDL
MODEL 6
REMARK VINA RESULT:      -4.4      1.379      2.555
REMARK  0 active torsions:
REMARK  status: ('A' for Active; 'I' for Inactive)
ROOT
HETATM    1  C1  UNL     1     -34.315   7.282   6.656  1.00 20.00     0.001 A 
HETATM    2  C2  UNL     1     -33.589   8.267   5.982  1.00 20.00     0.003 A 
HETATM    3  C3  UNL     1     -34.509   6.014   6.091  1.00 20.00     0.014 A 
HETATM    4  C4  UNL     1     -33.032   8.024   4.722  1.00 20.00     0.038 A 
HETATM    5  C5  UNL     1     -33.928   4.635   3.944  1.00 20.00     0.046 A 
HETATM    6  C6  UNL     1     -33.958   5.748   4.826  1.00 20.00     0.000 A 
HETATM    7  C7  UNL     1     -33.241   6.755   4.187  1.00 20.00     0.086 A 
HETATM    8  C8  UNL     1     -33.206   5.032   2.842  1.00 20.00     0.050 A 
HETATM    9  C9  UNL     1     -32.822   4.353   1.597  1.00 20.00     0.077 C 
HETATM   10  O10 UNL     1     -32.786   6.317   2.980  1.00 20.00    -0.315 OA
ENDROOT
TORSDOF 0
ENDMDL
MODEL 7
REMARK VINA RESULT:      -4.3     12.462     12.825
REMARK  0 active torsions:
REMARK  status: ('A' for Active; 'I' for Inactive)
ROOT
HETATM    1  C1  UNL     1     -34.135  18.148  -0.623  1.00 20.00     0.001 A 
HETATM    2  C2  UNL     1     -33.110  18.022  -1.564  1.00 20.00     0.003 A 
HETATM    3  C3  UNL     1     -33.854  18.459   0.714  1.00 20.00     0.014 A 
HETATM    4  C4  UNL     1     -31.770  18.202  -1.207  1.00 20.00     0.038 A 
HETATM    5  C5  UNL     1     -31.835  18.958   2.303  1.00 20.00     0.046 A 
HETATM    6  C6  UNL     1     -32.514  18.644   1.096  1.00 20.00     0.000 A 
HETATM    7  C7  UNL     1     -31.522  18.511   0.129  1.00 20.00     0.086 A 
HETATM    8  C8  UNL     1     -30.494  18.995   1.997  1.00 20.00     0.050 A 
HETATM    9  C9  UNL     1     -29.290  19.261   2.796  1.00 20.00     0.077 C 
HETATM   10  O10 UNL     1     -30.294  18.724   0.681  1.00 20.00    -0.315 OA
ENDROOT
TORSDOF 0
ENDMDL
MODEL 8
REMARK VINA RESULT:      -4.1     12.586     12.679
REMARK  0 active torsions:
REMARK  status: ('A' for Active; 'I' for Inactive)
ROOT
HETATM    1  C1  UNL     1     -30.954  19.221   4.256  1.00 20.00     0.001 A 
HETATM    2  C2  UNL     1     -29.688  18.921   3.747  1.00 20.00     0.003 A 
HETATM    3  C3  UNL     1     -32.081  19.242   3.424  1.00 20.00     0.014 A 
HETATM    4  C4  UNL     1     -29.500  18.632   2.392  1.00 20.00     0.038 A 
HETATM    5  C5  UNL     1     -32.769  18.874   0.926  1.00 20.00     0.046 A 
HETATM    6  C6  UNL     1     -31.916  18.954   2.057  1.00 20.00     0.000 A 
HETATM    7  C7  UNL     1     -30.639  18.660   1.589  1.00 20.00     0.086 A 
HETATM    8  C8  UNL     1     -31.968  18.540  -0.142  1.00 20.00     0.050 A 
HETATM    9  C9  UNL     1     -32.241  18.310  -1.568  1.00 20.00     0.077 C 
HETATM   10  O10 UNL     1     -30.674  18.409   0.250  1.00 20.00    -0.315 OA
ENDROOT
TORSDOF 0
ENDMDL
MODEL 9
REMARK VINA RESULT:      -4.0     12.138     13.294
REMARK  0 active torsions:
REMARK  status: ('A' for Active; 'I' for Inactive)
ROOT
HETATM    1  C1  UNL     1     -33.743  14.947  -5.401  1.00 20.00     0.001 A 
HETATM    2  C2  UNL     1     -34.529  15.925  -6.016  1.00 20.00     0.003 A 
HETATM    3  C3  UNL     1     -33.292  15.105  -4.084  1.00 20.00     0.014 A 
HETATM    4  C4  UNL     1     -34.892  17.095  -5.340  1.00 20.00     0.038 A 
HETATM    5  C5  UNL     1     -33.401  16.794  -2.087  1.00 20.00     0.046 A 
HETATM    6  C6  UNL     1     -33.645  16.273  -3.385  1.00 20.00     0.000 A 
HETATM    7  C7  UNL     1     -34.429  17.223  -4.032  1.00 20.00     0.086 A 
HETATM    8  C8  UNL     1     -34.043  18.009  -2.029  1.00 20.00     0.050 A 
HETATM    9  C9  UNL     1     -34.171  19.027  -0.977  1.00 20.00     0.077 C 
HETATM   10  O10 UNL     1     -34.669  18.279  -3.205  1.00 20.00    -0.315 OA
ENDROOT
TORSDOF 0
ENDMDL
