MODEL 1
REMARK VINA RESULT:      -5.3      0.000      0.000
REMARK  3 active torsions:
REMARK  status: ('A' for Active; 'I' for Inactive)
REMARK    1  A    between atoms: C6_6  and  C9_9 
REMARK    2  A    between atoms: C8_8  and  C9_9 
REMARK    3  A    between atoms: C8_8  and  O10_10 
ROOT
HETATM    1  C1  UNL     1     -34.882   5.404   6.017  1.00 20.00     0.000 A 
HETATM    2  C2  UNL     1     -34.577   4.975   4.726  1.00 20.00     0.001 A 
HETATM    3  C3  UNL     1     -34.341   6.595   6.502  1.00 20.00     0.001 A 
HETATM    4  C4  UNL     1     -33.732   5.736   3.918  1.00 20.00     0.007 A 
HETATM    5  C5  UNL     1     -33.496   7.357   5.693  1.00 20.00     0.007 A 
HETATM    6  C6  UNL     1     -33.192   6.927   4.402  1.00 20.00    -0.052 A 
ENDROOT
BRANCH   6   7
HETATM    7  C9  UNL     1     -32.287   7.741   3.540  1.00 20.00     0.038 C 
HETATM    8  C7  UNL     1     -32.676   9.233   3.538  1.00 20.00     0.017 C 
BRANCH   7   9
HETATM    9  C8  UNL     1     -32.215   7.225   2.084  1.00 20.00     0.173 C 
BRANCH   9  10
HETATM   10  O10 UNL     1     -32.207   8.336   1.194  1.00 20.00    -0.400 OA
HETATM   11  H22 UNL     1     -33.058   8.325   0.727  1.00 20.00     0.209 HD
ENDBRANCH   9  10
ENDBRANCH   7   9
ENDBRANCH   6   7
TORSDOF 3
ENDMDL
MODEL 2
REMARK VINA RESULT:      -5.3      0.028      1.528
REMARK  3 active torsions:
REMARK  status: ('A' for Active; 'I' for Inactive)
REMARK    1  A    between atoms: C6_6  and  C9_9 
REMARK    2  A    between atoms: C8_8  and  C9_9 
REMARK    3  A    between atoms: C8_8  and  O10_10 
ROOT
HETATM    1  C1  UNL     1     -34.874   5.418   6.014  1.00 20.00     0.000 A 
HETATM    2  C2  UNL     1     -34.358   6.623   6.489  1.00 20.00     0.001 A 
HETATM    3  C3  UNL     1     -34.548   4.976   4.732  1.00 20.00     0.001 A 
HETATM    4  C4  UNL     1     -33.516   7.388   5.682  1.00 20.00     0.007 A 
HETATM    5  C5  UNL     1     -33.705   5.742   3.924  1.00 20.00     0.007 A 
HETATM    6  C6  UNL     1     -33.189   6.947   4.400  1.00 20.00    -0.052 A 
ENDROOT
BRANCH   6   7
HETATM    7  C9  UNL     1     -32.290   7.764   3.536  1.00 20.00     0.038 C 
HETATM    8  C7  UNL     1     -32.700   9.250   3.513  1.00 20.00     0.017 C 
BRANCH   7   9
HETATM    9  C8  UNL     1     -32.198   7.232   2.087  1.00 20.00     0.173 C 
BRANCH   9  10
HETATM   10  O10 UNL     1     -32.202   8.333   1.184  1.00 20.00    -0.400 OA
HETATM   11  H22 UNL     1     -33.052   8.307   0.717  1.00 20.00     0.209 HD
ENDBRANCH   9  10
ENDBRANCH   7   9
ENDBRANCH   6   7
TORSDOF 3
ENDMDL
MODEL 3
REMARK VINA RESULT:      -5.1      1.382      2.341
REMARK  3 active torsions:
REMARK  status: ('A' for Active; 'I' for Inactive)
REMARK    1  A    between atoms: C6_6  and  C9_9 
REMARK    2  A    between atoms: C8_8  and  C9_9 
REMARK    3  A    between atoms: C8_8  and  O10_10 
ROOT
HETATM    1  C1  UNL     1     -34.744   5.041   6.133  1.00 20.00     0.000 A 
HETATM    2  C2  UNL     1     -34.504   6.319   6.638  1.00 20.00     0.001 A 
HETATM    3  C3  UNL     1     -34.457   4.753   4.799  1.00 20.00     0.001 A 
HETATM    4  C4  UNL     1     -33.976   7.309   5.809  1.00 20.00     0.007 A 
HETATM    5  C5  UNL     1     -33.929   5.744   3.969  1.00 20.00     0.007 A 
HETATM    6  C6  UNL     1     -33.688   7.022   4.475  1.00 20.00    -0.052 A 
ENDROOT
BRANCH   6   7
HETATM    7  C9  UNL     1     -33.125   8.079   3.588  1.00 20.00     0.038 C 
HETATM    8  C7  UNL     1     -32.073   7.517   2.611  1.00 20.00     0.017 C 
BRANCH   7   9
HETATM    9  C8  UNL     1     -32.519   9.265   4.373  1.00 20.00     0.173 C 
BRANCH   9  10
HETATM   10  O10 UNL     1     -31.393   8.808   5.115  1.00 20.00    -0.400 OA
HETATM   11  H22 UNL     1     -31.692   8.694   6.032  1.00 20.00     0.209 HD
ENDBRANCH   9  10
ENDBRANCH   7   9
ENDBRANCH   6   7
TORSDOF 3
ENDMDL
MODEL 4
REMARK VINA RESULT:      -5.0      0.933      2.192
REMARK  3 active torsions:
REMARK  status: ('A' for Active; 'I' for Inactive)
REMARK    1  A    between atoms: C6_6  and  C9_9 
REMARK    2  A    between atoms: C8_8  and  C9_9 
REMARK    3  A    between atoms: C8_8  and  O10_10 
ROOT
HETATM    1  C1  UNL     1     -34.738   6.239   6.785  1.00 20.00     0.000 A 
HETATM    2  C2  UNL     1     -34.034   7.356   6.336  1.00 20.00     0.001 A 
HETATM    3  C3  UNL     1     -34.934   5.150   5.936  1.00 20.00     0.001 A 
HETATM    4  C4  UNL     1     -33.525   7.384   5.038  1.00 20.00     0.007 A 
HETATM    5  C5  UNL     1     -34.425   5.179   4.636  1.00 20.00     0.007 A 
HETATM    6  C6  UNL     1     -33.720   6.296   4.188  1.00 20.00    -0.052 A 
ENDROOT
BRANCH   6   7
HETATM    7  C9  UNL     1     -33.178   6.325   2.799  1.00 20.00     0.038 C 
HETATM    8  C7  UNL     1     -32.765   4.924   2.308  1.00 20.00     0.017 C 
BRANCH   7   9
HETATM    9  C8  UNL     1     -31.989   7.300   2.637  1.00 20.00     0.173 C 
BRANCH   9  10
HETATM   10  O10 UNL     1     -32.116   7.990   1.398  1.00 20.00    -0.400 OA
HETATM   11  H22 UNL     1     -32.073   8.938   1.601  1.00 20.00     0.209 HD
ENDBRANCH   9  10
ENDBRANCH   7   9
ENDBRANCH   6   7
TORSDOF 3
ENDMDL
MODEL 5
REMARK VINA RESULT:      -5.0      0.936      1.727
REMARK  3 active torsions:
REMARK  status: ('A' for Active; 'I' for Inactive)
REMARK    1  A    between atoms: C6_6  and  C9_9 
REMARK    2  A    between atoms: C8_8  and  C9_9 
REMARK    3  A    between atoms: C8_8  and  O10_10 
ROOT
HETATM    1  C1  UNL     1     -34.735   6.235   6.764  1.00 20.00     0.000 A 
HETATM    2  C2  UNL     1     -34.920   5.144   5.914  1.00 20.00     0.001 A 
HETATM    3  C3  UNL     1     -34.044   7.360   6.313  1.00 20.00     0.001 A 
HETATM    4  C4  UNL     1     -34.415   5.178   4.615  1.00 20.00     0.007 A 
HETATM    5  C5  UNL     1     -33.537   7.394   5.013  1.00 20.00     0.007 A 
HETATM    6  C6  UNL     1     -33.723   6.302   4.164  1.00 20.00    -0.052 A 
ENDROOT
BRANCH   6   7
HETATM    7  C9  UNL     1     -33.181   6.339   2.775  1.00 20.00     0.038 C 
HETATM    8  C7  UNL     1     -32.756   4.942   2.282  1.00 20.00     0.017 C 
BRANCH   7   9
HETATM    9  C8  UNL     1     -32.001   7.325   2.614  1.00 20.00     0.173 C 
BRANCH   9  10
HETATM   10  O10 UNL     1     -32.143   8.025   1.383  1.00 20.00    -0.400 OA
HETATM   11  H22 UNL     1     -32.630   8.841   1.580  1.00 20.00     0.209 HD
ENDBRANCH   9  10
ENDBRANCH   7   9
ENDBRANCH   6   7
TORSDOF 3
ENDMDL
MODEL 6
REMARK VINA RESULT:      -4.6      2.069      3.847
REMARK  3 active torsions:
REMARK  status: ('A' for Active; 'I' for Inactive)
REMARK    1  A    between atoms: C6_6  and  C9_9 
REMARK    2  A    between atoms: C8_8  and  C9_9 
REMARK    3  A    between atoms: C8_8  and  O10_10 
ROOT
HETATM    1  C1  UNL     1     -31.904   8.855   3.880  1.00 20.00     0.000 A 
HETATM    2  C2  UNL     1     -32.177   7.722   3.113  1.00 20.00     0.001 A 
HETATM    3  C3  UNL     1     -32.572   9.058   5.087  1.00 20.00     0.001 A 
HETATM    4  C4  UNL     1     -33.118   6.792   3.553  1.00 20.00     0.007 A 
HETATM    5  C5  UNL     1     -33.514   8.127   5.528  1.00 20.00     0.007 A 
HETATM    6  C6  UNL     1     -33.787   6.994   4.760  1.00 20.00    -0.052 A 
ENDROOT
BRANCH   6   7
HETATM    7  C9  UNL     1     -34.794   6.000   5.232  1.00 20.00     0.038 C 
HETATM    8  C7  UNL     1     -34.496   5.506   6.661  1.00 20.00     0.017 C 
BRANCH   7   9
HETATM    9  C8  UNL     1     -34.933   4.787   4.284  1.00 20.00     0.173 C 
BRANCH   9  10
HETATM   10  O10 UNL     1     -33.968   3.802   4.641  1.00 20.00    -0.400 OA
HETATM   11  H22 UNL     1     -34.349   2.941   4.406  1.00 20.00     0.209 HD
ENDBRANCH   9  10
ENDBRANCH   7   9
ENDBRANCH   6   7
TORSDOF 3
ENDMDL
MODEL 7
REMARK VINA RESULT:      -4.6      2.059      4.120
REMARK  3 active torsions:
REMARK  status: ('A' for Active; 'I' for Inactive)
REMARK    1  A    between atoms: C6_6  and  C9_9 
REMARK    2  A    between atoms: C8_8  and  C9_9 
REMARK    3  A    between atoms: C8_8  and  O10_10 
ROOT
HETATM    1  C1  UNL     1     -31.903   8.855   3.897  1.00 20.00     0.000 A 
HETATM    2  C2  UNL     1     -32.603   9.078   5.083  1.00 20.00     0.001 A 
HETATM    3  C3  UNL     1     -32.152   7.706   3.146  1.00 20.00     0.001 A 
HETATM    4  C4  UNL     1     -33.551   8.153   5.518  1.00 20.00     0.007 A 
HETATM    5  C5  UNL     1     -33.101   6.780   3.582  1.00 20.00     0.007 A 
HETATM    6  C6  UNL     1     -33.801   7.004   4.768  1.00 20.00    -0.052 A 
ENDROOT
BRANCH   6   7
HETATM    7  C9  UNL     1     -34.814   6.014   5.233  1.00 20.00     0.038 C 
HETATM    8  C7  UNL     1     -34.508   5.494   6.652  1.00 20.00     0.017 C 
BRANCH   7   9
HETATM    9  C8  UNL     1     -34.974   4.816   4.269  1.00 20.00     0.173 C 
BRANCH   9  10
HETATM   10  O10 UNL     1     -33.998   3.829   4.583  1.00 20.00    -0.400 OA
HETATM   11  H22 UNL     1     -34.105   3.621   5.525  1.00 20.00     0.209 HD
ENDBRANCH   9  10
ENDBRANCH   7   9
ENDBRANCH   6   7
TORSDOF 3
ENDMDL
MODEL 8
REMARK VINA RESULT:      -4.4      2.134      4.156
REMARK  3 active torsions:
REMARK  status: ('A' for Active; 'I' for Inactive)
REMARK    1  A    between atoms: C6_6  and  C9_9 
REMARK    2  A    between atoms: C8_8  and  C9_9 
REMARK    3  A    between atoms: C8_8  and  O10_10 
ROOT
HETATM    1  C1  UNL     1     -32.024   7.748   2.281  1.00 20.00     0.000 A 
HETATM    2  C2  UNL     1     -32.409   8.718   3.206  1.00 20.00     0.001 A 
HETATM    3  C3  UNL     1     -32.433   6.424   2.447  1.00 20.00     0.001 A 
HETATM    4  C4  UNL     1     -33.203   8.365   4.297  1.00 20.00     0.007 A 
HETATM    5  C5  UNL     1     -33.228   6.072   3.539  1.00 20.00     0.007 A 
HETATM    6  C6  UNL     1     -33.613   7.043   4.463  1.00 20.00    -0.052 A 
ENDROOT
BRANCH   6   7
HETATM    7  C9  UNL     1     -34.461   6.665   5.630  1.00 20.00     0.038 C 
HETATM    8  C7  UNL     1     -34.031   7.392   6.920  1.00 20.00     0.017 C 
BRANCH   7   9
HETATM    9  C8  UNL     1     -34.493   5.140   5.884  1.00 20.00     0.173 C 
BRANCH   9  10
HETATM   10  O10 UNL     1     -35.421   4.536   4.989  1.00 20.00    -0.400 OA
HETATM   11  H22 UNL     1     -36.261   5.011   5.097  1.00 20.00     0.209 HD
ENDBRANCH   9  10
ENDBRANCH   7   9
ENDBRANCH   6   7
TORSDOF 3
ENDMDL
MODEL 9
REMARK VINA RESULT:      -4.3     11.689     12.895
REMARK  3 active torsions:
REMARK  status: ('A' for Active; 'I' for Inactive)
REMARK    1  A    between atoms: C6_6  and  C9_9 
REMARK    2  A    between atoms: C8_8  and  C9_9 
REMARK    3  A    between atoms: C8_8  and  O10_10 
ROOT
HETATM    1  C1  UNL     1     -33.597  18.242  -2.765  1.00 20.00     0.000 A 
HETATM    2  C2  UNL     1     -34.209  18.410  -4.007  1.00 20.00     0.001 A 
HETATM    3  C3  UNL     1     -33.231  16.966  -2.335  1.00 20.00     0.001 A 
HETATM    4  C4  UNL     1     -34.455  17.304  -4.819  1.00 20.00     0.007 A 
HETATM    5  C5  UNL     1     -33.477  15.859  -3.149  1.00 20.00     0.007 A 
HETATM    6  C6  UNL     1     -34.089  16.028  -4.391  1.00 20.00    -0.052 A 
ENDROOT
BRANCH   6   7
HETATM    7  C9  UNL     1     -34.353  14.845  -5.258  1.00 20.00     0.038 C 
HETATM    8  C7  UNL     1     -34.131  15.159  -6.751  1.00 20.00     0.017 C 
BRANCH   7   9
HETATM    9  C8  UNL     1     -35.768  14.254  -5.060  1.00 20.00     0.173 C 
BRANCH   9  10
HETATM   10  O10 UNL     1     -35.660  12.981  -4.433  1.00 20.00    -0.400 OA
HETATM   11  H22 UNL     1     -36.564  12.691  -4.232  1.00 20.00     0.209 HD
ENDBRANCH   9  10
ENDBRANCH   7   9
ENDBRANCH   6   7
TORSDOF 3
ENDMDL
