MODEL 1
REMARK VINA RESULT:      -5.7      0.000      0.000
REMARK  1 active torsions:
REMARK  status: ('A' for Active; 'I' for Inactive)
REMARK    1  A    between atoms: C6_6  and  C9_9 
ROOT
HETATM    1  C1  UNL     1     -34.736   5.259   5.924  1.00 20.00     0.001 A 
HETATM    2  C2  UNL     1     -34.345   4.704   4.705  1.00 20.00     0.007 A 
HETATM    3  C3  UNL     1     -34.397   6.578   6.229  1.00 20.00     0.007 A 
HETATM    4  C4  UNL     1     -33.278   6.784   4.097  1.00 20.00     0.013 A 
HETATM    5  C5  UNL     1     -33.617   5.466   3.793  1.00 20.00    -0.061 A 
HETATM    6  C6  UNL     1     -33.669   7.340   5.315  1.00 20.00    -0.058 A 
HETATM    7  C7  UNL     1     -33.202   4.870   2.489  1.00 20.00     0.048 C 
ENDROOT
BRANCH   6   8
HETATM    8  C9  UNL     1     -33.306   8.750   5.643  1.00 20.00     0.034 C 
HETATM    9  C8  UNL     1     -32.146   9.264   4.794  1.00 20.00     0.010 C 
ENDBRANCH   6   8
TORSDOF 1
ENDMDL
MODEL 2
REMARK VINA RESULT:      -5.6      1.072      3.722
REMARK  1 active torsions:
REMARK  status: ('A' for Active; 'I' for Inactive)
REMARK    1  A    between atoms: C6_6  and  C9_9 
ROOT
HETATM    1  C1  UNL     1     -32.480   6.316   2.535  1.00 20.00     0.001 A 
HETATM    2  C2  UNL     1     -32.070   7.546   3.050  1.00 20.00     0.007 A 
HETATM    3  C3  UNL     1     -33.436   5.560   3.213  1.00 20.00     0.007 A 
HETATM    4  C4  UNL     1     -33.572   7.263   4.921  1.00 20.00     0.013 A 
HETATM    5  C5  UNL     1     -32.616   8.019   4.243  1.00 20.00    -0.061 A 
HETATM    6  C6  UNL     1     -33.983   6.034   4.406  1.00 20.00    -0.058 A 
HETATM    7  C7  UNL     1     -32.178   9.336   4.792  1.00 20.00     0.048 C 
ENDROOT
BRANCH   6   8
HETATM    8  C9  UNL     1     -35.005   5.225   5.131  1.00 20.00     0.034 C 
HETATM    9  C8  UNL     1     -34.774   5.214   6.640  1.00 20.00     0.010 C 
ENDBRANCH   6   8
TORSDOF 1
ENDMDL
MODEL 3
REMARK VINA RESULT:      -5.5      1.012      2.914
REMARK  1 active torsions:
REMARK  status: ('A' for Active; 'I' for Inactive)
REMARK    1  A    between atoms: C6_6  and  C9_9 
ROOT
HETATM    1  C1  UNL     1     -32.215   8.452   3.757  1.00 20.00     0.001 A 
HETATM    2  C2  UNL     1     -32.193   7.423   2.816  1.00 20.00     0.007 A 
HETATM    3  C3  UNL     1     -32.917   8.289   4.952  1.00 20.00     0.007 A 
HETATM    4  C4  UNL     1     -33.576   6.069   4.262  1.00 20.00     0.013 A 
HETATM    5  C5  UNL     1     -32.874   6.233   3.068  1.00 20.00    -0.061 A 
HETATM    6  C6  UNL     1     -33.597   7.097   5.204  1.00 20.00    -0.058 A 
HETATM    7  C7  UNL     1     -32.848   5.132   2.060  1.00 20.00     0.048 C 
ENDROOT
BRANCH   6   8
HETATM    8  C9  UNL     1     -34.349   6.924   6.481  1.00 20.00     0.034 C 
HETATM    9  C8  UNL     1     -34.800   5.482   6.699  1.00 20.00     0.010 C 
ENDBRANCH   6   8
TORSDOF 1
ENDMDL
MODEL 4
REMARK VINA RESULT:      -5.2      1.613      3.008
REMARK  1 active torsions:
REMARK  status: ('A' for Active; 'I' for Inactive)
REMARK    1  A    between atoms: C6_6  and  C9_9 
ROOT
HETATM    1  C1  UNL     1     -33.087   8.442   5.521  1.00 20.00     0.001 A 
HETATM    2  C2  UNL     1     -33.864   7.349   5.907  1.00 20.00     0.007 A 
HETATM    3  C3  UNL     1     -32.488   8.460   4.261  1.00 20.00     0.007 A 
HETATM    4  C4  UNL     1     -33.442   6.295   3.775  1.00 20.00     0.013 A 
HETATM    5  C5  UNL     1     -34.041   6.277   5.035  1.00 20.00    -0.061 A 
HETATM    6  C6  UNL     1     -32.666   7.387   3.389  1.00 20.00    -0.058 A 
HETATM    7  C7  UNL     1     -34.874   5.110   5.449  1.00 20.00     0.048 C 
ENDROOT
BRANCH   6   8
HETATM    8  C9  UNL     1     -32.023   7.407   2.042  1.00 20.00     0.034 C 
HETATM    9  C8  UNL     1     -32.422   8.633   1.226  1.00 20.00     0.010 C 
ENDBRANCH   6   8
TORSDOF 1
ENDMDL
MODEL 5
REMARK VINA RESULT:      -5.2      0.877      2.472
REMARK  1 active torsions:
REMARK  status: ('A' for Active; 'I' for Inactive)
REMARK    1  A    between atoms: C6_6  and  C9_9 
ROOT
HETATM    1  C1  UNL     1     -33.315   4.986   2.974  1.00 20.00     0.001 A 
HETATM    2  C2  UNL     1     -34.039   4.688   4.130  1.00 20.00     0.007 A 
HETATM    3  C3  UNL     1     -32.778   6.261   2.799  1.00 20.00     0.007 A 
HETATM    4  C4  UNL     1     -33.689   6.939   4.931  1.00 20.00     0.013 A 
HETATM    5  C5  UNL     1     -34.226   5.664   5.107  1.00 20.00    -0.061 A 
HETATM    6  C6  UNL     1     -32.965   7.238   3.777  1.00 20.00    -0.058 A 
HETATM    7  C7  UNL     1     -34.999   5.343   6.342  1.00 20.00     0.048 C 
ENDROOT
BRANCH   6   8
HETATM    8  C9  UNL     1     -32.391   8.602   3.588  1.00 20.00     0.034 C 
HETATM    9  C8  UNL     1     -32.128   9.311   4.914  1.00 20.00     0.010 C 
ENDBRANCH   6   8
TORSDOF 1
ENDMDL
MODEL 6
REMARK VINA RESULT:      -5.2      0.666      3.338
REMARK  1 active torsions:
REMARK  status: ('A' for Active; 'I' for Inactive)
REMARK    1  A    between atoms: C6_6  and  C9_9 
ROOT
HETATM    1  C1  UNL     1     -34.589   6.464   6.578  1.00 20.00     0.001 A 
HETATM    2  C2  UNL     1     -33.883   7.652   6.381  1.00 20.00     0.007 A 
HETATM    3  C3  UNL     1     -34.602   5.488   5.581  1.00 20.00     0.007 A 
HETATM    4  C4  UNL     1     -33.205   6.887   4.192  1.00 20.00     0.013 A 
HETATM    5  C5  UNL     1     -33.192   7.863   5.189  1.00 20.00    -0.061 A 
HETATM    6  C6  UNL     1     -33.910   5.700   4.389  1.00 20.00    -0.058 A 
HETATM    7  C7  UNL     1     -32.437   9.133   4.981  1.00 20.00     0.048 C 
ENDROOT
BRANCH   6   8
HETATM    8  C9  UNL     1     -33.926   4.656   3.323  1.00 20.00     0.034 C 
HETATM    9  C8  UNL     1     -32.850   4.890   2.265  1.00 20.00     0.010 C 
ENDBRANCH   6   8
TORSDOF 1
ENDMDL
MODEL 7
REMARK VINA RESULT:      -4.8      0.970      3.568
REMARK  1 active torsions:
REMARK  status: ('A' for Active; 'I' for Inactive)
REMARK    1  A    between atoms: C6_6  and  C9_9 
ROOT
HETATM    1  C1  UNL     1     -32.896   8.659   5.234  1.00 20.00     0.001 A 
HETATM    2  C2  UNL     1     -33.697   7.896   6.085  1.00 20.00     0.007 A 
HETATM    3  C3  UNL     1     -32.507   8.144   3.997  1.00 20.00     0.007 A 
HETATM    4  C4  UNL     1     -33.717   6.106   4.464  1.00 20.00     0.013 A 
HETATM    5  C5  UNL     1     -34.107   6.621   5.700  1.00 20.00    -0.061 A 
HETATM    6  C6  UNL     1     -32.918   6.868   3.612  1.00 20.00    -0.058 A 
HETATM    7  C7  UNL     1     -34.964   5.808   6.611  1.00 20.00     0.048 C 
ENDROOT
BRANCH   6   8
HETATM    8  C9  UNL     1     -32.499   6.317   2.290  1.00 20.00     0.034 C 
HETATM    9  C8  UNL     1     -32.883   4.849   2.124  1.00 20.00     0.010 C 
ENDBRANCH   6   8
TORSDOF 1
ENDMDL
MODEL 8
REMARK VINA RESULT:      -4.0     15.253     16.208
REMARK  1 active torsions:
REMARK  status: ('A' for Active; 'I' for Inactive)
REMARK    1  A    between atoms: C6_6  and  C9_9 
ROOT
HETATM    1  C1  UNL     1     -24.304  16.362  11.514  1.00 20.00     0.001 A 
HETATM    2  C2  UNL     1     -25.381  17.021  12.108  1.00 20.00     0.007 A 
HETATM    3  C3  UNL     1     -23.571  16.992  10.508  1.00 20.00     0.007 A 
HETATM    4  C4  UNL     1     -24.993  18.937  10.689  1.00 20.00     0.013 A 
HETATM    5  C5  UNL     1     -25.726  18.307  11.695  1.00 20.00    -0.061 A 
HETATM    6  C6  UNL     1     -23.916  18.280  10.095  1.00 20.00    -0.058 A 
HETATM    7  C7  UNL     1     -26.877  19.010  12.332  1.00 20.00     0.048 C 
ENDROOT
BRANCH   6   8
HETATM    8  C9  UNL     1     -23.132  18.952   9.018  1.00 20.00     0.034 C 
HETATM    9  C8  UNL     1     -21.652  19.076   9.368  1.00 20.00     0.010 C 
ENDBRANCH   6   8
TORSDOF 1
ENDMDL
MODEL 9
REMARK VINA RESULT:      -4.0     12.450     13.276
REMARK  1 active torsions:
REMARK  status: ('A' for Active; 'I' for Inactive)
REMARK    1  A    between atoms: C6_6  and  C9_9 
ROOT
HETATM    1  C1  UNL     1     -34.086  18.500   0.715  1.00 20.00     0.001 A 
HETATM    2  C2  UNL     1     -32.889  18.867   1.330  1.00 20.00     0.007 A 
HETATM    3  C3  UNL     1     -34.088  18.099  -0.622  1.00 20.00     0.007 A 
HETATM    4  C4  UNL     1     -31.698  18.434  -0.726  1.00 20.00     0.013 A 
HETATM    5  C5  UNL     1     -31.696  18.835   0.610  1.00 20.00    -0.061 A 
HETATM    6  C6  UNL     1     -32.894  18.066  -1.342  1.00 20.00    -0.058 A 
HETATM    7  C7  UNL     1     -30.416  19.226   1.270  1.00 20.00     0.048 C 
ENDROOT
BRANCH   6   8
HETATM    8  C9  UNL     1     -32.897  17.639  -2.771  1.00 20.00     0.034 C 
HETATM    9  C8  UNL     1     -33.444  16.225  -2.954  1.00 20.00     0.010 C 
ENDBRANCH   6   8
TORSDOF 1
ENDMDL
