MODEL 1
REMARK VINA RESULT:      -4.0      0.000      0.000
REMARK  0 active torsions:
REMARK  status: ('A' for Active; 'I' for Inactive)
ROOT
HETATM    1  C1  UNL     1     -32.573   8.970   5.121  1.00 20.00     0.002 A 
HETATM    2  C2  UNL     1     -32.161   8.914   3.790  1.00 20.00     0.007 A 
HETATM    3  C3  UNL     1     -33.312   7.920   5.667  1.00 20.00     0.018 A 
HETATM    4  C4  UNL     1     -33.224   6.758   3.552  1.00 20.00     0.025 A 
HETATM    5  C5  UNL     1     -32.486   7.808   3.005  1.00 20.00    -0.061 A 
HETATM    6  C6  UNL     1     -33.637   6.815   4.883  1.00 20.00     0.006 A 
HETATM    7  C7  UNL     1     -32.045   7.749   1.581  1.00 20.00     0.048 C 
HETATM    8  I8  UNL     1     -34.735   5.249   5.698  1.00 20.00    -0.045 I 
ENDROOT
TORSDOF 0
ENDMDL
MODEL 2
REMARK VINA RESULT:      -3.7      1.914      3.081
REMARK  0 active torsions:
REMARK  status: ('A' for Active; 'I' for Inactive)
ROOT
HETATM    1  C1  UNL     1     -34.692   5.960   6.101  1.00 20.00     0.002 A 
HETATM    2  C2  UNL     1     -34.113   7.220   6.252  1.00 20.00     0.007 A 
HETATM    3  C3  UNL     1     -34.447   5.213   4.950  1.00 20.00     0.018 A 
HETATM    4  C4  UNL     1     -33.041   6.983   4.099  1.00 20.00     0.025 A 
HETATM    5  C5  UNL     1     -33.287   7.731   5.250  1.00 20.00    -0.061 A 
HETATM    6  C6  UNL     1     -33.622   5.723   3.949  1.00 20.00     0.006 A 
HETATM    7  C7  UNL     1     -32.668   9.079   5.411  1.00 20.00     0.048 C 
HETATM    8  I8  UNL     1     -33.253   4.608   2.235  1.00 20.00    -0.045 I 
ENDROOT
TORSDOF 0
ENDMDL
MODEL 3
REMARK VINA RESULT:      -3.7      2.214      3.327
REMARK  0 active torsions:
REMARK  status: ('A' for Active; 'I' for Inactive)
ROOT
HETATM    1  C1  UNL     1     -33.294   8.343   5.952  1.00 20.00     0.002 A 
HETATM    2  C2  UNL     1     -33.941   7.126   6.167  1.00 20.00     0.007 A 
HETATM    3  C3  UNL     1     -32.785   8.649   4.690  1.00 20.00     0.018 A 
HETATM    4  C4  UNL     1     -33.572   6.523   3.856  1.00 20.00     0.025 A 
HETATM    5  C5  UNL     1     -34.080   6.216   5.119  1.00 20.00    -0.061 A 
HETATM    6  C6  UNL     1     -32.925   7.740   3.642  1.00 20.00     0.006 A 
HETATM    7  C7  UNL     1     -34.771   4.914   5.350  1.00 20.00     0.048 C 
HETATM    8  I8  UNL     1     -32.171   8.197   1.761  1.00 20.00    -0.045 I 
ENDROOT
TORSDOF 0
ENDMDL
MODEL 4
REMARK VINA RESULT:      -3.6      2.249      3.243
REMARK  0 active torsions:
REMARK  status: ('A' for Active; 'I' for Inactive)
ROOT
HETATM    1  C1  UNL     1     -34.639   5.456   5.609  1.00 20.00     0.002 A 
HETATM    2  C2  UNL     1     -34.340   4.700   4.475  1.00 20.00     0.007 A 
HETATM    3  C3  UNL     1     -34.106   6.737   5.753  1.00 20.00     0.018 A 
HETATM    4  C4  UNL     1     -32.977   6.508   3.630  1.00 20.00     0.025 A 
HETATM    5  C5  UNL     1     -33.510   5.226   3.486  1.00 20.00    -0.061 A 
HETATM    6  C6  UNL     1     -33.276   7.262   4.765  1.00 20.00     0.006 A 
HETATM    7  C7  UNL     1     -33.190   4.417   2.274  1.00 20.00     0.048 C 
HETATM    8  I8  UNL     1     -32.484   9.172   4.979  1.00 20.00    -0.045 I 
ENDROOT
TORSDOF 0
ENDMDL
MODEL 5
REMARK VINA RESULT:      -3.6      2.396      4.142
REMARK  0 active torsions:
REMARK  status: ('A' for Active; 'I' for Inactive)
ROOT
HETATM    1  C1  UNL     1     -34.018   4.539   4.030  1.00 20.00     0.002 A 
HETATM    2  C2  UNL     1     -34.412   5.005   5.284  1.00 20.00     0.007 A 
HETATM    3  C3  UNL     1     -33.382   5.399   3.134  1.00 20.00     0.018 A 
HETATM    4  C4  UNL     1     -33.532   7.191   4.747  1.00 20.00     0.025 A 
HETATM    5  C5  UNL     1     -34.169   6.331   5.642  1.00 20.00    -0.061 A 
HETATM    6  C6  UNL     1     -33.139   6.724   3.493  1.00 20.00     0.006 A 
HETATM    7  C7  UNL     1     -34.591   6.830   6.984  1.00 20.00     0.048 C 
HETATM    8  I8  UNL     1     -32.188   8.004   2.160  1.00 20.00    -0.045 I 
ENDROOT
TORSDOF 0
ENDMDL
MODEL 6
REMARK VINA RESULT:      -3.5     11.343     12.288
REMARK  0 active torsions:
REMARK  status: ('A' for Active; 'I' for Inactive)
ROOT
HETATM    1  C1  UNL     1     -35.092  18.145  -3.996  1.00 20.00     0.002 A 
HETATM    2  C2  UNL     1     -34.496  16.981  -4.483  1.00 20.00     0.007 A 
HETATM    3  C3  UNL     1     -34.842  18.562  -2.689  1.00 20.00     0.018 A 
HETATM    4  C4  UNL     1     -33.399  16.654  -2.355  1.00 20.00     0.025 A 
HETATM    5  C5  UNL     1     -33.650  16.236  -3.662  1.00 20.00    -0.061 A 
HETATM    6  C6  UNL     1     -33.996  17.817  -1.869  1.00 20.00     0.006 A 
HETATM    7  C7  UNL     1     -33.013  14.991  -4.183  1.00 20.00     0.048 C 
HETATM    8  I8  UNL     1     -33.622  18.440   0.078  1.00 20.00    -0.045 I 
ENDROOT
TORSDOF 0
ENDMDL
MODEL 7
REMARK VINA RESULT:      -3.5      0.891      2.267
REMARK  0 active torsions:
REMARK  status: ('A' for Active; 'I' for Inactive)
ROOT
HETATM    1  C1  UNL     1     -32.637   6.288   2.541  1.00 20.00     0.002 A 
HETATM    2  C2  UNL     1     -32.233   7.607   2.750  1.00 20.00     0.007 A 
HETATM    3  C3  UNL     1     -33.373   5.621   3.520  1.00 20.00     0.018 A 
HETATM    4  C4  UNL     1     -33.303   7.590   4.917  1.00 20.00     0.025 A 
HETATM    5  C5  UNL     1     -32.566   8.257   3.938  1.00 20.00    -0.061 A 
HETATM    6  C6  UNL     1     -33.706   6.271   4.707  1.00 20.00     0.006 A 
HETATM    7  C7  UNL     1     -32.134   9.668   4.162  1.00 20.00     0.048 C 
HETATM    8  I8  UNL     1     -34.806   5.277   6.163  1.00 20.00    -0.045 I 
ENDROOT
TORSDOF 0
ENDMDL
MODEL 8
REMARK VINA RESULT:      -3.4     11.769     12.110
REMARK  0 active torsions:
REMARK  status: ('A' for Active; 'I' for Inactive)
ROOT
HETATM    1  C1  UNL     1     -31.438  18.902   0.186  1.00 20.00     0.002 A 
HETATM    2  C2  UNL     1     -32.480  19.193   1.066  1.00 20.00     0.007 A 
HETATM    3  C3  UNL     1     -31.698  18.216  -1.001  1.00 20.00     0.018 A 
HETATM    4  C4  UNL     1     -34.043  18.115  -0.429  1.00 20.00     0.025 A 
HETATM    5  C5  UNL     1     -33.782  18.800   0.758  1.00 20.00    -0.061 A 
HETATM    6  C6  UNL     1     -33.000  17.823  -1.308  1.00 20.00     0.006 A 
HETATM    7  C7  UNL     1     -34.897  19.111   1.700  1.00 20.00     0.048 C 
HETATM    8  I8  UNL     1     -33.388  16.806  -3.078  1.00 20.00    -0.045 I 
ENDROOT
TORSDOF 0
ENDMDL
MODEL 9
REMARK VINA RESULT:      -3.3     12.005     13.102
REMARK  0 active torsions:
REMARK  status: ('A' for Active; 'I' for Inactive)
ROOT
HETATM    1  C1  UNL     1     -33.688  14.812  -5.086  1.00 20.00     0.002 A 
HETATM    2  C2  UNL     1     -33.326  15.275  -3.821  1.00 20.00     0.007 A 
HETATM    3  C3  UNL     1     -34.382  15.647  -5.963  1.00 20.00     0.018 A 
HETATM    4  C4  UNL     1     -34.349  17.409  -4.311  1.00 20.00     0.025 A 
HETATM    5  C5  UNL     1     -33.657  16.574  -3.434  1.00 20.00    -0.061 A 
HETATM    6  C6  UNL     1     -34.712  16.944  -5.575  1.00 20.00     0.006 A 
HETATM    7  C7  UNL     1     -33.269  17.068  -2.081  1.00 20.00     0.048 C 
HETATM    8  I8  UNL     1     -35.742  18.189  -6.882  1.00 20.00    -0.045 I 
ENDROOT
TORSDOF 0
ENDMDL
