MODEL 1
REMARK VINA RESULT:      -4.8      0.000      0.000
REMARK  2 active torsions:
REMARK  status: ('A' for Active; 'I' for Inactive)
REMARK    1  A    between atoms: C6_6  and  C8_8 
REMARK    2  A    between atoms: C8_8  and  N10_10 
ROOT
HETATM    1  N9  UNL     1     -32.781   9.139   0.026  1.00 20.00     0.068 N 
HETATM    2  N10 UNL     1     -32.103   8.064   2.042  1.00 20.00    -0.111 NA
HETATM    3  N11 UNL     1     -32.459   8.629   0.994  1.00 20.00    -0.167 NA
ENDROOT
BRANCH   2   4
HETATM    4  C8  UNL     1     -32.474   8.745   3.288  1.00 20.00     0.227 C 
BRANCH   4   5
HETATM    5  C6  UNL     1     -33.131   7.825   4.261  1.00 20.00    -0.035 A 
HETATM    6  C3  UNL     1     -33.496   8.290   5.524  1.00 20.00     0.009 A 
HETATM    7  C1  UNL     1     -34.111   7.429   6.434  1.00 20.00     0.001 A 
HETATM    8  C2  UNL     1     -34.360   6.103   6.081  1.00 20.00     0.007 A 
HETATM    9  C5  UNL     1     -33.996   5.638   4.817  1.00 20.00    -0.061 A 
HETATM   10  C4  UNL     1     -33.381   6.499   3.908  1.00 20.00     0.015 A 
HETATM   11  C7  UNL     1     -34.263   4.220   4.439  1.00 20.00     0.048 C 
ENDBRANCH   4   5
ENDBRANCH   2   4
TORSDOF 2
ENDMDL
MODEL 2
REMARK VINA RESULT:      -4.7      0.866      2.070
REMARK  2 active torsions:
REMARK  status: ('A' for Active; 'I' for Inactive)
REMARK    1  A    between atoms: C6_6  and  C8_8 
REMARK    2  A    between atoms: C8_8  and  N10_10 
ROOT
HETATM    1  N9  UNL     1     -32.933   9.504   0.038  1.00 20.00     0.068 N 
HETATM    2  N10 UNL     1     -31.916   7.967   1.550  1.00 20.00    -0.111 NA
HETATM    3  N11 UNL     1     -32.449   8.771   0.766  1.00 20.00    -0.167 NA
ENDROOT
BRANCH   2   4
HETATM    4  C8  UNL     1     -32.228   8.164   2.971  1.00 20.00     0.227 C 
BRANCH   4   5
HETATM    5  C6  UNL     1     -32.954   7.000   3.556  1.00 20.00    -0.035 A 
HETATM    6  C3  UNL     1     -33.013   5.793   2.859  1.00 20.00     0.009 A 
HETATM    7  C1  UNL     1     -33.692   4.704   3.407  1.00 20.00     0.001 A 
HETATM    8  C2  UNL     1     -34.313   4.822   4.651  1.00 20.00     0.007 A 
HETATM    9  C5  UNL     1     -34.253   6.029   5.348  1.00 20.00    -0.061 A 
HETATM   10  C4  UNL     1     -33.574   7.118   4.800  1.00 20.00     0.015 A 
HETATM   11  C7  UNL     1     -34.915   6.155   6.678  1.00 20.00     0.048 C 
ENDBRANCH   4   5
ENDBRANCH   2   4
TORSDOF 2
ENDMDL
MODEL 3
REMARK VINA RESULT:      -4.5     11.637     12.680
REMARK  2 active torsions:
REMARK  status: ('A' for Active; 'I' for Inactive)
REMARK    1  A    between atoms: C6_6  and  C8_8 
REMARK    2  A    between atoms: C8_8  and  N10_10 
ROOT
HETATM    1  N9  UNL     1     -30.248  19.261   1.377  1.00 20.00     0.068 N 
HETATM    2  N10 UNL     1     -31.165  18.677  -0.744  1.00 20.00    -0.111 NA
HETATM    3  N11 UNL     1     -30.692  18.981   0.365  1.00 20.00    -0.167 NA
ENDROOT
BRANCH   2   4
HETATM    4  C8  UNL     1     -32.570  18.249  -0.739  1.00 20.00     0.227 C 
BRANCH   4   5
HETATM    5  C6  UNL     1     -33.058  17.899  -2.104  1.00 20.00    -0.035 A 
HETATM    6  C3  UNL     1     -33.297  18.905  -3.039  1.00 20.00     0.009 A 
HETATM    7  C1  UNL     1     -33.754  18.577  -4.316  1.00 20.00     0.001 A 
HETATM    8  C2  UNL     1     -33.973  17.242  -4.657  1.00 20.00     0.007 A 
HETATM    9  C5  UNL     1     -33.733  16.235  -3.721  1.00 20.00    -0.061 A 
HETATM   10  C4  UNL     1     -33.277  16.564  -2.445  1.00 20.00     0.015 A 
HETATM   11  C7  UNL     1     -33.967  14.809  -4.087  1.00 20.00     0.048 C 
ENDBRANCH   4   5
ENDBRANCH   2   4
TORSDOF 2
ENDMDL
MODEL 4
REMARK VINA RESULT:      -4.4     14.494     15.742
REMARK  2 active torsions:
REMARK  status: ('A' for Active; 'I' for Inactive)
REMARK    1  A    between atoms: C6_6  and  C8_8 
REMARK    2  A    between atoms: C8_8  and  N10_10 
ROOT
HETATM    1  N9  UNL     1     -26.911  18.698   5.016  1.00 20.00     0.068 N 
HETATM    2  N10 UNL     1     -25.130  19.263   6.496  1.00 20.00    -0.111 NA
HETATM    3  N11 UNL     1     -26.062  18.967   5.728  1.00 20.00    -0.167 NA
ENDROOT
BRANCH   2   4
HETATM    4  C8  UNL     1     -25.426  19.149   7.929  1.00 20.00     0.227 C 
BRANCH   4   5
HETATM    5  C6  UNL     1     -24.198  18.920   8.744  1.00 20.00    -0.035 A 
HETATM    6  C3  UNL     1     -22.942  18.969   8.140  1.00 20.00     0.009 A 
HETATM    7  C1  UNL     1     -21.793  18.755   8.902  1.00 20.00     0.001 A 
HETATM    8  C2  UNL     1     -21.901  18.490  10.268  1.00 20.00     0.007 A 
HETATM    9  C5  UNL     1     -23.158  18.441  10.871  1.00 20.00    -0.061 A 
HETATM   10  C4  UNL     1     -24.306  18.655  10.109  1.00 20.00     0.015 A 
HETATM   11  C7  UNL     1     -23.272  18.159  12.331  1.00 20.00     0.048 C 
ENDBRANCH   4   5
ENDBRANCH   2   4
TORSDOF 2
ENDMDL
MODEL 5
REMARK VINA RESULT:      -4.4     11.083     12.017
REMARK  2 active torsions:
REMARK  status: ('A' for Active; 'I' for Inactive)
REMARK    1  A    between atoms: C6_6  and  C8_8 
REMARK    2  A    between atoms: C8_8  and  N10_10 
ROOT
HETATM    1  N9  UNL     1     -35.942  13.620  -4.592  1.00 20.00     0.068 N 
HETATM    2  N10 UNL     1     -33.677  14.013  -3.961  1.00 20.00    -0.111 NA
HETATM    3  N11 UNL     1     -34.858  13.813  -4.293  1.00 20.00    -0.167 NA
ENDROOT
BRANCH   2   4
HETATM    4  C8  UNL     1     -33.108  15.299  -4.383  1.00 20.00     0.227 C 
BRANCH   4   5
HETATM    5  C6  UNL     1     -33.697  16.449  -3.639  1.00 20.00    -0.035 A 
HETATM    6  C3  UNL     1     -34.535  17.350  -4.295  1.00 20.00     0.009 A 
HETATM    7  C1  UNL     1     -35.085  18.426  -3.598  1.00 20.00     0.001 A 
HETATM    8  C2  UNL     1     -34.797  18.602  -2.245  1.00 20.00     0.007 A 
HETATM    9  C5  UNL     1     -33.958  17.700  -1.588  1.00 20.00    -0.061 A 
HETATM   10  C4  UNL     1     -33.408  16.625  -2.285  1.00 20.00     0.015 A 
HETATM   11  C7  UNL     1     -33.651  17.888  -0.141  1.00 20.00     0.048 C 
ENDBRANCH   4   5
ENDBRANCH   2   4
TORSDOF 2
ENDMDL
MODEL 6
REMARK VINA RESULT:      -4.4     11.905     13.233
REMARK  2 active torsions:
REMARK  status: ('A' for Active; 'I' for Inactive)
REMARK    1  A    between atoms: C6_6  and  C8_8 
REMARK    2  A    between atoms: C8_8  and  N10_10 
ROOT
HETATM    1  N9  UNL     1     -30.407  18.854   1.746  1.00 20.00     0.068 N 
HETATM    2  N10 UNL     1     -30.889  18.682  -0.582  1.00 20.00    -0.111 NA
HETATM    3  N11 UNL     1     -30.643  18.774   0.633  1.00 20.00    -0.167 NA
ENDROOT
BRANCH   2   4
HETATM    4  C8  UNL     1     -32.170  19.253  -1.016  1.00 20.00     0.227 C 
BRANCH   4   5
HETATM    5  C6  UNL     1     -32.784  18.479  -2.133  1.00 20.00    -0.035 A 
HETATM    6  C3  UNL     1     -33.049  17.119  -1.976  1.00 20.00     0.009 A 
HETATM    7  C1  UNL     1     -33.623  16.395  -3.022  1.00 20.00     0.001 A 
HETATM    8  C2  UNL     1     -33.933  17.032  -4.224  1.00 20.00     0.007 A 
HETATM    9  C5  UNL     1     -33.668  18.393  -4.380  1.00 20.00    -0.061 A 
HETATM   10  C4  UNL     1     -33.094  19.116  -3.335  1.00 20.00     0.015 A 
HETATM   11  C7  UNL     1     -34.000  19.073  -5.665  1.00 20.00     0.048 C 
ENDBRANCH   4   5
ENDBRANCH   2   4
TORSDOF 2
ENDMDL
MODEL 7
REMARK VINA RESULT:      -4.3     12.132     12.307
REMARK  2 active torsions:
REMARK  status: ('A' for Active; 'I' for Inactive)
REMARK    1  A    between atoms: C6_6  and  C8_8 
REMARK    2  A    between atoms: C8_8  and  N10_10 
ROOT
HETATM    1  N9  UNL     1     -28.229  18.485   3.727  1.00 20.00     0.068 N 
HETATM    2  N10 UNL     1     -30.373  18.977   2.808  1.00 20.00    -0.111 NA
HETATM    3  N11 UNL     1     -29.253  18.721   3.282  1.00 20.00    -0.167 NA
ENDROOT
BRANCH   2   4
HETATM    4  C8  UNL     1     -30.403  19.263   1.368  1.00 20.00     0.227 C 
BRANCH   4   5
HETATM    5  C6  UNL     1     -31.702  18.879   0.743  1.00 20.00    -0.035 A 
HETATM    6  C3  UNL     1     -32.899  19.134   1.410  1.00 20.00     0.009 A 
HETATM    7  C1  UNL     1     -34.114  18.775   0.826  1.00 20.00     0.001 A 
HETATM    8  C2  UNL     1     -34.131  18.161  -0.427  1.00 20.00     0.007 A 
HETATM    9  C5  UNL     1     -32.932  17.907  -1.095  1.00 20.00    -0.061 A 
HETATM   10  C4  UNL     1     -31.719  18.266  -0.510  1.00 20.00     0.015 A 
HETATM   11  C7  UNL     1     -32.951  17.251  -2.434  1.00 20.00     0.048 C 
ENDBRANCH   4   5
ENDBRANCH   2   4
TORSDOF 2
ENDMDL
MODEL 8
REMARK VINA RESULT:      -4.2     11.669     11.933
REMARK  2 active torsions:
REMARK  status: ('A' for Active; 'I' for Inactive)
REMARK    1  A    between atoms: C6_6  and  C8_8 
REMARK    2  A    between atoms: C8_8  and  N10_10 
ROOT
HETATM    1  N9  UNL     1     -32.899  15.054  -4.208  1.00 20.00     0.068 N 
HETATM    2  N10 UNL     1     -33.566  16.560  -2.485  1.00 20.00    -0.111 NA
HETATM    3  N11 UNL     1     -33.214  15.778  -3.384  1.00 20.00    -0.167 NA
ENDROOT
BRANCH   2   4
HETATM    4  C8  UNL     1     -32.728  17.754  -2.315  1.00 20.00     0.227 C 
BRANCH   4   5
HETATM    5  C6  UNL     1     -32.708  18.234  -0.904  1.00 20.00    -0.035 A 
HETATM    6  C3  UNL     1     -33.904  18.406  -0.208  1.00 20.00     0.009 A 
HETATM    7  C1  UNL     1     -33.886  18.856   1.112  1.00 20.00     0.001 A 
HETATM    8  C2  UNL     1     -32.670  19.135   1.737  1.00 20.00     0.007 A 
HETATM    9  C5  UNL     1     -31.473  18.963   1.041  1.00 20.00    -0.061 A 
HETATM   10  C4  UNL     1     -31.492  18.513  -0.279  1.00 20.00     0.015 A 
HETATM   11  C7  UNL     1     -30.173  19.260   1.710  1.00 20.00     0.048 C 
ENDBRANCH   4   5
ENDBRANCH   2   4
TORSDOF 2
ENDMDL
MODEL 9
REMARK VINA RESULT:      -4.1     11.679     12.979
REMARK  2 active torsions:
REMARK  status: ('A' for Active; 'I' for Inactive)
REMARK    1  A    between atoms: C6_6  and  C8_8 
REMARK    2  A    between atoms: C8_8  and  N10_10 
ROOT
HETATM    1  N9  UNL     1     -31.101  18.677  -0.158  1.00 20.00     0.068 N 
HETATM    2  N10 UNL     1     -32.178  19.131  -2.235  1.00 20.00    -0.111 NA
HETATM    3  N11 UNL     1     -31.621  18.892  -1.150  1.00 20.00    -0.167 NA
ENDROOT
BRANCH   2   4
HETATM    4  C8  UNL     1     -33.578  18.701  -2.340  1.00 20.00     0.227 C 
BRANCH   4   5
HETATM    5  C6  UNL     1     -33.749  17.556  -3.280  1.00 20.00    -0.035 A 
HETATM    6  C3  UNL     1     -33.322  16.281  -2.911  1.00 20.00     0.009 A 
HETATM    7  C1  UNL     1     -33.482  15.210  -3.791  1.00 20.00     0.001 A 
HETATM    8  C2  UNL     1     -34.068  15.415  -5.040  1.00 20.00     0.007 A 
HETATM    9  C5  UNL     1     -34.495  16.691  -5.409  1.00 20.00    -0.061 A 
HETATM   10  C4  UNL     1     -34.335  17.761  -4.529  1.00 20.00     0.015 A 
HETATM   11  C7  UNL     1     -35.121  16.909  -6.745  1.00 20.00     0.048 C 
ENDBRANCH   4   5
ENDBRANCH   2   4
TORSDOF 2
ENDMDL
