MODEL 1
REMARK VINA RESULT:      -5.5      0.000      0.000
REMARK  4 active torsions:
REMARK  status: ('A' for Active; 'I' for Inactive)
REMARK    1  A    between atoms: C6_6  and  C7_7 
REMARK    2  A    between atoms: C7_7  and  C8_8 
REMARK    3  A    between atoms: C8_8  and  C9_9 
REMARK    4  A    between atoms: C9_9  and  O10_10 
ROOT
HETATM    1  C1  UNL     1     -34.761   5.399   5.979  1.00 20.00     0.000 A 
HETATM    2  C2  UNL     1     -34.323   6.616   6.502  1.00 20.00     0.001 A 
HETATM    3  C3  UNL     1     -34.470   5.061   4.658  1.00 20.00     0.001 A 
HETATM    4  C4  UNL     1     -33.595   7.496   5.702  1.00 20.00     0.007 A 
HETATM    5  C5  UNL     1     -33.742   5.942   3.858  1.00 20.00     0.007 A 
HETATM    6  C6  UNL     1     -33.304   7.159   4.380  1.00 20.00    -0.058 A 
ENDROOT
BRANCH   6   7
HETATM    7  C7  UNL     1     -32.526   8.101   3.523  1.00 20.00     0.041 C 
BRANCH   7   8
HETATM    8  C8  UNL     1     -32.210   7.502   2.147  1.00 20.00     0.030 C 
BRANCH   8   9
HETATM    9  C9  UNL     1     -32.230   8.553   1.045  1.00 20.00     0.164 C 
BRANCH   9  10
HETATM   10  O10 UNL     1     -32.925   9.700   1.515  1.00 20.00    -0.401 OA
HETATM   11  H22 UNL     1     -33.594   9.385   2.144  1.00 20.00     0.209 HD
ENDBRANCH   9  10
ENDBRANCH   8   9
ENDBRANCH   7   8
ENDBRANCH   6   7
TORSDOF 4
ENDMDL
MODEL 2
REMARK VINA RESULT:      -5.5      0.009      1.528
REMARK  4 active torsions:
REMARK  status: ('A' for Active; 'I' for Inactive)
REMARK    1  A    between atoms: C6_6  and  C7_7 
REMARK    2  A    between atoms: C7_7  and  C8_8 
REMARK    3  A    between atoms: C8_8  and  C9_9 
REMARK    4  A    between atoms: C9_9  and  O10_10 
ROOT
HETATM    1  C1  UNL     1     -34.766   5.396   5.979  1.00 20.00     0.000 A 
HETATM    2  C2  UNL     1     -34.482   5.063   4.654  1.00 20.00     0.001 A 
HETATM    3  C3  UNL     1     -34.324   6.610   6.504  1.00 20.00     0.001 A 
HETATM    4  C4  UNL     1     -33.754   5.943   3.855  1.00 20.00     0.007 A 
HETATM    5  C5  UNL     1     -33.596   7.491   5.703  1.00 20.00     0.007 A 
HETATM    6  C6  UNL     1     -33.311   7.158   4.379  1.00 20.00    -0.058 A 
ENDROOT
BRANCH   6   7
HETATM    7  C7  UNL     1     -32.532   8.100   3.525  1.00 20.00     0.041 C 
BRANCH   7   8
HETATM    8  C8  UNL     1     -32.220   7.506   2.145  1.00 20.00     0.030 C 
BRANCH   8   9
HETATM    9  C9  UNL     1     -32.231   8.561   1.049  1.00 20.00     0.164 C 
BRANCH   9  10
HETATM   10  O10 UNL     1     -32.924   9.709   1.521  1.00 20.00    -0.401 OA
HETATM   11  H22 UNL     1     -32.958  10.340   0.785  1.00 20.00     0.209 HD
ENDBRANCH   9  10
ENDBRANCH   8   9
ENDBRANCH   7   8
ENDBRANCH   6   7
TORSDOF 4
ENDMDL
MODEL 3
REMARK VINA RESULT:      -4.4      0.703      1.716
REMARK  4 active torsions:
REMARK  status: ('A' for Active; 'I' for Inactive)
REMARK    1  A    between atoms: C6_6  and  C7_7 
REMARK    2  A    between atoms: C7_7  and  C8_8 
REMARK    3  A    between atoms: C8_8  and  C9_9 
REMARK    4  A    between atoms: C9_9  and  O10_10 
ROOT
HETATM    1  C1  UNL     1     -34.550   6.147   6.521  1.00 20.00     0.000 A 
HETATM    2  C2  UNL     1     -34.711   5.044   5.681  1.00 20.00     0.001 A 
HETATM    3  C3  UNL     1     -33.779   7.233   6.107  1.00 20.00     0.001 A 
HETATM    4  C4  UNL     1     -34.101   5.028   4.428  1.00 20.00     0.007 A 
HETATM    5  C5  UNL     1     -33.169   7.216   4.852  1.00 20.00     0.007 A 
HETATM    6  C6  UNL     1     -33.329   6.114   4.013  1.00 20.00    -0.058 A 
ENDROOT
BRANCH   6   7
HETATM    7  C7  UNL     1     -32.676   6.096   2.672  1.00 20.00     0.041 C 
BRANCH   7   8
HETATM    8  C8  UNL     1     -31.845   7.361   2.418  1.00 20.00     0.030 C 
BRANCH   8   9
HETATM    9  C9  UNL     1     -32.552   8.336   1.488  1.00 20.00     0.164 C 
BRANCH   9  10
HETATM   10  O10 UNL     1     -32.728   9.573   2.166  1.00 20.00    -0.401 OA
HETATM   11  H22 UNL     1     -33.134   9.369   3.023  1.00 20.00     0.209 HD
ENDBRANCH   9  10
ENDBRANCH   8   9
ENDBRANCH   7   8
ENDBRANCH   6   7
TORSDOF 4
ENDMDL
MODEL 4
REMARK VINA RESULT:      -4.3     11.385     11.981
REMARK  4 active torsions:
REMARK  status: ('A' for Active; 'I' for Inactive)
REMARK    1  A    between atoms: C6_6  and  C7_7 
REMARK    2  A    between atoms: C7_7  and  C8_8 
REMARK    3  A    between atoms: C8_8  and  C9_9 
REMARK    4  A    between atoms: C9_9  and  O10_10 
ROOT
HETATM    1  C1  UNL     1     -32.552  18.643   0.968  1.00 20.00     0.000 A 
HETATM    2  C2  UNL     1     -33.818  18.205   0.578  1.00 20.00     0.001 A 
HETATM    3  C3  UNL     1     -31.505  18.662   0.048  1.00 20.00     0.001 A 
HETATM    4  C4  UNL     1     -34.036  17.787  -0.734  1.00 20.00     0.007 A 
HETATM    5  C5  UNL     1     -31.724  18.243  -1.265  1.00 20.00     0.007 A 
HETATM    6  C6  UNL     1     -32.990  17.805  -1.656  1.00 20.00    -0.058 A 
ENDROOT
BRANCH   6   7
HETATM    7  C7  UNL     1     -33.223  17.357  -3.059  1.00 20.00     0.041 C 
BRANCH   7   8
HETATM    8  C8  UNL     1     -33.358  15.833  -3.164  1.00 20.00     0.030 C 
BRANCH   8   9
HETATM    9  C9  UNL     1     -33.657  15.379  -4.586  1.00 20.00     0.164 C 
BRANCH   9  10
HETATM   10  O10 UNL     1     -33.317  14.005  -4.712  1.00 20.00    -0.401 OA
HETATM   11  H22 UNL     1     -34.042  13.578  -5.195  1.00 20.00     0.209 HD
ENDBRANCH   9  10
ENDBRANCH   8   9
ENDBRANCH   7   8
ENDBRANCH   6   7
TORSDOF 4
ENDMDL
MODEL 5
REMARK VINA RESULT:      -4.2     11.351     12.457
REMARK  4 active torsions:
REMARK  status: ('A' for Active; 'I' for Inactive)
REMARK    1  A    between atoms: C6_6  and  C7_7 
REMARK    2  A    between atoms: C7_7  and  C8_8 
REMARK    3  A    between atoms: C8_8  and  C9_9 
REMARK    4  A    between atoms: C9_9  and  O10_10 
ROOT
HETATM    1  C1  UNL     1     -33.852  18.836  -2.496  1.00 20.00     0.000 A 
HETATM    2  C2  UNL     1     -33.536  17.740  -1.693  1.00 20.00     0.001 A 
HETATM    3  C3  UNL     1     -34.093  18.658  -3.858  1.00 20.00     0.001 A 
HETATM    4  C4  UNL     1     -33.461  16.465  -2.254  1.00 20.00     0.007 A 
HETATM    5  C5  UNL     1     -34.017  17.383  -4.418  1.00 20.00     0.007 A 
HETATM    6  C6  UNL     1     -33.701  16.286  -3.616  1.00 20.00    -0.058 A 
ENDROOT
BRANCH   6   7
HETATM    7  C7  UNL     1     -33.620  14.923  -4.216  1.00 20.00     0.041 C 
BRANCH   7   8
HETATM    8  C8  UNL     1     -34.539  14.773  -5.436  1.00 20.00     0.030 C 
BRANCH   8   9
HETATM    9  C9  UNL     1     -35.885  14.166  -5.070  1.00 20.00     0.164 C 
BRANCH   9  10
HETATM   10  O10 UNL     1     -35.669  12.911  -4.438  1.00 20.00    -0.401 OA
HETATM   11  H22 UNL     1     -35.458  13.097  -3.509  1.00 20.00     0.209 HD
ENDBRANCH   9  10
ENDBRANCH   8   9
ENDBRANCH   7   8
ENDBRANCH   6   7
TORSDOF 4
ENDMDL
MODEL 6
REMARK VINA RESULT:      -4.2     11.450     12.480
REMARK  4 active torsions:
REMARK  status: ('A' for Active; 'I' for Inactive)
REMARK    1  A    between atoms: C6_6  and  C7_7 
REMARK    2  A    between atoms: C7_7  and  C8_8 
REMARK    3  A    between atoms: C8_8  and  C9_9 
REMARK    4  A    between atoms: C9_9  and  O10_10 
ROOT
HETATM    1  C1  UNL     1     -34.057  17.890  -2.402  1.00 20.00     0.000 A 
HETATM    2  C2  UNL     1     -34.813  18.180  -3.538  1.00 20.00     0.001 A 
HETATM    3  C3  UNL     1     -33.347  16.692  -2.322  1.00 20.00     0.001 A 
HETATM    4  C4  UNL     1     -34.859  17.272  -4.594  1.00 20.00     0.007 A 
HETATM    5  C5  UNL     1     -33.395  15.783  -3.380  1.00 20.00     0.007 A 
HETATM    6  C6  UNL     1     -34.151  16.073  -4.516  1.00 20.00    -0.058 A 
ENDROOT
BRANCH   6   7
HETATM    7  C7  UNL     1     -34.201  15.100  -5.645  1.00 20.00     0.041 C 
BRANCH   7   8
HETATM    8  C8  UNL     1     -35.637  14.685  -5.987  1.00 20.00     0.030 C 
BRANCH   8   9
HETATM    9  C9  UNL     1     -36.331  14.000  -4.819  1.00 20.00     0.164 C 
BRANCH   9  10
HETATM   10  O10 UNL     1     -35.597  12.834  -4.467  1.00 20.00    -0.401 OA
HETATM   11  H22 UNL     1     -34.753  13.135  -4.095  1.00 20.00     0.209 HD
ENDBRANCH   9  10
ENDBRANCH   8   9
ENDBRANCH   7   8
ENDBRANCH   6   7
TORSDOF 4
ENDMDL
MODEL 7
REMARK VINA RESULT:      -4.2      2.253      4.355
REMARK  4 active torsions:
REMARK  status: ('A' for Active; 'I' for Inactive)
REMARK    1  A    between atoms: C6_6  and  C7_7 
REMARK    2  A    between atoms: C7_7  and  C8_8 
REMARK    3  A    between atoms: C8_8  and  C9_9 
REMARK    4  A    between atoms: C9_9  and  O10_10 
ROOT
HETATM    1  C1  UNL     1     -32.324   8.013   1.850  1.00 20.00     0.000 A 
HETATM    2  C2  UNL     1     -32.460   9.101   2.714  1.00 20.00     0.001 A 
HETATM    3  C3  UNL     1     -32.479   6.714   2.333  1.00 20.00     0.001 A 
HETATM    4  C4  UNL     1     -32.750   8.888   4.061  1.00 20.00     0.007 A 
HETATM    5  C5  UNL     1     -32.769   6.503   3.682  1.00 20.00     0.007 A 
HETATM    6  C6  UNL     1     -32.904   7.589   4.546  1.00 20.00    -0.058 A 
ENDROOT
BRANCH   6   7
HETATM    7  C7  UNL     1     -33.214   7.361   5.987  1.00 20.00     0.041 C 
BRANCH   7   8
HETATM    8  C8  UNL     1     -34.600   6.735   6.188  1.00 20.00     0.030 C 
BRANCH   8   9
HETATM    9  C9  UNL     1     -34.544   5.215   6.219  1.00 20.00     0.164 C 
BRANCH   9  10
HETATM   10  O10 UNL     1     -35.312   4.704   5.137  1.00 20.00    -0.401 OA
HETATM   11  H22 UNL     1     -36.245   4.829   5.371  1.00 20.00     0.209 HD
ENDBRANCH   9  10
ENDBRANCH   8   9
ENDBRANCH   7   8
ENDBRANCH   6   7
TORSDOF 4
ENDMDL
MODEL 8
REMARK VINA RESULT:      -4.1      2.261      4.554
REMARK  4 active torsions:
REMARK  status: ('A' for Active; 'I' for Inactive)
REMARK    1  A    between atoms: C6_6  and  C7_7 
REMARK    2  A    between atoms: C7_7  and  C8_8 
REMARK    3  A    between atoms: C8_8  and  C9_9 
REMARK    4  A    between atoms: C9_9  and  O10_10 
ROOT
HETATM    1  C1  UNL     1     -32.314   8.018   1.920  1.00 20.00     0.000 A 
HETATM    2  C2  UNL     1     -32.484   6.717   2.393  1.00 20.00     0.001 A 
HETATM    3  C3  UNL     1     -32.439   9.100   2.790  1.00 20.00     0.001 A 
HETATM    4  C4  UNL     1     -32.780   6.498   3.738  1.00 20.00     0.007 A 
HETATM    5  C5  UNL     1     -32.736   8.881   4.136  1.00 20.00     0.007 A 
HETATM    6  C6  UNL     1     -32.907   7.580   4.610  1.00 20.00    -0.058 A 
ENDROOT
BRANCH   6   7
HETATM    7  C7  UNL     1     -33.224   7.347   6.049  1.00 20.00     0.041 C 
BRANCH   7   8
HETATM    8  C8  UNL     1     -34.613   6.725   6.240  1.00 20.00     0.030 C 
BRANCH   8   9
HETATM    9  C9  UNL     1     -34.564   5.204   6.254  1.00 20.00     0.164 C 
BRANCH   9  10
HETATM   10  O10 UNL     1     -35.320   4.708   5.157  1.00 20.00    -0.401 OA
HETATM   11  H22 UNL     1     -34.920   5.074   4.352  1.00 20.00     0.209 HD
ENDBRANCH   9  10
ENDBRANCH   8   9
ENDBRANCH   7   8
ENDBRANCH   6   7
TORSDOF 4
ENDMDL
MODEL 9
REMARK VINA RESULT:      -4.0     11.554     12.529
REMARK  4 active torsions:
REMARK  status: ('A' for Active; 'I' for Inactive)
REMARK    1  A    between atoms: C6_6  and  C7_7 
REMARK    2  A    between atoms: C7_7  and  C8_8 
REMARK    3  A    between atoms: C8_8  and  C9_9 
REMARK    4  A    between atoms: C9_9  and  O10_10 
ROOT
HETATM    1  C1  UNL     1     -34.808  18.893  -1.644  1.00 20.00     0.000 A 
HETATM    2  C2  UNL     1     -35.076  18.763  -3.007  1.00 20.00     0.001 A 
HETATM    3  C3  UNL     1     -33.974  17.976  -1.005  1.00 20.00     0.001 A 
HETATM    4  C4  UNL     1     -34.508  17.715  -3.731  1.00 20.00     0.007 A 
HETATM    5  C5  UNL     1     -33.406  16.928  -1.730  1.00 20.00     0.007 A 
HETATM    6  C6  UNL     1     -33.674  16.797  -3.093  1.00 20.00    -0.058 A 
ENDROOT
BRANCH   6   7
HETATM    7  C7  UNL     1     -33.067  15.676  -3.867  1.00 20.00     0.041 C 
BRANCH   7   8
HETATM    8  C8  UNL     1     -34.126  14.698  -4.393  1.00 20.00     0.030 C 
BRANCH   8   9
HETATM    9  C9  UNL     1     -34.396  14.890  -5.879  1.00 20.00     0.164 C 
BRANCH   9  10
HETATM   10  O10 UNL     1     -33.156  15.005  -6.562  1.00 20.00    -0.401 OA
HETATM   11  H22 UNL     1     -33.007  15.952  -6.717  1.00 20.00     0.209 HD
ENDBRANCH   9  10
ENDBRANCH   8   9
ENDBRANCH   7   8
ENDBRANCH   6   7
TORSDOF 4
ENDMDL
