MODEL 1
REMARK VINA RESULT:      -4.8      0.000      0.000
REMARK  4 active torsions:
REMARK  status: ('A' for Active; 'I' for Inactive)
REMARK    1  A    between atoms: C6_6  and  C7_7 
REMARK    2  A    between atoms: C7_7  and  C8_8 
REMARK    3  A    between atoms: C8_8  and  C9_9 
REMARK    4  A    between atoms: C9_9  and  S10_10 
ROOT
HETATM    1  C1  UNL     1     -34.856   5.170   5.789  1.00 20.00     0.000 A 
HETATM    2  C2  UNL     1     -34.462   5.150   4.451  1.00 20.00     0.001 A 
HETATM    3  C3  UNL     1     -34.502   6.245   6.605  1.00 20.00     0.001 A 
HETATM    4  C4  UNL     1     -33.714   6.205   3.929  1.00 20.00     0.007 A 
HETATM    5  C5  UNL     1     -33.754   7.300   6.083  1.00 20.00     0.007 A 
HETATM    6  C6  UNL     1     -33.360   7.280   4.744  1.00 20.00    -0.058 A 
ENDROOT
BRANCH   6   7
HETATM    7  C7  UNL     1     -32.558   8.408   4.186  1.00 20.00     0.039 C 
BRANCH   7   8
HETATM    8  C8  UNL     1     -32.256   8.290   2.679  1.00 20.00     0.014 C 
BRANCH   8   9
HETATM    9  C9  UNL     1     -32.893   9.419   1.869  1.00 20.00     0.071 C 
BRANCH   9  10
HETATM   10  S10 UNL     1     -32.652   9.141   0.089  1.00 20.00    -0.182 SA
HETATM   11  H22 UNL     1     -33.944   9.257  -0.247  1.00 20.00     0.101 HD
ENDBRANCH   9  10
ENDBRANCH   8   9
ENDBRANCH   7   8
ENDBRANCH   6   7
TORSDOF 4
ENDMDL
MODEL 2
REMARK VINA RESULT:      -4.8      0.033      1.529
REMARK  4 active torsions:
REMARK  status: ('A' for Active; 'I' for Inactive)
REMARK    1  A    between atoms: C6_6  and  C7_7 
REMARK    2  A    between atoms: C7_7  and  C8_8 
REMARK    3  A    between atoms: C8_8  and  C9_9 
REMARK    4  A    between atoms: C9_9  and  S10_10 
ROOT
HETATM    1  C1  UNL     1     -34.870   5.181   5.789  1.00 20.00     0.000 A 
HETATM    2  C2  UNL     1     -34.503   6.255   6.599  1.00 20.00     0.001 A 
HETATM    3  C3  UNL     1     -34.470   5.146   4.453  1.00 20.00     0.001 A 
HETATM    4  C4  UNL     1     -33.734   7.294   6.074  1.00 20.00     0.007 A 
HETATM    5  C5  UNL     1     -33.701   6.185   3.927  1.00 20.00     0.007 A 
HETATM    6  C6  UNL     1     -33.333   7.259   4.738  1.00 20.00    -0.058 A 
ENDROOT
BRANCH   6   7
HETATM    7  C7  UNL     1     -32.512   8.370   4.176  1.00 20.00     0.039 C 
BRANCH   7   8
HETATM    8  C8  UNL     1     -32.236   8.256   2.664  1.00 20.00     0.014 C 
BRANCH   8   9
HETATM    9  C9  UNL     1     -32.857   9.406   1.870  1.00 20.00     0.071 C 
BRANCH   9  10
HETATM   10  S10 UNL     1     -32.674   9.122   0.085  1.00 20.00    -0.182 SA
HETATM   11  H22 UNL     1     -33.880   9.596  -0.256  1.00 20.00     0.101 HD
ENDBRANCH   9  10
ENDBRANCH   8   9
ENDBRANCH   7   8
ENDBRANCH   6   7
TORSDOF 4
ENDMDL
MODEL 3
REMARK VINA RESULT:      -4.0     11.596     12.166
REMARK  4 active torsions:
REMARK  status: ('A' for Active; 'I' for Inactive)
REMARK    1  A    between atoms: C6_6  and  C7_7 
REMARK    2  A    between atoms: C7_7  and  C8_8 
REMARK    3  A    between atoms: C8_8  and  C9_9 
REMARK    4  A    between atoms: C9_9  and  S10_10 
ROOT
HETATM    1  C1  UNL     1     -31.628  19.180   1.482  1.00 20.00     0.000 A 
HETATM    2  C2  UNL     1     -33.009  19.035   1.613  1.00 20.00     0.001 A 
HETATM    3  C3  UNL     1     -31.000  18.835   0.285  1.00 20.00     0.001 A 
HETATM    4  C4  UNL     1     -33.763  18.545   0.546  1.00 20.00     0.007 A 
HETATM    5  C5  UNL     1     -31.754  18.345  -0.782  1.00 20.00     0.007 A 
HETATM    6  C6  UNL     1     -33.135  18.200  -0.651  1.00 20.00    -0.058 A 
ENDROOT
BRANCH   6   7
HETATM    7  C7  UNL     1     -33.941  17.675  -1.792  1.00 20.00     0.039 C 
BRANCH   7   8
HETATM    8  C8  UNL     1     -33.274  16.518  -2.562  1.00 20.00     0.014 C 
BRANCH   8   9
HETATM    9  C9  UNL     1     -33.807  16.386  -3.989  1.00 20.00     0.071 C 
BRANCH   9  10
HETATM   10  S10 UNL     1     -33.880  14.639  -4.484  1.00 20.00    -0.182 SA
HETATM   11  H22 UNL     1     -32.659  14.598  -5.034  1.00 20.00     0.101 HD
ENDBRANCH   9  10
ENDBRANCH   8   9
ENDBRANCH   7   8
ENDBRANCH   6   7
TORSDOF 4
ENDMDL
MODEL 4
REMARK VINA RESULT:      -3.8      2.453      4.779
REMARK  4 active torsions:
REMARK  status: ('A' for Active; 'I' for Inactive)
REMARK    1  A    between atoms: C6_6  and  C7_7 
REMARK    2  A    between atoms: C7_7  and  C8_8 
REMARK    3  A    between atoms: C8_8  and  C9_9 
REMARK    4  A    between atoms: C9_9  and  S10_10 
ROOT
HETATM    1  C1  UNL     1     -32.480   8.782   0.666  1.00 20.00     0.000 A 
HETATM    2  C2  UNL     1     -32.896   9.826   1.493  1.00 20.00     0.001 A 
HETATM    3  C3  UNL     1     -32.091   7.564   1.223  1.00 20.00     0.001 A 
HETATM    4  C4  UNL     1     -32.923   9.652   2.876  1.00 20.00     0.007 A 
HETATM    5  C5  UNL     1     -32.117   7.389   2.607  1.00 20.00     0.007 A 
HETATM    6  C6  UNL     1     -32.534   8.433   3.433  1.00 20.00    -0.058 A 
ENDROOT
BRANCH   6   7
HETATM    7  C7  UNL     1     -32.561   8.246   4.913  1.00 20.00     0.039 C 
BRANCH   7   8
HETATM    8  C8  UNL     1     -33.966   8.004   5.498  1.00 20.00     0.014 C 
BRANCH   8   9
HETATM    9  C9  UNL     1     -34.088   6.638   6.174  1.00 20.00     0.071 C 
BRANCH   9  10
HETATM   10  S10 UNL     1     -34.743   5.406   5.011  1.00 20.00    -0.182 SA
HETATM   11  H22 UNL     1     -34.130   5.897   3.925  1.00 20.00     0.101 HD
ENDBRANCH   9  10
ENDBRANCH   8   9
ENDBRANCH   7   8
ENDBRANCH   6   7
TORSDOF 4
ENDMDL
MODEL 5
REMARK VINA RESULT:      -3.7     11.641     12.590
REMARK  4 active torsions:
REMARK  status: ('A' for Active; 'I' for Inactive)
REMARK    1  A    between atoms: C6_6  and  C7_7 
REMARK    2  A    between atoms: C7_7  and  C8_8 
REMARK    3  A    between atoms: C8_8  and  C9_9 
REMARK    4  A    between atoms: C9_9  and  S10_10 
ROOT
HETATM    1  C1  UNL     1     -34.594  15.088  -5.633  1.00 20.00     0.000 A 
HETATM    2  C2  UNL     1     -35.026  16.414  -5.616  1.00 20.00     0.001 A 
HETATM    3  C3  UNL     1     -33.710  14.631  -4.655  1.00 20.00     0.001 A 
HETATM    4  C4  UNL     1     -34.575  17.283  -4.623  1.00 20.00     0.007 A 
HETATM    5  C5  UNL     1     -33.257  15.500  -3.662  1.00 20.00     0.007 A 
HETATM    6  C6  UNL     1     -33.690  16.826  -3.646  1.00 20.00    -0.058 A 
ENDROOT
BRANCH   6   7
HETATM    7  C7  UNL     1     -33.205  17.755  -2.584  1.00 20.00     0.039 C 
BRANCH   7   8
HETATM    8  C8  UNL     1     -33.655  17.382  -1.158  1.00 20.00     0.014 C 
BRANCH   8   9
HETATM    9  C9  UNL     1     -33.185  18.397  -0.116  1.00 20.00     0.071 C 
BRANCH   9  10
HETATM   10  S10 UNL     1     -31.385  18.624  -0.212  1.00 20.00    -0.182 SA
HETATM   11  H22 UNL     1     -31.182  18.694   1.111  1.00 20.00     0.101 HD
ENDBRANCH   9  10
ENDBRANCH   8   9
ENDBRANCH   7   8
ENDBRANCH   6   7
TORSDOF 4
ENDMDL
MODEL 6
REMARK VINA RESULT:      -3.7     11.591     12.508
REMARK  4 active torsions:
REMARK  status: ('A' for Active; 'I' for Inactive)
REMARK    1  A    between atoms: C6_6  and  C7_7 
REMARK    2  A    between atoms: C7_7  and  C8_8 
REMARK    3  A    between atoms: C8_8  and  C9_9 
REMARK    4  A    between atoms: C9_9  and  S10_10 
ROOT
HETATM    1  C1  UNL     1     -34.826  15.614  -5.355  1.00 20.00     0.000 A 
HETATM    2  C2  UNL     1     -33.935  14.889  -4.564  1.00 20.00     0.001 A 
HETATM    3  C3  UNL     1     -35.090  16.952  -5.062  1.00 20.00     0.001 A 
HETATM    4  C4  UNL     1     -33.308  15.501  -3.479  1.00 20.00     0.007 A 
HETATM    5  C5  UNL     1     -34.463  17.565  -3.976  1.00 20.00     0.007 A 
HETATM    6  C6  UNL     1     -33.572  16.839  -3.185  1.00 20.00    -0.058 A 
ENDROOT
BRANCH   6   7
HETATM    7  C7  UNL     1     -32.902  17.495  -2.024  1.00 20.00     0.039 C 
BRANCH   7   8
HETATM    8  C8  UNL     1     -33.805  17.679  -0.789  1.00 20.00     0.014 C 
BRANCH   8   9
HETATM    9  C9  UNL     1     -33.103  18.437   0.337  1.00 20.00     0.071 C 
BRANCH   9  10
HETATM   10  S10 UNL     1     -31.353  18.708  -0.069  1.00 20.00    -0.182 SA
HETATM   11  H22 UNL     1     -31.208  17.600  -0.809  1.00 20.00     0.101 HD
ENDBRANCH   9  10
ENDBRANCH   8   9
ENDBRANCH   7   8
ENDBRANCH   6   7
TORSDOF 4
ENDMDL
MODEL 7
REMARK VINA RESULT:      -3.6     11.335     12.541
REMARK  4 active torsions:
REMARK  status: ('A' for Active; 'I' for Inactive)
REMARK    1  A    between atoms: C6_6  and  C7_7 
REMARK    2  A    between atoms: C7_7  and  C8_8 
REMARK    3  A    between atoms: C8_8  and  C9_9 
REMARK    4  A    between atoms: C9_9  and  S10_10 
ROOT
HETATM    1  C1  UNL     1     -34.637  18.944  -1.548  1.00 20.00     0.000 A 
HETATM    2  C2  UNL     1     -33.890  17.916  -0.972  1.00 20.00     0.001 A 
HETATM    3  C3  UNL     1     -34.908  18.927  -2.917  1.00 20.00     0.001 A 
HETATM    4  C4  UNL     1     -33.415  16.871  -1.764  1.00 20.00     0.007 A 
HETATM    5  C5  UNL     1     -34.432  17.882  -3.709  1.00 20.00     0.007 A 
HETATM    6  C6  UNL     1     -33.685  16.854  -3.133  1.00 20.00    -0.058 A 
ENDROOT
BRANCH   6   7
HETATM    7  C7  UNL     1     -33.176  15.737  -3.980  1.00 20.00     0.039 C 
BRANCH   7   8
HETATM    8  C8  UNL     1     -34.102  14.506  -4.036  1.00 20.00     0.014 C 
BRANCH   8   9
HETATM    9  C9  UNL     1     -35.093  14.576  -5.198  1.00 20.00     0.071 C 
BRANCH   9  10
HETATM   10  S10 UNL     1     -34.334  15.384  -6.638  1.00 20.00    -0.182 SA
HETATM   11  H22 UNL     1     -33.622  16.278  -5.938  1.00 20.00     0.101 HD
ENDBRANCH   9  10
ENDBRANCH   8   9
ENDBRANCH   7   8
ENDBRANCH   6   7
TORSDOF 4
ENDMDL
MODEL 8
REMARK VINA RESULT:      -3.5     11.413     12.479
REMARK  4 active torsions:
REMARK  status: ('A' for Active; 'I' for Inactive)
REMARK    1  A    between atoms: C6_6  and  C7_7 
REMARK    2  A    between atoms: C7_7  and  C8_8 
REMARK    3  A    between atoms: C8_8  and  C9_9 
REMARK    4  A    between atoms: C9_9  and  S10_10 
ROOT
HETATM    1  C1  UNL     1     -34.466  18.685  -1.435  1.00 20.00     0.000 A 
HETATM    2  C2  UNL     1     -35.042  18.817  -2.698  1.00 20.00     0.001 A 
HETATM    3  C3  UNL     1     -33.614  17.614  -1.165  1.00 20.00     0.001 A 
HETATM    4  C4  UNL     1     -34.767  17.878  -3.692  1.00 20.00     0.007 A 
HETATM    5  C5  UNL     1     -33.338  16.674  -2.159  1.00 20.00     0.007 A 
HETATM    6  C6  UNL     1     -33.915  16.806  -3.423  1.00 20.00    -0.058 A 
ENDROOT
BRANCH   6   7
HETATM    7  C7  UNL     1     -33.621  15.801  -4.485  1.00 20.00     0.039 C 
BRANCH   7   8
HETATM    8  C8  UNL     1     -34.218  14.405  -4.223  1.00 20.00     0.014 C 
BRANCH   8   9
HETATM    9  C9  UNL     1     -35.532  14.184  -4.973  1.00 20.00     0.071 C 
BRANCH   9  10
HETATM   10  S10 UNL     1     -35.557  15.144  -6.515  1.00 20.00    -0.182 SA
HETATM   11  H22 UNL     1     -35.286  16.327  -5.948  1.00 20.00     0.101 HD
ENDBRANCH   9  10
ENDBRANCH   8   9
ENDBRANCH   7   8
ENDBRANCH   6   7
TORSDOF 4
ENDMDL
MODEL 9
REMARK VINA RESULT:      -3.3     13.455     14.332
REMARK  4 active torsions:
REMARK  status: ('A' for Active; 'I' for Inactive)
REMARK    1  A    between atoms: C6_6  and  C7_7 
REMARK    2  A    between atoms: C7_7  and  C8_8 
REMARK    3  A    between atoms: C8_8  and  C9_9 
REMARK    4  A    between atoms: C9_9  and  S10_10 
ROOT
HETATM    1  C1  UNL     1     -27.811  -0.626  10.699  1.00 20.00     0.000 A 
HETATM    2  C2  UNL     1     -27.610  -1.819  10.004  1.00 20.00     0.001 A 
HETATM    3  C3  UNL     1     -26.887  -0.217  11.662  1.00 20.00     0.001 A 
HETATM    4  C4  UNL     1     -26.488  -2.602  10.270  1.00 20.00     0.007 A 
HETATM    5  C5  UNL     1     -25.764  -1.000  11.929  1.00 20.00     0.007 A 
HETATM    6  C6  UNL     1     -25.565  -2.193  11.233  1.00 20.00    -0.058 A 
ENDROOT
BRANCH   6   7
HETATM    7  C7  UNL     1     -24.364  -3.031  11.520  1.00 20.00     0.039 C 
BRANCH   7   8
HETATM    8  C8  UNL     1     -23.188  -2.813  10.547  1.00 20.00     0.014 C 
BRANCH   8   9
HETATM    9  C9  UNL     1     -23.006  -3.985   9.583  1.00 20.00     0.071 C 
BRANCH   9  10
HETATM   10  S10 UNL     1     -23.092  -3.414   7.860  1.00 20.00    -0.182 SA
HETATM   11  H22 UNL     1     -24.239  -2.734   7.994  1.00 20.00     0.101 HD
ENDBRANCH   9  10
ENDBRANCH   8   9
ENDBRANCH   7   8
ENDBRANCH   6   7
TORSDOF 4
ENDMDL
