MODEL 1
REMARK VINA RESULT:      -4.2      0.000      0.000
REMARK  2 active torsions:
REMARK  status: ('A' for Active; 'I' for Inactive)
REMARK    1  A    between atoms: C5_5  and  N8_8 
REMARK    2  A    between atoms: C6_6  and  S11_11 
ROOT
HETATM    1  C1  UNL     1     -33.958  15.096  -3.916  1.00 20.00     0.037 A 
HETATM    2  C2  UNL     1     -35.439  16.584  -5.111  1.00 20.00     0.037 A 
HETATM    3  C3  UNL     1     -33.291  16.194  -3.376  1.00 20.00     0.021 A 
HETATM    4  C4  UNL     1     -34.772  17.683  -4.570  1.00 20.00     0.021 A 
HETATM    5  C5  UNL     1     -35.033  15.291  -4.784  1.00 20.00     0.102 A 
HETATM    6  C6  UNL     1     -33.697  17.488  -3.703  1.00 20.00    -0.000 A 
ENDROOT
BRANCH   5   7
HETATM    7  N8  UNL     1     -35.713  14.173  -5.334  1.00 20.00    -0.116 N 
HETATM    8  O9  UNL     1     -36.054  13.233  -4.574  1.00 20.00    -0.532 OA
HETATM    9  O10 UNL     1     -35.956  14.154  -6.565  1.00 20.00    -0.532 OA
ENDBRANCH   5   7
BRANCH   6  10
HETATM   10  S11 UNL     1     -32.843  18.892  -3.013  1.00 20.00    -0.134 SA
HETATM   11  C7  UNL     1     -32.464  18.239  -1.372  1.00 20.00     0.095 C 
ENDBRANCH   6  10
TORSDOF 2
ENDMDL
MODEL 2
REMARK VINA RESULT:      -4.1      1.436      2.142
REMARK  2 active torsions:
REMARK  status: ('A' for Active; 'I' for Inactive)
REMARK    1  A    between atoms: C5_5  and  N8_8 
REMARK    2  A    between atoms: C6_6  and  S11_11 
ROOT
HETATM    1  C1  UNL     1     -34.857  16.933  -5.421  1.00 20.00     0.037 A 
HETATM    2  C2  UNL     1     -33.742  14.891  -4.767  1.00 20.00     0.037 A 
HETATM    3  C3  UNL     1     -34.455  17.534  -4.229  1.00 20.00     0.021 A 
HETATM    4  C4  UNL     1     -33.339  15.493  -3.575  1.00 20.00     0.021 A 
HETATM    5  C5  UNL     1     -34.500  15.611  -5.691  1.00 20.00     0.102 A 
HETATM    6  C6  UNL     1     -33.696  16.815  -3.305  1.00 20.00    -0.000 A 
ENDROOT
BRANCH   5   7
HETATM    7  N8  UNL     1     -34.909  14.999  -6.904  1.00 20.00    -0.116 N 
HETATM    8  O9  UNL     1     -35.992  14.364  -6.931  1.00 20.00    -0.532 OA
HETATM    9  O10 UNL     1     -34.179  15.110  -7.918  1.00 20.00    -0.532 OA
ENDBRANCH   5   7
BRANCH   6  10
HETATM   10  S11 UNL     1     -33.183  17.583  -1.781  1.00 20.00    -0.134 SA
HETATM   11  C7  UNL     1     -34.590  18.682  -1.509  1.00 20.00     0.095 C 
ENDBRANCH   6  10
TORSDOF 2
ENDMDL
MODEL 3
REMARK VINA RESULT:      -4.1      1.434      1.755
REMARK  2 active torsions:
REMARK  status: ('A' for Active; 'I' for Inactive)
REMARK    1  A    between atoms: C5_5  and  N8_8 
REMARK    2  A    between atoms: C6_6  and  S11_11 
ROOT
HETATM    1  C1  UNL     1     -33.711  14.939  -4.761  1.00 20.00     0.037 A 
HETATM    2  C2  UNL     1     -34.852  16.957  -5.443  1.00 20.00     0.037 A 
HETATM    3  C3  UNL     1     -33.316  15.563  -3.578  1.00 20.00     0.021 A 
HETATM    4  C4  UNL     1     -34.457  17.580  -4.260  1.00 20.00     0.021 A 
HETATM    5  C5  UNL     1     -34.480  15.636  -5.694  1.00 20.00     0.102 A 
HETATM    6  C6  UNL     1     -33.689  16.883  -3.327  1.00 20.00    -0.000 A 
ENDROOT
BRANCH   5   7
HETATM    7  N8  UNL     1     -34.882  15.002  -6.898  1.00 20.00    -0.116 N 
HETATM    8  O9  UNL     1     -34.128  15.064  -7.900  1.00 20.00    -0.532 OA
HETATM    9  O10 UNL     1     -35.979  14.394  -6.929  1.00 20.00    -0.532 OA
ENDBRANCH   5   7
BRANCH   6  10
HETATM   10  S11 UNL     1     -33.183  17.680  -1.816  1.00 20.00    -0.134 SA
HETATM   11  C7  UNL     1     -34.625  18.730  -1.531  1.00 20.00     0.095 C 
ENDBRANCH   6  10
TORSDOF 2
ENDMDL
MODEL 4
REMARK VINA RESULT:      -4.1      4.487      5.409
REMARK  2 active torsions:
REMARK  status: ('A' for Active; 'I' for Inactive)
REMARK    1  A    between atoms: C5_5  and  N8_8 
REMARK    2  A    between atoms: C6_6  and  S11_11 
ROOT
HETATM    1  C1  UNL     1     -32.731  19.155  -2.806  1.00 20.00     0.037 A 
HETATM    2  C2  UNL     1     -33.172  16.907  -2.041  1.00 20.00     0.037 A 
HETATM    3  C3  UNL     1     -33.362  18.867  -4.015  1.00 20.00     0.021 A 
HETATM    4  C4  UNL     1     -33.804  16.619  -3.250  1.00 20.00     0.021 A 
HETATM    5  C5  UNL     1     -32.636  18.175  -1.818  1.00 20.00     0.102 A 
HETATM    6  C6  UNL     1     -33.899  17.599  -4.238  1.00 20.00    -0.000 A 
ENDROOT
BRANCH   5   7
HETATM    7  N8  UNL     1     -31.993  18.468  -0.587  1.00 20.00    -0.116 N 
HETATM    8  O9  UNL     1     -30.766  18.733  -0.588  1.00 20.00    -0.532 OA
HETATM    9  O10 UNL     1     -32.669  18.455   0.470  1.00 20.00    -0.532 OA
ENDBRANCH   5   7
BRANCH   6  10
HETATM   10  S11 UNL     1     -34.704  17.231  -5.784  1.00 20.00    -0.134 SA
HETATM   11  C7  UNL     1     -34.294  15.478  -5.929  1.00 20.00     0.095 C 
ENDBRANCH   6  10
TORSDOF 2
ENDMDL
MODEL 5
REMARK VINA RESULT:      -4.0      4.534      5.320
REMARK  2 active torsions:
REMARK  status: ('A' for Active; 'I' for Inactive)
REMARK    1  A    between atoms: C5_5  and  N8_8 
REMARK    2  A    between atoms: C6_6  and  S11_11 
ROOT
HETATM    1  C1  UNL     1     -33.148  17.019  -1.938  1.00 20.00     0.037 A 
HETATM    2  C2  UNL     1     -32.625  19.263  -2.666  1.00 20.00     0.037 A 
HETATM    3  C3  UNL     1     -33.797  16.778  -3.148  1.00 20.00     0.021 A 
HETATM    4  C4  UNL     1     -33.274  19.021  -3.876  1.00 20.00     0.021 A 
HETATM    5  C5  UNL     1     -32.560  18.262  -1.697  1.00 20.00     0.102 A 
HETATM    6  C6  UNL     1     -33.861  17.779  -4.117  1.00 20.00    -0.000 A 
ENDROOT
BRANCH   5   7
HETATM    7  N8  UNL     1     -31.899  18.508  -0.466  1.00 20.00    -0.116 N 
HETATM    8  O9  UNL     1     -32.564  18.481   0.599  1.00 20.00    -0.532 OA
HETATM    9  O10 UNL     1     -30.667  18.743  -0.473  1.00 20.00    -0.532 OA
ENDBRANCH   5   7
BRANCH   6  10
HETATM   10  S11 UNL     1     -34.693  17.471  -5.663  1.00 20.00    -0.134 SA
HETATM   11  C7  UNL     1     -34.592  15.668  -5.707  1.00 20.00     0.095 C 
ENDBRANCH   6  10
TORSDOF 2
ENDMDL
MODEL 6
REMARK VINA RESULT:      -3.9      4.443      5.581
REMARK  2 active torsions:
REMARK  status: ('A' for Active; 'I' for Inactive)
REMARK    1  A    between atoms: C5_5  and  N8_8 
REMARK    2  A    between atoms: C6_6  and  S11_11 
ROOT
HETATM    1  C1  UNL     1     -33.748  18.183  -0.093  1.00 20.00     0.037 A 
HETATM    2  C2  UNL     1     -31.441  18.224  -0.810  1.00 20.00     0.037 A 
HETATM    3  C3  UNL     1     -33.356  18.564   1.189  1.00 20.00     0.021 A 
HETATM    4  C4  UNL     1     -31.050  18.607   0.473  1.00 20.00     0.021 A 
HETATM    5  C5  UNL     1     -32.790  18.013  -1.094  1.00 20.00     0.102 A 
HETATM    6  C6  UNL     1     -32.007  18.776   1.473  1.00 20.00    -0.000 A 
ENDROOT
BRANCH   5   7
HETATM    7  N8  UNL     1     -33.189  17.624  -2.399  1.00 20.00    -0.116 N 
HETATM    8  O9  UNL     1     -33.426  18.513  -3.254  1.00 20.00    -0.532 OA
HETATM    9  O10 UNL     1     -33.292  16.403  -2.665  1.00 20.00    -0.532 OA
ENDBRANCH   5   7
BRANCH   6  10
HETATM   10  S11 UNL     1     -31.507  19.263   3.112  1.00 20.00    -0.134 SA
HETATM   11  C7  UNL     1     -29.736  18.921   3.002  1.00 20.00     0.095 C 
ENDBRANCH   6  10
TORSDOF 2
ENDMDL
MODEL 7
REMARK VINA RESULT:      -3.8     11.635     12.627
REMARK  2 active torsions:
REMARK  status: ('A' for Active; 'I' for Inactive)
REMARK    1  A    between atoms: C5_5  and  N8_8 
REMARK    2  A    between atoms: C6_6  and  S11_11 
ROOT
HETATM    1  C1  UNL     1     -33.509   5.826   3.831  1.00 20.00     0.037 A 
HETATM    2  C2  UNL     1     -33.239   8.019   4.809  1.00 20.00     0.037 A 
HETATM    3  C3  UNL     1     -32.928   6.282   2.649  1.00 20.00     0.021 A 
HETATM    4  C4  UNL     1     -32.657   8.474   3.627  1.00 20.00     0.021 A 
HETATM    5  C5  UNL     1     -33.664   6.694   4.912  1.00 20.00     0.102 A 
HETATM    6  C6  UNL     1     -32.502   7.606   2.546  1.00 20.00    -0.000 A 
ENDROOT
BRANCH   5   7
HETATM    7  N8  UNL     1     -34.256   6.231   6.116  1.00 20.00    -0.116 N 
HETATM    8  O9  UNL     1     -34.487   5.004   6.248  1.00 20.00    -0.532 OA
HETATM    9  O10 UNL     1     -34.530   7.059   7.018  1.00 20.00    -0.532 OA
ENDBRANCH   5   7
BRANCH   6  10
HETATM   10  S11 UNL     1     -31.760   8.189   1.034  1.00 20.00    -0.134 SA
HETATM   11  C7  UNL     1     -32.856   9.579   0.676  1.00 20.00     0.095 C 
ENDBRANCH   6  10
TORSDOF 2
ENDMDL
MODEL 8
REMARK VINA RESULT:      -3.8     11.642     12.659
REMARK  2 active torsions:
REMARK  status: ('A' for Active; 'I' for Inactive)
REMARK    1  A    between atoms: C5_5  and  N8_8 
REMARK    2  A    between atoms: C6_6  and  S11_11 
ROOT
HETATM    1  C1  UNL     1     -33.209   8.003   4.812  1.00 20.00     0.037 A 
HETATM    2  C2  UNL     1     -33.500   5.817   3.823  1.00 20.00     0.037 A 
HETATM    3  C3  UNL     1     -32.637   8.462   3.626  1.00 20.00     0.021 A 
HETATM    4  C4  UNL     1     -32.929   6.278   2.637  1.00 20.00     0.021 A 
HETATM    5  C5  UNL     1     -33.642   6.679   4.910  1.00 20.00     0.102 A 
HETATM    6  C6  UNL     1     -32.497   7.601   2.539  1.00 20.00    -0.000 A 
ENDROOT
BRANCH   5   7
HETATM    7  N8  UNL     1     -34.224   6.211   6.117  1.00 20.00    -0.116 N 
HETATM    8  O9  UNL     1     -34.423   4.979   6.259  1.00 20.00    -0.532 OA
HETATM    9  O10 UNL     1     -34.522   7.039   7.010  1.00 20.00    -0.532 OA
ENDBRANCH   5   7
BRANCH   6  10
HETATM   10  S11 UNL     1     -31.765   8.189   1.024  1.00 20.00    -0.134 SA
HETATM   11  C7  UNL     1     -32.870   9.573   0.672  1.00 20.00     0.095 C 
ENDBRANCH   6  10
TORSDOF 2
ENDMDL
MODEL 9
REMARK VINA RESULT:      -3.7      2.016      2.367
REMARK  2 active torsions:
REMARK  status: ('A' for Active; 'I' for Inactive)
REMARK    1  A    between atoms: C5_5  and  N8_8 
REMARK    2  A    between atoms: C6_6  and  S11_11 
ROOT
HETATM    1  C1  UNL     1     -33.412  16.289  -3.069  1.00 20.00     0.037 A 
HETATM    2  C2  UNL     1     -35.013  17.809  -4.053  1.00 20.00     0.037 A 
HETATM    3  C3  UNL     1     -33.453  17.017  -1.881  1.00 20.00     0.021 A 
HETATM    4  C4  UNL     1     -35.054  18.536  -2.864  1.00 20.00     0.021 A 
HETATM    5  C5  UNL     1     -34.193  16.685  -4.156  1.00 20.00     0.102 A 
HETATM    6  C6  UNL     1     -34.273  18.140  -1.777  1.00 20.00    -0.000 A 
ENDROOT
BRANCH   5   7
HETATM    7  N8  UNL     1     -34.152  15.945  -5.367  1.00 20.00    -0.116 N 
HETATM    8  O9  UNL     1     -34.516  16.500  -6.432  1.00 20.00    -0.532 OA
HETATM    9  O10 UNL     1     -33.751  14.756  -5.340  1.00 20.00    -0.532 OA
ENDBRANCH   5   7
BRANCH   6  10
HETATM   10  S11 UNL     1     -34.324  19.070  -0.258  1.00 20.00    -0.134 SA
HETATM   11  C7  UNL     1     -32.768  18.525   0.482  1.00 20.00     0.095 C 
ENDBRANCH   6  10
TORSDOF 2
ENDMDL
