MODEL 1
REMARK VINA RESULT:      -5.2      0.000      0.000
REMARK  1 active torsions:
REMARK  status: ('A' for Active; 'I' for Inactive)
REMARK    1  A    between atoms: C6_6  and  C9_9 
ROOT
HETATM    1  C1  UNL     1     -32.884   6.475   2.808  1.00 20.00     0.007 A 
HETATM    2  C2  UNL     1     -32.538   8.737   3.583  1.00 20.00     0.007 A 
HETATM    3  C3  UNL     1     -33.421   6.132   4.049  1.00 20.00     0.007 A 
HETATM    4  C4  UNL     1     -33.075   8.395   4.824  1.00 20.00     0.007 A 
HETATM    5  C5  UNL     1     -32.442   7.777   2.575  1.00 20.00    -0.062 A 
HETATM    6  C6  UNL     1     -33.516   7.093   5.057  1.00 20.00    -0.059 A 
HETATM    7  C7  UNL     1     -31.869   8.144   1.248  1.00 20.00     0.048 C 
ENDROOT
BRANCH   6   8
HETATM    8  C9  UNL     1     -34.093   6.725   6.383  1.00 20.00     0.034 C 
HETATM    9  C8  UNL     1     -34.701   5.325   6.384  1.00 20.00     0.010 C 
ENDBRANCH   6   8
TORSDOF 1
ENDMDL
MODEL 2
REMARK VINA RESULT:      -5.1      0.726      3.936
REMARK  1 active torsions:
REMARK  status: ('A' for Active; 'I' for Inactive)
REMARK    1  A    between atoms: C6_6  and  C9_9 
ROOT
HETATM    1  C1  UNL     1     -33.769   5.560   3.994  1.00 20.00     0.007 A 
HETATM    2  C2  UNL     1     -33.497   7.649   5.175  1.00 20.00     0.007 A 
HETATM    3  C3  UNL     1     -33.090   6.091   2.898  1.00 20.00     0.007 A 
HETATM    4  C4  UNL     1     -32.818   8.181   4.079  1.00 20.00     0.007 A 
HETATM    5  C5  UNL     1     -33.973   6.339   5.133  1.00 20.00    -0.062 A 
HETATM    6  C6  UNL     1     -32.614   7.402   2.940  1.00 20.00    -0.059 A 
HETATM    7  C7  UNL     1     -34.698   5.771   6.306  1.00 20.00     0.048 C 
ENDROOT
BRANCH   6   8
HETATM    8  C9  UNL     1     -31.887   7.968   1.768  1.00 20.00     0.034 C 
HETATM    9  C8  UNL     1     -32.672   9.081   1.079  1.00 20.00     0.010 C 
ENDBRANCH   6   8
TORSDOF 1
ENDMDL
MODEL 3
REMARK VINA RESULT:      -5.1      0.734      4.245
REMARK  1 active torsions:
REMARK  status: ('A' for Active; 'I' for Inactive)
REMARK    1  A    between atoms: C6_6  and  C9_9 
ROOT
HETATM    1  C1  UNL     1     -33.517   7.633   5.189  1.00 20.00     0.007 A 
HETATM    2  C2  UNL     1     -33.782   5.550   3.994  1.00 20.00     0.007 A 
HETATM    3  C3  UNL     1     -32.832   8.170   4.100  1.00 20.00     0.007 A 
HETATM    4  C4  UNL     1     -33.097   6.088   2.904  1.00 20.00     0.007 A 
HETATM    5  C5  UNL     1     -33.992   6.322   5.136  1.00 20.00    -0.062 A 
HETATM    6  C6  UNL     1     -32.622   7.398   2.957  1.00 20.00    -0.059 A 
HETATM    7  C7  UNL     1     -34.726   5.746   6.300  1.00 20.00     0.048 C 
ENDROOT
BRANCH   6   8
HETATM    8  C9  UNL     1     -31.890   7.976   1.793  1.00 20.00     0.034 C 
HETATM    9  C8  UNL     1     -32.678   9.088   1.106  1.00 20.00     0.010 C 
ENDBRANCH   6   8
TORSDOF 1
ENDMDL
MODEL 4
REMARK VINA RESULT:      -4.1     11.600     12.275
REMARK  1 active torsions:
REMARK  status: ('A' for Active; 'I' for Inactive)
REMARK    1  A    between atoms: C6_6  and  C9_9 
ROOT
HETATM    1  C1  UNL     1     -31.052  18.573  -0.019  1.00 20.00     0.007 A 
HETATM    2  C2  UNL     1     -33.054  18.576   1.334  1.00 20.00     0.007 A 
HETATM    3  C3  UNL     1     -31.801  18.173  -1.126  1.00 20.00     0.007 A 
HETATM    4  C4  UNL     1     -33.803  18.176   0.227  1.00 20.00     0.007 A 
HETATM    5  C5  UNL     1     -31.679  18.774   1.211  1.00 20.00    -0.062 A 
HETATM    6  C6  UNL     1     -33.177  17.975  -1.003  1.00 20.00    -0.059 A 
HETATM    7  C7  UNL     1     -30.879  19.202   2.395  1.00 20.00     0.048 C 
ENDROOT
BRANCH   6   8
HETATM    8  C9  UNL     1     -33.976  17.549  -2.188  1.00 20.00     0.034 C 
HETATM    9  C8  UNL     1     -33.339  16.375  -2.927  1.00 20.00     0.010 C 
ENDBRANCH   6   8
TORSDOF 1
ENDMDL
MODEL 5
REMARK VINA RESULT:      -4.1     11.558     12.276
REMARK  1 active torsions:
REMARK  status: ('A' for Active; 'I' for Inactive)
REMARK    1  A    between atoms: C6_6  and  C9_9 
ROOT
HETATM    1  C1  UNL     1     -33.222  18.478   1.229  1.00 20.00     0.007 A 
HETATM    2  C2  UNL     1     -31.147  18.569  -0.006  1.00 20.00     0.007 A 
HETATM    3  C3  UNL     1     -33.896  18.103   0.067  1.00 20.00     0.007 A 
HETATM    4  C4  UNL     1     -31.822  18.194  -1.168  1.00 20.00     0.007 A 
HETATM    5  C5  UNL     1     -31.847  18.711   1.192  1.00 20.00    -0.062 A 
HETATM    6  C6  UNL     1     -33.196  17.961  -1.132  1.00 20.00    -0.059 A 
HETATM    7  C7  UNL     1     -31.124  19.110   2.434  1.00 20.00     0.048 C 
ENDROOT
BRANCH   6   8
HETATM    8  C9  UNL     1     -33.919  17.559  -2.373  1.00 20.00     0.034 C 
HETATM    9  C8  UNL     1     -33.328  16.303  -3.007  1.00 20.00     0.010 C 
ENDBRANCH   6   8
TORSDOF 1
ENDMDL
MODEL 6
REMARK VINA RESULT:      -4.0     11.728     12.056
REMARK  1 active torsions:
REMARK  status: ('A' for Active; 'I' for Inactive)
REMARK    1  A    between atoms: C6_6  and  C9_9 
ROOT
HETATM    1  C1  UNL     1     -33.893  17.981  -0.079  1.00 20.00     0.007 A 
HETATM    2  C2  UNL     1     -31.719  18.142  -1.121  1.00 20.00     0.007 A 
HETATM    3  C3  UNL     1     -33.345  18.414   1.129  1.00 20.00     0.007 A 
HETATM    4  C4  UNL     1     -31.172  18.576   0.086  1.00 20.00     0.007 A 
HETATM    5  C5  UNL     1     -33.080  17.845  -1.204  1.00 20.00    -0.062 A 
HETATM    6  C6  UNL     1     -31.984  18.712   1.211  1.00 20.00    -0.059 A 
HETATM    7  C7  UNL     1     -33.664  17.383  -2.496  1.00 20.00     0.048 C 
ENDROOT
BRANCH   6   8
HETATM    8  C9  UNL     1     -31.401  19.177   2.502  1.00 20.00     0.034 C 
HETATM    9  C8  UNL     1     -29.933  18.786   2.651  1.00 20.00     0.010 C 
ENDBRANCH   6   8
TORSDOF 1
ENDMDL
MODEL 7
REMARK VINA RESULT:      -3.9     15.697     16.068
REMARK  1 active torsions:
REMARK  status: ('A' for Active; 'I' for Inactive)
REMARK    1  A    between atoms: C6_6  and  C9_9 
ROOT
HETATM    1  C1  UNL     1     -22.044  17.965  10.013  1.00 20.00     0.007 A 
HETATM    2  C2  UNL     1     -23.871  18.891   8.733  1.00 20.00     0.007 A 
HETATM    3  C3  UNL     1     -22.830  18.005  11.164  1.00 20.00     0.007 A 
HETATM    4  C4  UNL     1     -24.658  18.931   9.884  1.00 20.00     0.007 A 
HETATM    5  C5  UNL     1     -22.564  18.407   8.797  1.00 20.00    -0.062 A 
HETATM    6  C6  UNL     1     -24.138  18.489  11.100  1.00 20.00    -0.059 A 
HETATM    7  C7  UNL     1     -21.725  18.364   7.566  1.00 20.00     0.048 C 
ENDROOT
BRANCH   6   8
HETATM    8  C9  UNL     1     -24.978  18.530  12.331  1.00 20.00     0.034 C 
HETATM    9  C8  UNL     1     -26.298  19.263  12.110  1.00 20.00     0.010 C 
ENDBRANCH   6   8
TORSDOF 1
ENDMDL
MODEL 8
REMARK VINA RESULT:      -3.8     11.517     12.462
REMARK  1 active torsions:
REMARK  status: ('A' for Active; 'I' for Inactive)
REMARK    1  A    between atoms: C6_6  and  C9_9 
ROOT
HETATM    1  C1  UNL     1     -33.944  14.889  -4.744  1.00 20.00     0.007 A 
HETATM    2  C2  UNL     1     -35.304  16.866  -5.020  1.00 20.00     0.007 A 
HETATM    3  C3  UNL     1     -33.266  15.503  -3.690  1.00 20.00     0.007 A 
HETATM    4  C4  UNL     1     -34.627  17.480  -3.966  1.00 20.00     0.007 A 
HETATM    5  C5  UNL     1     -34.963  15.571  -5.409  1.00 20.00    -0.062 A 
HETATM    6  C6  UNL     1     -33.608  16.798  -3.301  1.00 20.00    -0.059 A 
HETATM    7  C7  UNL     1     -35.688  14.916  -6.535  1.00 20.00     0.048 C 
ENDROOT
BRANCH   6   8
HETATM    8  C9  UNL     1     -32.884  17.452  -2.173  1.00 20.00     0.034 C 
HETATM    9  C8  UNL     1     -33.762  17.613  -0.935  1.00 20.00     0.010 C 
ENDBRANCH   6   8
TORSDOF 1
ENDMDL
MODEL 9
REMARK VINA RESULT:      -3.8     15.696     15.762
REMARK  1 active torsions:
REMARK  status: ('A' for Active; 'I' for Inactive)
REMARK    1  A    between atoms: C6_6  and  C9_9 
ROOT
HETATM    1  C1  UNL     1     -24.106  19.261   8.890  1.00 20.00     0.007 A 
HETATM    2  C2  UNL     1     -22.768  17.552   9.950  1.00 20.00     0.007 A 
HETATM    3  C3  UNL     1     -24.971  19.263   9.985  1.00 20.00     0.007 A 
HETATM    4  C4  UNL     1     -23.633  17.553  11.045  1.00 20.00     0.007 A 
HETATM    5  C5  UNL     1     -23.005  18.406   8.873  1.00 20.00    -0.062 A 
HETATM    6  C6  UNL     1     -24.734  18.409  11.063  1.00 20.00    -0.059 A 
HETATM    7  C7  UNL     1     -22.080  18.403   7.704  1.00 20.00     0.048 C 
ENDROOT
BRANCH   6   8
HETATM    8  C9  UNL     1     -25.658  18.413  12.233  1.00 20.00     0.034 C 
HETATM    9  C8  UNL     1     -26.904  19.260  11.986  1.00 20.00     0.010 C 
ENDBRANCH   6   8
TORSDOF 1
ENDMDL
