MODEL 1
REMARK VINA RESULT:      -4.0      0.000      0.000
REMARK  0 active torsions:
REMARK  status: ('A' for Active; 'I' for Inactive)
ROOT
HETATM    1  C1  UNL     1     -32.727   8.450   3.472  1.00 20.00     0.008 A 
HETATM    2  C2  UNL     1     -32.763   6.305   2.359  1.00 20.00     0.008 A 
HETATM    3  C3  UNL     1     -33.336   7.880   4.590  1.00 20.00     0.019 A 
HETATM    4  C4  UNL     1     -33.371   5.735   3.478  1.00 20.00     0.019 A 
HETATM    5  C5  UNL     1     -32.442   7.663   2.356  1.00 20.00    -0.062 A 
HETATM    6  C6  UNL     1     -33.657   6.522   4.593  1.00 20.00     0.006 A 
HETATM    7  C7  UNL     1     -31.794   8.273   1.159  1.00 20.00     0.048 C 
HETATM    8  I8  UNL     1     -34.565   5.674   6.258  1.00 20.00    -0.045 I 
ENDROOT
TORSDOF 0
ENDMDL
MODEL 2
REMARK VINA RESULT:      -3.7     16.009     16.044
REMARK  0 active torsions:
REMARK  status: ('A' for Active; 'I' for Inactive)
ROOT
HETATM    1  C1  UNL     1     -23.709  19.191   8.543  1.00 20.00     0.008 A 
HETATM    2  C2  UNL     1     -22.472  17.466   9.697  1.00 20.00     0.008 A 
HETATM    3  C3  UNL     1     -24.618  19.247   9.600  1.00 20.00     0.019 A 
HETATM    4  C4  UNL     1     -23.380  17.522  10.754  1.00 20.00     0.019 A 
HETATM    5  C5  UNL     1     -22.637  18.301   8.591  1.00 20.00    -0.062 A 
HETATM    6  C6  UNL     1     -24.453  18.412  10.706  1.00 20.00     0.006 A 
HETATM    7  C7  UNL     1     -21.667  18.240   7.460  1.00 20.00     0.048 C 
HETATM    8  I8  UNL     1     -25.807  18.493  12.279  1.00 20.00    -0.045 I 
ENDROOT
TORSDOF 0
ENDMDL
MODEL 3
REMARK VINA RESULT:      -3.6     11.960     12.309
REMARK  0 active torsions:
REMARK  status: ('A' for Active; 'I' for Inactive)
ROOT
HETATM    1  C1  UNL     1     -31.140  18.678   0.426  1.00 20.00     0.008 A 
HETATM    2  C2  UNL     1     -33.426  18.550   1.197  1.00 20.00     0.008 A 
HETATM    3  C3  UNL     1     -31.545  18.263  -0.843  1.00 20.00     0.019 A 
HETATM    4  C4  UNL     1     -33.831  18.135  -0.072  1.00 20.00     0.019 A 
HETATM    5  C5  UNL     1     -32.080  18.821   1.446  1.00 20.00    -0.062 A 
HETATM    6  C6  UNL     1     -32.891  17.992  -1.092  1.00 20.00     0.006 A 
HETATM    7  C7  UNL     1     -31.647  19.262   2.803  1.00 20.00     0.048 C 
HETATM    8  I8  UNL     1     -33.493  17.372  -2.981  1.00 20.00    -0.045 I 
ENDROOT
TORSDOF 0
ENDMDL
MODEL 4
REMARK VINA RESULT:      -3.6     11.983     12.311
REMARK  0 active torsions:
REMARK  status: ('A' for Active; 'I' for Inactive)
ROOT
HETATM    1  C1  UNL     1     -33.403  18.570   1.217  1.00 20.00     0.008 A 
HETATM    2  C2  UNL     1     -31.122  18.676   0.428  1.00 20.00     0.008 A 
HETATM    3  C3  UNL     1     -33.823  18.168  -0.051  1.00 20.00     0.019 A 
HETATM    4  C4  UNL     1     -31.542  18.273  -0.840  1.00 20.00     0.019 A 
HETATM    5  C5  UNL     1     -32.053  18.825   1.456  1.00 20.00    -0.062 A 
HETATM    6  C6  UNL     1     -32.892  18.019  -1.080  1.00 20.00     0.006 A 
HETATM    7  C7  UNL     1     -31.604  19.258   2.811  1.00 20.00     0.048 C 
HETATM    8  I8  UNL     1     -33.517  17.422  -2.968  1.00 20.00    -0.045 I 
ENDROOT
TORSDOF 0
ENDMDL
MODEL 5
REMARK VINA RESULT:      -3.6     11.856     12.090
REMARK  0 active torsions:
REMARK  status: ('A' for Active; 'I' for Inactive)
ROOT
HETATM    1  C1  UNL     1     -31.825  18.161  -1.158  1.00 20.00     0.008 A 
HETATM    2  C2  UNL     1     -33.788  18.151   0.252  1.00 20.00     0.008 A 
HETATM    3  C3  UNL     1     -31.042  18.531  -0.064  1.00 20.00     0.019 A 
HETATM    4  C4  UNL     1     -33.004  18.521   1.345  1.00 20.00     0.019 A 
HETATM    5  C5  UNL     1     -33.198  17.972  -1.000  1.00 20.00    -0.062 A 
HETATM    6  C6  UNL     1     -31.631  18.711   1.187  1.00 20.00     0.006 A 
HETATM    7  C7  UNL     1     -34.035  17.579  -2.170  1.00 20.00     0.048 C 
HETATM    8  I8  UNL     1     -30.466  19.263   2.815  1.00 20.00    -0.045 I 
ENDROOT
TORSDOF 0
ENDMDL
MODEL 6
REMARK VINA RESULT:      -3.6      2.402      3.759
REMARK  0 active torsions:
REMARK  status: ('A' for Active; 'I' for Inactive)
ROOT
HETATM    1  C1  UNL     1     -33.727   7.364   5.636  1.00 20.00     0.008 A 
HETATM    2  C2  UNL     1     -34.042   5.379   4.295  1.00 20.00     0.008 A 
HETATM    3  C3  UNL     1     -33.138   8.006   4.547  1.00 20.00     0.019 A 
HETATM    4  C4  UNL     1     -33.453   6.021   3.206  1.00 20.00     0.019 A 
HETATM    5  C5  UNL     1     -34.178   6.050   5.510  1.00 20.00    -0.062 A 
HETATM    6  C6  UNL     1     -33.001   7.334   3.331  1.00 20.00     0.006 A 
HETATM    7  C7  UNL     1     -34.806   5.363   6.675  1.00 20.00     0.048 C 
HETATM    8  I8  UNL     1     -32.121   8.290   1.710  1.00 20.00    -0.045 I 
ENDROOT
TORSDOF 0
ENDMDL
MODEL 7
REMARK VINA RESULT:      -3.6      2.401      4.128
REMARK  0 active torsions:
REMARK  status: ('A' for Active; 'I' for Inactive)
ROOT
HETATM    1  C1  UNL     1     -34.043   5.433   4.322  1.00 20.00     0.008 A 
HETATM    2  C2  UNL     1     -33.730   7.406   5.681  1.00 20.00     0.008 A 
HETATM    3  C3  UNL     1     -33.467   6.090   3.235  1.00 20.00     0.019 A 
HETATM    4  C4  UNL     1     -33.154   8.064   4.594  1.00 20.00     0.019 A 
HETATM    5  C5  UNL     1     -34.175   6.090   5.545  1.00 20.00    -0.062 A 
HETATM    6  C6  UNL     1     -33.023   7.406   3.371  1.00 20.00     0.006 A 
HETATM    7  C7  UNL     1     -34.792   5.388   6.707  1.00 20.00     0.048 C 
HETATM    8  I8  UNL     1     -32.167   8.386   1.752  1.00 20.00    -0.045 I 
ENDROOT
TORSDOF 0
ENDMDL
MODEL 8
REMARK VINA RESULT:      -3.4     15.871     16.211
REMARK  0 active torsions:
REMARK  status: ('A' for Active; 'I' for Inactive)
ROOT
HETATM    1  C1  UNL     1     -24.648  17.286  11.642  1.00 20.00     0.008 A 
HETATM    2  C2  UNL     1     -25.274  19.260  10.399  1.00 20.00     0.008 A 
HETATM    3  C3  UNL     1     -23.546  17.108  10.805  1.00 20.00     0.019 A 
HETATM    4  C4  UNL     1     -24.172  19.082   9.562  1.00 20.00     0.019 A 
HETATM    5  C5  UNL     1     -25.512  18.361  11.438  1.00 20.00    -0.062 A 
HETATM    6  C6  UNL     1     -23.308  18.006   9.765  1.00 20.00     0.006 A 
HETATM    7  C7  UNL     1     -26.691  18.550  12.332  1.00 20.00     0.048 C 
HETATM    8  I8  UNL     1     -21.669  17.740   8.518  1.00 20.00    -0.045 I 
ENDROOT
TORSDOF 0
ENDMDL
MODEL 9
REMARK VINA RESULT:      -3.4     11.686     12.634
REMARK  0 active torsions:
REMARK  status: ('A' for Active; 'I' for Inactive)
ROOT
HETATM    1  C1  UNL     1     -34.790  18.244  -3.025  1.00 20.00     0.008 A 
HETATM    2  C2  UNL     1     -33.297  16.423  -2.483  1.00 20.00     0.008 A 
HETATM    3  C3  UNL     1     -35.013  17.686  -4.284  1.00 20.00     0.019 A 
HETATM    4  C4  UNL     1     -33.519  15.865  -3.742  1.00 20.00     0.019 A 
HETATM    5  C5  UNL     1     -33.932  17.613  -2.125  1.00 20.00    -0.062 A 
HETATM    6  C6  UNL     1     -34.377  16.497  -4.643  1.00 20.00     0.006 A 
HETATM    7  C7  UNL     1     -33.693  18.210  -0.779  1.00 20.00     0.048 C 
HETATM    8  I8  UNL     1     -34.707  15.667  -6.518  1.00 20.00    -0.045 I 
ENDROOT
TORSDOF 0
ENDMDL
