MODEL 1
REMARK VINA RESULT:      -5.0      0.000      0.000
REMARK  3 active torsions:
REMARK  status: ('A' for Active; 'I' for Inactive)
REMARK    1  A    between atoms: C2_2  and  C7_7 
REMARK    2  A    between atoms: C3_3  and  C8_8 
REMARK    3  A    between atoms: C7_7  and  C8_8 
ROOT
HETATM    1  C3  UNL     1     -33.767   7.218   6.020  1.00 20.00    -0.024 C 
HETATM    2  C4  UNL     1     -34.514   6.139   5.715  1.00 20.00    -0.091 C 
HETATM    3  C5  UNL     1     -34.590   4.973   6.666  1.00 20.00     0.042 C 
HETATM    4  C6  UNL     1     -35.331   5.973   4.465  1.00 20.00     0.042 C 
ENDROOT
BRANCH   1   5
HETATM    5  C8  UNL     1     -33.549   8.456   5.195  1.00 20.00     0.031 C 
BRANCH   5   6
HETATM    6  C7  UNL     1     -32.215   8.434   4.443  1.00 20.00     0.030 C 
BRANCH   6   7
HETATM    7  C2  UNL     1     -32.351   7.917   3.039  1.00 20.00    -0.037 C 
HETATM    8  C1  UNL     1     -32.268   6.625   2.706  1.00 20.00     0.007 C 
ENDBRANCH   6   7
ENDBRANCH   5   6
ENDBRANCH   1   5
TORSDOF 3
ENDMDL
MODEL 2
REMARK VINA RESULT:      -4.7      0.935      3.854
REMARK  3 active torsions:
REMARK  status: ('A' for Active; 'I' for Inactive)
REMARK    1  A    between atoms: C2_2  and  C7_7 
REMARK    2  A    between atoms: C3_3  and  C8_8 
REMARK    3  A    between atoms: C7_7  and  C8_8 
ROOT
HETATM    1  C3  UNL     1     -32.398   8.442   3.774  1.00 20.00    -0.024 C 
HETATM    2  C4  UNL     1     -32.394   7.594   2.727  1.00 20.00    -0.091 C 
HETATM    3  C5  UNL     1     -32.158   8.109   1.332  1.00 20.00     0.042 C 
HETATM    4  C6  UNL     1     -32.603   6.108   2.812  1.00 20.00     0.042 C 
ENDROOT
BRANCH   1   5
HETATM    5  C8  UNL     1     -32.638   8.121   5.224  1.00 20.00     0.031 C 
BRANCH   5   6
HETATM    6  C7  UNL     1     -34.100   7.767   5.513  1.00 20.00     0.030 C 
BRANCH   6   7
HETATM    7  C2  UNL     1     -34.237   6.549   6.382  1.00 20.00    -0.037 C 
HETATM    8  C1  UNL     1     -34.659   5.359   5.941  1.00 20.00     0.007 C 
ENDBRANCH   6   7
ENDBRANCH   5   6
ENDBRANCH   1   5
TORSDOF 3
ENDMDL
MODEL 3
REMARK VINA RESULT:      -4.6      0.963      3.773
REMARK  3 active torsions:
REMARK  status: ('A' for Active; 'I' for Inactive)
REMARK    1  A    between atoms: C2_2  and  C7_7 
REMARK    2  A    between atoms: C3_3  and  C8_8 
REMARK    3  A    between atoms: C7_7  and  C8_8 
ROOT
HETATM    1  C3  UNL     1     -33.081   8.422   4.899  1.00 20.00    -0.024 C 
HETATM    2  C4  UNL     1     -32.732   8.262   3.608  1.00 20.00    -0.091 C 
HETATM    3  C5  UNL     1     -32.838   9.413   2.642  1.00 20.00     0.042 C 
HETATM    4  C6  UNL     1     -32.209   6.990   3.001  1.00 20.00     0.042 C 
ENDROOT
BRANCH   1   5
HETATM    5  C8  UNL     1     -33.067   7.393   5.996  1.00 20.00     0.031 C 
BRANCH   5   6
HETATM    6  C7  UNL     1     -34.469   6.875   6.334  1.00 20.00     0.030 C 
BRANCH   6   7
HETATM    7  C2  UNL     1     -34.625   5.408   6.053  1.00 20.00    -0.037 C 
HETATM    8  C1  UNL     1     -34.601   4.873   4.828  1.00 20.00     0.007 C 
ENDBRANCH   6   7
ENDBRANCH   5   6
ENDBRANCH   1   5
TORSDOF 3
ENDMDL
MODEL 4
REMARK VINA RESULT:      -4.5      1.145      4.314
REMARK  3 active torsions:
REMARK  status: ('A' for Active; 'I' for Inactive)
REMARK    1  A    between atoms: C2_2  and  C7_7 
REMARK    2  A    between atoms: C3_3  and  C8_8 
REMARK    3  A    between atoms: C7_7  and  C8_8 
ROOT
HETATM    1  C3  UNL     1     -32.987   6.016   2.734  1.00 20.00    -0.024 C 
HETATM    2  C4  UNL     1     -32.451   7.249   2.824  1.00 20.00    -0.091 C 
HETATM    3  C5  UNL     1     -32.076   8.007   1.578  1.00 20.00     0.042 C 
HETATM    4  C6  UNL     1     -32.185   7.989   4.103  1.00 20.00     0.042 C 
ENDROOT
BRANCH   1   5
HETATM    5  C8  UNL     1     -33.399   5.102   3.856  1.00 20.00     0.031 C 
BRANCH   5   6
HETATM    6  C7  UNL     1     -34.776   5.454   4.425  1.00 20.00     0.030 C 
BRANCH   6   7
HETATM    7  C2  UNL     1     -34.761   5.613   5.918  1.00 20.00    -0.037 C 
HETATM    8  C1  UNL     1     -34.255   6.676   6.553  1.00 20.00     0.007 C 
ENDBRANCH   6   7
ENDBRANCH   5   6
ENDBRANCH   1   5
TORSDOF 3
ENDMDL
MODEL 5
REMARK VINA RESULT:      -4.4      1.107      3.792
REMARK  3 active torsions:
REMARK  status: ('A' for Active; 'I' for Inactive)
REMARK    1  A    between atoms: C2_2  and  C7_7 
REMARK    2  A    between atoms: C3_3  and  C8_8 
REMARK    3  A    between atoms: C7_7  and  C8_8 
ROOT
HETATM    1  C3  UNL     1     -33.756   7.561   4.741  1.00 20.00    -0.024 C 
HETATM    2  C4  UNL     1     -32.824   8.411   4.268  1.00 20.00    -0.091 C 
HETATM    3  C5  UNL     1     -32.641   8.592   2.784  1.00 20.00     0.042 C 
HETATM    4  C6  UNL     1     -31.905   9.248   5.112  1.00 20.00     0.042 C 
ENDROOT
BRANCH   1   5
HETATM    5  C8  UNL     1     -34.066   7.231   6.175  1.00 20.00     0.031 C 
BRANCH   5   6
HETATM    6  C7  UNL     1     -34.483   5.770   6.365  1.00 20.00     0.030 C 
BRANCH   6   7
HETATM    7  C2  UNL     1     -34.849   5.101   5.071  1.00 20.00    -0.037 C 
HETATM    8  C1  UNL     1     -34.028   4.298   4.386  1.00 20.00     0.007 C 
ENDBRANCH   6   7
ENDBRANCH   5   6
ENDBRANCH   1   5
TORSDOF 3
ENDMDL
MODEL 6
REMARK VINA RESULT:      -4.3      0.826      1.118
REMARK  3 active torsions:
REMARK  status: ('A' for Active; 'I' for Inactive)
REMARK    1  A    between atoms: C2_2  and  C7_7 
REMARK    2  A    between atoms: C3_3  and  C8_8 
REMARK    3  A    between atoms: C7_7  and  C8_8 
ROOT
HETATM    1  C3  UNL     1     -33.582   7.343   5.722  1.00 20.00    -0.024 C 
HETATM    2  C4  UNL     1     -34.382   6.274   5.547  1.00 20.00    -0.091 C 
HETATM    3  C5  UNL     1     -34.624   5.310   6.679  1.00 20.00     0.042 C 
HETATM    4  C6  UNL     1     -35.105   5.929   4.276  1.00 20.00     0.042 C 
ENDROOT
BRANCH   1   5
HETATM    5  C8  UNL     1     -33.204   8.392   4.713  1.00 20.00     0.031 C 
BRANCH   5   6
HETATM    6  C7  UNL     1     -32.045   7.951   3.813  1.00 20.00     0.030 C 
BRANCH   6   7
HETATM    7  C2  UNL     1     -32.348   8.131   2.353  1.00 20.00    -0.037 C 
HETATM    8  C1  UNL     1     -32.793   9.271   1.815  1.00 20.00     0.007 C 
ENDBRANCH   6   7
ENDBRANCH   5   6
ENDBRANCH   1   5
TORSDOF 3
ENDMDL
MODEL 7
REMARK VINA RESULT:      -4.0      1.211      3.611
REMARK  3 active torsions:
REMARK  status: ('A' for Active; 'I' for Inactive)
REMARK    1  A    between atoms: C2_2  and  C7_7 
REMARK    2  A    between atoms: C3_3  and  C8_8 
REMARK    3  A    between atoms: C7_7  and  C8_8 
ROOT
HETATM    1  C3  UNL     1     -34.290   5.053   3.852  1.00 20.00    -0.024 C 
HETATM    2  C4  UNL     1     -33.244   5.382   3.069  1.00 20.00    -0.091 C 
HETATM    3  C5  UNL     1     -32.585   4.340   2.203  1.00 20.00     0.042 C 
HETATM    4  C6  UNL     1     -32.642   6.753   2.955  1.00 20.00     0.042 C 
ENDROOT
BRANCH   1   5
HETATM    5  C8  UNL     1     -35.055   5.941   4.795  1.00 20.00     0.031 C 
BRANCH   5   6
HETATM    6  C7  UNL     1     -34.454   5.959   6.204  1.00 20.00     0.030 C 
BRANCH   6   7
HETATM    7  C2  UNL     1     -33.676   7.213   6.483  1.00 20.00    -0.037 C 
HETATM    8  C1  UNL     1     -33.708   8.302   5.708  1.00 20.00     0.007 C 
ENDBRANCH   6   7
ENDBRANCH   5   6
ENDBRANCH   1   5
TORSDOF 3
ENDMDL
MODEL 8
REMARK VINA RESULT:      -4.0      1.238      4.166
REMARK  3 active torsions:
REMARK  status: ('A' for Active; 'I' for Inactive)
REMARK    1  A    between atoms: C2_2  and  C7_7 
REMARK    2  A    between atoms: C3_3  and  C8_8 
REMARK    3  A    between atoms: C7_7  and  C8_8 
ROOT
HETATM    1  C3  UNL     1     -32.963   6.768   3.904  1.00 20.00    -0.024 C 
HETATM    2  C4  UNL     1     -32.496   7.894   3.330  1.00 20.00    -0.091 C 
HETATM    3  C5  UNL     1     -32.276   9.134   4.156  1.00 20.00     0.042 C 
HETATM    4  C6  UNL     1     -32.144   8.046   1.878  1.00 20.00     0.042 C 
ENDROOT
BRANCH   1   5
HETATM    5  C8  UNL     1     -33.267   5.451   3.245  1.00 20.00     0.031 C 
BRANCH   5   6
HETATM    6  C7  UNL     1     -34.092   4.522   4.141  1.00 20.00     0.030 C 
BRANCH   6   7
HETATM    7  C2  UNL     1     -34.926   5.273   5.139  1.00 20.00    -0.037 C 
HETATM    8  C1  UNL     1     -34.599   5.421   6.427  1.00 20.00     0.007 C 
ENDBRANCH   6   7
ENDBRANCH   5   6
ENDBRANCH   1   5
TORSDOF 3
ENDMDL
MODEL 9
REMARK VINA RESULT:      -3.9      1.099      2.158
REMARK  3 active torsions:
REMARK  status: ('A' for Active; 'I' for Inactive)
REMARK    1  A    between atoms: C2_2  and  C7_7 
REMARK    2  A    between atoms: C3_3  and  C8_8 
REMARK    3  A    between atoms: C7_7  and  C8_8 
ROOT
HETATM    1  C3  UNL     1     -33.342   5.318   4.158  1.00 20.00    -0.024 C 
HETATM    2  C4  UNL     1     -34.495   5.521   4.824  1.00 20.00    -0.091 C 
HETATM    3  C5  UNL     1     -34.605   5.162   6.282  1.00 20.00     0.042 C 
HETATM    4  C6  UNL     1     -35.746   6.109   4.235  1.00 20.00     0.042 C 
ENDROOT
BRANCH   1   5
HETATM    5  C8  UNL     1     -33.051   5.589   2.707  1.00 20.00     0.031 C 
BRANCH   5   6
HETATM    6  C7  UNL     1     -32.477   6.990   2.474  1.00 20.00     0.030 C 
BRANCH   6   7
HETATM    7  C2  UNL     1     -32.008   7.640   3.744  1.00 20.00    -0.037 C 
HETATM    8  C1  UNL     1     -32.527   8.766   4.244  1.00 20.00     0.007 C 
ENDBRANCH   6   7
ENDBRANCH   5   6
ENDBRANCH   1   5
TORSDOF 3
ENDMDL
