MODEL 1
REMARK VINA RESULT:      -5.5      0.000      0.000
REMARK  4 active torsions:
REMARK  status: ('A' for Active; 'I' for Inactive)
REMARK    1  A    between atoms: C6_6  and  C8_8 
REMARK    2  A    between atoms: C8_8  and  C10_10 
REMARK    3  A    between atoms: C9_9  and  C11_11 
REMARK    4  A    between atoms: C10_10  and  C11_11 
ROOT
HETATM    1  C1  UNL     1     -34.844   5.154   5.718  1.00 20.00     0.000 A 
HETATM    2  C2  UNL     1     -34.437   5.219   4.385  1.00 20.00     0.001 A 
HETATM    3  C3  UNL     1     -34.523   6.190   6.596  1.00 20.00     0.001 A 
HETATM    4  C4  UNL     1     -33.708   6.318   3.930  1.00 20.00     0.007 A 
HETATM    5  C5  UNL     1     -33.796   7.289   6.142  1.00 20.00     0.007 A 
HETATM    6  C6  UNL     1     -33.388   7.353   4.809  1.00 20.00    -0.058 A 
ENDROOT
BRANCH   6   7
HETATM    7  C8  UNL     1     -32.606   8.535   4.321  1.00 20.00     0.038 C 
BRANCH   7   8
HETATM    8  C10 UNL     1     -32.338   8.508   2.813  1.00 20.00     0.005 C 
BRANCH   8   9
HETATM    9  C11 UNL     1     -32.951   9.699   2.070  1.00 20.00    -0.000 C 
BRANCH   9  10
HETATM   10  C9  UNL     1     -32.827   9.529   0.555  1.00 20.00    -0.005 C 
HETATM   11  C7  UNL     1     -32.049   8.273   0.197  1.00 20.00     0.005 C 
ENDBRANCH   9  10
ENDBRANCH   8   9
ENDBRANCH   7   8
ENDBRANCH   6   7
TORSDOF 4
ENDMDL
MODEL 2
REMARK VINA RESULT:      -5.5      0.066      1.459
REMARK  4 active torsions:
REMARK  status: ('A' for Active; 'I' for Inactive)
REMARK    1  A    between atoms: C6_6  and  C8_8 
REMARK    2  A    between atoms: C8_8  and  C10_10 
REMARK    3  A    between atoms: C9_9  and  C11_11 
REMARK    4  A    between atoms: C10_10  and  C11_11 
ROOT
HETATM    1  C1  UNL     1     -34.821   5.131   5.743  1.00 20.00     0.000 A 
HETATM    2  C2  UNL     1     -34.523   6.168   6.626  1.00 20.00     0.001 A 
HETATM    3  C3  UNL     1     -34.405   5.205   4.413  1.00 20.00     0.001 A 
HETATM    4  C4  UNL     1     -33.809   7.281   6.180  1.00 20.00     0.007 A 
HETATM    5  C5  UNL     1     -33.692   6.317   3.967  1.00 20.00     0.007 A 
HETATM    6  C6  UNL     1     -33.394   7.354   4.850  1.00 20.00    -0.058 A 
ENDROOT
BRANCH   6   7
HETATM    7  C8  UNL     1     -32.627   8.550   4.369  1.00 20.00     0.038 C 
BRANCH   7   8
HETATM    8  C10 UNL     1     -32.307   8.506   2.872  1.00 20.00     0.005 C 
BRANCH   8   9
HETATM    9  C11 UNL     1     -32.951   9.650   2.083  1.00 20.00    -0.000 C 
BRANCH   9  10
HETATM   10  C9  UNL     1     -32.809   9.432   0.575  1.00 20.00    -0.005 C 
HETATM   11  C7  UNL     1     -31.954   8.214   0.267  1.00 20.00     0.005 C 
ENDBRANCH   9  10
ENDBRANCH   8   9
ENDBRANCH   7   8
ENDBRANCH   6   7
TORSDOF 4
ENDMDL
MODEL 3
REMARK VINA RESULT:      -5.3      0.660      1.702
REMARK  4 active torsions:
REMARK  status: ('A' for Active; 'I' for Inactive)
REMARK    1  A    between atoms: C6_6  and  C8_8 
REMARK    2  A    between atoms: C8_8  and  C10_10 
REMARK    3  A    between atoms: C9_9  and  C11_11 
REMARK    4  A    between atoms: C10_10  and  C11_11 
ROOT
HETATM    1  C1  UNL     1     -34.620   6.122   6.498  1.00 20.00     0.000 A 
HETATM    2  C2  UNL     1     -34.737   5.040   5.625  1.00 20.00     0.001 A 
HETATM    3  C3  UNL     1     -33.907   7.257   6.111  1.00 20.00     0.001 A 
HETATM    4  C4  UNL     1     -34.140   5.094   4.365  1.00 20.00     0.007 A 
HETATM    5  C5  UNL     1     -33.311   7.311   4.852  1.00 20.00     0.007 A 
HETATM    6  C6  UNL     1     -33.427   6.229   3.979  1.00 20.00    -0.058 A 
ENDROOT
BRANCH   6   7
HETATM    7  C8  UNL     1     -32.786   6.288   2.625  1.00 20.00     0.038 C 
BRANCH   7   8
HETATM    8  C10 UNL     1     -32.105   7.628   2.331  1.00 20.00     0.005 C 
BRANCH   8   9
HETATM    9  C11 UNL     1     -31.987   7.930   0.834  1.00 20.00    -0.000 C 
BRANCH   9  10
HETATM   10  C9  UNL     1     -32.721   9.222   0.471  1.00 20.00    -0.005 C 
HETATM   11  C7  UNL     1     -33.071  10.031   1.709  1.00 20.00     0.005 C 
ENDBRANCH   9  10
ENDBRANCH   8   9
ENDBRANCH   7   8
ENDBRANCH   6   7
TORSDOF 4
ENDMDL
MODEL 4
REMARK VINA RESULT:      -5.2      0.841      4.950
REMARK  4 active torsions:
REMARK  status: ('A' for Active; 'I' for Inactive)
REMARK    1  A    between atoms: C6_6  and  C8_8 
REMARK    2  A    between atoms: C8_8  and  C10_10 
REMARK    3  A    between atoms: C9_9  and  C11_11 
REMARK    4  A    between atoms: C10_10  and  C11_11 
ROOT
HETATM    1  C1  UNL     1     -32.457   8.736   0.633  1.00 20.00     0.000 A 
HETATM    2  C2  UNL     1     -32.882   9.810   1.415  1.00 20.00     0.001 A 
HETATM    3  C3  UNL     1     -32.072   7.540   1.239  1.00 20.00     0.001 A 
HETATM    4  C4  UNL     1     -32.921   9.688   2.805  1.00 20.00     0.007 A 
HETATM    5  C5  UNL     1     -32.111   7.418   2.627  1.00 20.00     0.007 A 
HETATM    6  C6  UNL     1     -32.535   8.492   3.410  1.00 20.00    -0.058 A 
ENDROOT
BRANCH   6   7
HETATM    7  C8  UNL     1     -32.577   8.360   4.903  1.00 20.00     0.038 C 
BRANCH   7   8
HETATM    8  C10 UNL     1     -33.938   7.901   5.436  1.00 20.00     0.005 C 
BRANCH   8   9
HETATM    9  C11 UNL     1     -33.839   6.720   6.407  1.00 20.00    -0.000 C 
BRANCH   9  10
HETATM   10  C9  UNL     1     -34.803   5.599   6.015  1.00 20.00    -0.005 C 
HETATM   11  C7  UNL     1     -34.491   5.054   4.632  1.00 20.00     0.005 C 
ENDBRANCH   9  10
ENDBRANCH   8   9
ENDBRANCH   7   8
ENDBRANCH   6   7
TORSDOF 4
ENDMDL
MODEL 5
REMARK VINA RESULT:      -4.7      1.536      1.834
REMARK  4 active torsions:
REMARK  status: ('A' for Active; 'I' for Inactive)
REMARK    1  A    between atoms: C6_6  and  C8_8 
REMARK    2  A    between atoms: C8_8  and  C10_10 
REMARK    3  A    between atoms: C9_9  and  C11_11 
REMARK    4  A    between atoms: C10_10  and  C11_11 
ROOT
HETATM    1  C1  UNL     1     -35.085   5.003   5.747  1.00 20.00     0.000 A 
HETATM    2  C2  UNL     1     -35.445   5.836   4.687  1.00 20.00     0.001 A 
HETATM    3  C3  UNL     1     -34.108   5.414   6.655  1.00 20.00     0.001 A 
HETATM    4  C4  UNL     1     -34.829   7.078   4.535  1.00 20.00     0.007 A 
HETATM    5  C5  UNL     1     -33.493   6.656   6.504  1.00 20.00     0.007 A 
HETATM    6  C6  UNL     1     -33.854   7.488   5.444  1.00 20.00    -0.058 A 
ENDROOT
BRANCH   6   7
HETATM    7  C8  UNL     1     -33.192   8.823   5.281  1.00 20.00     0.038 C 
BRANCH   7   8
HETATM    8  C10 UNL     1     -32.517   9.007   3.918  1.00 20.00     0.005 C 
BRANCH   8   9
HETATM    9  C11 UNL     1     -31.651   7.812   3.507  1.00 20.00    -0.000 C 
BRANCH   9  10
HETATM   10  C9  UNL     1     -32.187   7.151   2.236  1.00 20.00    -0.005 C 
HETATM   11  C7  UNL     1     -32.590   5.707   2.486  1.00 20.00     0.005 C 
ENDBRANCH   9  10
ENDBRANCH   8   9
ENDBRANCH   7   8
ENDBRANCH   6   7
TORSDOF 4
ENDMDL
MODEL 6
REMARK VINA RESULT:      -4.4     10.934     11.749
REMARK  4 active torsions:
REMARK  status: ('A' for Active; 'I' for Inactive)
REMARK    1  A    between atoms: C6_6  and  C8_8 
REMARK    2  A    between atoms: C8_8  and  C10_10 
REMARK    3  A    between atoms: C9_9  and  C11_11 
REMARK    4  A    between atoms: C10_10  and  C11_11 
ROOT
HETATM    1  C1  UNL     1     -32.236  18.889   1.541  1.00 20.00     0.000 A 
HETATM    2  C2  UNL     1     -33.517  18.543   1.111  1.00 20.00     0.001 A 
HETATM    3  C3  UNL     1     -31.165  18.846   0.648  1.00 20.00     0.001 A 
HETATM    4  C4  UNL     1     -33.727  18.154  -0.212  1.00 20.00     0.007 A 
HETATM    5  C5  UNL     1     -31.375  18.458  -0.674  1.00 20.00     0.007 A 
HETATM    6  C6  UNL     1     -32.656  18.112  -1.104  1.00 20.00    -0.058 A 
ENDROOT
BRANCH   6   7
HETATM    7  C8  UNL     1     -32.881  17.695  -2.526  1.00 20.00     0.038 C 
BRANCH   7   8
HETATM    8  C10 UNL     1     -33.561  16.329  -2.660  1.00 20.00     0.005 C 
BRANCH   8   9
HETATM    9  C11 UNL     1     -33.101  15.543  -3.892  1.00 20.00    -0.000 C 
BRANCH   9  10
HETATM   10  C9  UNL     1     -34.082  14.419  -4.229  1.00 20.00    -0.005 C 
HETATM   11  C7  UNL     1     -35.052  14.835  -5.323  1.00 20.00     0.005 C 
ENDBRANCH   9  10
ENDBRANCH   8   9
ENDBRANCH   7   8
ENDBRANCH   6   7
TORSDOF 4
ENDMDL
MODEL 7
REMARK VINA RESULT:      -4.3     11.180     12.256
REMARK  4 active torsions:
REMARK  status: ('A' for Active; 'I' for Inactive)
REMARK    1  A    between atoms: C6_6  and  C8_8 
REMARK    2  A    between atoms: C8_8  and  C10_10 
REMARK    3  A    between atoms: C9_9  and  C11_11 
REMARK    4  A    between atoms: C10_10  and  C11_11 
ROOT
HETATM    1  C1  UNL     1     -34.834  15.262  -5.558  1.00 20.00     0.000 A 
HETATM    2  C2  UNL     1     -33.834  14.663  -4.792  1.00 20.00     0.001 A 
HETATM    3  C3  UNL     1     -35.218  16.578  -5.299  1.00 20.00     0.001 A 
HETATM    4  C4  UNL     1     -33.219  15.380  -3.765  1.00 20.00     0.007 A 
HETATM    5  C5  UNL     1     -34.603  17.295  -4.274  1.00 20.00     0.007 A 
HETATM    6  C6  UNL     1     -33.603  16.696  -3.507  1.00 20.00    -0.058 A 
ENDROOT
BRANCH   6   7
HETATM    7  C8  UNL     1     -32.942  17.467  -2.404  1.00 20.00     0.038 C 
BRANCH   7   8
HETATM    8  C10 UNL     1     -33.718  17.428  -1.084  1.00 20.00     0.005 C 
BRANCH   8   9
HETATM    9  C11 UNL     1     -33.110  18.323   0.001  1.00 20.00    -0.000 C 
BRANCH   9  10
HETATM   10  C9  UNL     1     -31.617  18.551  -0.244  1.00 20.00    -0.005 C 
HETATM   11  C7  UNL     1     -30.834  18.563   1.058  1.00 20.00     0.005 C 
ENDBRANCH   9  10
ENDBRANCH   8   9
ENDBRANCH   7   8
ENDBRANCH   6   7
TORSDOF 4
ENDMDL
MODEL 8
REMARK VINA RESULT:      -4.0     11.137     12.412
REMARK  4 active torsions:
REMARK  status: ('A' for Active; 'I' for Inactive)
REMARK    1  A    between atoms: C6_6  and  C8_8 
REMARK    2  A    between atoms: C8_8  and  C10_10 
REMARK    3  A    between atoms: C9_9  and  C11_11 
REMARK    4  A    between atoms: C10_10  and  C11_11 
ROOT
HETATM    1  C1  UNL     1     -34.282  14.889  -5.376  1.00 20.00     0.000 A 
HETATM    2  C2  UNL     1     -34.801  16.132  -5.736  1.00 20.00     0.001 A 
HETATM    3  C3  UNL     1     -33.532  14.758  -4.207  1.00 20.00     0.001 A 
HETATM    4  C4  UNL     1     -34.571  17.245  -4.927  1.00 20.00     0.007 A 
HETATM    5  C5  UNL     1     -33.303  15.869  -3.398  1.00 20.00     0.007 A 
HETATM    6  C6  UNL     1     -33.822  17.113  -3.758  1.00 20.00    -0.058 A 
ENDROOT
BRANCH   6   7
HETATM    7  C8  UNL     1     -33.574  18.308  -2.887  1.00 20.00     0.038 C 
BRANCH   7   8
HETATM    8  C10 UNL     1     -34.297  18.240  -1.538  1.00 20.00     0.005 C 
BRANCH   8   9
HETATM    9  C11 UNL     1     -33.342  18.139  -0.345  1.00 20.00    -0.000 C 
BRANCH   9  10
HETATM   10  C9  UNL     1     -31.892  18.366  -0.777  1.00 20.00    -0.005 C 
HETATM   11  C7  UNL     1     -30.981  18.583   0.421  1.00 20.00     0.005 C 
ENDBRANCH   9  10
ENDBRANCH   8   9
ENDBRANCH   7   8
ENDBRANCH   6   7
TORSDOF 4
ENDMDL
MODEL 9
REMARK VINA RESULT:      -4.0     10.958     12.565
REMARK  4 active torsions:
REMARK  status: ('A' for Active; 'I' for Inactive)
REMARK    1  A    between atoms: C6_6  and  C8_8 
REMARK    2  A    between atoms: C8_8  and  C10_10 
REMARK    3  A    between atoms: C9_9  and  C11_11 
REMARK    4  A    between atoms: C10_10  and  C11_11 
ROOT
HETATM    1  C1  UNL     1     -33.959  19.145  -2.022  1.00 20.00     0.000 A 
HETATM    2  C2  UNL     1     -33.856  17.974  -1.272  1.00 20.00     0.001 A 
HETATM    3  C3  UNL     1     -33.741  19.113  -3.400  1.00 20.00     0.001 A 
HETATM    4  C4  UNL     1     -33.536  16.770  -1.899  1.00 20.00     0.007 A 
HETATM    5  C5  UNL     1     -33.421  17.910  -4.027  1.00 20.00     0.007 A 
HETATM    6  C6  UNL     1     -33.319  16.738  -3.277  1.00 20.00    -0.058 A 
ENDROOT
BRANCH   6   7
HETATM    7  C8  UNL     1     -32.975  15.445  -3.952  1.00 20.00     0.038 C 
BRANCH   7   8
HETATM    8  C10 UNL     1     -34.182  14.524  -4.156  1.00 20.00     0.005 C 
BRANCH   8   9
HETATM    9  C11 UNL     1     -34.979  14.845  -5.424  1.00 20.00    -0.000 C 
BRANCH   9  10
HETATM   10  C9  UNL     1     -34.048  15.161  -6.597  1.00 20.00    -0.005 C 
HETATM   11  C7  UNL     1     -34.556  16.341  -7.408  1.00 20.00     0.005 C 
ENDBRANCH   9  10
ENDBRANCH   8   9
ENDBRANCH   7   8
ENDBRANCH   6   7
TORSDOF 4
ENDMDL
