MODEL 1
REMARK VINA RESULT:      -5.2      0.000      0.000
REMARK  1 active torsions:
REMARK  status: ('A' for Active; 'I' for Inactive)
REMARK    1  A    between atoms: C6_6  and  O8_8 
ROOT
HETATM    1  C1  UNL     1     -34.801   5.375   6.071  1.00 20.00     0.000 A 
HETATM    2  C2  UNL     1     -34.535   5.022   4.747  1.00 20.00     0.003 A 
HETATM    3  C3  UNL     1     -34.350   6.596   6.572  1.00 20.00     0.003 A 
HETATM    4  C4  UNL     1     -33.817   5.891   3.925  1.00 20.00     0.037 A 
HETATM    5  C5  UNL     1     -33.632   7.464   5.749  1.00 20.00     0.037 A 
HETATM    6  C6  UNL     1     -33.365   7.112   4.426  1.00 20.00     0.068 A 
ENDROOT
BRANCH   6   7
HETATM    7  O8  UNL     1     -32.663   7.959   3.624  1.00 20.00    -0.356 OA
HETATM    8  C7  UNL     1     -32.196   7.439   2.381  1.00 20.00     0.210 C 
ENDBRANCH   6   7
TORSDOF 1
ENDMDL
MODEL 2
REMARK VINA RESULT:      -5.2      0.019      1.709
REMARK  1 active torsions:
REMARK  status: ('A' for Active; 'I' for Inactive)
REMARK    1  A    between atoms: C6_6  and  O8_8 
ROOT
HETATM    1  C1  UNL     1     -34.804   5.372   6.072  1.00 20.00     0.000 A 
HETATM    2  C2  UNL     1     -34.355   6.591   6.582  1.00 20.00     0.003 A 
HETATM    3  C3  UNL     1     -34.535   5.028   4.748  1.00 20.00     0.003 A 
HETATM    4  C4  UNL     1     -33.639   7.466   5.766  1.00 20.00     0.037 A 
HETATM    5  C5  UNL     1     -33.819   5.904   3.932  1.00 20.00     0.037 A 
HETATM    6  C6  UNL     1     -33.370   7.123   4.440  1.00 20.00     0.068 A 
ENDROOT
BRANCH   6   7
HETATM    7  O8  UNL     1     -32.672   7.978   3.643  1.00 20.00    -0.356 OA
HETATM    8  C7  UNL     1     -32.195   7.464   2.401  1.00 20.00     0.210 C 
ENDBRANCH   6   7
TORSDOF 1
ENDMDL
MODEL 3
REMARK VINA RESULT:      -4.8      0.815      1.089
REMARK  1 active torsions:
REMARK  status: ('A' for Active; 'I' for Inactive)
REMARK    1  A    between atoms: C6_6  and  O8_8 
ROOT
HETATM    1  C1  UNL     1     -34.611   6.168   6.475  1.00 20.00     0.000 A 
HETATM    2  C2  UNL     1     -34.727   5.062   5.632  1.00 20.00     0.003 A 
HETATM    3  C3  UNL     1     -33.916   7.299   6.049  1.00 20.00     0.003 A 
HETATM    4  C4  UNL     1     -34.146   5.088   4.364  1.00 20.00     0.037 A 
HETATM    5  C5  UNL     1     -33.336   7.325   4.781  1.00 20.00     0.037 A 
HETATM    6  C6  UNL     1     -33.451   6.220   3.938  1.00 20.00     0.068 A 
ENDROOT
BRANCH   6   7
HETATM    7  O8  UNL     1     -32.883   6.245   2.701  1.00 20.00    -0.356 OA
HETATM    8  C7  UNL     1     -32.117   7.400   2.361  1.00 20.00     0.210 C 
ENDBRANCH   6   7
TORSDOF 1
ENDMDL
MODEL 4
REMARK VINA RESULT:      -4.6      1.559      3.661
REMARK  1 active torsions:
REMARK  status: ('A' for Active; 'I' for Inactive)
REMARK    1  A    between atoms: C6_6  and  O8_8 
ROOT
HETATM    1  C1  UNL     1     -32.177   7.594   2.871  1.00 20.00     0.000 A 
HETATM    2  C2  UNL     1     -32.316   8.531   3.895  1.00 20.00     0.003 A 
HETATM    3  C3  UNL     1     -32.816   6.358   2.965  1.00 20.00     0.003 A 
HETATM    4  C4  UNL     1     -33.094   8.231   5.014  1.00 20.00     0.037 A 
HETATM    5  C5  UNL     1     -33.594   6.058   4.083  1.00 20.00     0.037 A 
HETATM    6  C6  UNL     1     -33.734   6.994   5.107  1.00 20.00     0.068 A 
ENDROOT
BRANCH   6   7
HETATM    7  O8  UNL     1     -34.492   6.701   6.199  1.00 20.00    -0.356 OA
HETATM    8  C7  UNL     1     -34.695   5.320   6.496  1.00 20.00     0.210 C 
ENDBRANCH   6   7
TORSDOF 1
ENDMDL
MODEL 5
REMARK VINA RESULT:      -4.6      1.549      3.284
REMARK  1 active torsions:
REMARK  status: ('A' for Active; 'I' for Inactive)
REMARK    1  A    between atoms: C6_6  and  O8_8 
ROOT
HETATM    1  C1  UNL     1     -32.198   7.557   2.822  1.00 20.00     0.000 A 
HETATM    2  C2  UNL     1     -32.826   6.316   2.929  1.00 20.00     0.003 A 
HETATM    3  C3  UNL     1     -32.342   8.502   3.837  1.00 20.00     0.003 A 
HETATM    4  C4  UNL     1     -33.599   6.020   4.051  1.00 20.00     0.037 A 
HETATM    5  C5  UNL     1     -33.116   8.207   4.959  1.00 20.00     0.037 A 
HETATM    6  C6  UNL     1     -33.744   6.966   5.067  1.00 20.00     0.068 A 
ENDROOT
BRANCH   6   7
HETATM    7  O8  UNL     1     -34.500   6.679   6.162  1.00 20.00    -0.356 OA
HETATM    8  C7  UNL     1     -34.664   5.301   6.495  1.00 20.00     0.210 C 
ENDBRANCH   6   7
TORSDOF 1
ENDMDL
MODEL 6
REMARK VINA RESULT:      -4.6      1.479      2.243
REMARK  1 active torsions:
REMARK  status: ('A' for Active; 'I' for Inactive)
REMARK    1  A    between atoms: C6_6  and  O8_8 
ROOT
HETATM    1  C1  UNL     1     -34.105   7.379   6.553  1.00 20.00     0.000 A 
HETATM    2  C2  UNL     1     -33.473   7.855   5.405  1.00 20.00     0.003 A 
HETATM    3  C3  UNL     1     -34.664   6.101   6.563  1.00 20.00     0.003 A 
HETATM    4  C4  UNL     1     -33.401   7.054   4.265  1.00 20.00     0.037 A 
HETATM    5  C5  UNL     1     -34.592   5.300   5.423  1.00 20.00     0.037 A 
HETATM    6  C6  UNL     1     -33.960   5.776   4.274  1.00 20.00     0.068 A 
ENDROOT
BRANCH   6   7
HETATM    7  O8  UNL     1     -33.892   4.995   3.162  1.00 20.00    -0.356 OA
HETATM    8  C7  UNL     1     -32.741   5.145   2.332  1.00 20.00     0.210 C 
ENDBRANCH   6   7
TORSDOF 1
ENDMDL
MODEL 7
REMARK VINA RESULT:      -4.5      1.582      3.283
REMARK  1 active torsions:
REMARK  status: ('A' for Active; 'I' for Inactive)
REMARK    1  A    between atoms: C6_6  and  O8_8 
ROOT
HETATM    1  C1  UNL     1     -32.174   8.548   3.767  1.00 20.00     0.000 A 
HETATM    2  C2  UNL     1     -32.258   7.421   2.948  1.00 20.00     0.003 A 
HETATM    3  C3  UNL     1     -32.895   8.599   4.959  1.00 20.00     0.003 A 
HETATM    4  C4  UNL     1     -33.064   6.346   3.323  1.00 20.00     0.037 A 
HETATM    5  C5  UNL     1     -33.701   7.525   5.333  1.00 20.00     0.037 A 
HETATM    6  C6  UNL     1     -33.786   6.398   4.516  1.00 20.00     0.068 A 
ENDROOT
BRANCH   6   7
HETATM    7  O8  UNL     1     -34.574   5.349   4.881  1.00 20.00    -0.356 OA
HETATM    8  C7  UNL     1     -34.714   5.098   6.278  1.00 20.00     0.210 C 
ENDBRANCH   6   7
TORSDOF 1
ENDMDL
MODEL 8
REMARK VINA RESULT:      -4.5      1.335      2.039
REMARK  1 active torsions:
REMARK  status: ('A' for Active; 'I' for Inactive)
REMARK    1  A    between atoms: C6_6  and  O8_8 
ROOT
HETATM    1  C1  UNL     1     -33.939   4.553   3.744  1.00 20.00     0.000 A 
HETATM    2  C2  UNL     1     -33.078   5.435   3.091  1.00 20.00     0.003 A 
HETATM    3  C3  UNL     1     -34.625   4.965   4.886  1.00 20.00     0.003 A 
HETATM    4  C4  UNL     1     -32.902   6.729   3.581  1.00 20.00     0.037 A 
HETATM    5  C5  UNL     1     -34.449   6.259   5.377  1.00 20.00     0.037 A 
HETATM    6  C6  UNL     1     -33.588   7.141   4.724  1.00 20.00     0.068 A 
ENDROOT
BRANCH   6   7
HETATM    7  O8  UNL     1     -33.415   8.403   5.204  1.00 20.00    -0.356 OA
HETATM    8  C7  UNL     1     -32.253   9.109   4.773  1.00 20.00     0.210 C 
ENDBRANCH   6   7
TORSDOF 1
ENDMDL
MODEL 9
REMARK VINA RESULT:      -3.6     12.695     13.117
REMARK  1 active torsions:
REMARK  status: ('A' for Active; 'I' for Inactive)
REMARK    1  A    between atoms: C6_6  and  O8_8 
ROOT
HETATM    1  C1  UNL     1     -33.778  17.980  -0.596  1.00 20.00     0.000 A 
HETATM    2  C2  UNL     1     -33.739  18.436   0.722  1.00 20.00     0.003 A 
HETATM    3  C3  UNL     1     -32.612  17.954  -1.360  1.00 20.00     0.003 A 
HETATM    4  C4  UNL     1     -32.533  18.867   1.275  1.00 20.00     0.037 A 
HETATM    5  C5  UNL     1     -31.406  18.385  -0.807  1.00 20.00     0.037 A 
HETATM    6  C6  UNL     1     -31.366  18.841   0.510  1.00 20.00     0.068 A 
ENDROOT
BRANCH   6   7
HETATM    7  O8  UNL     1     -30.190  19.263   1.049  1.00 20.00    -0.356 OA
HETATM    8  C7  UNL     1     -29.982  19.007   2.437  1.00 20.00     0.210 C 
ENDBRANCH   6   7
TORSDOF 1
ENDMDL
