MODEL 1
REMARK VINA RESULT:      -5.1      0.000      0.000
REMARK  0 active torsions:
REMARK  status: ('A' for Active; 'I' for Inactive)
ROOT
HETATM    1  C1  UNL     1     -33.562   7.552   5.521  1.00 20.00     0.000 A 
HETATM    2  C2  UNL     1     -33.442   7.048   4.227  1.00 20.00     0.000 A 
HETATM    3  C3  UNL     1     -34.196   6.797   6.509  1.00 20.00     0.000 A 
HETATM    4  C4  UNL     1     -33.956   5.789   3.919  1.00 20.00     0.000 A 
HETATM    5  C5  UNL     1     -34.709   5.538   6.200  1.00 20.00     0.000 A 
HETATM    6  C6  UNL     1     -34.590   5.033   4.905  1.00 20.00     0.000 A 
ENDROOT
TORSDOF 0
ENDMDL
MODEL 2
REMARK VINA RESULT:      -5.1      0.048      1.973
REMARK  0 active torsions:
REMARK  status: ('A' for Active; 'I' for Inactive)
ROOT
HETATM    1  C1  UNL     1     -34.176   6.799   6.476  1.00 20.00     0.000 A 
HETATM    2  C2  UNL     1     -34.717   5.545   6.192  1.00 20.00     0.000 A 
HETATM    3  C3  UNL     1     -33.533   7.525   5.473  1.00 20.00     0.000 A 
HETATM    4  C4  UNL     1     -34.615   5.017   4.905  1.00 20.00     0.000 A 
HETATM    5  C5  UNL     1     -33.432   6.997   4.186  1.00 20.00     0.000 A 
HETATM    6  C6  UNL     1     -33.972   5.742   3.902  1.00 20.00     0.000 A 
ENDROOT
TORSDOF 0
ENDMDL
MODEL 3
REMARK VINA RESULT:      -5.1      0.006      1.973
REMARK  0 active torsions:
REMARK  status: ('A' for Active; 'I' for Inactive)
ROOT
HETATM    1  C1  UNL     1     -33.558   7.554   5.520  1.00 20.00     0.000 A 
HETATM    2  C2  UNL     1     -34.196   6.800   6.505  1.00 20.00     0.000 A 
HETATM    3  C3  UNL     1     -33.437   7.050   4.224  1.00 20.00     0.000 A 
HETATM    4  C4  UNL     1     -34.711   5.542   6.195  1.00 20.00     0.000 A 
HETATM    5  C5  UNL     1     -33.953   5.792   3.915  1.00 20.00     0.000 A 
HETATM    6  C6  UNL     1     -34.590   5.037   4.901  1.00 20.00     0.000 A 
ENDROOT
TORSDOF 0
ENDMDL
MODEL 4
REMARK VINA RESULT:      -5.1      0.049      1.973
REMARK  0 active torsions:
REMARK  status: ('A' for Active; 'I' for Inactive)
ROOT
HETATM    1  C1  UNL     1     -34.589   4.992   4.921  1.00 20.00     0.000 A 
HETATM    2  C2  UNL     1     -33.962   5.726   3.915  1.00 20.00     0.000 A 
HETATM    3  C3  UNL     1     -34.700   5.522   6.207  1.00 20.00     0.000 A 
HETATM    4  C4  UNL     1     -33.446   6.991   4.194  1.00 20.00     0.000 A 
HETATM    5  C5  UNL     1     -34.185   6.788   6.485  1.00 20.00     0.000 A 
HETATM    6  C6  UNL     1     -33.557   7.522   5.479  1.00 20.00     0.000 A 
ENDROOT
TORSDOF 0
ENDMDL
MODEL 5
REMARK VINA RESULT:      -5.1      0.065      1.973
REMARK  0 active torsions:
REMARK  status: ('A' for Active; 'I' for Inactive)
ROOT
HETATM    1  C1  UNL     1     -34.680   5.488   6.184  1.00 20.00     0.000 A 
HETATM    2  C2  UNL     1     -34.557   4.969   4.896  1.00 20.00     0.000 A 
HETATM    3  C3  UNL     1     -34.185   6.760   6.475  1.00 20.00     0.000 A 
HETATM    4  C4  UNL     1     -33.937   5.720   3.898  1.00 20.00     0.000 A 
HETATM    5  C5  UNL     1     -33.566   7.511   5.476  1.00 20.00     0.000 A 
HETATM    6  C6  UNL     1     -33.442   6.991   4.187  1.00 20.00     0.000 A 
ENDROOT
TORSDOF 0
ENDMDL
MODEL 6
REMARK VINA RESULT:      -5.1      0.034      2.402
REMARK  0 active torsions:
REMARK  status: ('A' for Active; 'I' for Inactive)
ROOT
HETATM    1  C1  UNL     1     -33.967   5.816   3.897  1.00 20.00     0.000 A 
HETATM    2  C2  UNL     1     -34.603   5.040   4.866  1.00 20.00     0.000 A 
HETATM    3  C3  UNL     1     -33.444   7.064   4.235  1.00 20.00     0.000 A 
HETATM    4  C4  UNL     1     -34.717   5.513   6.173  1.00 20.00     0.000 A 
HETATM    5  C5  UNL     1     -33.557   7.537   5.542  1.00 20.00     0.000 A 
HETATM    6  C6  UNL     1     -34.194   6.761   6.511  1.00 20.00     0.000 A 
ENDROOT
TORSDOF 0
ENDMDL
MODEL 7
REMARK VINA RESULT:      -5.0      0.036      1.383
REMARK  0 active torsions:
REMARK  status: ('A' for Active; 'I' for Inactive)
ROOT
HETATM    1  C1  UNL     1     -33.448   7.048   4.206  1.00 20.00     0.000 A 
HETATM    2  C2  UNL     1     -33.961   5.792   3.884  1.00 20.00     0.000 A 
HETATM    3  C3  UNL     1     -33.562   7.535   5.508  1.00 20.00     0.000 A 
HETATM    4  C4  UNL     1     -34.590   5.023   4.863  1.00 20.00     0.000 A 
HETATM    5  C5  UNL     1     -34.190   6.766   6.488  1.00 20.00     0.000 A 
HETATM    6  C6  UNL     1     -34.704   5.510   6.165  1.00 20.00     0.000 A 
ENDROOT
TORSDOF 0
ENDMDL
MODEL 8
REMARK VINA RESULT:      -5.0      0.083      2.425
REMARK  0 active torsions:
REMARK  status: ('A' for Active; 'I' for Inactive)
ROOT
HETATM    1  C1  UNL     1     -34.689   5.454   6.159  1.00 20.00     0.000 A 
HETATM    2  C2  UNL     1     -34.209   6.725   6.474  1.00 20.00     0.000 A 
HETATM    3  C3  UNL     1     -34.542   4.953   4.865  1.00 20.00     0.000 A 
HETATM    4  C4  UNL     1     -33.582   7.496   5.495  1.00 20.00     0.000 A 
HETATM    5  C5  UNL     1     -33.914   5.724   3.887  1.00 20.00     0.000 A 
HETATM    6  C6  UNL     1     -33.434   6.996   4.202  1.00 20.00     0.000 A 
ENDROOT
TORSDOF 0
ENDMDL
MODEL 9
REMARK VINA RESULT:      -4.5      0.675      2.060
REMARK  0 active torsions:
REMARK  status: ('A' for Active; 'I' for Inactive)
ROOT
HETATM    1  C1  UNL     1     -32.888   6.709   3.664  1.00 20.00     0.000 A 
HETATM    2  C2  UNL     1     -33.125   7.573   4.733  1.00 20.00     0.000 A 
HETATM    3  C3  UNL     1     -33.540   5.477   3.605  1.00 20.00     0.000 A 
HETATM    4  C4  UNL     1     -34.014   7.205   5.743  1.00 20.00     0.000 A 
HETATM    5  C5  UNL     1     -34.429   5.110   4.614  1.00 20.00     0.000 A 
HETATM    6  C6  UNL     1     -34.666   5.974   5.684  1.00 20.00     0.000 A 
ENDROOT
TORSDOF 0
ENDMDL
