MODEL 1
REMARK VINA RESULT:      -4.9      0.000      0.000
REMARK  2 active torsions:
REMARK  status: ('A' for Active; 'I' for Inactive)
REMARK    1  A    between atoms: C6_6  and  C7_7 
REMARK    2  A    between atoms: C7_7  and  S8_8 
ROOT
HETATM    1  C1  UNL     1     -34.808   5.270   5.940  1.00 20.00     0.000 A 
HETATM    2  C2  UNL     1     -34.476   5.084   4.598  1.00 20.00     0.001 A 
HETATM    3  C3  UNL     1     -34.429   6.440   6.597  1.00 20.00     0.001 A 
HETATM    4  C4  UNL     1     -33.763   6.068   3.912  1.00 20.00     0.008 A 
HETATM    5  C5  UNL     1     -33.716   7.425   5.911  1.00 20.00     0.008 A 
HETATM    6  C6  UNL     1     -33.384   7.239   4.571  1.00 20.00    -0.049 A 
ENDROOT
BRANCH   6   7
HETATM    7  C7  UNL     1     -32.622   8.292   3.838  1.00 20.00     0.109 C 
BRANCH   7   8
HETATM    8  S8  UNL     1     -32.218   7.800   2.134  1.00 20.00    -0.178 SA
HETATM    9  H16 UNL     1     -32.481   6.497   2.300  1.00 20.00     0.101 HD
ENDBRANCH   7   8
ENDBRANCH   6   7
TORSDOF 2
ENDMDL
MODEL 2
REMARK VINA RESULT:      -4.9      0.048      1.709
REMARK  2 active torsions:
REMARK  status: ('A' for Active; 'I' for Inactive)
REMARK    1  A    between atoms: C6_6  and  C7_7 
REMARK    2  A    between atoms: C7_7  and  S8_8 
ROOT
HETATM    1  C1  UNL     1     -34.803   5.327   5.951  1.00 20.00     0.000 A 
HETATM    2  C2  UNL     1     -34.410   6.501   6.594  1.00 20.00     0.001 A 
HETATM    3  C3  UNL     1     -34.471   5.120   4.612  1.00 20.00     0.001 A 
HETATM    4  C4  UNL     1     -33.687   7.470   5.897  1.00 20.00     0.008 A 
HETATM    5  C5  UNL     1     -33.748   6.089   3.915  1.00 20.00     0.008 A 
HETATM    6  C6  UNL     1     -33.356   7.262   4.557  1.00 20.00    -0.049 A 
ENDROOT
BRANCH   6   7
HETATM    7  C7  UNL     1     -32.582   8.298   3.813  1.00 20.00     0.109 C 
BRANCH   7   8
HETATM    8  S8  UNL     1     -32.241   7.809   2.094  1.00 20.00    -0.178 SA
HETATM    9  H16 UNL     1     -30.936   8.115   2.120  1.00 20.00     0.101 HD
ENDBRANCH   7   8
ENDBRANCH   6   7
TORSDOF 2
ENDMDL
MODEL 3
REMARK VINA RESULT:      -4.0      2.240      3.903
REMARK  2 active torsions:
REMARK  status: ('A' for Active; 'I' for Inactive)
REMARK    1  A    between atoms: C6_6  and  C7_7 
REMARK    2  A    between atoms: C7_7  and  S8_8 
ROOT
HETATM    1  C1  UNL     1     -32.130   8.456   3.310  1.00 20.00     0.000 A 
HETATM    2  C2  UNL     1     -32.821   8.555   4.519  1.00 20.00     0.001 A 
HETATM    3  C3  UNL     1     -32.209   7.286   2.556  1.00 20.00     0.001 A 
HETATM    4  C4  UNL     1     -33.590   7.483   4.973  1.00 20.00     0.008 A 
HETATM    5  C5  UNL     1     -32.977   6.214   3.010  1.00 20.00     0.008 A 
HETATM    6  C6  UNL     1     -33.667   6.312   4.217  1.00 20.00    -0.049 A 
ENDROOT
BRANCH   6   7
HETATM    7  C7  UNL     1     -34.489   5.165   4.702  1.00 20.00     0.109 C 
BRANCH   7   8
HETATM    8  S8  UNL     1     -34.694   5.172   6.510  1.00 20.00    -0.178 SA
HETATM    9  H16 UNL     1     -34.220   6.411   6.698  1.00 20.00     0.101 HD
ENDBRANCH   7   8
ENDBRANCH   6   7
TORSDOF 2
ENDMDL
MODEL 4
REMARK VINA RESULT:      -4.0      2.239      3.524
REMARK  2 active torsions:
REMARK  status: ('A' for Active; 'I' for Inactive)
REMARK    1  A    between atoms: C6_6  and  C7_7 
REMARK    2  A    between atoms: C7_7  and  S8_8 
ROOT
HETATM    1  C1  UNL     1     -32.128   8.480   3.320  1.00 20.00     0.000 A 
HETATM    2  C2  UNL     1     -32.213   7.315   2.558  1.00 20.00     0.001 A 
HETATM    3  C3  UNL     1     -32.813   8.573   4.532  1.00 20.00     0.001 A 
HETATM    4  C4  UNL     1     -32.985   6.242   3.006  1.00 20.00     0.008 A 
HETATM    5  C5  UNL     1     -33.584   7.500   4.980  1.00 20.00     0.008 A 
HETATM    6  C6  UNL     1     -33.670   6.336   4.219  1.00 20.00    -0.049 A 
ENDROOT
BRANCH   6   7
HETATM    7  C7  UNL     1     -34.494   5.189   4.699  1.00 20.00     0.109 C 
BRANCH   7   8
HETATM    8  S8  UNL     1     -34.684   5.178   6.508  1.00 20.00    -0.178 SA
HETATM    9  H16 UNL     1     -35.457   6.270   6.573  1.00 20.00     0.101 HD
ENDBRANCH   7   8
ENDBRANCH   6   7
TORSDOF 2
ENDMDL
MODEL 5
REMARK VINA RESULT:      -3.7      1.254      1.614
REMARK  2 active torsions:
REMARK  status: ('A' for Active; 'I' for Inactive)
REMARK    1  A    between atoms: C6_6  and  C7_7 
REMARK    2  A    between atoms: C7_7  and  S8_8 
ROOT
HETATM    1  C1  UNL     1     -34.676   6.430   6.710  1.00 20.00     0.000 A 
HETATM    2  C2  UNL     1     -34.851   5.367   5.823  1.00 20.00     0.001 A 
HETATM    3  C3  UNL     1     -33.885   7.519   6.345  1.00 20.00     0.001 A 
HETATM    4  C4  UNL     1     -34.235   5.393   4.572  1.00 20.00     0.008 A 
HETATM    5  C5  UNL     1     -33.269   7.546   5.094  1.00 20.00     0.008 A 
HETATM    6  C6  UNL     1     -33.443   6.484   4.208  1.00 20.00    -0.049 A 
ENDROOT
BRANCH   6   7
HETATM    7  C7  UNL     1     -32.784   6.512   2.870  1.00 20.00     0.109 C 
BRANCH   7   8
HETATM    8  S8  UNL     1     -32.889   4.914   2.008  1.00 20.00    -0.178 SA
HETATM    9  H16 UNL     1     -34.147   4.639   2.380  1.00 20.00     0.101 HD
ENDBRANCH   7   8
ENDBRANCH   6   7
TORSDOF 2
ENDMDL
MODEL 6
REMARK VINA RESULT:      -3.5      1.306      2.669
REMARK  2 active torsions:
REMARK  status: ('A' for Active; 'I' for Inactive)
REMARK    1  A    between atoms: C6_6  and  C7_7 
REMARK    2  A    between atoms: C7_7  and  S8_8 
ROOT
HETATM    1  C1  UNL     1     -33.812   8.090   6.340  1.00 20.00     0.000 A 
HETATM    2  C2  UNL     1     -34.401   6.898   6.764  1.00 20.00     0.001 A 
HETATM    3  C3  UNL     1     -33.288   8.189   5.052  1.00 20.00     0.001 A 
HETATM    4  C4  UNL     1     -34.465   5.805   5.899  1.00 20.00     0.008 A 
HETATM    5  C5  UNL     1     -33.352   7.097   4.187  1.00 20.00     0.008 A 
HETATM    6  C6  UNL     1     -33.940   5.906   4.610  1.00 20.00    -0.049 A 
ENDROOT
BRANCH   6   7
HETATM    7  C7  UNL     1     -34.008   4.737   3.685  1.00 20.00     0.109 C 
BRANCH   7   8
HETATM    8  S8  UNL     1     -32.916   4.927   2.242  1.00 20.00    -0.178 SA
HETATM    9  H16 UNL     1     -32.249   3.779   2.423  1.00 20.00     0.101 HD
ENDBRANCH   7   8
ENDBRANCH   6   7
TORSDOF 2
ENDMDL
MODEL 7
REMARK VINA RESULT:      -3.4     16.049     16.444
REMARK  2 active torsions:
REMARK  status: ('A' for Active; 'I' for Inactive)
REMARK    1  A    between atoms: C6_6  and  C7_7 
REMARK    2  A    between atoms: C7_7  and  S8_8 
ROOT
HETATM    1  C1  UNL     1     -22.824  18.519   8.295  1.00 20.00     0.000 A 
HETATM    2  C2  UNL     1     -23.982  19.263   8.525  1.00 20.00     0.001 A 
HETATM    3  C3  UNL     1     -22.401  17.579   9.235  1.00 20.00     0.001 A 
HETATM    4  C4  UNL     1     -24.716  19.068   9.695  1.00 20.00     0.008 A 
HETATM    5  C5  UNL     1     -23.135  17.385  10.405  1.00 20.00     0.008 A 
HETATM    6  C6  UNL     1     -24.292  18.128  10.636  1.00 20.00    -0.049 A 
ENDROOT
BRANCH   6   7
HETATM    7  C7  UNL     1     -25.076  17.919  11.887  1.00 20.00     0.109 C 
BRANCH   7   8
HETATM    8  S8  UNL     1     -26.262  19.263  12.197  1.00 20.00    -0.178 SA
HETATM    9  H16 UNL     1     -25.413  20.263  11.925  1.00 20.00     0.101 HD
ENDBRANCH   7   8
ENDBRANCH   6   7
TORSDOF 2
ENDMDL
MODEL 8
REMARK VINA RESULT:      -3.3     16.180     17.036
REMARK  2 active torsions:
REMARK  status: ('A' for Active; 'I' for Inactive)
REMARK    1  A    between atoms: C6_6  and  C7_7 
REMARK    2  A    between atoms: C7_7  and  S8_8 
ROOT
HETATM    1  C1  UNL     1     -24.644  18.428  11.808  1.00 20.00     0.000 A 
HETATM    2  C2  UNL     1     -23.344  18.267  12.288  1.00 20.00     0.001 A 
HETATM    3  C3  UNL     1     -24.857  18.778  10.475  1.00 20.00     0.001 A 
HETATM    4  C4  UNL     1     -22.257  18.458  11.436  1.00 20.00     0.008 A 
HETATM    5  C5  UNL     1     -23.769  18.969   9.622  1.00 20.00     0.008 A 
HETATM    6  C6  UNL     1     -22.470  18.809  10.102  1.00 20.00    -0.049 A 
ENDROOT
BRANCH   6   7
HETATM    7  C7  UNL     1     -21.308  19.013   9.190  1.00 20.00     0.109 C 
BRANCH   7   8
HETATM    8  S8  UNL     1     -21.393  17.962   7.708  1.00 20.00    -0.178 SA
HETATM    9  H16 UNL     1     -21.462  18.970   6.828  1.00 20.00     0.101 HD
ENDBRANCH   7   8
ENDBRANCH   6   7
TORSDOF 2
ENDMDL
MODEL 9
REMARK VINA RESULT:      -3.3     12.622     12.892
REMARK  2 active torsions:
REMARK  status: ('A' for Active; 'I' for Inactive)
REMARK    1  A    between atoms: C6_6  and  C7_7 
REMARK    2  A    between atoms: C7_7  and  S8_8 
ROOT
HETATM    1  C1  UNL     1     -31.603  18.958   1.287  1.00 20.00     0.000 A 
HETATM    2  C2  UNL     1     -31.045  18.647   0.047  1.00 20.00     0.001 A 
HETATM    3  C3  UNL     1     -32.984  18.890   1.468  1.00 20.00     0.001 A 
HETATM    4  C4  UNL     1     -31.869  18.271  -1.014  1.00 20.00     0.008 A 
HETATM    5  C5  UNL     1     -33.808  18.514   0.407  1.00 20.00     0.008 A 
HETATM    6  C6  UNL     1     -33.251  18.204  -0.833  1.00 20.00    -0.049 A 
ENDROOT
BRANCH   6   7
HETATM    7  C7  UNL     1     -34.133  17.802  -1.967  1.00 20.00     0.109 C 
BRANCH   7   8
HETATM    8  S8  UNL     1     -33.362  16.548  -3.037  1.00 20.00    -0.178 SA
HETATM    9  H16 UNL     1     -32.121  17.049  -2.965  1.00 20.00     0.101 HD
ENDBRANCH   7   8
ENDBRANCH   6   7
TORSDOF 2
ENDMDL
