MODEL 1
REMARK VINA RESULT:      -6.4      0.000      0.000
REMARK  0 active torsions:
REMARK  status: ('A' for Active; 'I' for Inactive)
ROOT
HETATM    1  C1  UNL     1     -34.736   5.722   6.346  1.00 20.00     0.001 A 
HETATM    2  C2  UNL     1     -34.672   4.962   5.176  1.00 20.00     0.003 A 
HETATM    3  C3  UNL     1     -34.105   6.971   6.433  1.00 20.00     0.014 A 
HETATM    4  C4  UNL     1     -33.980   5.419   4.051  1.00 20.00     0.038 A 
HETATM    5  C5  UNL     1     -32.656   8.619   5.006  1.00 20.00     0.039 A 
HETATM    6  C6  UNL     1     -32.219   8.469   3.710  1.00 20.00     0.143 A 
HETATM    7  C7  UNL     1     -33.402   7.450   5.314  1.00 20.00    -0.001 A 
HETATM    8  C8  UNL     1     -33.362   6.663   4.167  1.00 20.00     0.085 A 
HETATM    9  O9  UNL     1     -32.641   7.287   3.192  1.00 20.00    -0.322 OA
ENDROOT
TORSDOF 0
ENDMDL
MODEL 2
REMARK VINA RESULT:      -6.3      0.914      1.952
REMARK  0 active torsions:
REMARK  status: ('A' for Active; 'I' for Inactive)
ROOT
HETATM    1  C1  UNL     1     -34.624   4.959   5.010  1.00 20.00     0.001 A 
HETATM    2  C2  UNL     1     -34.740   5.651   6.218  1.00 20.00     0.003 A 
HETATM    3  C3  UNL     1     -33.896   5.493   3.938  1.00 20.00     0.014 A 
HETATM    4  C4  UNL     1     -34.134   6.898   6.401  1.00 20.00     0.038 A 
HETATM    5  C5  UNL     1     -32.483   7.599   3.289  1.00 20.00     0.039 A 
HETATM    6  C6  UNL     1     -32.194   8.703   4.058  1.00 20.00     0.143 A 
HETATM    7  C7  UNL     1     -33.279   6.746   4.099  1.00 20.00    -0.001 A 
HETATM    8  C8  UNL     1     -33.418   7.403   5.318  1.00 20.00     0.085 A 
HETATM    9  O9  UNL     1     -32.755   8.594   5.289  1.00 20.00    -0.322 OA
ENDROOT
TORSDOF 0
ENDMDL
MODEL 3
REMARK VINA RESULT:      -6.1      0.991      2.149
REMARK  0 active torsions:
REMARK  status: ('A' for Active; 'I' for Inactive)
ROOT
HETATM    1  C1  UNL     1     -34.825   5.362   5.972  1.00 20.00     0.001 A 
HETATM    2  C2  UNL     1     -34.462   6.606   6.494  1.00 20.00     0.003 A 
HETATM    3  C3  UNL     1     -34.392   4.955   4.703  1.00 20.00     0.014 A 
HETATM    4  C4  UNL     1     -33.653   7.487   5.770  1.00 20.00     0.038 A 
HETATM    5  C5  UNL     1     -32.954   5.791   2.682  1.00 20.00     0.039 A 
HETATM    6  C6  UNL     1     -32.284   6.985   2.547  1.00 20.00     0.143 A 
HETATM    7  C7  UNL     1     -33.579   5.825   3.957  1.00 20.00    -0.001 A 
HETATM    8  C8  UNL     1     -33.238   7.056   4.512  1.00 20.00     0.085 A 
HETATM    9  O9  UNL     1     -32.449   7.759   3.650  1.00 20.00    -0.322 OA
ENDROOT
TORSDOF 0
ENDMDL
MODEL 4
REMARK VINA RESULT:      -6.0      1.289      3.099
REMARK  0 active torsions:
REMARK  status: ('A' for Active; 'I' for Inactive)
ROOT
HETATM    1  C1  UNL     1     -32.303   8.483   3.947  1.00 20.00     0.001 A 
HETATM    2  C2  UNL     1     -32.281   7.501   2.954  1.00 20.00     0.003 A 
HETATM    3  C3  UNL     1     -32.995   8.280   5.149  1.00 20.00     0.014 A 
HETATM    4  C4  UNL     1     -32.946   6.283   3.123  1.00 20.00     0.038 A 
HETATM    5  C5  UNL     1     -34.459   6.490   6.375  1.00 20.00     0.039 A 
HETATM    6  C6  UNL     1     -34.833   5.243   5.930  1.00 20.00     0.143 A 
HETATM    7  C7  UNL     1     -33.673   7.064   5.341  1.00 20.00    -0.001 A 
HETATM    8  C8  UNL     1     -33.626   6.111   4.328  1.00 20.00     0.085 A 
HETATM    9  O9  UNL     1     -34.334   5.003   4.690  1.00 20.00    -0.322 OA
ENDROOT
TORSDOF 0
ENDMDL
MODEL 5
REMARK VINA RESULT:      -5.9      1.411      3.642
REMARK  0 active torsions:
REMARK  status: ('A' for Active; 'I' for Inactive)
ROOT
HETATM    1  C1  UNL     1     -32.286   7.507   3.009  1.00 20.00     0.001 A 
HETATM    2  C2  UNL     1     -32.294   8.478   4.014  1.00 20.00     0.003 A 
HETATM    3  C3  UNL     1     -32.986   6.303   3.161  1.00 20.00     0.014 A 
HETATM    4  C4  UNL     1     -33.002   8.283   5.204  1.00 20.00     0.038 A 
HETATM    5  C5  UNL     1     -34.510   5.040   4.874  1.00 20.00     0.039 A 
HETATM    6  C6  UNL     1     -34.927   5.459   6.116  1.00 20.00     0.143 A 
HETATM    7  C7  UNL     1     -33.703   6.085   4.350  1.00 20.00    -0.001 A 
HETATM    8  C8  UNL     1     -33.687   7.076   5.326  1.00 20.00     0.085 A 
HETATM    9  O9  UNL     1     -34.434   6.692   6.401  1.00 20.00    -0.322 OA
ENDROOT
TORSDOF 0
ENDMDL
MODEL 6
REMARK VINA RESULT:      -5.2      1.657      2.950
REMARK  0 active torsions:
REMARK  status: ('A' for Active; 'I' for Inactive)
ROOT
HETATM    1  C1  UNL     1     -32.455   6.649   2.681  1.00 20.00     0.001 A 
HETATM    2  C2  UNL     1     -32.988   5.359   2.633  1.00 20.00     0.003 A 
HETATM    3  C3  UNL     1     -32.685   7.486   3.781  1.00 20.00     0.014 A 
HETATM    4  C4  UNL     1     -33.768   4.857   3.678  1.00 20.00     0.038 A 
HETATM    5  C5  UNL     1     -33.918   7.515   6.090  1.00 20.00     0.039 A 
HETATM    6  C6  UNL     1     -34.663   6.516   6.672  1.00 20.00     0.143 A 
HETATM    7  C7  UNL     1     -33.468   7.003   4.844  1.00 20.00    -0.001 A 
HETATM    8  C8  UNL     1     -33.981   5.712   4.758  1.00 20.00     0.085 A 
HETATM    9  O9  UNL     1     -34.708   5.419   5.874  1.00 20.00    -0.322 OA
ENDROOT
TORSDOF 0
ENDMDL
MODEL 7
REMARK VINA RESULT:      -5.2      1.144      1.860
REMARK  0 active torsions:
REMARK  status: ('A' for Active; 'I' for Inactive)
ROOT
HETATM    1  C1  UNL     1     -34.104   4.941   3.823  1.00 20.00     0.001 A 
HETATM    2  C2  UNL     1     -33.180   5.172   2.801  1.00 20.00     0.003 A 
HETATM    3  C3  UNL     1     -34.321   5.891   4.830  1.00 20.00     0.014 A 
HETATM    4  C4  UNL     1     -32.441   6.357   2.745  1.00 20.00     0.038 A 
HETATM    5  C5  UNL     1     -33.516   8.261   5.596  1.00 20.00     0.039 A 
HETATM    6  C6  UNL     1     -32.581   9.078   5.003  1.00 20.00     0.143 A 
HETATM    7  C7  UNL     1     -33.589   7.090   4.795  1.00 20.00    -0.001 A 
HETATM    8  C8  UNL     1     -32.678   7.282   3.760  1.00 20.00     0.085 A 
HETATM    9  O9  UNL     1     -32.067   8.494   3.890  1.00 20.00    -0.322 OA
ENDROOT
TORSDOF 0
ENDMDL
MODEL 8
REMARK VINA RESULT:      -4.1     15.032     15.595
REMARK  0 active torsions:
REMARK  status: ('A' for Active; 'I' for Inactive)
ROOT
HETATM    1  C1  UNL     1     -25.853  18.086  12.203  1.00 20.00     0.001 A 
HETATM    2  C2  UNL     1     -25.279  16.818  12.328  1.00 20.00     0.003 A 
HETATM    3  C3  UNL     1     -25.415  18.984  11.220  1.00 20.00     0.014 A 
HETATM    4  C4  UNL     1     -24.251  16.400  11.478  1.00 20.00     0.038 A 
HETATM    5  C5  UNL     1     -23.680  19.175   9.270  1.00 20.00     0.039 A 
HETATM    6  C6  UNL     1     -22.768  18.238   8.844  1.00 20.00     0.143 A 
HETATM    7  C7  UNL     1     -24.381  18.586  10.355  1.00 20.00    -0.001 A 
HETATM    8  C8  UNL     1     -23.837  17.315  10.512  1.00 20.00     0.085 A 
HETATM    9  O9  UNL     1     -22.854  17.106   9.589  1.00 20.00    -0.322 OA
ENDROOT
TORSDOF 0
ENDMDL
MODEL 9
REMARK VINA RESULT:      -4.1     15.972     16.857
REMARK  0 active torsions:
REMARK  status: ('A' for Active; 'I' for Inactive)
ROOT
HETATM    1  C1  UNL     1     -24.902  19.237   8.730  1.00 20.00     0.001 A 
HETATM    2  C2  UNL     1     -23.644  19.235   8.123  1.00 20.00     0.003 A 
HETATM    3  C3  UNL     1     -25.043  18.997  10.103  1.00 20.00     0.014 A 
HETATM    4  C4  UNL     1     -22.482  18.995   8.863  1.00 20.00     0.038 A 
HETATM    5  C5  UNL     1     -23.613  18.477  12.233  1.00 20.00     0.039 A 
HETATM    6  C6  UNL     1     -22.248  18.337  12.331  1.00 20.00     0.143 A 
HETATM    7  C7  UNL     1     -23.889  18.752  10.867  1.00 20.00    -0.001 A 
HETATM    8  C8  UNL     1     -22.654  18.759  10.225  1.00 20.00     0.085 A 
HETATM    9  O9  UNL     1     -21.656  18.506  11.120  1.00 20.00    -0.322 OA
ENDROOT
TORSDOF 0
ENDMDL
