MODEL 1
REMARK VINA RESULT:      -5.1      0.000      0.000
REMARK  3 active torsions:
REMARK  status: ('A' for Active; 'I' for Inactive)
REMARK    1  A    between atoms: C6_6  and  O9_9 
REMARK    2  A    between atoms: C7_7  and  C8_8 
REMARK    3  A    between atoms: C7_7  and  O9_9 
ROOT
HETATM    1  C1  UNL     1     -34.746   5.484   6.035  1.00 20.00     0.000 A 
HETATM    2  C2  UNL     1     -34.523   5.068   4.723  1.00 20.00     0.003 A 
HETATM    3  C3  UNL     1     -34.226   6.701   6.478  1.00 20.00     0.003 A 
HETATM    4  C4  UNL     1     -33.781   5.867   3.854  1.00 20.00     0.037 A 
HETATM    5  C5  UNL     1     -33.483   7.500   5.609  1.00 20.00     0.037 A 
HETATM    6  C6  UNL     1     -33.260   7.083   4.298  1.00 20.00     0.068 A 
ENDROOT
BRANCH   6   7
HETATM    7  O9  UNL     1     -32.534   7.863   3.450  1.00 20.00    -0.350 OA
BRANCH   7   8
HETATM    8  C7  UNL     1     -32.138   7.279   2.209  1.00 20.00     0.190 C 
BRANCH   8   9
HETATM    9  C8  UNL     1     -32.147   8.335   1.121  1.00 20.00     0.141 C 
HETATM   10 CL10 UNL     1     -32.988   9.806   1.675  1.00 20.00    -0.128 Cl
ENDBRANCH   8   9
ENDBRANCH   7   8
ENDBRANCH   6   7
TORSDOF 3
ENDMDL
MODEL 2
REMARK VINA RESULT:      -5.1      0.022      1.528
REMARK  3 active torsions:
REMARK  status: ('A' for Active; 'I' for Inactive)
REMARK    1  A    between atoms: C6_6  and  O9_9 
REMARK    2  A    between atoms: C7_7  and  C8_8 
REMARK    3  A    between atoms: C7_7  and  O9_9 
ROOT
HETATM    1  C1  UNL     1     -34.751   5.494   6.037  1.00 20.00     0.000 A 
HETATM    2  C2  UNL     1     -34.229   6.710   6.477  1.00 20.00     0.003 A 
HETATM    3  C3  UNL     1     -34.535   5.079   4.723  1.00 20.00     0.003 A 
HETATM    4  C4  UNL     1     -33.492   7.511   5.605  1.00 20.00     0.037 A 
HETATM    5  C5  UNL     1     -33.798   5.879   3.850  1.00 20.00     0.037 A 
HETATM    6  C6  UNL     1     -33.278   7.095   4.290  1.00 20.00     0.068 A 
ENDROOT
BRANCH   6   7
HETATM    7  O9  UNL     1     -32.560   7.877   3.438  1.00 20.00    -0.350 OA
BRANCH   7   8
HETATM    8  C7  UNL     1     -32.160   7.291   2.200  1.00 20.00     0.190 C 
BRANCH   8   9
HETATM    9  C8  UNL     1     -32.169   8.346   1.109  1.00 20.00     0.141 C 
HETATM   10 CL10 UNL     1     -32.998   9.822   1.663  1.00 20.00    -0.128 Cl
ENDBRANCH   8   9
ENDBRANCH   7   8
ENDBRANCH   6   7
TORSDOF 3
ENDMDL
MODEL 3
REMARK VINA RESULT:      -3.8     11.679     12.083
REMARK  3 active torsions:
REMARK  status: ('A' for Active; 'I' for Inactive)
REMARK    1  A    between atoms: C6_6  and  O9_9 
REMARK    2  A    between atoms: C7_7  and  C8_8 
REMARK    3  A    between atoms: C7_7  and  O9_9 
ROOT
HETATM    1  C1  UNL     1     -32.378  19.122   1.620  1.00 20.00     0.000 A 
HETATM    2  C2  UNL     1     -33.607  18.736   1.088  1.00 20.00     0.003 A 
HETATM    3  C3  UNL     1     -31.217  18.995   0.857  1.00 20.00     0.003 A 
HETATM    4  C4  UNL     1     -33.677  18.223  -0.207  1.00 20.00     0.037 A 
HETATM    5  C5  UNL     1     -31.286  18.482  -0.438  1.00 20.00     0.037 A 
HETATM    6  C6  UNL     1     -32.515  18.095  -0.970  1.00 20.00     0.068 A 
ENDROOT
BRANCH   6   7
HETATM    7  O9  UNL     1     -32.583  17.593  -2.233  1.00 20.00    -0.350 OA
BRANCH   7   8
HETATM    8  C7  UNL     1     -33.522  16.543  -2.466  1.00 20.00     0.190 C 
BRANCH   8   9
HETATM    9  C8  UNL     1     -33.312  15.967  -3.853  1.00 20.00     0.141 C 
HETATM   10 CL10 UNL     1     -34.125  14.389  -4.012  1.00 20.00    -0.128 Cl
ENDBRANCH   8   9
ENDBRANCH   7   8
ENDBRANCH   6   7
TORSDOF 3
ENDMDL
MODEL 4
REMARK VINA RESULT:      -3.6     11.870     12.765
REMARK  3 active torsions:
REMARK  status: ('A' for Active; 'I' for Inactive)
REMARK    1  A    between atoms: C6_6  and  O9_9 
REMARK    2  A    between atoms: C7_7  and  C8_8 
REMARK    3  A    between atoms: C7_7  and  O9_9 
ROOT
HETATM    1  C1  UNL     1     -34.007  17.736  -1.778  1.00 20.00     0.000 A 
HETATM    2  C2  UNL     1     -33.296  16.644  -2.276  1.00 20.00     0.003 A 
HETATM    3  C3  UNL     1     -34.859  18.454  -2.618  1.00 20.00     0.003 A 
HETATM    4  C4  UNL     1     -33.436  16.270  -3.612  1.00 20.00     0.037 A 
HETATM    5  C5  UNL     1     -34.999  18.080  -3.955  1.00 20.00     0.037 A 
HETATM    6  C6  UNL     1     -34.287  16.989  -4.452  1.00 20.00     0.068 A 
ENDROOT
BRANCH   6   7
HETATM    7  O9  UNL     1     -34.422  16.626  -5.757  1.00 20.00    -0.350 OA
BRANCH   7   8
HETATM    8  C7  UNL     1     -34.341  15.232  -6.054  1.00 20.00     0.190 C 
BRANCH   8   9
HETATM    9  C8  UNL     1     -35.728  14.619  -6.010  1.00 20.00     0.141 C 
HETATM   10 CL10 UNL     1     -35.915  13.581  -4.574  1.00 20.00    -0.128 Cl
ENDBRANCH   8   9
ENDBRANCH   7   8
ENDBRANCH   6   7
TORSDOF 3
ENDMDL
MODEL 5
REMARK VINA RESULT:      -3.6     11.890     12.796
REMARK  3 active torsions:
REMARK  status: ('A' for Active; 'I' for Inactive)
REMARK    1  A    between atoms: C6_6  and  O9_9 
REMARK    2  A    between atoms: C7_7  and  C8_8 
REMARK    3  A    between atoms: C7_7  and  O9_9 
ROOT
HETATM    1  C1  UNL     1     -34.035  17.753  -1.780  1.00 20.00     0.000 A 
HETATM    2  C2  UNL     1     -34.898  18.445  -2.628  1.00 20.00     0.003 A 
HETATM    3  C3  UNL     1     -33.290  16.680  -2.268  1.00 20.00     0.003 A 
HETATM    4  C4  UNL     1     -35.017  18.065  -3.965  1.00 20.00     0.037 A 
HETATM    5  C5  UNL     1     -33.408  16.299  -3.605  1.00 20.00     0.037 A 
HETATM    6  C6  UNL     1     -34.272  16.991  -4.453  1.00 20.00     0.068 A 
ENDROOT
BRANCH   6   7
HETATM    7  O9  UNL     1     -34.389  16.618  -5.757  1.00 20.00    -0.350 OA
BRANCH   7   8
HETATM    8  C7  UNL     1     -34.324  15.221  -6.042  1.00 20.00     0.190 C 
BRANCH   8   9
HETATM    9  C8  UNL     1     -35.718  14.625  -6.000  1.00 20.00     0.141 C 
HETATM   10 CL10 UNL     1     -35.917  13.582  -4.568  1.00 20.00    -0.128 Cl
ENDBRANCH   8   9
ENDBRANCH   7   8
ENDBRANCH   6   7
TORSDOF 3
ENDMDL
MODEL 6
REMARK VINA RESULT:      -3.5     11.790     12.760
REMARK  3 active torsions:
REMARK  status: ('A' for Active; 'I' for Inactive)
REMARK    1  A    between atoms: C6_6  and  O9_9 
REMARK    2  A    between atoms: C7_7  and  C8_8 
REMARK    3  A    between atoms: C7_7  and  O9_9 
ROOT
HETATM    1  C1  UNL     1     -34.431  15.230  -5.784  1.00 20.00     0.000 A 
HETATM    2  C2  UNL     1     -34.787  16.577  -5.802  1.00 20.00     0.003 A 
HETATM    3  C3  UNL     1     -33.666  14.725  -4.731  1.00 20.00     0.003 A 
HETATM    4  C4  UNL     1     -34.380  17.422  -4.769  1.00 20.00     0.037 A 
HETATM    5  C5  UNL     1     -33.258  15.570  -3.698  1.00 20.00     0.037 A 
HETATM    6  C6  UNL     1     -33.615  16.917  -3.718  1.00 20.00     0.068 A 
ENDROOT
BRANCH   6   7
HETATM    7  O9  UNL     1     -33.215  17.741  -2.710  1.00 20.00    -0.350 OA
BRANCH   7   8
HETATM    8  C7  UNL     1     -33.599  17.380  -1.384  1.00 20.00     0.190 C 
BRANCH   8   9
HETATM    9  C8  UNL     1     -33.038  18.386  -0.397  1.00 20.00     0.141 C 
HETATM   10 CL10 UNL     1     -31.257  18.407  -0.459  1.00 20.00    -0.128 Cl
ENDBRANCH   8   9
ENDBRANCH   7   8
ENDBRANCH   6   7
TORSDOF 3
ENDMDL
MODEL 7
REMARK VINA RESULT:      -3.5     11.724     12.784
REMARK  3 active torsions:
REMARK  status: ('A' for Active; 'I' for Inactive)
REMARK    1  A    between atoms: C6_6  and  O9_9 
REMARK    2  A    between atoms: C7_7  and  C8_8 
REMARK    3  A    between atoms: C7_7  and  O9_9 
ROOT
HETATM    1  C1  UNL     1     -34.405  14.974  -5.408  1.00 20.00     0.000 A 
HETATM    2  C2  UNL     1     -33.641  14.737  -4.266  1.00 20.00     0.003 A 
HETATM    3  C3  UNL     1     -34.800  16.274  -5.726  1.00 20.00     0.003 A 
HETATM    4  C4  UNL     1     -33.272  15.800  -3.440  1.00 20.00     0.037 A 
HETATM    5  C5  UNL     1     -34.431  17.336  -4.901  1.00 20.00     0.037 A 
HETATM    6  C6  UNL     1     -33.669  17.099  -3.758  1.00 20.00     0.068 A 
ENDROOT
BRANCH   6   7
HETATM    7  O9  UNL     1     -33.310  18.136  -2.952  1.00 20.00    -0.350 OA
BRANCH   7   8
HETATM    8  C7  UNL     1     -32.867  17.811  -1.634  1.00 20.00     0.190 C 
BRANCH   8   9
HETATM    9  C8  UNL     1     -32.080  18.973  -1.059  1.00 20.00     0.141 C 
HETATM   10 CL10 UNL     1     -30.965  18.413   0.213  1.00 20.00    -0.128 Cl
ENDBRANCH   8   9
ENDBRANCH   7   8
ENDBRANCH   6   7
TORSDOF 3
ENDMDL
MODEL 8
REMARK VINA RESULT:      -3.5      2.301      4.718
REMARK  3 active torsions:
REMARK  status: ('A' for Active; 'I' for Inactive)
REMARK    1  A    between atoms: C6_6  and  O9_9 
REMARK    2  A    between atoms: C7_7  and  C8_8 
REMARK    3  A    between atoms: C7_7  and  O9_9 
ROOT
HETATM    1  C1  UNL     1     -32.505   8.902   0.772  1.00 20.00     0.000 A 
HETATM    2  C2  UNL     1     -32.898   9.826   1.739  1.00 20.00     0.003 A 
HETATM    3  C3  UNL     1     -32.112   7.619   1.152  1.00 20.00     0.003 A 
HETATM    4  C4  UNL     1     -32.899   9.467   3.087  1.00 20.00     0.037 A 
HETATM    5  C5  UNL     1     -32.112   7.260   2.500  1.00 20.00     0.037 A 
HETATM    6  C6  UNL     1     -32.505   8.184   3.467  1.00 20.00     0.068 A 
ENDROOT
BRANCH   6   7
HETATM    7  O9  UNL     1     -32.504   7.834   4.783  1.00 20.00    -0.350 OA
BRANCH   7   8
HETATM    8  C7  UNL     1     -33.721   8.016   5.505  1.00 20.00     0.190 C 
BRANCH   8   9
HETATM    9  C8  UNL     1     -34.072   6.740   6.247  1.00 20.00     0.141 C 
HETATM   10 CL10 UNL     1     -34.933   5.604   5.178  1.00 20.00    -0.128 Cl
ENDBRANCH   8   9
ENDBRANCH   7   8
ENDBRANCH   6   7
TORSDOF 3
ENDMDL
MODEL 9
REMARK VINA RESULT:      -3.5      2.318      4.534
REMARK  3 active torsions:
REMARK  status: ('A' for Active; 'I' for Inactive)
REMARK    1  A    between atoms: C6_6  and  O9_9 
REMARK    2  A    between atoms: C7_7  and  C8_8 
REMARK    3  A    between atoms: C7_7  and  O9_9 
ROOT
HETATM    1  C1  UNL     1     -32.493   8.886   0.792  1.00 20.00     0.000 A 
HETATM    2  C2  UNL     1     -32.118   7.602   1.188  1.00 20.00     0.003 A 
HETATM    3  C3  UNL     1     -32.876   9.826   1.749  1.00 20.00     0.003 A 
HETATM    4  C4  UNL     1     -32.126   7.258   2.540  1.00 20.00     0.037 A 
HETATM    5  C5  UNL     1     -32.884   9.482   3.101  1.00 20.00     0.037 A 
HETATM    6  C6  UNL     1     -32.510   8.199   3.496  1.00 20.00     0.068 A 
ENDROOT
BRANCH   6   7
HETATM    7  O9  UNL     1     -32.519   7.863   4.815  1.00 20.00    -0.350 OA
BRANCH   7   8
HETATM    8  C7  UNL     1     -33.759   7.991   5.509  1.00 20.00     0.190 C 
BRANCH   8   9
HETATM    9  C8  UNL     1     -34.049   6.716   6.278  1.00 20.00     0.141 C 
HETATM   10 CL10 UNL     1     -34.866   5.522   5.237  1.00 20.00    -0.128 Cl
ENDBRANCH   8   9
ENDBRANCH   7   8
ENDBRANCH   6   7
TORSDOF 3
ENDMDL
