MODEL 1
REMARK VINA RESULT:      -2.6      0.000      0.000
REMARK  0 active torsions:
REMARK  status: ('A' for Active; 'I' for Inactive)
ROOT
HETATM    1  C1  UNL     1     -34.719   5.555   5.764  1.00 20.00     0.016 C 
HETATM    2  C2  UNL     1     -34.110   6.790   6.385  1.00 20.00     0.081 C 
HETATM    3 BR3  UNL     1     -33.418   7.957   4.992  1.00 20.00    -0.097 Br
ENDROOT
TORSDOF 0
ENDMDL
MODEL 2
REMARK VINA RESULT:      -2.6      1.966      2.307
REMARK  0 active torsions:
REMARK  status: ('A' for Active; 'I' for Inactive)
ROOT
HETATM    1  C1  UNL     1     -33.465   7.867   5.295  1.00 20.00     0.016 C 
HETATM    2  C2  UNL     1     -34.026   6.895   6.306  1.00 20.00     0.081 C 
HETATM    3 BR3  UNL     1     -34.711   5.318   5.399  1.00 20.00    -0.097 Br
ENDROOT
TORSDOF 0
ENDMDL
MODEL 3
REMARK VINA RESULT:      -2.5      1.847      2.189
REMARK  0 active torsions:
REMARK  status: ('A' for Active; 'I' for Inactive)
ROOT
HETATM    1  C1  UNL     1     -33.906   7.215   6.381  1.00 20.00     0.016 C 
HETATM    2  C2  UNL     1     -34.477   5.816   6.389  1.00 20.00     0.081 C 
HETATM    3 BR3  UNL     1     -34.599   5.142   4.569  1.00 20.00    -0.097 Br
ENDROOT
TORSDOF 0
ENDMDL
MODEL 4
REMARK VINA RESULT:      -2.5      1.116      1.431
REMARK  0 active torsions:
REMARK  status: ('A' for Active; 'I' for Inactive)
ROOT
HETATM    1  C1  UNL     1     -34.078   6.850   6.333  1.00 20.00     0.016 C 
HETATM    2  C2  UNL     1     -33.860   7.054   4.853  1.00 20.00     0.081 C 
HETATM    3 BR3  UNL     1     -32.485   8.398   4.565  1.00 20.00    -0.097 Br
ENDROOT
TORSDOF 0
ENDMDL
MODEL 5
REMARK VINA RESULT:      -2.5      2.199      2.531
REMARK  0 active torsions:
REMARK  status: ('A' for Active; 'I' for Inactive)
ROOT
HETATM    1  C1  UNL     1     -33.320   7.942   5.273  1.00 20.00     0.016 C 
HETATM    2  C2  UNL     1     -34.017   6.734   4.695  1.00 20.00     0.081 C 
HETATM    3 BR3  UNL     1     -34.594   5.554   6.128  1.00 20.00    -0.097 Br
ENDROOT
TORSDOF 0
ENDMDL
MODEL 6
REMARK VINA RESULT:      -2.4      1.627      1.793
REMARK  0 active torsions:
REMARK  status: ('A' for Active; 'I' for Inactive)
ROOT
HETATM    1  C1  UNL     1     -34.247   4.628   4.528  1.00 20.00     0.016 C 
HETATM    2  C2  UNL     1     -35.030   5.859   4.918  1.00 20.00     0.081 C 
HETATM    3 BR3  UNL     1     -34.048   6.871   6.257  1.00 20.00    -0.097 Br
ENDROOT
TORSDOF 0
ENDMDL
MODEL 7
REMARK VINA RESULT:      -2.4      2.686      2.830
REMARK  0 active torsions:
REMARK  status: ('A' for Active; 'I' for Inactive)
ROOT
HETATM    1  C1  UNL     1     -32.289   7.596   3.454  1.00 20.00     0.016 C 
HETATM    2  C2  UNL     1     -32.613   8.303   4.749  1.00 20.00     0.081 C 
HETATM    3 BR3  UNL     1     -33.791   7.195   5.830  1.00 20.00    -0.097 Br
ENDROOT
TORSDOF 0
ENDMDL
MODEL 8
REMARK VINA RESULT:      -2.3      2.141      2.451
REMARK  0 active torsions:
REMARK  status: ('A' for Active; 'I' for Inactive)
ROOT
HETATM    1  C1  UNL     1     -33.673   5.490   3.610  1.00 20.00     0.016 C 
HETATM    2  C2  UNL     1     -34.556   4.968   4.719  1.00 20.00     0.081 C 
HETATM    3 BR3  UNL     1     -34.425   6.131   6.272  1.00 20.00    -0.097 Br
ENDROOT
TORSDOF 0
ENDMDL
MODEL 9
REMARK VINA RESULT:      -2.1      2.364      2.677
REMARK  0 active torsions:
REMARK  status: ('A' for Active; 'I' for Inactive)
ROOT
HETATM    1  C1  UNL     1     -33.654   8.039   5.423  1.00 20.00     0.016 C 
HETATM    2  C2  UNL     1     -32.403   8.461   4.688  1.00 20.00     0.081 C 
HETATM    3 BR3  UNL     1     -32.218   7.430   3.050  1.00 20.00    -0.097 Br
ENDROOT
TORSDOF 0
ENDMDL
