MODEL 1
REMARK VINA RESULT:      -5.0      0.000      0.000
REMARK  0 active torsions:
REMARK  status: ('A' for Active; 'I' for Inactive)
ROOT
HETATM    1  C1  UNL     1     -33.454   7.626   5.388  1.00 20.00    -0.030 C 
HETATM    2  C2  UNL     1     -33.257   7.066   4.187  1.00 20.00    -0.030 C 
HETATM    3  C3  UNL     1     -34.226   6.957   6.487  1.00 20.00     0.026 C 
HETATM    4  C4  UNL     1     -33.816   5.727   3.804  1.00 20.00     0.026 C 
HETATM    5  C5  UNL     1     -34.479   5.470   6.225  1.00 20.00     0.004 C 
HETATM    6  C6  UNL     1     -34.886   5.223   4.775  1.00 20.00     0.004 C 
ENDROOT
TORSDOF 0
ENDMDL
MODEL 2
REMARK VINA RESULT:      -5.0      0.009      2.082
REMARK  0 active torsions:
REMARK  status: ('A' for Active; 'I' for Inactive)
ROOT
HETATM    1  C1  UNL     1     -33.265   7.067   4.184  1.00 20.00    -0.030 C 
HETATM    2  C2  UNL     1     -33.456   7.627   5.386  1.00 20.00    -0.030 C 
HETATM    3  C3  UNL     1     -33.826   5.728   3.806  1.00 20.00     0.026 C 
HETATM    4  C4  UNL     1     -34.221   6.959   6.490  1.00 20.00     0.026 C 
HETATM    5  C5  UNL     1     -34.888   5.222   4.785  1.00 20.00     0.004 C 
HETATM    6  C6  UNL     1     -34.472   5.471   6.233  1.00 20.00     0.004 C 
ENDROOT
TORSDOF 0
ENDMDL
MODEL 3
REMARK VINA RESULT:      -4.9      0.277      2.081
REMARK  0 active torsions:
REMARK  status: ('A' for Active; 'I' for Inactive)
ROOT
HETATM    1  C1  UNL     1     -34.654   5.516   6.078  1.00 20.00    -0.030 C 
HETATM    2  C2  UNL     1     -34.579   5.003   4.842  1.00 20.00    -0.030 C 
HETATM    3  C3  UNL     1     -34.126   6.873   6.436  1.00 20.00     0.026 C 
HETATM    4  C4  UNL     1     -33.929   5.720   3.696  1.00 20.00     0.026 C 
HETATM    5  C5  UNL     1     -33.797   7.733   5.212  1.00 20.00     0.004 C 
HETATM    6  C6  UNL     1     -33.083   6.918   4.137  1.00 20.00     0.004 C 
ENDROOT
TORSDOF 0
ENDMDL
MODEL 4
REMARK VINA RESULT:      -4.9      0.288      2.893
REMARK  0 active torsions:
REMARK  status: ('A' for Active; 'I' for Inactive)
ROOT
HETATM    1  C1  UNL     1     -34.596   5.007   4.865  1.00 20.00    -0.030 C 
HETATM    2  C2  UNL     1     -34.642   5.555   6.087  1.00 20.00    -0.030 C 
HETATM    3  C3  UNL     1     -33.950   5.679   3.690  1.00 20.00     0.026 C 
HETATM    4  C4  UNL     1     -34.083   6.911   6.399  1.00 20.00     0.026 C 
HETATM    5  C5  UNL     1     -33.079   6.875   4.084  1.00 20.00     0.004 C 
HETATM    6  C6  UNL     1     -33.761   7.732   5.148  1.00 20.00     0.004 C 
ENDROOT
TORSDOF 0
ENDMDL
MODEL 5
REMARK VINA RESULT:      -4.8      0.276      2.541
REMARK  0 active torsions:
REMARK  status: ('A' for Active; 'I' for Inactive)
ROOT
HETATM    1  C1  UNL     1     -34.743   5.648   6.120  1.00 20.00    -0.030 C 
HETATM    2  C2  UNL     1     -34.113   6.770   6.495  1.00 20.00    -0.030 C 
HETATM    3  C3  UNL     1     -34.692   5.109   4.721  1.00 20.00     0.026 C 
HETATM    4  C4  UNL     1     -33.320   7.621   5.548  1.00 20.00     0.026 C 
HETATM    5  C5  UNL     1     -33.608   5.766   3.862  1.00 20.00     0.004 C 
HETATM    6  C6  UNL     1     -33.568   7.276   4.077  1.00 20.00     0.004 C 
ENDROOT
TORSDOF 0
ENDMDL
MODEL 6
REMARK VINA RESULT:      -4.8      0.276      2.079
REMARK  0 active torsions:
REMARK  status: ('A' for Active; 'I' for Inactive)
ROOT
HETATM    1  C1  UNL     1     -34.103   6.769   6.497  1.00 20.00    -0.030 C 
HETATM    2  C2  UNL     1     -34.733   5.646   6.126  1.00 20.00    -0.030 C 
HETATM    3  C3  UNL     1     -33.320   7.623   5.545  1.00 20.00     0.026 C 
HETATM    4  C4  UNL     1     -34.691   5.107   4.726  1.00 20.00     0.026 C 
HETATM    5  C5  UNL     1     -33.576   7.276   4.075  1.00 20.00     0.004 C 
HETATM    6  C6  UNL     1     -33.613   5.765   3.861  1.00 20.00     0.004 C 
ENDROOT
TORSDOF 0
ENDMDL
MODEL 7
REMARK VINA RESULT:      -4.7      0.391      2.085
REMARK  0 active torsions:
REMARK  status: ('A' for Active; 'I' for Inactive)
ROOT
HETATM    1  C1  UNL     1     -33.700   5.731   3.748  1.00 20.00    -0.030 C 
HETATM    2  C2  UNL     1     -33.293   6.990   3.964  1.00 20.00    -0.030 C 
HETATM    3  C3  UNL     1     -34.420   4.915   4.779  1.00 20.00     0.026 C 
HETATM    4  C4  UNL     1     -33.485   7.700   5.271  1.00 20.00     0.026 C 
HETATM    5  C5  UNL     1     -34.926   5.747   5.960  1.00 20.00     0.004 C 
HETATM    6  C6  UNL     1     -33.880   6.762   6.414  1.00 20.00     0.004 C 
ENDROOT
TORSDOF 0
ENDMDL
MODEL 8
REMARK VINA RESULT:      -4.7      0.406      1.490
REMARK  0 active torsions:
REMARK  status: ('A' for Active; 'I' for Inactive)
ROOT
HETATM    1  C1  UNL     1     -33.245   6.957   3.936  1.00 20.00    -0.030 C 
HETATM    2  C2  UNL     1     -33.680   5.705   3.735  1.00 20.00    -0.030 C 
HETATM    3  C3  UNL     1     -33.430   7.691   5.230  1.00 20.00     0.026 C 
HETATM    4  C4  UNL     1     -34.429   4.922   4.772  1.00 20.00     0.026 C 
HETATM    5  C5  UNL     1     -33.862   6.780   6.382  1.00 20.00     0.004 C 
HETATM    6  C6  UNL     1     -34.928   5.784   5.933  1.00 20.00     0.004 C 
ENDROOT
TORSDOF 0
ENDMDL
MODEL 9
REMARK VINA RESULT:      -3.2      8.780      9.557
REMARK  0 active torsions:
REMARK  status: ('A' for Active; 'I' for Inactive)
ROOT
HETATM    1  C1  UNL     1     -42.712   6.073   1.352  1.00 20.00    -0.030 C 
HETATM    2  C2  UNL     1     -41.651   5.511   0.756  1.00 20.00    -0.030 C 
HETATM    3  C3  UNL     1     -43.181   7.464   1.045  1.00 20.00     0.026 C 
HETATM    4  C4  UNL     1     -40.803   6.226  -0.254  1.00 20.00     0.026 C 
HETATM    5  C5  UNL     1     -42.549   8.048  -0.222  1.00 20.00     0.004 C 
HETATM    6  C6  UNL     1     -41.056   7.735  -0.291  1.00 20.00     0.004 C 
ENDROOT
TORSDOF 0
ENDMDL
