MODEL 1
REMARK VINA RESULT:      -3.1      0.000      0.000
REMARK  3 active torsions:
REMARK  status: ('A' for Active; 'I' for Inactive)
REMARK    1  A    between atoms: C3_3  and  S5_5 
REMARK    2  A    between atoms: C4_4  and  S6_6 
REMARK    3  A    between atoms: S5_5  and  S6_6 
ROOT
HETATM    1  S5  UNL     1     -35.071   5.727   4.814  1.00 20.00    -0.098 SA
ENDROOT
BRANCH   1   2
HETATM    2  C3  UNL     1     -33.880   4.573   4.092  1.00 20.00     0.081 C 
HETATM    3  C1  UNL     1     -33.171   5.208   2.912  1.00 20.00     0.017 C 
ENDBRANCH   1   2
BRANCH   1   4
HETATM    4  S6  UNL     1     -33.874   6.833   6.068  1.00 20.00    -0.098 SA
BRANCH   4   5
HETATM    5  C4  UNL     1     -33.628   8.343   5.103  1.00 20.00     0.081 C 
HETATM    6  C2  UNL     1     -32.224   8.385   4.528  1.00 20.00     0.017 C 
ENDBRANCH   4   5
ENDBRANCH   1   4
TORSDOF 3
ENDMDL
MODEL 2
REMARK VINA RESULT:      -3.1      0.039      3.324
REMARK  3 active torsions:
REMARK  status: ('A' for Active; 'I' for Inactive)
REMARK    1  A    between atoms: C3_3  and  S5_5 
REMARK    2  A    between atoms: C4_4  and  S6_6 
REMARK    3  A    between atoms: S5_5  and  S6_6 
ROOT
HETATM    1  S5  UNL     1     -33.872   6.868   6.045  1.00 20.00    -0.098 SA
ENDROOT
BRANCH   1   2
HETATM    2  C3  UNL     1     -33.633   8.355   5.043  1.00 20.00     0.081 C 
HETATM    3  C1  UNL     1     -32.208   8.430   4.533  1.00 20.00     0.017 C 
ENDBRANCH   1   2
BRANCH   1   4
HETATM    4  S6  UNL     1     -35.076   5.731   4.825  1.00 20.00    -0.098 SA
BRANCH   4   5
HETATM    5  C4  UNL     1     -33.881   4.589   4.090  1.00 20.00     0.081 C 
HETATM    6  C2  UNL     1     -33.181   5.238   2.910  1.00 20.00     0.017 C 
ENDBRANCH   4   5
ENDBRANCH   1   4
TORSDOF 3
ENDMDL
MODEL 3
REMARK VINA RESULT:      -3.0      2.041      2.993
REMARK  3 active torsions:
REMARK  status: ('A' for Active; 'I' for Inactive)
REMARK    1  A    between atoms: C3_3  and  S5_5 
REMARK    2  A    between atoms: C4_4  and  S6_6 
REMARK    3  A    between atoms: S5_5  and  S6_6 
ROOT
HETATM    1  S5  UNL     1     -34.174   7.795   4.919  1.00 20.00    -0.098 SA
ENDROOT
BRANCH   1   2
HETATM    2  C3  UNL     1     -33.886   6.757   6.372  1.00 20.00     0.081 C 
HETATM    3  C1  UNL     1     -34.597   5.426   6.226  1.00 20.00     0.017 C 
ENDBRANCH   1   2
BRANCH   1   4
HETATM    4  S6  UNL     1     -32.254   8.184   4.296  1.00 20.00    -0.098 SA
BRANCH   4   5
HETATM    5  C4  UNL     1     -32.186   7.283   2.729  1.00 20.00     0.081 C 
HETATM    6  C2  UNL     1     -32.827   5.915   2.873  1.00 20.00     0.017 C 
ENDBRANCH   4   5
ENDBRANCH   1   4
TORSDOF 3
ENDMDL
MODEL 4
REMARK VINA RESULT:      -3.0      2.050      2.910
REMARK  3 active torsions:
REMARK  status: ('A' for Active; 'I' for Inactive)
REMARK    1  A    between atoms: C3_3  and  S5_5 
REMARK    2  A    between atoms: C4_4  and  S6_6 
REMARK    3  A    between atoms: S5_5  and  S6_6 
ROOT
HETATM    1  S5  UNL     1     -32.243   8.188   4.274  1.00 20.00    -0.098 SA
ENDROOT
BRANCH   1   2
HETATM    2  C3  UNL     1     -32.203   7.299   2.699  1.00 20.00     0.081 C 
HETATM    3  C1  UNL     1     -32.813   5.919   2.851  1.00 20.00     0.017 C 
ENDBRANCH   1   2
BRANCH   1   4
HETATM    4  S6  UNL     1     -34.160   7.813   4.917  1.00 20.00    -0.098 SA
BRANCH   4   5
HETATM    5  C4  UNL     1     -33.864   6.773   6.367  1.00 20.00     0.081 C 
HETATM    6  C2  UNL     1     -34.596   5.450   6.232  1.00 20.00     0.017 C 
ENDBRANCH   4   5
ENDBRANCH   1   4
TORSDOF 3
ENDMDL
MODEL 5
REMARK VINA RESULT:      -3.0      1.546      2.063
REMARK  3 active torsions:
REMARK  status: ('A' for Active; 'I' for Inactive)
REMARK    1  A    between atoms: C3_3  and  S5_5 
REMARK    2  A    between atoms: C4_4  and  S6_6 
REMARK    3  A    between atoms: S5_5  and  S6_6 
ROOT
HETATM    1  S5  UNL     1     -33.744   6.846   6.445  1.00 20.00    -0.098 SA
ENDROOT
BRANCH   1   2
HETATM    2  C3  UNL     1     -34.781   5.432   6.002  1.00 20.00     0.081 C 
HETATM    3  C1  UNL     1     -34.451   4.946   4.604  1.00 20.00     0.017 C 
ENDBRANCH   1   2
BRANCH   1   4
HETATM    4  S6  UNL     1     -33.921   8.034   4.775  1.00 20.00    -0.098 SA
BRANCH   4   5
HETATM    5  C4  UNL     1     -32.221   8.056   4.157  1.00 20.00     0.081 C 
HETATM    6  C2  UNL     1     -32.130   7.341   2.822  1.00 20.00     0.017 C 
ENDBRANCH   4   5
ENDBRANCH   1   4
TORSDOF 3
ENDMDL
MODEL 6
REMARK VINA RESULT:      -3.0      1.558      3.024
REMARK  3 active torsions:
REMARK  status: ('A' for Active; 'I' for Inactive)
REMARK    1  A    between atoms: C3_3  and  S5_5 
REMARK    2  A    between atoms: C4_4  and  S6_6 
REMARK    3  A    between atoms: S5_5  and  S6_6 
ROOT
HETATM    1  S5  UNL     1     -33.880   8.059   4.796  1.00 20.00    -0.098 SA
ENDROOT
BRANCH   1   2
HETATM    2  C3  UNL     1     -32.192   8.044   4.146  1.00 20.00     0.081 C 
HETATM    3  C1  UNL     1     -32.146   7.350   2.798  1.00 20.00     0.017 C 
ENDBRANCH   1   2
BRANCH   1   4
HETATM    4  S6  UNL     1     -33.706   6.834   6.439  1.00 20.00    -0.098 SA
BRANCH   4   5
HETATM    5  C4  UNL     1     -34.797   5.462   5.992  1.00 20.00     0.081 C 
HETATM    6  C2  UNL     1     -34.457   4.941   4.608  1.00 20.00     0.017 C 
ENDBRANCH   4   5
ENDBRANCH   1   4
TORSDOF 3
ENDMDL
MODEL 7
REMARK VINA RESULT:      -2.8      1.988      3.544
REMARK  3 active torsions:
REMARK  status: ('A' for Active; 'I' for Inactive)
REMARK    1  A    between atoms: C3_3  and  S5_5 
REMARK    2  A    between atoms: C4_4  and  S6_6 
REMARK    3  A    between atoms: S5_5  and  S6_6 
ROOT
HETATM    1  S5  UNL     1     -32.643   6.804   3.191  1.00 20.00    -0.098 SA
ENDROOT
BRANCH   1   2
HETATM    2  C3  UNL     1     -33.317   8.033   4.335  1.00 20.00     0.081 C 
HETATM    3  C1  UNL     1     -32.219   8.946   4.843  1.00 20.00     0.017 C 
ENDBRANCH   1   2
BRANCH   1   4
HETATM    4  S6  UNL     1     -33.740   5.134   3.678  1.00 20.00    -0.098 SA
BRANCH   4   5
HETATM    5  C4  UNL     1     -34.955   5.815   4.831  1.00 20.00     0.081 C 
HETATM    6  C2  UNL     1     -34.644   5.381   6.251  1.00 20.00     0.017 C 
ENDBRANCH   4   5
ENDBRANCH   1   4
TORSDOF 3
ENDMDL
MODEL 8
REMARK VINA RESULT:      -2.7      1.993      2.276
REMARK  3 active torsions:
REMARK  status: ('A' for Active; 'I' for Inactive)
REMARK    1  A    between atoms: C3_3  and  S5_5 
REMARK    2  A    between atoms: C4_4  and  S6_6 
REMARK    3  A    between atoms: S5_5  and  S6_6 
ROOT
HETATM    1  S5  UNL     1     -33.674   5.154   3.620  1.00 20.00    -0.098 SA
ENDROOT
BRANCH   1   2
HETATM    2  C3  UNL     1     -34.919   5.824   4.748  1.00 20.00     0.081 C 
HETATM    3  C1  UNL     1     -34.638   5.388   6.172  1.00 20.00     0.017 C 
ENDBRANCH   1   2
BRANCH   1   4
HETATM    4  S6  UNL     1     -32.585   6.835   3.153  1.00 20.00    -0.098 SA
BRANCH   4   5
HETATM    5  C4  UNL     1     -33.330   8.071   4.244  1.00 20.00     0.081 C 
HETATM    6  C2  UNL     1     -32.256   8.907   4.913  1.00 20.00     0.017 C 
ENDBRANCH   4   5
ENDBRANCH   1   4
TORSDOF 3
ENDMDL
MODEL 9
REMARK VINA RESULT:      -2.5      2.657      3.084
REMARK  3 active torsions:
REMARK  status: ('A' for Active; 'I' for Inactive)
REMARK    1  A    between atoms: C3_3  and  S5_5 
REMARK    2  A    between atoms: C4_4  and  S6_6 
REMARK    3  A    between atoms: S5_5  and  S6_6 
ROOT
HETATM    1  S5  UNL     1     -33.521   7.719   4.865  1.00 20.00    -0.098 SA
ENDROOT
BRANCH   1   2
HETATM    2  C3  UNL     1     -34.451   6.169   4.796  1.00 20.00     0.081 C 
HETATM    3  C1  UNL     1     -34.627   5.591   6.187  1.00 20.00     0.017 C 
ENDBRANCH   1   2
BRANCH   1   4
HETATM    4  S6  UNL     1     -32.267   7.526   3.247  1.00 20.00    -0.098 SA
BRANCH   4   5
HETATM    5  C4  UNL     1     -32.680   9.002   2.284  1.00 20.00     0.081 C 
HETATM    6  C2  UNL     1     -32.415   8.766   0.809  1.00 20.00     0.017 C 
ENDBRANCH   4   5
ENDBRANCH   1   4
TORSDOF 3
ENDMDL
