MODEL 1
REMARK VINA RESULT:      -2.8      0.000      0.000
REMARK  3 active torsions:
REMARK  status: ('A' for Active; 'I' for Inactive)
REMARK    1  A    between atoms: C5_5  and  S7_7 
REMARK    2  A    between atoms: C6_6  and  S8_8 
REMARK    3  A    between atoms: S7_7  and  S8_8 
ROOT
HETATM    1  S7  UNL     1     -33.644  14.979  -4.114  1.00 20.00    -0.093 SA
ENDROOT
BRANCH   1   2
HETATM    2  C5  UNL     1     -33.322  16.695  -3.588  1.00 20.00     0.050 C 
HETATM    3  C1  UNL     1     -34.284  17.640  -4.299  1.00 20.00     0.022 C 
HETATM    4  C2  UNL     1     -33.457  16.802  -2.073  1.00 20.00     0.022 C 
ENDBRANCH   1   2
BRANCH   1   5
HETATM    5  S8  UNL     1     -33.996  15.233  -6.121  1.00 20.00    -0.093 SA
BRANCH   5   6
HETATM    6  C6  UNL     1     -35.726  14.727  -6.260  1.00 20.00     0.050 C 
HETATM    7  C3  UNL     1     -36.169  14.050  -4.968  1.00 20.00     0.022 C 
HETATM    8  C4  UNL     1     -36.593  15.941  -6.577  1.00 20.00     0.022 C 
ENDBRANCH   5   6
ENDBRANCH   1   5
TORSDOF 3
ENDMDL
MODEL 2
REMARK VINA RESULT:      -2.8      2.851      5.713
REMARK  3 active torsions:
REMARK  status: ('A' for Active; 'I' for Inactive)
REMARK    1  A    between atoms: C5_5  and  S7_7 
REMARK    2  A    between atoms: C6_6  and  S8_8 
REMARK    3  A    between atoms: S7_7  and  S8_8 
ROOT
HETATM    1  S7  UNL     1     -33.493  16.948  -2.032  1.00 20.00    -0.093 SA
ENDROOT
BRANCH   1   2
HETATM    2  C5  UNL     1     -33.473  16.584  -3.820  1.00 20.00     0.050 C 
HETATM    3  C1  UNL     1     -33.606  15.082  -4.040  1.00 20.00     0.022 C 
HETATM    4  C2  UNL     1     -34.596  17.349  -4.512  1.00 20.00     0.022 C 
ENDBRANCH   1   2
BRANCH   1   5
HETATM    5  S8  UNL     1     -32.641  18.816  -1.993  1.00 20.00    -0.093 SA
BRANCH   5   6
HETATM    6  C6  UNL     1     -32.432  19.089  -0.217  1.00 20.00     0.050 C 
HETATM    7  C3  UNL     1     -33.534  18.364   0.547  1.00 20.00     0.022 C 
HETATM    8  C4  UNL     1     -31.050  18.616   0.217  1.00 20.00     0.022 C 
ENDBRANCH   5   6
ENDBRANCH   1   5
TORSDOF 3
ENDMDL
MODEL 3
REMARK VINA RESULT:      -2.8      2.675      3.738
REMARK  3 active torsions:
REMARK  status: ('A' for Active; 'I' for Inactive)
REMARK    1  A    between atoms: C5_5  and  S7_7 
REMARK    2  A    between atoms: C6_6  and  S8_8 
REMARK    3  A    between atoms: S7_7  and  S8_8 
ROOT
HETATM    1  S7  UNL     1     -32.833  18.678  -2.323  1.00 20.00    -0.093 SA
ENDROOT
BRANCH   1   2
HETATM    2  C5  UNL     1     -32.562  19.026  -0.553  1.00 20.00     0.050 C 
HETATM    3  C1  UNL     1     -33.618  18.308   0.279  1.00 20.00     0.022 C 
HETATM    4  C2  UNL     1     -31.154  18.597  -0.155  1.00 20.00     0.022 C 
ENDBRANCH   1   2
BRANCH   1   5
HETATM    5  S8  UNL     1     -33.476  16.729  -2.257  1.00 20.00    -0.093 SA
BRANCH   5   6
HETATM    6  C6  UNL     1     -33.586  16.316  -4.014  1.00 20.00     0.050 C 
HETATM    7  C3  UNL     1     -33.812  14.817  -4.177  1.00 20.00     0.022 C 
HETATM    8  C4  UNL     1     -34.707  17.120  -4.662  1.00 20.00     0.022 C 
ENDBRANCH   5   6
ENDBRANCH   1   5
TORSDOF 3
ENDMDL
MODEL 4
REMARK VINA RESULT:      -2.8     12.604     13.680
REMARK  3 active torsions:
REMARK  status: ('A' for Active; 'I' for Inactive)
REMARK    1  A    between atoms: C5_5  and  S7_7 
REMARK    2  A    between atoms: C6_6  and  S8_8 
REMARK    3  A    between atoms: S7_7  and  S8_8 
ROOT
HETATM    1  S7  UNL     1     -41.003  13.247   5.171  1.00 20.00    -0.093 SA
ENDROOT
BRANCH   1   2
HETATM    2  C5  UNL     1     -39.855  11.834   5.276  1.00 20.00     0.050 C 
HETATM    3  C1  UNL     1     -39.051  11.728   3.986  1.00 20.00     0.022 C 
HETATM    4  C2  UNL     1     -38.943  12.002   6.487  1.00 20.00     0.022 C 
ENDBRANCH   1   2
BRANCH   1   5
HETATM    5  S8  UNL     1     -40.923  13.976   7.089  1.00 20.00    -0.093 SA
BRANCH   5   6
HETATM    6  C6  UNL     1     -42.590  13.617   7.691  1.00 20.00     0.050 C 
HETATM    7  C3  UNL     1     -43.021  12.233   7.217  1.00 20.00     0.022 C 
HETATM    8  C4  UNL     1     -42.621  13.718   9.211  1.00 20.00     0.022 C 
ENDBRANCH   5   6
ENDBRANCH   1   5
TORSDOF 3
ENDMDL
MODEL 5
REMARK VINA RESULT:      -2.8     12.551     13.581
REMARK  3 active torsions:
REMARK  status: ('A' for Active; 'I' for Inactive)
REMARK    1  A    between atoms: C5_5  and  S7_7 
REMARK    2  A    between atoms: C6_6  and  S8_8 
REMARK    3  A    between atoms: S7_7  and  S8_8 
ROOT
HETATM    1  S7  UNL     1     -40.814  14.096   7.019  1.00 20.00    -0.093 SA
ENDROOT
BRANCH   1   2
HETATM    2  C5  UNL     1     -42.462  13.756   7.724  1.00 20.00     0.050 C 
HETATM    3  C1  UNL     1     -42.955  12.396   7.246  1.00 20.00     0.022 C 
HETATM    4  C2  UNL     1     -42.393  13.820   9.246  1.00 20.00     0.022 C 
ENDBRANCH   1   2
BRANCH   1   5
HETATM    5  S8  UNL     1     -40.984  13.231   5.164  1.00 20.00    -0.093 SA
BRANCH   5   6
HETATM    6  C6  UNL     1     -39.851  11.829   5.305  1.00 20.00     0.050 C 
HETATM    7  C3  UNL     1     -39.033  11.699   4.025  1.00 20.00     0.022 C 
HETATM    8  C4  UNL     1     -38.953  12.013   6.522  1.00 20.00     0.022 C 
ENDBRANCH   5   6
ENDBRANCH   1   5
TORSDOF 3
ENDMDL
MODEL 6
REMARK VINA RESULT:      -2.7     11.978     13.413
REMARK  3 active torsions:
REMARK  status: ('A' for Active; 'I' for Inactive)
REMARK    1  A    between atoms: C5_5  and  S7_7 
REMARK    2  A    between atoms: C6_6  and  S8_8 
REMARK    3  A    between atoms: S7_7  and  S8_8 
ROOT
HETATM    1  S7  UNL     1     -40.984  13.353   5.303  1.00 20.00    -0.093 SA
ENDROOT
BRANCH   1   2
HETATM    2  C5  UNL     1     -39.902  11.887   5.384  1.00 20.00     0.050 C 
HETATM    3  C1  UNL     1     -39.153  11.728   4.067  1.00 20.00     0.022 C 
HETATM    4  C2  UNL     1     -38.939  12.022   6.558  1.00 20.00     0.022 C 
ENDBRANCH   1   2
BRANCH   1   5
HETATM    5  S8  UNL     1     -41.392  13.662   7.292  1.00 20.00    -0.093 SA
BRANCH   5   6
HETATM    6  C6  UNL     1     -40.512  15.208   7.614  1.00 20.00     0.050 C 
HETATM    7  C3  UNL     1     -41.361  16.388   7.155  1.00 20.00     0.022 C 
HETATM    8  C4  UNL     1     -40.176  15.310   9.098  1.00 20.00     0.022 C 
ENDBRANCH   5   6
ENDBRANCH   1   5
TORSDOF 3
ENDMDL
MODEL 7
REMARK VINA RESULT:      -2.7      2.169      2.854
REMARK  3 active torsions:
REMARK  status: ('A' for Active; 'I' for Inactive)
REMARK    1  A    between atoms: C5_5  and  S7_7 
REMARK    2  A    between atoms: C6_6  and  S8_8 
REMARK    3  A    between atoms: S7_7  and  S8_8 
ROOT
HETATM    1  S7  UNL     1     -33.356  16.690  -2.742  1.00 20.00    -0.093 SA
ENDROOT
BRANCH   1   2
HETATM    2  C5  UNL     1     -33.699  18.209  -1.792  1.00 20.00     0.050 C 
HETATM    3  C1  UNL     1     -33.767  17.882  -0.306  1.00 20.00     0.022 C 
HETATM    4  C2  UNL     1     -32.624  19.251  -2.084  1.00 20.00     0.022 C 
ENDBRANCH   1   2
BRANCH   1   5
HETATM    5  S8  UNL     1     -34.322  17.092  -4.508  1.00 20.00    -0.093 SA
BRANCH   5   6
HETATM    6  C6  UNL     1     -34.678  15.428  -5.122  1.00 20.00     0.050 C 
HETATM    7  C3  UNL     1     -34.149  15.280  -6.544  1.00 20.00     0.022 C 
HETATM    8  C4  UNL     1     -34.062  14.393  -4.189  1.00 20.00     0.022 C 
ENDBRANCH   5   6
ENDBRANCH   1   5
TORSDOF 3
ENDMDL
MODEL 8
REMARK VINA RESULT:      -2.7     12.152     13.280
REMARK  3 active torsions:
REMARK  status: ('A' for Active; 'I' for Inactive)
REMARK    1  A    between atoms: C5_5  and  S7_7 
REMARK    2  A    between atoms: C6_6  and  S8_8 
REMARK    3  A    between atoms: S7_7  and  S8_8 
ROOT
HETATM    1  S7  UNL     1     -33.340   7.743   5.269  1.00 20.00    -0.093 SA
ENDROOT
BRANCH   1   2
HETATM    2  C5  UNL     1     -32.241   8.099   3.857  1.00 20.00     0.050 C 
HETATM    3  C1  UNL     1     -32.250   6.921   2.889  1.00 20.00     0.022 C 
HETATM    4  C2  UNL     1     -32.685   9.386   3.171  1.00 20.00     0.022 C 
ENDBRANCH   1   2
BRANCH   1   5
HETATM    5  S8  UNL     1     -34.884   6.759   4.339  1.00 20.00    -0.093 SA
BRANCH   5   6
HETATM    6  C6  UNL     1     -34.846   5.150   5.165  1.00 20.00     0.050 C 
HETATM    7  C3  UNL     1     -33.944   4.197   4.391  1.00 20.00     0.022 C 
HETATM    8  C4  UNL     1     -34.371   5.321   6.603  1.00 20.00     0.022 C 
ENDBRANCH   5   6
ENDBRANCH   1   5
TORSDOF 3
ENDMDL
MODEL 9
REMARK VINA RESULT:      -2.7     12.150     13.429
REMARK  3 active torsions:
REMARK  status: ('A' for Active; 'I' for Inactive)
REMARK    1  A    between atoms: C5_5  and  S7_7 
REMARK    2  A    between atoms: C6_6  and  S8_8 
REMARK    3  A    between atoms: S7_7  and  S8_8 
ROOT
HETATM    1  S7  UNL     1     -34.900   6.827   4.394  1.00 20.00    -0.093 SA
ENDROOT
BRANCH   1   2
HETATM    2  C5  UNL     1     -34.850   5.181   5.178  1.00 20.00     0.050 C 
HETATM    3  C1  UNL     1     -33.983   4.242   4.348  1.00 20.00     0.022 C 
HETATM    4  C2  UNL     1     -34.327   5.306   6.605  1.00 20.00     0.022 C 
ENDBRANCH   1   2
BRANCH   1   5
HETATM    5  S8  UNL     1     -33.297   7.747   5.289  1.00 20.00    -0.093 SA
BRANCH   5   6
HETATM    6  C6  UNL     1     -32.226   8.085   3.871  1.00 20.00     0.050 C 
HETATM    7  C3  UNL     1     -32.267   6.906   2.905  1.00 20.00     0.022 C 
HETATM    8  C4  UNL     1     -32.664   9.376   3.191  1.00 20.00     0.022 C 
ENDBRANCH   5   6
ENDBRANCH   1   5
TORSDOF 3
ENDMDL
