MODEL 1
REMARK VINA RESULT:      -5.8      0.000      0.000
REMARK  1 active torsions:
REMARK  status: ('A' for Active; 'I' for Inactive)
REMARK    1  A    between atoms: C6_6  and  C8_8 
ROOT
HETATM    1  C1  UNL     1     -34.809   5.297   5.977  1.00 20.00     0.000 A 
HETATM    2  C2  UNL     1     -34.485   5.040   4.645  1.00 20.00     0.001 A 
HETATM    3  C3  UNL     1     -34.394   6.485   6.579  1.00 20.00     0.001 A 
HETATM    4  C4  UNL     1     -33.745   5.970   3.915  1.00 20.00     0.007 A 
HETATM    5  C5  UNL     1     -33.654   7.416   5.849  1.00 20.00     0.007 A 
HETATM    6  C6  UNL     1     -33.330   7.158   4.517  1.00 20.00    -0.059 A 
ENDROOT
BRANCH   6   7
HETATM    7  C8  UNL     1     -32.538   8.153   3.737  1.00 20.00     0.034 C 
HETATM    8  C7  UNL     1     -32.184   7.647   2.341  1.00 20.00     0.010 C 
ENDBRANCH   6   7
TORSDOF 1
ENDMDL
MODEL 2
REMARK VINA RESULT:      -5.8      0.018      1.709
REMARK  1 active torsions:
REMARK  status: ('A' for Active; 'I' for Inactive)
REMARK    1  A    between atoms: C6_6  and  C8_8 
ROOT
HETATM    1  C1  UNL     1     -34.821   5.298   5.981  1.00 20.00     0.000 A 
HETATM    2  C2  UNL     1     -34.404   6.487   6.582  1.00 20.00     0.001 A 
HETATM    3  C3  UNL     1     -34.501   5.042   4.648  1.00 20.00     0.001 A 
HETATM    4  C4  UNL     1     -33.670   7.419   5.849  1.00 20.00     0.007 A 
HETATM    5  C5  UNL     1     -33.766   5.974   3.914  1.00 20.00     0.007 A 
HETATM    6  C6  UNL     1     -33.350   7.162   4.516  1.00 20.00    -0.059 A 
ENDROOT
BRANCH   6   7
HETATM    7  C8  UNL     1     -32.565   8.158   3.732  1.00 20.00     0.034 C 
HETATM    8  C7  UNL     1     -32.196   7.644   2.343  1.00 20.00     0.010 C 
ENDBRANCH   6   7
TORSDOF 1
ENDMDL
MODEL 3
REMARK VINA RESULT:      -5.8      0.593      1.034
REMARK  1 active torsions:
REMARK  status: ('A' for Active; 'I' for Inactive)
REMARK    1  A    between atoms: C6_6  and  C8_8 
ROOT
HETATM    1  C1  UNL     1     -34.845   5.119   5.884  1.00 20.00     0.000 A 
HETATM    2  C2  UNL     1     -34.470   4.925   4.554  1.00 20.00     0.001 A 
HETATM    3  C3  UNL     1     -34.498   6.299   6.542  1.00 20.00     0.001 A 
HETATM    4  C4  UNL     1     -33.747   5.911   3.882  1.00 20.00     0.007 A 
HETATM    5  C5  UNL     1     -33.776   7.286   5.870  1.00 20.00     0.007 A 
HETATM    6  C6  UNL     1     -33.401   7.091   4.540  1.00 20.00    -0.059 A 
ENDROOT
BRANCH   6   7
HETATM    7  C8  UNL     1     -32.628   8.146   3.822  1.00 20.00     0.034 C 
HETATM    8  C7  UNL     1     -32.110   9.229   4.765  1.00 20.00     0.010 C 
ENDBRANCH   6   7
TORSDOF 1
ENDMDL
MODEL 4
REMARK VINA RESULT:      -5.4      0.804      3.784
REMARK  1 active torsions:
REMARK  status: ('A' for Active; 'I' for Inactive)
REMARK    1  A    between atoms: C6_6  and  C8_8 
ROOT
HETATM    1  C1  UNL     1     -31.991   8.457   3.725  1.00 20.00     0.000 A 
HETATM    2  C2  UNL     1     -32.678   8.649   4.924  1.00 20.00     0.001 A 
HETATM    3  C3  UNL     1     -32.233   7.318   2.957  1.00 20.00     0.001 A 
HETATM    4  C4  UNL     1     -33.607   7.702   5.355  1.00 20.00     0.007 A 
HETATM    5  C5  UNL     1     -33.162   6.371   3.388  1.00 20.00     0.007 A 
HETATM    6  C6  UNL     1     -33.849   6.564   4.586  1.00 20.00    -0.059 A 
ENDROOT
BRANCH   6   7
HETATM    7  C8  UNL     1     -34.842   5.551   5.047  1.00 20.00     0.034 C 
HETATM    8  C7  UNL     1     -34.733   5.268   6.543  1.00 20.00     0.010 C 
ENDBRANCH   6   7
TORSDOF 1
ENDMDL
MODEL 5
REMARK VINA RESULT:      -5.4      0.799      3.387
REMARK  1 active torsions:
REMARK  status: ('A' for Active; 'I' for Inactive)
REMARK    1  A    between atoms: C6_6  and  C8_8 
ROOT
HETATM    1  C1  UNL     1     -32.001   8.452   3.719  1.00 20.00     0.000 A 
HETATM    2  C2  UNL     1     -32.236   7.311   2.951  1.00 20.00     0.001 A 
HETATM    3  C3  UNL     1     -32.689   8.639   4.918  1.00 20.00     0.001 A 
HETATM    4  C4  UNL     1     -33.159   6.358   3.381  1.00 20.00     0.007 A 
HETATM    5  C5  UNL     1     -33.612   7.686   5.349  1.00 20.00     0.007 A 
HETATM    6  C6  UNL     1     -33.847   6.546   4.581  1.00 20.00    -0.059 A 
ENDROOT
BRANCH   6   7
HETATM    7  C8  UNL     1     -34.834   5.527   5.041  1.00 20.00     0.034 C 
HETATM    8  C7  UNL     1     -34.730   5.254   6.539  1.00 20.00     0.010 C 
ENDBRANCH   6   7
TORSDOF 1
ENDMDL
MODEL 6
REMARK VINA RESULT:      -5.4      0.805      3.721
REMARK  1 active torsions:
REMARK  status: ('A' for Active; 'I' for Inactive)
REMARK    1  A    between atoms: C6_6  and  C8_8 
ROOT
HETATM    1  C1  UNL     1     -32.167   7.700   2.806  1.00 20.00     0.000 A 
HETATM    2  C2  UNL     1     -32.267   8.623   3.847  1.00 20.00     0.001 A 
HETATM    3  C3  UNL     1     -32.788   6.456   2.915  1.00 20.00     0.001 A 
HETATM    4  C4  UNL     1     -32.987   8.302   4.997  1.00 20.00     0.007 A 
HETATM    5  C5  UNL     1     -33.508   6.134   4.066  1.00 20.00     0.007 A 
HETATM    6  C6  UNL     1     -33.607   7.058   5.106  1.00 20.00    -0.059 A 
ENDROOT
BRANCH   6   7
HETATM    7  C8  UNL     1     -34.377   6.713   6.337  1.00 20.00     0.034 C 
HETATM    8  C7  UNL     1     -34.667   5.219   6.441  1.00 20.00     0.010 C 
ENDBRANCH   6   7
TORSDOF 1
ENDMDL
MODEL 7
REMARK VINA RESULT:      -5.1      1.002      1.692
REMARK  1 active torsions:
REMARK  status: ('A' for Active; 'I' for Inactive)
REMARK    1  A    between atoms: C6_6  and  C8_8 
ROOT
HETATM    1  C1  UNL     1     -34.595   6.516   6.629  1.00 20.00     0.000 A 
HETATM    2  C2  UNL     1     -34.825   5.368   5.869  1.00 20.00     0.001 A 
HETATM    3  C3  UNL     1     -33.819   7.552   6.109  1.00 20.00     0.001 A 
HETATM    4  C4  UNL     1     -34.277   5.256   4.592  1.00 20.00     0.007 A 
HETATM    5  C5  UNL     1     -33.271   7.440   4.831  1.00 20.00     0.007 A 
HETATM    6  C6  UNL     1     -33.501   6.292   4.072  1.00 20.00    -0.059 A 
ENDROOT
BRANCH   6   7
HETATM    7  C8  UNL     1     -32.915   6.173   2.706  1.00 20.00     0.034 C 
HETATM    8  C7  UNL     1     -32.856   4.726   2.224  1.00 20.00     0.010 C 
ENDBRANCH   6   7
TORSDOF 1
ENDMDL
MODEL 8
REMARK VINA RESULT:      -5.1      1.036      2.110
REMARK  1 active torsions:
REMARK  status: ('A' for Active; 'I' for Inactive)
REMARK    1  A    between atoms: C6_6  and  C8_8 
ROOT
HETATM    1  C1  UNL     1     -34.717   6.232   6.597  1.00 20.00     0.000 A 
HETATM    2  C2  UNL     1     -33.944   7.332   6.225  1.00 20.00     0.001 A 
HETATM    3  C3  UNL     1     -34.871   5.159   5.719  1.00 20.00     0.001 A 
HETATM    4  C4  UNL     1     -33.327   7.360   4.975  1.00 20.00     0.007 A 
HETATM    5  C5  UNL     1     -34.253   5.186   4.468  1.00 20.00     0.007 A 
HETATM    6  C6  UNL     1     -33.481   6.287   4.097  1.00 20.00    -0.059 A 
ENDROOT
BRANCH   6   7
HETATM    7  C8  UNL     1     -32.821   6.317   2.759  1.00 20.00     0.034 C 
HETATM    8  C7  UNL     1     -32.864   4.960   2.061  1.00 20.00     0.010 C 
ENDBRANCH   6   7
TORSDOF 1
ENDMDL
MODEL 9
REMARK VINA RESULT:      -4.5      1.173      2.753
REMARK  1 active torsions:
REMARK  status: ('A' for Active; 'I' for Inactive)
REMARK    1  A    between atoms: C6_6  and  C8_8 
ROOT
HETATM    1  C1  UNL     1     -32.935   8.853   5.387  1.00 20.00     0.000 A 
HETATM    2  C2  UNL     1     -32.297   8.491   4.201  1.00 20.00     0.001 A 
HETATM    3  C3  UNL     1     -33.852   7.985   5.979  1.00 20.00     0.001 A 
HETATM    4  C4  UNL     1     -32.575   7.261   3.606  1.00 20.00     0.007 A 
HETATM    5  C5  UNL     1     -34.131   6.754   5.384  1.00 20.00     0.007 A 
HETATM    6  C6  UNL     1     -33.492   6.392   4.198  1.00 20.00    -0.059 A 
ENDROOT
BRANCH   6   7
HETATM    7  C8  UNL     1     -33.791   5.077   3.562  1.00 20.00     0.034 C 
HETATM    8  C7  UNL     1     -32.929   4.818   2.329  1.00 20.00     0.010 C 
ENDBRANCH   6   7
TORSDOF 1
ENDMDL
