MODEL 1
REMARK VINA RESULT:      -5.5      0.000      0.000
REMARK  0 active torsions:
REMARK  status: ('A' for Active; 'I' for Inactive)
ROOT
HETATM    1  C1  UNL     1     -34.315   6.670   6.438  1.00 20.00     0.000 A 
HETATM    2  C2  UNL     1     -34.717   5.397   6.032  1.00 20.00     0.003 A 
HETATM    3  C3  UNL     1     -33.614   7.494   5.558  1.00 20.00     0.003 A 
HETATM    4  C4  UNL     1     -34.419   4.950   4.745  1.00 20.00     0.042 A 
HETATM    5  C5  UNL     1     -33.315   7.046   4.271  1.00 20.00     0.042 A 
HETATM    6  C6  UNL     1     -33.718   5.774   3.865  1.00 20.00     0.116 A 
HETATM    7  F7  UNL     1     -33.431   5.343   2.629  1.00 20.00    -0.206 F 
ENDROOT
TORSDOF 0
ENDMDL
MODEL 2
REMARK VINA RESULT:      -5.5      0.004      1.826
REMARK  0 active torsions:
REMARK  status: ('A' for Active; 'I' for Inactive)
ROOT
HETATM    1  C1  UNL     1     -34.315   6.673   6.438  1.00 20.00     0.000 A 
HETATM    2  C2  UNL     1     -33.611   7.496   5.558  1.00 20.00     0.003 A 
HETATM    3  C3  UNL     1     -34.721   5.403   6.031  1.00 20.00     0.003 A 
HETATM    4  C4  UNL     1     -33.313   7.046   4.272  1.00 20.00     0.042 A 
HETATM    5  C5  UNL     1     -34.423   4.953   4.744  1.00 20.00     0.042 A 
HETATM    6  C6  UNL     1     -33.719   5.776   3.865  1.00 20.00     0.116 A 
HETATM    7  F7  UNL     1     -33.434   5.344   2.629  1.00 20.00    -0.206 F 
ENDROOT
TORSDOF 0
ENDMDL
MODEL 3
REMARK VINA RESULT:      -5.4      0.938      2.042
REMARK  0 active torsions:
REMARK  status: ('A' for Active; 'I' for Inactive)
ROOT
HETATM    1  C1  UNL     1     -34.708   5.626   6.207  1.00 20.00     0.000 A 
HETATM    2  C2  UNL     1     -34.153   6.885   6.438  1.00 20.00     0.003 A 
HETATM    3  C3  UNL     1     -34.561   5.017   4.961  1.00 20.00     0.003 A 
HETATM    4  C4  UNL     1     -33.449   7.533   5.422  1.00 20.00     0.042 A 
HETATM    5  C5  UNL     1     -33.858   5.665   3.945  1.00 20.00     0.042 A 
HETATM    6  C6  UNL     1     -33.303   6.923   4.177  1.00 20.00     0.116 A 
HETATM    7  F7  UNL     1     -32.627   7.547   3.202  1.00 20.00    -0.206 F 
ENDROOT
TORSDOF 0
ENDMDL
MODEL 4
REMARK VINA RESULT:      -5.4      0.935      1.405
REMARK  0 active torsions:
REMARK  status: ('A' for Active; 'I' for Inactive)
ROOT
HETATM    1  C1  UNL     1     -34.710   5.697   6.235  1.00 20.00     0.000 A 
HETATM    2  C2  UNL     1     -34.575   5.050   5.007  1.00 20.00     0.003 A 
HETATM    3  C3  UNL     1     -34.126   6.948   6.433  1.00 20.00     0.003 A 
HETATM    4  C4  UNL     1     -33.857   5.656   3.976  1.00 20.00     0.042 A 
HETATM    5  C5  UNL     1     -33.407   7.553   5.402  1.00 20.00     0.042 A 
HETATM    6  C6  UNL     1     -33.272   6.907   4.174  1.00 20.00     0.116 A 
HETATM    7  F7  UNL     1     -32.582   7.488   3.184  1.00 20.00    -0.206 F 
ENDROOT
TORSDOF 0
ENDMDL
MODEL 5
REMARK VINA RESULT:      -5.4      1.684      2.581
REMARK  0 active torsions:
REMARK  status: ('A' for Active; 'I' for Inactive)
ROOT
HETATM    1  C1  UNL     1     -34.654   5.051   5.170  1.00 20.00     0.000 A 
HETATM    2  C2  UNL     1     -34.043   5.534   4.012  1.00 20.00     0.003 A 
HETATM    3  C3  UNL     1     -34.654   5.821   6.332  1.00 20.00     0.003 A 
HETATM    4  C4  UNL     1     -33.433   6.789   4.019  1.00 20.00     0.042 A 
HETATM    5  C5  UNL     1     -34.043   7.075   6.339  1.00 20.00     0.042 A 
HETATM    6  C6  UNL     1     -33.433   7.559   5.182  1.00 20.00     0.116 A 
HETATM    7  F7  UNL     1     -32.847   8.763   5.187  1.00 20.00    -0.206 F 
ENDROOT
TORSDOF 0
ENDMDL
MODEL 6
REMARK VINA RESULT:      -5.4      1.676      2.444
REMARK  0 active torsions:
REMARK  status: ('A' for Active; 'I' for Inactive)
ROOT
HETATM    1  C1  UNL     1     -34.652   5.019   5.156  1.00 20.00     0.000 A 
HETATM    2  C2  UNL     1     -34.653   5.778   6.326  1.00 20.00     0.003 A 
HETATM    3  C3  UNL     1     -34.043   5.513   4.003  1.00 20.00     0.003 A 
HETATM    4  C4  UNL     1     -34.042   7.032   6.343  1.00 20.00     0.042 A 
HETATM    5  C5  UNL     1     -33.433   6.768   4.020  1.00 20.00     0.042 A 
HETATM    6  C6  UNL     1     -33.433   7.527   5.190  1.00 20.00     0.116 A 
HETATM    7  F7  UNL     1     -32.848   8.732   5.207  1.00 20.00    -0.206 F 
ENDROOT
TORSDOF 0
ENDMDL
MODEL 7
REMARK VINA RESULT:      -5.1      1.971      3.242
REMARK  0 active torsions:
REMARK  status: ('A' for Active; 'I' for Inactive)
ROOT
HETATM    1  C1  UNL     1     -33.622   5.573   3.611  1.00 20.00     0.000 A 
HETATM    2  C2  UNL     1     -33.182   6.870   3.876  1.00 20.00     0.003 A 
HETATM    3  C3  UNL     1     -34.366   4.879   4.565  1.00 20.00     0.003 A 
HETATM    4  C4  UNL     1     -33.489   7.473   5.096  1.00 20.00     0.042 A 
HETATM    5  C5  UNL     1     -34.671   5.482   5.786  1.00 20.00     0.042 A 
HETATM    6  C6  UNL     1     -34.232   6.779   6.050  1.00 20.00     0.116 A 
HETATM    7  F7  UNL     1     -34.525   7.358   7.222  1.00 20.00    -0.206 F 
ENDROOT
TORSDOF 0
ENDMDL
MODEL 8
REMARK VINA RESULT:      -5.0      0.982      1.603
REMARK  0 active torsions:
REMARK  status: ('A' for Active; 'I' for Inactive)
ROOT
HETATM    1  C1  UNL     1     -33.492   7.948   5.507  1.00 20.00     0.000 A 
HETATM    2  C2  UNL     1     -34.193   7.104   6.368  1.00 20.00     0.003 A 
HETATM    3  C3  UNL     1     -33.124   7.502   4.238  1.00 20.00     0.003 A 
HETATM    4  C4  UNL     1     -34.527   5.813   5.958  1.00 20.00     0.042 A 
HETATM    5  C5  UNL     1     -33.457   6.211   3.829  1.00 20.00     0.042 A 
HETATM    6  C6  UNL     1     -34.159   5.367   4.689  1.00 20.00     0.116 A 
HETATM    7  F7  UNL     1     -34.480   4.127   4.296  1.00 20.00    -0.206 F 
ENDROOT
TORSDOF 0
ENDMDL
MODEL 9
REMARK VINA RESULT:      -5.0      0.903      2.032
REMARK  0 active torsions:
REMARK  status: ('A' for Active; 'I' for Inactive)
ROOT
HETATM    1  C1  UNL     1     -33.640   7.809   5.557  1.00 20.00     0.000 A 
HETATM    2  C2  UNL     1     -33.208   7.461   4.278  1.00 20.00     0.003 A 
HETATM    3  C3  UNL     1     -34.297   6.870   6.352  1.00 20.00     0.003 A 
HETATM    4  C4  UNL     1     -33.431   6.172   3.794  1.00 20.00     0.042 A 
HETATM    5  C5  UNL     1     -34.522   5.581   5.868  1.00 20.00     0.042 A 
HETATM    6  C6  UNL     1     -34.088   5.233   4.589  1.00 20.00     0.116 A 
HETATM    7  F7  UNL     1     -34.303   3.995   4.123  1.00 20.00    -0.206 F 
ENDROOT
TORSDOF 0
ENDMDL
