MODEL 1
REMARK VINA RESULT:      -6.9      0.000      0.000
REMARK  0 active torsions:
REMARK  status: ('A' for Active; 'I' for Inactive)
ROOT
HETATM    1  C1  UNL     1     -34.770   5.671   6.278  1.00 20.00     0.001 A 
HETATM    2  C2  UNL     1     -34.647   4.906   5.106  1.00 20.00     0.001 A 
HETATM    3  C3  UNL     1     -34.170   6.931   6.376  1.00 20.00     0.012 A 
HETATM    4  C4  UNL     1     -33.923   5.384   4.012  1.00 20.00     0.008 A 
HETATM    5  C5  UNL     1     -33.456   7.397   5.288  1.00 20.00    -0.030 A 
HETATM    6  C6  UNL     1     -33.333   6.631   4.120  1.00 20.00    -0.044 A 
HETATM    7  C7  UNL     1     -32.739   8.648   5.109  1.00 20.00     0.008 A 
HETATM    8  C8  UNL     1     -32.202   8.641   3.880  1.00 20.00    -0.021 A 
HETATM    9  C9  UNL     1     -32.512   7.376   3.114  1.00 20.00     0.066 A 
ENDROOT
TORSDOF 0
ENDMDL
MODEL 2
REMARK VINA RESULT:      -6.9      0.552      3.140
REMARK  0 active torsions:
REMARK  status: ('A' for Active; 'I' for Inactive)
ROOT
HETATM    1  C1  UNL     1     -32.280   8.507   3.981  1.00 20.00     0.001 A 
HETATM    2  C2  UNL     1     -32.261   7.545   2.957  1.00 20.00     0.001 A 
HETATM    3  C3  UNL     1     -32.976   8.270   5.171  1.00 20.00     0.012 A 
HETATM    4  C4  UNL     1     -32.936   6.331   3.102  1.00 20.00     0.008 A 
HETATM    5  C5  UNL     1     -33.641   7.066   5.307  1.00 20.00    -0.030 A 
HETATM    6  C6  UNL     1     -33.622   6.108   4.283  1.00 20.00    -0.044 A 
HETATM    7  C7  UNL     1     -34.432   6.557   6.414  1.00 20.00     0.008 A 
HETATM    8  C8  UNL     1     -34.876   5.337   6.075  1.00 20.00    -0.021 A 
HETATM    9  C9  UNL     1     -34.420   4.912   4.699  1.00 20.00     0.066 A 
ENDROOT
TORSDOF 0
ENDMDL
MODEL 3
REMARK VINA RESULT:      -6.9      0.123      1.982
REMARK  0 active torsions:
REMARK  status: ('A' for Active; 'I' for Inactive)
ROOT
HETATM    1  C1  UNL     1     -34.646   4.947   5.111  1.00 20.00     0.001 A 
HETATM    2  C2  UNL     1     -34.722   5.728   6.277  1.00 20.00     0.001 A 
HETATM    3  C3  UNL     1     -33.933   5.396   3.995  1.00 20.00     0.012 A 
HETATM    4  C4  UNL     1     -34.089   6.971   6.349  1.00 20.00     0.008 A 
HETATM    5  C5  UNL     1     -33.309   6.628   4.074  1.00 20.00    -0.030 A 
HETATM    6  C6  UNL     1     -33.387   7.406   5.238  1.00 20.00    -0.044 A 
HETATM    7  C7  UNL     1     -32.513   7.335   3.086  1.00 20.00     0.008 A 
HETATM    8  C8  UNL     1     -32.124   8.499   3.630  1.00 20.00    -0.021 A 
HETATM    9  C9  UNL     1     -32.626   8.680   5.043  1.00 20.00     0.066 A 
ENDROOT
TORSDOF 0
ENDMDL
MODEL 4
REMARK VINA RESULT:      -6.8      0.553      3.688
REMARK  0 active torsions:
REMARK  status: ('A' for Active; 'I' for Inactive)
ROOT
HETATM    1  C1  UNL     1     -32.290   7.344   2.814  1.00 20.00     0.001 A 
HETATM    2  C2  UNL     1     -32.215   8.371   3.770  1.00 20.00     0.001 A 
HETATM    3  C3  UNL     1     -33.020   6.180   3.070  1.00 20.00     0.012 A 
HETATM    4  C4  UNL     1     -32.867   8.253   4.999  1.00 20.00     0.008 A 
HETATM    5  C5  UNL     1     -33.663   6.071   4.290  1.00 20.00    -0.030 A 
HETATM    6  C6  UNL     1     -33.587   7.096   5.243  1.00 20.00    -0.044 A 
HETATM    7  C7  UNL     1     -34.480   4.993   4.821  1.00 20.00     0.008 A 
HETATM    8  C8  UNL     1     -34.883   5.351   6.049  1.00 20.00    -0.021 A 
HETATM    9  C9  UNL     1     -34.371   6.712   6.459  1.00 20.00     0.066 A 
ENDROOT
TORSDOF 0
ENDMDL
MODEL 5
REMARK VINA RESULT:      -6.8      0.804      1.294
REMARK  0 active torsions:
REMARK  status: ('A' for Active; 'I' for Inactive)
ROOT
HETATM    1  C1  UNL     1     -34.465   6.580   6.538  1.00 20.00     0.001 A 
HETATM    2  C2  UNL     1     -34.816   5.342   5.972  1.00 20.00     0.001 A 
HETATM    3  C3  UNL     1     -33.663   7.485   5.835  1.00 20.00     0.012 A 
HETATM    4  C4  UNL     1     -34.372   4.986   4.697  1.00 20.00     0.008 A 
HETATM    5  C5  UNL     1     -33.228   7.125   4.573  1.00 20.00    -0.030 A 
HETATM    6  C6  UNL     1     -33.578   5.889   4.011  1.00 20.00    -0.044 A 
HETATM    7  C7  UNL     1     -32.397   7.854   3.630  1.00 20.00     0.008 A 
HETATM    8  C8  UNL     1     -32.249   7.088   2.538  1.00 20.00    -0.021 A 
HETATM    9  C9  UNL     1     -32.972   5.767   2.648  1.00 20.00     0.066 A 
ENDROOT
TORSDOF 0
ENDMDL
MODEL 6
REMARK VINA RESULT:      -6.7      0.821      2.187
REMARK  0 active torsions:
REMARK  status: ('A' for Active; 'I' for Inactive)
ROOT
HETATM    1  C1  UNL     1     -34.840   5.295   5.939  1.00 20.00     0.001 A 
HETATM    2  C2  UNL     1     -34.511   6.524   6.535  1.00 20.00     0.001 A 
HETATM    3  C3  UNL     1     -34.371   4.972   4.662  1.00 20.00     0.012 A 
HETATM    4  C4  UNL     1     -33.708   7.452   5.867  1.00 20.00     0.008 A 
HETATM    5  C5  UNL     1     -33.577   5.895   4.008  1.00 20.00    -0.030 A 
HETATM    6  C6  UNL     1     -33.250   7.121   4.604  1.00 20.00    -0.044 A 
HETATM    7  C7  UNL     1     -32.959   5.829   2.694  1.00 20.00     0.008 A 
HETATM    8  C8  UNL     1     -32.284   6.972   2.501  1.00 20.00    -0.021 A 
HETATM    9  C9  UNL     1     -32.386   7.916   3.676  1.00 20.00     0.066 A 
ENDROOT
TORSDOF 0
ENDMDL
MODEL 7
REMARK VINA RESULT:      -5.7      0.932      2.120
REMARK  0 active torsions:
REMARK  status: ('A' for Active; 'I' for Inactive)
ROOT
HETATM    1  C1  UNL     1     -33.886   4.697   3.575  1.00 20.00     0.001 A 
HETATM    2  C2  UNL     1     -33.001   5.271   2.648  1.00 20.00     0.001 A 
HETATM    3  C3  UNL     1     -34.292   5.406   4.710  1.00 20.00     0.012 A 
HETATM    4  C4  UNL     1     -32.505   6.563   2.836  1.00 20.00     0.008 A 
HETATM    5  C5  UNL     1     -33.798   6.685   4.889  1.00 20.00    -0.030 A 
HETATM    6  C6  UNL     1     -32.913   7.256   3.963  1.00 20.00    -0.044 A 
HETATM    7  C7  UNL     1     -34.043   7.638   5.958  1.00 20.00     0.008 A 
HETATM    8  C8  UNL     1     -33.333   8.745   5.690  1.00 20.00    -0.021 A 
HETATM    9  C9  UNL     1     -32.543   8.636   4.407  1.00 20.00     0.066 A 
ENDROOT
TORSDOF 0
ENDMDL
MODEL 8
REMARK VINA RESULT:      -4.2     15.317     15.748
REMARK  0 active torsions:
REMARK  status: ('A' for Active; 'I' for Inactive)
ROOT
HETATM    1  C1  UNL     1     -25.063  17.066  12.332  1.00 20.00     0.001 A 
HETATM    2  C2  UNL     1     -25.763  18.251  12.049  1.00 20.00     0.001 A 
HETATM    3  C3  UNL     1     -24.004  16.650  11.519  1.00 20.00     0.012 A 
HETATM    4  C4  UNL     1     -25.419  19.040  10.949  1.00 20.00     0.008 A 
HETATM    5  C5  UNL     1     -23.669  17.438  10.433  1.00 20.00    -0.030 A 
HETATM    6  C6  UNL     1     -24.370  18.619  10.151  1.00 20.00    -0.044 A 
HETATM    7  C7  UNL     1     -22.631  17.255   9.433  1.00 20.00     0.008 A 
HETATM    8  C8  UNL     1     -22.700  18.286   8.577  1.00 20.00    -0.021 A 
HETATM    9  C9  UNL     1     -23.798  19.263   8.927  1.00 20.00     0.066 A 
ENDROOT
TORSDOF 0
ENDMDL
