MODEL 1
REMARK VINA RESULT:      -6.4      0.000      0.000
REMARK  0 active torsions:
REMARK  status: ('A' for Active; 'I' for Inactive)
ROOT
HETATM    1  C1  UNL     1     -34.736   5.679   6.296  1.00 20.00     0.001 A 
HETATM    2  C2  UNL     1     -34.649   4.943   5.116  1.00 20.00     0.002 A 
HETATM    3  C3  UNL     1     -34.126   6.933   6.406  1.00 20.00     0.014 A 
HETATM    4  C4  UNL     1     -33.950   5.435   4.010  1.00 20.00     0.030 A 
HETATM    5  C5  UNL     1     -32.693   8.652   5.066  1.00 20.00     0.030 A 
HETATM    6  C6  UNL     1     -32.206   8.602   3.780  1.00 20.00     0.089 A 
HETATM    7  C7  UNL     1     -33.416   7.450   5.304  1.00 20.00    -0.008 A 
HETATM    8  C8  UNL     1     -33.344   6.691   4.134  1.00 20.00     0.042 A 
HETATM    9  N9  UNL     1     -32.604   7.415   3.226  1.00 20.00    -0.365 N 
HETATM   10  H16 UNL     1     -32.387   7.112   2.286  1.00 20.00     0.165 HD
ENDROOT
TORSDOF 0
ENDMDL
MODEL 2
REMARK VINA RESULT:      -6.3      0.897      1.938
REMARK  0 active torsions:
REMARK  status: ('A' for Active; 'I' for Inactive)
ROOT
HETATM    1  C1  UNL     1     -34.649   4.945   4.899  1.00 20.00     0.001 A 
HETATM    2  C2  UNL     1     -34.747   5.559   6.145  1.00 20.00     0.002 A 
HETATM    3  C3  UNL     1     -33.909   5.533   3.867  1.00 20.00     0.014 A 
HETATM    4  C4  UNL     1     -34.112   6.778   6.401  1.00 20.00     0.030 A 
HETATM    5  C5  UNL     1     -32.448   7.621   3.309  1.00 20.00     0.030 A 
HETATM    6  C6  UNL     1     -32.094   8.699   4.087  1.00 20.00     0.089 A 
HETATM    7  C7  UNL     1     -33.260   6.761   4.101  1.00 20.00    -0.008 A 
HETATM    8  C8  UNL     1     -33.376   7.355   5.359  1.00 20.00     0.042 A 
HETATM    9  N9  UNL     1     -32.659   8.529   5.322  1.00 20.00    -0.365 N 
HETATM   10  H16 UNL     1     -32.563   9.172   6.097  1.00 20.00     0.165 HD
ENDROOT
TORSDOF 0
ENDMDL
MODEL 3
REMARK VINA RESULT:      -6.1      1.006      2.156
REMARK  0 active torsions:
REMARK  status: ('A' for Active; 'I' for Inactive)
ROOT
HETATM    1  C1  UNL     1     -34.827   5.348   5.945  1.00 20.00     0.001 A 
HETATM    2  C2  UNL     1     -34.480   6.574   6.508  1.00 20.00     0.002 A 
HETATM    3  C3  UNL     1     -34.374   4.991   4.670  1.00 20.00     0.014 A 
HETATM    4  C4  UNL     1     -33.672   7.481   5.817  1.00 20.00     0.030 A 
HETATM    5  C5  UNL     1     -32.936   5.860   2.675  1.00 20.00     0.030 A 
HETATM    6  C6  UNL     1     -32.251   7.042   2.515  1.00 20.00     0.089 A 
HETATM    7  C7  UNL     1     -33.558   5.889   3.955  1.00 20.00    -0.008 A 
HETATM    8  C8  UNL     1     -33.226   7.111   4.543  1.00 20.00     0.042 A 
HETATM    9  N9  UNL     1     -32.432   7.790   3.647  1.00 20.00    -0.365 N 
HETATM   10  H16 UNL     1     -32.039   8.709   3.804  1.00 20.00     0.165 HD
ENDROOT
TORSDOF 0
ENDMDL
MODEL 4
REMARK VINA RESULT:      -6.0      1.334      3.127
REMARK  0 active torsions:
REMARK  status: ('A' for Active; 'I' for Inactive)
ROOT
HETATM    1  C1  UNL     1     -32.235   8.446   3.898  1.00 20.00     0.001 A 
HETATM    2  C2  UNL     1     -32.250   7.468   2.907  1.00 20.00     0.002 A 
HETATM    3  C3  UNL     1     -32.921   8.257   5.102  1.00 20.00     0.014 A 
HETATM    4  C4  UNL     1     -32.951   6.271   3.086  1.00 20.00     0.030 A 
HETATM    5  C5  UNL     1     -34.421   6.543   6.373  1.00 20.00     0.030 A 
HETATM    6  C6  UNL     1     -34.874   5.300   5.998  1.00 20.00     0.089 A 
HETATM    7  C7  UNL     1     -33.634   7.060   5.306  1.00 20.00    -0.008 A 
HETATM    8  C8  UNL     1     -33.633   6.096   4.296  1.00 20.00     0.042 A 
HETATM    9  N9  UNL     1     -34.393   5.039   4.743  1.00 20.00    -0.365 N 
HETATM   10  H16 UNL     1     -34.570   4.192   4.219  1.00 20.00     0.165 HD
ENDROOT
TORSDOF 0
ENDMDL
MODEL 5
REMARK VINA RESULT:      -5.9      1.419      3.662
REMARK  0 active torsions:
REMARK  status: ('A' for Active; 'I' for Inactive)
ROOT
HETATM    1  C1  UNL     1     -32.287   7.564   3.006  1.00 20.00     0.001 A 
HETATM    2  C2  UNL     1     -32.294   8.527   4.012  1.00 20.00     0.002 A 
HETATM    3  C3  UNL     1     -32.975   6.356   3.164  1.00 20.00     0.014 A 
HETATM    4  C4  UNL     1     -32.988   8.315   5.208  1.00 20.00     0.030 A 
HETATM    5  C5  UNL     1     -34.468   5.040   4.850  1.00 20.00     0.030 A 
HETATM    6  C6  UNL     1     -34.912   5.381   6.107  1.00 20.00     0.089 A 
HETATM    7  C7  UNL     1     -33.682   6.120   4.360  1.00 20.00    -0.008 A 
HETATM    8  C8  UNL     1     -33.672   7.102   5.352  1.00 20.00     0.042 A 
HETATM    9  N9  UNL     1     -34.427   6.627   6.400  1.00 20.00    -0.365 N 
HETATM   10  H16 UNL     1     -34.598   7.127   7.262  1.00 20.00     0.165 HD
ENDROOT
TORSDOF 0
ENDMDL
MODEL 6
REMARK VINA RESULT:      -4.4     15.192     15.941
REMARK  0 active torsions:
REMARK  status: ('A' for Active; 'I' for Inactive)
ROOT
HETATM    1  C1  UNL     1     -22.420  18.293   8.425  1.00 20.00     0.001 A 
HETATM    2  C2  UNL     1     -23.443  19.221   8.246  1.00 20.00     0.002 A 
HETATM    3  C3  UNL     1     -22.461  17.375   9.480  1.00 20.00     0.014 A 
HETATM    4  C4  UNL     1     -24.538  19.263   9.115  1.00 20.00     0.030 A 
HETATM    5  C5  UNL     1     -23.915  16.638  11.516  1.00 20.00     0.030 A 
HETATM    6  C6  UNL     1     -25.117  17.124  11.980  1.00 20.00     0.089 A 
HETATM    7  C7  UNL     1     -23.554  17.398  10.368  1.00 20.00    -0.008 A 
HETATM    8  C8  UNL     1     -24.565  18.339  10.166  1.00 20.00     0.042 A 
HETATM    9  N9  UNL     1     -25.501  18.149  11.158  1.00 20.00    -0.365 N 
HETATM   10  H16 UNL     1     -26.348  18.690  11.264  1.00 20.00     0.165 HD
ENDROOT
TORSDOF 0
ENDMDL
MODEL 7
REMARK VINA RESULT:      -4.3     15.436     15.987
REMARK  0 active torsions:
REMARK  status: ('A' for Active; 'I' for Inactive)
ROOT
HETATM    1  C1  UNL     1     -23.348  19.177   8.119  1.00 20.00     0.001 A 
HETATM    2  C2  UNL     1     -22.368  18.188   8.159  1.00 20.00     0.002 A 
HETATM    3  C3  UNL     1     -24.320  19.263   9.121  1.00 20.00     0.014 A 
HETATM    4  C4  UNL     1     -22.327  17.254   9.198  1.00 20.00     0.030 A 
HETATM    5  C5  UNL     1     -25.106  18.125  11.333  1.00 20.00     0.030 A 
HETATM    6  C6  UNL     1     -24.597  17.043  12.013  1.00 20.00     0.089 A 
HETATM    7  C7  UNL     1     -24.300  18.333  10.180  1.00 20.00    -0.008 A 
HETATM    8  C8  UNL     1     -23.307  17.352  10.194  1.00 20.00     0.042 A 
HETATM    9  N9  UNL     1     -23.511  16.584  11.318  1.00 20.00    -0.365 N 
HETATM   10  H16 UNL     1     -22.940  15.795  11.590  1.00 20.00     0.165 HD
ENDROOT
TORSDOF 0
ENDMDL
MODEL 8
REMARK VINA RESULT:      -4.3     12.326     12.746
REMARK  0 active torsions:
REMARK  status: ('A' for Active; 'I' for Inactive)
ROOT
HETATM    1  C1  UNL     1     -32.543  18.024  -1.433  1.00 20.00     0.001 A 
HETATM    2  C2  UNL     1     -33.773  17.969  -0.779  1.00 20.00     0.002 A 
HETATM    3  C3  UNL     1     -31.379  18.372  -0.740  1.00 20.00     0.014 A 
HETATM    4  C4  UNL     1     -33.878  18.259   0.585  1.00 20.00     0.030 A 
HETATM    5  C5  UNL     1     -30.511  19.047   1.626  1.00 20.00     0.030 A 
HETATM    6  C6  UNL     1     -31.185  19.204   2.815  1.00 20.00     0.089 A 
HETATM    7  C7  UNL     1     -31.460  18.668   0.635  1.00 20.00    -0.008 A 
HETATM    8  C8  UNL     1     -32.704  18.605   1.264  1.00 20.00     0.042 A 
HETATM    9  N9  UNL     1     -32.508  18.935   2.586  1.00 20.00    -0.365 N 
HETATM   10  H16 UNL     1     -33.236  18.973   3.287  1.00 20.00     0.165 HD
ENDROOT
TORSDOF 0
ENDMDL
MODEL 9
REMARK VINA RESULT:      -3.9     12.256     13.509
REMARK  0 active torsions:
REMARK  status: ('A' for Active; 'I' for Inactive)
ROOT
HETATM    1  C1  UNL     1     -33.243  18.024  -1.962  1.00 20.00     0.001 A 
HETATM    2  C2  UNL     1     -33.415  18.922  -3.013  1.00 20.00     0.002 A 
HETATM    3  C3  UNL     1     -33.338  16.644  -2.176  1.00 20.00     0.014 A 
HETATM    4  C4  UNL     1     -33.686  18.473  -4.309  1.00 20.00     0.030 A 
HETATM    5  C5  UNL     1     -33.771  14.872  -4.041  1.00 20.00     0.030 A 
HETATM    6  C6  UNL     1     -34.028  15.031  -5.383  1.00 20.00     0.089 A 
HETATM    7  C7  UNL     1     -33.610  16.167  -3.473  1.00 20.00    -0.008 A 
HETATM    8  C8  UNL     1     -33.778  17.090  -4.508  1.00 20.00     0.042 A 
HETATM    9  N9  UNL     1     -34.030  16.372  -5.655  1.00 20.00    -0.365 N 
HETATM   10  H16 UNL     1     -34.193  16.779  -6.566  1.00 20.00     0.165 HD
ENDROOT
TORSDOF 0
ENDMDL
