MODEL 1
REMARK VINA RESULT:      -5.0      0.000      0.000
REMARK  0 active torsions:
REMARK  status: ('A' for Active; 'I' for Inactive)
ROOT
HETATM    1  C1  UNL     1     -34.839   5.252   6.050  1.00 20.00     0.000 A 
HETATM    2  C2  UNL     1     -34.545   4.932   4.725  1.00 20.00     0.001 A 
HETATM    3  C3  UNL     1     -34.408   6.466   6.586  1.00 20.00     0.001 A 
HETATM    4  C4  UNL     1     -33.818   5.824   3.937  1.00 20.00     0.018 A 
HETATM    5  C5  UNL     1     -33.681   7.357   5.797  1.00 20.00     0.018 A 
HETATM    6  C6  UNL     1     -33.387   7.037   4.472  1.00 20.00     0.006 A 
HETATM    7  I7  UNL     1     -32.304   8.365   3.299  1.00 20.00    -0.045 I 
ENDROOT
TORSDOF 0
ENDMDL
MODEL 2
REMARK VINA RESULT:      -5.0      0.004      1.826
REMARK  0 active torsions:
REMARK  status: ('A' for Active; 'I' for Inactive)
ROOT
HETATM    1  C1  UNL     1     -34.842   5.253   6.052  1.00 20.00     0.000 A 
HETATM    2  C2  UNL     1     -34.410   6.466   6.587  1.00 20.00     0.001 A 
HETATM    3  C3  UNL     1     -34.546   4.929   4.727  1.00 20.00     0.001 A 
HETATM    4  C4  UNL     1     -33.682   7.356   5.797  1.00 20.00     0.018 A 
HETATM    5  C5  UNL     1     -33.819   5.820   3.938  1.00 20.00     0.018 A 
HETATM    6  C6  UNL     1     -33.386   7.034   4.473  1.00 20.00     0.006 A 
HETATM    7  I7  UNL     1     -32.303   8.360   3.297  1.00 20.00    -0.045 I 
ENDROOT
TORSDOF 0
ENDMDL
MODEL 3
REMARK VINA RESULT:      -4.2      2.300      3.784
REMARK  0 active torsions:
REMARK  status: ('A' for Active; 'I' for Inactive)
ROOT
HETATM    1  C1  UNL     1     -32.050   8.342   3.089  1.00 20.00     0.000 A 
HETATM    2  C2  UNL     1     -32.486   8.794   4.334  1.00 20.00     0.001 A 
HETATM    3  C3  UNL     1     -32.382   7.057   2.658  1.00 20.00     0.001 A 
HETATM    4  C4  UNL     1     -33.253   7.961   5.149  1.00 20.00     0.018 A 
HETATM    5  C5  UNL     1     -33.149   6.225   3.474  1.00 20.00     0.018 A 
HETATM    6  C6  UNL     1     -33.585   6.677   4.719  1.00 20.00     0.006 A 
HETATM    7  I7  UNL     1     -34.728   5.437   5.932  1.00 20.00    -0.045 I 
ENDROOT
TORSDOF 0
ENDMDL
MODEL 4
REMARK VINA RESULT:      -4.2      2.295      3.300
REMARK  0 active torsions:
REMARK  status: ('A' for Active; 'I' for Inactive)
ROOT
HETATM    1  C1  UNL     1     -32.088   8.026   2.841  1.00 20.00     0.000 A 
HETATM    2  C2  UNL     1     -32.474   6.709   2.592  1.00 20.00     0.001 A 
HETATM    3  C3  UNL     1     -32.453   8.646   4.037  1.00 20.00     0.001 A 
HETATM    4  C4  UNL     1     -33.226   6.012   3.538  1.00 20.00     0.018 A 
HETATM    5  C5  UNL     1     -33.205   7.948   4.982  1.00 20.00     0.018 A 
HETATM    6  C6  UNL     1     -33.591   6.632   4.733  1.00 20.00     0.006 A 
HETATM    7  I7  UNL     1     -34.710   5.594   6.142  1.00 20.00    -0.045 I 
ENDROOT
TORSDOF 0
ENDMDL
MODEL 5
REMARK VINA RESULT:      -3.9      1.348      1.931
REMARK  0 active torsions:
REMARK  status: ('A' for Active; 'I' for Inactive)
ROOT
HETATM    1  C1  UNL     1     -34.409   6.852   6.646  1.00 20.00     0.000 A 
HETATM    2  C2  UNL     1     -34.745   5.549   6.280  1.00 20.00     0.001 A 
HETATM    3  C3  UNL     1     -33.710   7.669   5.756  1.00 20.00     0.001 A 
HETATM    4  C4  UNL     1     -34.380   5.062   5.025  1.00 20.00     0.018 A 
HETATM    5  C5  UNL     1     -33.346   7.180   4.501  1.00 20.00     0.018 A 
HETATM    6  C6  UNL     1     -33.681   5.877   4.135  1.00 20.00     0.006 A 
HETATM    7  I7  UNL     1     -33.138   5.151   2.267  1.00 20.00    -0.045 I 
ENDROOT
TORSDOF 0
ENDMDL
MODEL 6
REMARK VINA RESULT:      -3.9      1.343      2.259
REMARK  0 active torsions:
REMARK  status: ('A' for Active; 'I' for Inactive)
ROOT
HETATM    1  C1  UNL     1     -34.414   6.846   6.656  1.00 20.00     0.000 A 
HETATM    2  C2  UNL     1     -33.708   7.663   5.773  1.00 20.00     0.001 A 
HETATM    3  C3  UNL     1     -34.755   5.546   6.282  1.00 20.00     0.001 A 
HETATM    4  C4  UNL     1     -33.343   7.180   4.516  1.00 20.00     0.018 A 
HETATM    5  C5  UNL     1     -34.389   5.064   5.025  1.00 20.00     0.018 A 
HETATM    6  C6  UNL     1     -33.683   5.881   4.142  1.00 20.00     0.006 A 
HETATM    7  I7  UNL     1     -33.140   5.162   2.271  1.00 20.00    -0.045 I 
ENDROOT
TORSDOF 0
ENDMDL
MODEL 7
REMARK VINA RESULT:      -3.4     12.803     13.217
REMARK  0 active torsions:
REMARK  status: ('A' for Active; 'I' for Inactive)
ROOT
HETATM    1  C1  UNL     1     -33.593  17.943  -0.977  1.00 20.00     0.000 A 
HETATM    2  C2  UNL     1     -33.964  18.169   0.348  1.00 20.00     0.001 A 
HETATM    3  C3  UNL     1     -32.260  18.093  -1.363  1.00 20.00     0.001 A 
HETATM    4  C4  UNL     1     -33.004  18.547   1.287  1.00 20.00     0.018 A 
HETATM    5  C5  UNL     1     -31.301  18.471  -0.424  1.00 20.00     0.018 A 
HETATM    6  C6  UNL     1     -31.672  18.698   0.901  1.00 20.00     0.006 A 
HETATM    7  I7  UNL     1     -30.242  19.261   2.298  1.00 20.00    -0.045 I 
ENDROOT
TORSDOF 0
ENDMDL
MODEL 8
REMARK VINA RESULT:      -3.3     12.915     13.289
REMARK  0 active torsions:
REMARK  status: ('A' for Active; 'I' for Inactive)
ROOT
HETATM    1  C1  UNL     1     -31.989  19.263   1.610  1.00 20.00     0.000 A 
HETATM    2  C2  UNL     1     -33.330  18.928   1.420  1.00 20.00     0.001 A 
HETATM    3  C3  UNL     1     -31.055  18.997   0.607  1.00 20.00     0.001 A 
HETATM    4  C4  UNL     1     -33.736  18.326   0.230  1.00 20.00     0.018 A 
HETATM    5  C5  UNL     1     -31.463  18.396  -0.583  1.00 20.00     0.018 A 
HETATM    6  C6  UNL     1     -32.804  18.061  -0.772  1.00 20.00     0.006 A 
HETATM    7  I7  UNL     1     -33.409  17.165  -2.546  1.00 20.00    -0.045 I 
ENDROOT
TORSDOF 0
ENDMDL
MODEL 9
REMARK VINA RESULT:      -3.1     12.723     13.801
REMARK  0 active torsions:
REMARK  status: ('A' for Active; 'I' for Inactive)
ROOT
HETATM    1  C1  UNL     1     -34.338  15.434  -5.975  1.00 20.00     0.000 A 
HETATM    2  C2  UNL     1     -33.749  14.734  -4.922  1.00 20.00     0.001 A 
HETATM    3  C3  UNL     1     -34.645  16.787  -5.828  1.00 20.00     0.001 A 
HETATM    4  C4  UNL     1     -33.468  15.387  -3.722  1.00 20.00     0.018 A 
HETATM    5  C5  UNL     1     -34.363  17.439  -4.627  1.00 20.00     0.018 A 
HETATM    6  C6  UNL     1     -33.774  16.739  -3.575  1.00 20.00     0.006 A 
HETATM    7  I7  UNL     1     -33.355  17.711  -1.787  1.00 20.00    -0.045 I 
ENDROOT
TORSDOF 0
ENDMDL
