MODEL 1
REMARK VINA RESULT:      -2.7      0.000      0.000
REMARK  0 active torsions:
REMARK  status: ('A' for Active; 'I' for Inactive)
ROOT
HETATM    1  C1  UNL     1     -34.657   5.552   5.895  1.00 20.00     0.016 C 
HETATM    2  C2  UNL     1     -34.152   6.890   6.407  1.00 20.00     0.075 C 
HETATM    3  I3  UNL     1     -33.187   7.984   4.852  1.00 20.00    -0.090 I 
ENDROOT
TORSDOF 0
ENDMDL
MODEL 2
REMARK VINA RESULT:      -2.6      0.833      1.013
REMARK  0 active torsions:
REMARK  status: ('A' for Active; 'I' for Inactive)
ROOT
HETATM    1  C1  UNL     1     -34.622   5.588   6.255  1.00 20.00     0.016 C 
HETATM    2  C2  UNL     1     -34.541   6.224   4.878  1.00 20.00     0.075 C 
HETATM    3  I3  UNL     1     -33.258   7.926   4.902  1.00 20.00    -0.090 I 
ENDROOT
TORSDOF 0
ENDMDL
MODEL 3
REMARK VINA RESULT:      -2.6      2.053      2.446
REMARK  0 active torsions:
REMARK  status: ('A' for Active; 'I' for Inactive)
ROOT
HETATM    1  C1  UNL     1     -33.232   8.136   5.172  1.00 20.00     0.016 C 
HETATM    2  C2  UNL     1     -33.889   7.115   6.086  1.00 20.00     0.075 C 
HETATM    3  I3  UNL     1     -34.755   5.529   4.955  1.00 20.00    -0.090 I 
ENDROOT
TORSDOF 0
ENDMDL
MODEL 4
REMARK VINA RESULT:      -2.4      2.387      2.746
REMARK  0 active torsions:
REMARK  status: ('A' for Active; 'I' for Inactive)
ROOT
HETATM    1  C1  UNL     1     -32.926   8.226   5.080  1.00 20.00     0.016 C 
HETATM    2  C2  UNL     1     -33.633   7.030   4.464  1.00 20.00     0.075 C 
HETATM    3  I3  UNL     1     -34.496   5.797   5.973  1.00 20.00    -0.090 I 
ENDROOT
TORSDOF 0
ENDMDL
MODEL 5
REMARK VINA RESULT:      -2.2      2.646      2.963
REMARK  0 active torsions:
REMARK  status: ('A' for Active; 'I' for Inactive)
ROOT
HETATM    1  C1  UNL     1     -33.281   5.402   3.182  1.00 20.00     0.016 C 
HETATM    2  C2  UNL     1     -34.074   4.641   4.231  1.00 20.00     0.075 C 
HETATM    3  I3  UNL     1     -34.497   5.882   5.911  1.00 20.00    -0.090 I 
ENDROOT
TORSDOF 0
ENDMDL
MODEL 6
REMARK VINA RESULT:      -2.2      2.990      2.990
REMARK  0 active torsions:
REMARK  status: ('A' for Active; 'I' for Inactive)
ROOT
HETATM    1  C1  UNL     1     -32.878   5.737   2.808  1.00 20.00     0.016 C 
HETATM    2  C2  UNL     1     -32.357   7.129   3.121  1.00 20.00     0.075 C 
HETATM    3  I3  UNL     1     -33.268   7.903   4.886  1.00 20.00    -0.090 I 
ENDROOT
TORSDOF 0
ENDMDL
MODEL 7
REMARK VINA RESULT:      -2.0      1.850      2.214
REMARK  0 active torsions:
REMARK  status: ('A' for Active; 'I' for Inactive)
ROOT
HETATM    1  C1  UNL     1     -34.010   7.297   6.483  1.00 20.00     0.016 C 
HETATM    2  C2  UNL     1     -34.528   5.872   6.388  1.00 20.00     0.075 C 
HETATM    3  I3  UNL     1     -34.368   5.135   4.394  1.00 20.00    -0.090 I 
ENDROOT
TORSDOF 0
ENDMDL
MODEL 8
REMARK VINA RESULT:      -2.0      8.239      8.244
REMARK  0 active torsions:
REMARK  status: ('A' for Active; 'I' for Inactive)
ROOT
HETATM    1  C1  UNL     1     -39.147  11.717   4.346  1.00 20.00     0.016 C 
HETATM    2  C2  UNL     1     -39.556  11.707   5.809  1.00 20.00     0.075 C 
HETATM    3  I3  UNL     1     -41.040  13.188   6.194  1.00 20.00    -0.090 I 
ENDROOT
TORSDOF 0
ENDMDL
MODEL 9
REMARK VINA RESULT:      -1.8     13.013     13.043
REMARK  0 active torsions:
REMARK  status: ('A' for Active; 'I' for Inactive)
ROOT
HETATM    1  C1  UNL     1     -33.349  16.667  -2.470  1.00 20.00     0.016 C 
HETATM    2  C2  UNL     1     -33.689  17.445  -1.210  1.00 20.00     0.075 C 
HETATM    3  I3  UNL     1     -32.055  18.677  -0.614  1.00 20.00    -0.090 I 
ENDROOT
TORSDOF 0
ENDMDL
