MODEL 1
REMARK VINA RESULT:      -5.0      0.000      0.000
REMARK  2 active torsions:
REMARK  status: ('A' for Active; 'I' for Inactive)
REMARK    1  A    between atoms: C6_6  and  C9_9 
REMARK    2  A    between atoms: C9_9  and  C10_10 
ROOT
HETATM    1  C1  UNL     1     -34.758   5.727   5.885  1.00 20.00     0.000 A 
HETATM    2  C2  UNL     1     -34.177   6.899   6.369  1.00 20.00     0.001 A 
HETATM    3  C3  UNL     1     -34.493   5.305   4.582  1.00 20.00     0.001 A 
HETATM    4  C4  UNL     1     -33.333   7.649   5.550  1.00 20.00     0.007 A 
HETATM    5  C5  UNL     1     -33.650   6.055   3.763  1.00 20.00     0.007 A 
HETATM    6  C6  UNL     1     -33.070   7.227   4.248  1.00 20.00    -0.058 A 
ENDROOT
BRANCH   6   7
HETATM    7  C9  UNL     1     -32.157   8.038   3.361  1.00 20.00     0.042 C 
BRANCH   7   8
HETATM    8  C10 UNL     1     -32.802   8.472   2.030  1.00 20.00    -0.019 C 
HETATM    9  C7  UNL     1     -33.055   9.981   1.980  1.00 20.00     0.010 C 
HETATM   10  C8  UNL     1     -31.906   8.060   0.859  1.00 20.00     0.010 C 
ENDBRANCH   7   8
ENDBRANCH   6   7
TORSDOF 2
ENDMDL
MODEL 2
REMARK VINA RESULT:      -5.0      0.022      1.528
REMARK  2 active torsions:
REMARK  status: ('A' for Active; 'I' for Inactive)
REMARK    1  A    between atoms: C6_6  and  C9_9 
REMARK    2  A    between atoms: C9_9  and  C10_10 
ROOT
HETATM    1  C1  UNL     1     -34.754   5.723   5.883  1.00 20.00     0.000 A 
HETATM    2  C2  UNL     1     -34.509   5.310   4.573  1.00 20.00     0.001 A 
HETATM    3  C3  UNL     1     -34.157   6.886   6.370  1.00 20.00     0.001 A 
HETATM    4  C4  UNL     1     -33.666   6.057   3.752  1.00 20.00     0.007 A 
HETATM    5  C5  UNL     1     -33.314   7.633   5.549  1.00 20.00     0.007 A 
HETATM    6  C6  UNL     1     -33.068   7.219   4.240  1.00 20.00    -0.058 A 
ENDROOT
BRANCH   6   7
HETATM    7  C9  UNL     1     -32.156   8.029   3.352  1.00 20.00     0.042 C 
BRANCH   7   8
HETATM    8  C10 UNL     1     -32.808   8.478   2.029  1.00 20.00    -0.019 C 
HETATM    9  C7  UNL     1     -33.023   9.994   1.981  1.00 20.00     0.010 C 
HETATM   10  C8  UNL     1     -31.939   8.042   0.847  1.00 20.00     0.010 C 
ENDBRANCH   7   8
ENDBRANCH   6   7
TORSDOF 2
ENDMDL
MODEL 3
REMARK VINA RESULT:      -4.6      1.001      1.552
REMARK  2 active torsions:
REMARK  status: ('A' for Active; 'I' for Inactive)
REMARK    1  A    between atoms: C6_6  and  C9_9 
REMARK    2  A    between atoms: C9_9  and  C10_10 
ROOT
HETATM    1  C1  UNL     1     -34.750   4.998   6.014  1.00 20.00     0.000 A 
HETATM    2  C2  UNL     1     -33.963   5.866   6.772  1.00 20.00     0.001 A 
HETATM    3  C3  UNL     1     -35.110   5.342   4.711  1.00 20.00     0.001 A 
HETATM    4  C4  UNL     1     -33.537   7.077   6.227  1.00 20.00     0.007 A 
HETATM    5  C5  UNL     1     -34.684   6.553   4.166  1.00 20.00     0.007 A 
HETATM    6  C6  UNL     1     -33.897   7.420   4.924  1.00 20.00    -0.058 A 
ENDROOT
BRANCH   6   7
HETATM    7  C9  UNL     1     -33.436   8.730   4.333  1.00 20.00     0.042 C 
BRANCH   7   8
HETATM    8  C10 UNL     1     -32.364   8.577   3.235  1.00 20.00    -0.019 C 
HETATM    9  C7  UNL     1     -32.089   7.108   2.904  1.00 20.00     0.010 C 
HETATM   10  C8  UNL     1     -32.807   9.316   1.970  1.00 20.00     0.010 C 
ENDBRANCH   7   8
ENDBRANCH   6   7
TORSDOF 2
ENDMDL
MODEL 4
REMARK VINA RESULT:      -4.3      1.529      4.221
REMARK  2 active torsions:
REMARK  status: ('A' for Active; 'I' for Inactive)
REMARK    1  A    between atoms: C6_6  and  C9_9 
REMARK    2  A    between atoms: C9_9  and  C10_10 
ROOT
HETATM    1  C1  UNL     1     -31.739   8.771   4.140  1.00 20.00     0.000 A 
HETATM    2  C2  UNL     1     -32.637   8.966   5.189  1.00 20.00     0.001 A 
HETATM    3  C3  UNL     1     -31.961   7.750   3.215  1.00 20.00     0.001 A 
HETATM    4  C4  UNL     1     -33.754   8.141   5.315  1.00 20.00     0.007 A 
HETATM    5  C5  UNL     1     -33.077   6.925   3.341  1.00 20.00     0.007 A 
HETATM    6  C6  UNL     1     -33.974   7.121   4.391  1.00 20.00    -0.058 A 
ENDROOT
BRANCH   6   7
HETATM    7  C9  UNL     1     -35.183   6.227   4.526  1.00 20.00     0.042 C 
BRANCH   7   8
HETATM    8  C10 UNL     1     -34.898   4.896   5.251  1.00 20.00    -0.019 C 
HETATM    9  C7  UNL     1     -33.878   4.039   4.496  1.00 20.00     0.010 C 
HETATM   10  C8  UNL     1     -34.388   5.175   6.667  1.00 20.00     0.010 C 
ENDBRANCH   7   8
ENDBRANCH   6   7
TORSDOF 2
ENDMDL
MODEL 5
REMARK VINA RESULT:      -4.2     11.422     12.176
REMARK  2 active torsions:
REMARK  status: ('A' for Active; 'I' for Inactive)
REMARK    1  A    between atoms: C6_6  and  C9_9 
REMARK    2  A    between atoms: C9_9  and  C10_10 
ROOT
HETATM    1  C1  UNL     1     -31.542  19.213   1.446  1.00 20.00     0.000 A 
HETATM    2  C2  UNL     1     -30.946  18.857   0.236  1.00 20.00     0.001 A 
HETATM    3  C3  UNL     1     -32.910  19.016   1.632  1.00 20.00     0.001 A 
HETATM    4  C4  UNL     1     -31.717  18.307  -0.787  1.00 20.00     0.007 A 
HETATM    5  C5  UNL     1     -33.682  18.466   0.609  1.00 20.00     0.007 A 
HETATM    6  C6  UNL     1     -33.085  18.111  -0.600  1.00 20.00    -0.058 A 
ENDROOT
BRANCH   6   7
HETATM    7  C9  UNL     1     -33.921  17.515  -1.706  1.00 20.00     0.042 C 
BRANCH   7   8
HETATM    8  C10 UNL     1     -33.143  17.273  -3.016  1.00 20.00    -0.019 C 
HETATM    9  C7  UNL     1     -33.325  15.844  -3.535  1.00 20.00     0.010 C 
HETATM   10  C8  UNL     1     -33.599  18.272  -4.082  1.00 20.00     0.010 C 
ENDBRANCH   7   8
ENDBRANCH   6   7
TORSDOF 2
ENDMDL
MODEL 6
REMARK VINA RESULT:      -4.2     11.422     12.132
REMARK  2 active torsions:
REMARK  status: ('A' for Active; 'I' for Inactive)
REMARK    1  A    between atoms: C6_6  and  C9_9 
REMARK    2  A    between atoms: C9_9  and  C10_10 
ROOT
HETATM    1  C1  UNL     1     -31.261  19.262   1.599  1.00 20.00     0.000 A 
HETATM    2  C2  UNL     1     -32.626  19.100   1.836  1.00 20.00     0.001 A 
HETATM    3  C3  UNL     1     -30.715  18.876   0.375  1.00 20.00     0.001 A 
HETATM    4  C4  UNL     1     -33.444  18.549   0.850  1.00 20.00     0.007 A 
HETATM    5  C5  UNL     1     -31.534  18.325  -0.611  1.00 20.00     0.007 A 
HETATM    6  C6  UNL     1     -32.898  18.163  -0.373  1.00 20.00    -0.058 A 
ENDROOT
BRANCH   6   7
HETATM    7  C9  UNL     1     -33.783  17.567  -1.441  1.00 20.00     0.042 C 
BRANCH   7   8
HETATM    8  C10 UNL     1     -33.063  17.320  -2.782  1.00 20.00    -0.019 C 
HETATM    9  C7  UNL     1     -33.431  15.962  -3.387  1.00 20.00     0.010 C 
HETATM   10  C8  UNL     1     -33.409  18.435  -3.771  1.00 20.00     0.010 C 
ENDBRANCH   7   8
ENDBRANCH   6   7
TORSDOF 2
ENDMDL
MODEL 7
REMARK VINA RESULT:      -4.2      0.846      4.698
REMARK  2 active torsions:
REMARK  status: ('A' for Active; 'I' for Inactive)
REMARK    1  A    between atoms: C6_6  and  C9_9 
REMARK    2  A    between atoms: C9_9  and  C10_10 
ROOT
HETATM    1  C1  UNL     1     -32.493   9.177   0.522  1.00 20.00     0.000 A 
HETATM    2  C2  UNL     1     -32.036   7.892   0.816  1.00 20.00     0.001 A 
HETATM    3  C3  UNL     1     -33.002   9.985   1.538  1.00 20.00     0.001 A 
HETATM    4  C4  UNL     1     -32.090   7.415   2.125  1.00 20.00     0.007 A 
HETATM    5  C5  UNL     1     -33.056   9.508   2.848  1.00 20.00     0.007 A 
HETATM    6  C6  UNL     1     -32.599   8.223   3.141  1.00 20.00    -0.058 A 
ENDROOT
BRANCH   6   7
HETATM    7  C9  UNL     1     -32.658   7.708   4.558  1.00 20.00     0.042 C 
BRANCH   7   8
HETATM    8  C10 UNL     1     -34.035   7.144   4.961  1.00 20.00    -0.019 C 
HETATM    9  C7  UNL     1     -34.294   5.766   4.345  1.00 20.00     0.010 C 
HETATM   10  C8  UNL     1     -34.134   7.054   6.486  1.00 20.00     0.010 C 
ENDBRANCH   7   8
ENDBRANCH   6   7
TORSDOF 2
ENDMDL
MODEL 8
REMARK VINA RESULT:      -4.1      0.844      4.491
REMARK  2 active torsions:
REMARK  status: ('A' for Active; 'I' for Inactive)
REMARK    1  A    between atoms: C6_6  and  C9_9 
REMARK    2  A    between atoms: C9_9  and  C10_10 
ROOT
HETATM    1  C1  UNL     1     -32.456   9.130   0.600  1.00 20.00     0.000 A 
HETATM    2  C2  UNL     1     -32.977   9.959   1.593  1.00 20.00     0.001 A 
HETATM    3  C3  UNL     1     -32.015   7.847   0.924  1.00 20.00     0.001 A 
HETATM    4  C4  UNL     1     -33.056   9.506   2.910  1.00 20.00     0.007 A 
HETATM    5  C5  UNL     1     -32.095   7.393   2.240  1.00 20.00     0.007 A 
HETATM    6  C6  UNL     1     -32.615   8.223   3.233  1.00 20.00    -0.058 A 
ENDROOT
BRANCH   6   7
HETATM    7  C9  UNL     1     -32.701   7.731   4.657  1.00 20.00     0.042 C 
BRANCH   7   8
HETATM    8  C10 UNL     1     -34.067   7.117   5.024  1.00 20.00    -0.019 C 
HETATM    9  C7  UNL     1     -34.290   5.765   4.339  1.00 20.00     0.010 C 
HETATM   10  C8  UNL     1     -34.169   6.948   6.542  1.00 20.00     0.010 C 
ENDBRANCH   7   8
ENDBRANCH   6   7
TORSDOF 2
ENDMDL
MODEL 9
REMARK VINA RESULT:      -4.1     11.189     12.443
REMARK  2 active torsions:
REMARK  status: ('A' for Active; 'I' for Inactive)
REMARK    1  A    between atoms: C6_6  and  C9_9 
REMARK    2  A    between atoms: C9_9  and  C10_10 
ROOT
HETATM    1  C1  UNL     1     -34.520  15.127  -5.265  1.00 20.00     0.000 A 
HETATM    2  C2  UNL     1     -33.675  14.829  -4.196  1.00 20.00     0.001 A 
HETATM    3  C3  UNL     1     -34.912  16.446  -5.496  1.00 20.00     0.001 A 
HETATM    4  C4  UNL     1     -33.224  15.849  -3.358  1.00 20.00     0.007 A 
HETATM    5  C5  UNL     1     -34.461  17.465  -4.659  1.00 20.00     0.007 A 
HETATM    6  C6  UNL     1     -33.617  17.167  -3.590  1.00 20.00    -0.058 A 
ENDROOT
BRANCH   6   7
HETATM    7  C9  UNL     1     -33.129  18.271  -2.684  1.00 20.00     0.042 C 
BRANCH   7   8
HETATM    8  C10 UNL     1     -32.726  17.790  -1.275  1.00 20.00    -0.019 C 
HETATM    9  C7  UNL     1     -31.542  18.584  -0.716  1.00 20.00     0.010 C 
HETATM   10  C8  UNL     1     -33.920  17.907  -0.325  1.00 20.00     0.010 C 
ENDBRANCH   7   8
ENDBRANCH   6   7
TORSDOF 2
ENDMDL
