MODEL 1
REMARK VINA RESULT:      -5.6      0.000      0.000
REMARK  0 active torsions:
REMARK  status: ('A' for Active; 'I' for Inactive)
ROOT
HETATM    1  C1  UNL     1     -34.615   5.945   5.833  1.00 20.00     0.001 A 
HETATM    2  C2  UNL     1     -34.373   5.186   4.688  1.00 20.00     0.007 A 
HETATM    3  C3  UNL     1     -34.008   7.191   5.985  1.00 20.00     0.007 A 
HETATM    4  C4  UNL     1     -32.914   6.920   3.849  1.00 20.00     0.013 A 
HETATM    5  C5  UNL     1     -33.523   5.674   3.696  1.00 20.00    -0.061 A 
HETATM    6  C6  UNL     1     -33.158   7.679   4.993  1.00 20.00    -0.061 A 
HETATM    7  C7  UNL     1     -33.264   4.863   2.471  1.00 20.00     0.048 C 
HETATM    8  C8  UNL     1     -32.507   9.012   5.157  1.00 20.00     0.048 C 
ENDROOT
TORSDOF 0
ENDMDL
MODEL 2
REMARK VINA RESULT:      -5.6      0.046      3.028
REMARK  0 active torsions:
REMARK  status: ('A' for Active; 'I' for Inactive)
ROOT
HETATM    1  C1  UNL     1     -34.639   5.979   5.854  1.00 20.00     0.001 A 
HETATM    2  C2  UNL     1     -34.024   7.223   5.980  1.00 20.00     0.007 A 
HETATM    3  C3  UNL     1     -34.406   5.196   4.723  1.00 20.00     0.007 A 
HETATM    4  C4  UNL     1     -32.941   6.903   3.843  1.00 20.00     0.013 A 
HETATM    5  C5  UNL     1     -33.174   7.685   4.974  1.00 20.00    -0.061 A 
HETATM    6  C6  UNL     1     -33.556   5.658   3.718  1.00 20.00    -0.061 A 
HETATM    7  C7  UNL     1     -32.515   9.016   5.110  1.00 20.00     0.048 C 
HETATM    8  C8  UNL     1     -33.308   4.821   2.508  1.00 20.00     0.048 C 
ENDROOT
TORSDOF 0
ENDMDL
MODEL 3
REMARK VINA RESULT:      -5.6      0.825      3.332
REMARK  0 active torsions:
REMARK  status: ('A' for Active; 'I' for Inactive)
ROOT
HETATM    1  C1  UNL     1     -32.906   6.015   2.901  1.00 20.00     0.001 A 
HETATM    2  C2  UNL     1     -32.383   7.268   3.215  1.00 20.00     0.007 A 
HETATM    3  C3  UNL     1     -33.767   5.375   3.793  1.00 20.00     0.007 A 
HETATM    4  C4  UNL     1     -33.581   7.243   5.313  1.00 20.00     0.013 A 
HETATM    5  C5  UNL     1     -32.721   7.882   4.421  1.00 20.00    -0.061 A 
HETATM    6  C6  UNL     1     -34.105   5.989   4.999  1.00 20.00    -0.061 A 
HETATM    7  C7  UNL     1     -32.162   9.224   4.755  1.00 20.00     0.048 C 
HETATM    8  C8  UNL     1     -35.024   5.304   5.953  1.00 20.00     0.048 C 
ENDROOT
TORSDOF 0
ENDMDL
MODEL 4
REMARK VINA RESULT:      -5.5      0.824      2.350
REMARK  0 active torsions:
REMARK  status: ('A' for Active; 'I' for Inactive)
ROOT
HETATM    1  C1  UNL     1     -32.911   6.011   2.902  1.00 20.00     0.001 A 
HETATM    2  C2  UNL     1     -33.770   5.373   3.795  1.00 20.00     0.007 A 
HETATM    3  C3  UNL     1     -32.386   7.265   3.215  1.00 20.00     0.007 A 
HETATM    4  C4  UNL     1     -33.581   7.242   5.314  1.00 20.00     0.013 A 
HETATM    5  C5  UNL     1     -34.105   5.988   5.001  1.00 20.00    -0.061 A 
HETATM    6  C6  UNL     1     -32.721   7.881   4.421  1.00 20.00    -0.061 A 
HETATM    7  C7  UNL     1     -35.023   5.304   5.957  1.00 20.00     0.048 C 
HETATM    8  C8  UNL     1     -32.161   9.223   4.754  1.00 20.00     0.048 C 
ENDROOT
TORSDOF 0
ENDMDL
MODEL 5
REMARK VINA RESULT:      -5.4      0.879      3.433
REMARK  0 active torsions:
REMARK  status: ('A' for Active; 'I' for Inactive)
ROOT
HETATM    1  C1  UNL     1     -32.391   8.300   4.027  1.00 20.00     0.001 A 
HETATM    2  C2  UNL     1     -33.131   8.083   5.188  1.00 20.00     0.007 A 
HETATM    3  C3  UNL     1     -32.325   7.311   3.046  1.00 20.00     0.007 A 
HETATM    4  C4  UNL     1     -33.739   5.885   4.389  1.00 20.00     0.013 A 
HETATM    5  C5  UNL     1     -33.805   6.876   5.369  1.00 20.00    -0.061 A 
HETATM    6  C6  UNL     1     -33.000   6.103   3.227  1.00 20.00    -0.061 A 
HETATM    7  C7  UNL     1     -34.598   6.644   6.611  1.00 20.00     0.048 C 
HETATM    8  C8  UNL     1     -32.928   5.045   2.178  1.00 20.00     0.048 C 
ENDROOT
TORSDOF 0
ENDMDL
MODEL 6
REMARK VINA RESULT:      -5.4      0.880      2.335
REMARK  0 active torsions:
REMARK  status: ('A' for Active; 'I' for Inactive)
ROOT
HETATM    1  C1  UNL     1     -32.383   8.294   4.022  1.00 20.00     0.001 A 
HETATM    2  C2  UNL     1     -32.321   7.305   3.041  1.00 20.00     0.007 A 
HETATM    3  C3  UNL     1     -33.123   8.079   5.184  1.00 20.00     0.007 A 
HETATM    4  C4  UNL     1     -33.741   5.885   4.385  1.00 20.00     0.013 A 
HETATM    5  C5  UNL     1     -33.000   6.100   3.223  1.00 20.00    -0.061 A 
HETATM    6  C6  UNL     1     -33.802   6.874   5.366  1.00 20.00    -0.061 A 
HETATM    7  C7  UNL     1     -32.933   5.042   2.175  1.00 20.00     0.048 C 
HETATM    8  C8  UNL     1     -34.595   6.645   6.609  1.00 20.00     0.048 C 
ENDROOT
TORSDOF 0
ENDMDL
MODEL 7
REMARK VINA RESULT:      -5.3      1.056      2.730
REMARK  0 active torsions:
REMARK  status: ('A' for Active; 'I' for Inactive)
ROOT
HETATM    1  C1  UNL     1     -33.134   8.484   5.629  1.00 20.00     0.001 A 
HETATM    2  C2  UNL     1     -32.534   8.508   4.371  1.00 20.00     0.007 A 
HETATM    3  C3  UNL     1     -33.906   7.387   6.013  1.00 20.00     0.007 A 
HETATM    4  C4  UNL     1     -33.478   6.338   3.879  1.00 20.00     0.013 A 
HETATM    5  C5  UNL     1     -32.705   7.434   3.496  1.00 20.00    -0.061 A 
HETATM    6  C6  UNL     1     -34.077   6.314   5.138  1.00 20.00    -0.061 A 
HETATM    7  C7  UNL     1     -32.062   7.460   2.150  1.00 20.00     0.048 C 
HETATM    8  C8  UNL     1     -34.904   5.142   5.549  1.00 20.00     0.048 C 
ENDROOT
TORSDOF 0
ENDMDL
MODEL 8
REMARK VINA RESULT:      -3.8     15.640     16.257
REMARK  0 active torsions:
REMARK  status: ('A' for Active; 'I' for Inactive)
ROOT
HETATM    1  C1  UNL     1     -24.705  19.263   9.076  1.00 20.00     0.001 A 
HETATM    2  C2  UNL     1     -24.834  18.424  10.182  1.00 20.00     0.007 A 
HETATM    3  C3  UNL     1     -23.597  19.147   8.238  1.00 20.00     0.007 A 
HETATM    4  C4  UNL     1     -22.744  17.353   9.613  1.00 20.00     0.013 A 
HETATM    5  C5  UNL     1     -23.854  17.469  10.450  1.00 20.00    -0.061 A 
HETATM    6  C6  UNL     1     -22.616  18.191   8.506  1.00 20.00    -0.061 A 
HETATM    7  C7  UNL     1     -23.993  16.571  11.633  1.00 20.00     0.048 C 
HETATM    8  C8  UNL     1     -21.430  18.069   7.610  1.00 20.00     0.048 C 
ENDROOT
TORSDOF 0
ENDMDL
MODEL 9
REMARK VINA RESULT:      -3.8     15.745     16.222
REMARK  0 active torsions:
REMARK  status: ('A' for Active; 'I' for Inactive)
ROOT
HETATM    1  C1  UNL     1     -24.826  19.262   9.305  1.00 20.00     0.001 A 
HETATM    2  C2  UNL     1     -23.767  19.166   8.404  1.00 20.00     0.007 A 
HETATM    3  C3  UNL     1     -24.881  18.414  10.412  1.00 20.00     0.007 A 
HETATM    4  C4  UNL     1     -22.815  17.374   9.716  1.00 20.00     0.013 A 
HETATM    5  C5  UNL     1     -22.760  18.222   8.610  1.00 20.00    -0.061 A 
HETATM    6  C6  UNL     1     -23.874  17.471  10.617  1.00 20.00    -0.061 A 
HETATM    7  C7  UNL     1     -21.626  18.120   7.647  1.00 20.00     0.048 C 
HETATM    8  C8  UNL     1     -23.933  16.563  11.800  1.00 20.00     0.048 C 
ENDROOT
TORSDOF 0
ENDMDL
