MODEL 1
REMARK VINA RESULT:      -6.0      0.000      0.000
REMARK  1 active torsions:
REMARK  status: ('A' for Active; 'I' for Inactive)
REMARK    1  A    between atoms: C2_2  and  C8_8 
ROOT
HETATM    1  C1  UNL     1     -33.039   6.502   3.526  1.00 20.00    -0.081 C 
HETATM    2  C2  UNL     1     -33.880   6.743   4.543  1.00 20.00    -0.078 C 
HETATM    3  C3  UNL     1     -32.126   7.666   3.284  1.00 20.00     0.034 C 
HETATM    4  C4  UNL     1     -33.653   8.103   5.131  1.00 20.00     0.034 C 
HETATM    5  C5  UNL     1     -32.310   8.515   4.537  1.00 20.00     0.009 C 
HETATM    6  C6  UNL     1     -32.940   5.302   2.650  1.00 20.00     0.043 C 
ENDROOT
BRANCH   2   7
HETATM    7  C8  UNL     1     -34.963   5.880   5.094  1.00 20.00     0.030 C 
HETATM    8  C7  UNL     1     -34.569   5.331   6.451  1.00 20.00     0.010 C 
ENDBRANCH   2   7
TORSDOF 1
ENDMDL
MODEL 2
REMARK VINA RESULT:      -5.6      0.846      3.325
REMARK  1 active torsions:
REMARK  status: ('A' for Active; 'I' for Inactive)
REMARK    1  A    between atoms: C2_2  and  C8_8 
ROOT
HETATM    1  C1  UNL     1     -33.434   7.380   5.157  1.00 20.00    -0.081 C 
HETATM    2  C2  UNL     1     -33.566   6.399   4.251  1.00 20.00    -0.078 C 
HETATM    3  C3  UNL     1     -34.252   7.107   6.383  1.00 20.00     0.034 C 
HETATM    4  C4  UNL     1     -34.490   5.325   4.739  1.00 20.00     0.034 C 
HETATM    5  C5  UNL     1     -34.628   5.637   6.226  1.00 20.00     0.009 C 
HETATM    6  C6  UNL     1     -32.646   8.641   5.071  1.00 20.00     0.043 C 
ENDROOT
BRANCH   2   7
HETATM    7  C8  UNL     1     -32.963   6.283   2.895  1.00 20.00     0.030 C 
HETATM    8  C7  UNL     1     -32.904   4.831   2.459  1.00 20.00     0.010 C 
ENDBRANCH   2   7
TORSDOF 1
ENDMDL
MODEL 3
REMARK VINA RESULT:      -5.6      0.910      2.911
REMARK  1 active torsions:
REMARK  status: ('A' for Active; 'I' for Inactive)
REMARK    1  A    between atoms: C2_2  and  C8_8 
ROOT
HETATM    1  C1  UNL     1     -33.603   5.667   3.912  1.00 20.00    -0.081 C 
HETATM    2  C2  UNL     1     -33.399   6.883   4.439  1.00 20.00    -0.078 C 
HETATM    3  C3  UNL     1     -34.367   4.784   4.853  1.00 20.00     0.034 C 
HETATM    4  C4  UNL     1     -33.997   6.994   5.808  1.00 20.00     0.034 C 
HETATM    5  C5  UNL     1     -34.898   5.767   5.891  1.00 20.00     0.009 C 
HETATM    6  C6  UNL     1     -33.156   5.122   2.600  1.00 20.00     0.043 C 
ENDROOT
BRANCH   2   7
HETATM    7  C8  UNL     1     -32.665   8.046   3.866  1.00 20.00     0.030 C 
HETATM    8  C7  UNL     1     -32.293   9.033   4.956  1.00 20.00     0.010 C 
ENDBRANCH   2   7
TORSDOF 1
ENDMDL
MODEL 4
REMARK VINA RESULT:      -5.3      0.706      2.230
REMARK  1 active torsions:
REMARK  status: ('A' for Active; 'I' for Inactive)
REMARK    1  A    between atoms: C2_2  and  C8_8 
ROOT
HETATM    1  C1  UNL     1     -33.268   7.500   4.457  1.00 20.00    -0.081 C 
HETATM    2  C2  UNL     1     -33.887   6.325   4.267  1.00 20.00    -0.078 C 
HETATM    3  C3  UNL     1     -32.127   7.679   3.500  1.00 20.00     0.034 C 
HETATM    4  C4  UNL     1     -33.252   5.546   3.155  1.00 20.00     0.034 C 
HETATM    5  C5  UNL     1     -32.367   6.581   2.469  1.00 20.00     0.009 C 
HETATM    6  C6  UNL     1     -33.548   8.559   5.465  1.00 20.00     0.043 C 
ENDROOT
BRANCH   2   7
HETATM    7  C8  UNL     1     -35.036   5.736   5.009  1.00 20.00     0.030 C 
HETATM    8  C7  UNL     1     -34.601   5.272   6.385  1.00 20.00     0.010 C 
ENDBRANCH   2   7
TORSDOF 1
ENDMDL
MODEL 5
REMARK VINA RESULT:      -5.2      0.761      3.191
REMARK  1 active torsions:
REMARK  status: ('A' for Active; 'I' for Inactive)
REMARK    1  A    between atoms: C2_2  and  C8_8 
ROOT
HETATM    1  C1  UNL     1     -34.106   5.763   4.889  1.00 20.00    -0.081 C 
HETATM    2  C2  UNL     1     -33.523   6.908   4.503  1.00 20.00    -0.078 C 
HETATM    3  C3  UNL     1     -33.983   4.704   3.834  1.00 20.00     0.034 C 
HETATM    4  C4  UNL     1     -32.923   6.784   3.136  1.00 20.00     0.034 C 
HETATM    5  C5  UNL     1     -32.929   5.278   2.892  1.00 20.00     0.009 C 
HETATM    6  C6  UNL     1     -34.842   5.458   6.147  1.00 20.00     0.043 C 
ENDROOT
BRANCH   2   7
HETATM    7  C8  UNL     1     -33.440   8.210   5.222  1.00 20.00     0.030 C 
HETATM    8  C7  UNL     1     -32.230   8.998   4.760  1.00 20.00     0.010 C 
ENDBRANCH   2   7
TORSDOF 1
ENDMDL
MODEL 6
REMARK VINA RESULT:      -5.0      0.939      2.695
REMARK  1 active torsions:
REMARK  status: ('A' for Active; 'I' for Inactive)
REMARK    1  A    between atoms: C2_2  and  C8_8 
ROOT
HETATM    1  C1  UNL     1     -33.617   7.198   5.322  1.00 20.00    -0.081 C 
HETATM    2  C2  UNL     1     -33.317   6.613   4.153  1.00 20.00    -0.078 C 
HETATM    3  C3  UNL     1     -32.946   8.533   5.454  1.00 20.00     0.034 C 
HETATM    4  C4  UNL     1     -32.403   7.470   3.330  1.00 20.00     0.034 C 
HETATM    5  C5  UNL     1     -32.472   8.822   4.034  1.00 20.00     0.009 C 
HETATM    6  C6  UNL     1     -34.457   6.690   6.441  1.00 20.00     0.043 C 
ENDROOT
BRANCH   2   7
HETATM    7  C8  UNL     1     -33.737   5.282   3.631  1.00 20.00     0.030 C 
HETATM    8  C7  UNL     1     -32.937   4.917   2.396  1.00 20.00     0.010 C 
ENDBRANCH   2   7
TORSDOF 1
ENDMDL
MODEL 7
REMARK VINA RESULT:      -4.9      1.098      3.766
REMARK  1 active torsions:
REMARK  status: ('A' for Active; 'I' for Inactive)
REMARK    1  A    between atoms: C2_2  and  C8_8 
ROOT
HETATM    1  C1  UNL     1     -34.014   6.706   5.554  1.00 20.00    -0.081 C 
HETATM    2  C2  UNL     1     -33.395   6.782   4.366  1.00 20.00    -0.078 C 
HETATM    3  C3  UNL     1     -34.793   5.431   5.684  1.00 20.00     0.034 C 
HETATM    4  C4  UNL     1     -33.669   5.570   3.527  1.00 20.00     0.034 C 
HETATM    5  C5  UNL     1     -34.269   4.587   4.527  1.00 20.00     0.009 C 
HETATM    6  C6  UNL     1     -34.038   7.693   6.668  1.00 20.00     0.043 C 
ENDROOT
BRANCH   2   7
HETATM    7  C8  UNL     1     -32.551   7.878   3.813  1.00 20.00     0.030 C 
HETATM    8  C7  UNL     1     -32.163   7.580   2.378  1.00 20.00     0.010 C 
ENDBRANCH   2   7
TORSDOF 1
ENDMDL
MODEL 8
REMARK VINA RESULT:      -4.9      1.043      2.993
REMARK  1 active torsions:
REMARK  status: ('A' for Active; 'I' for Inactive)
REMARK    1  A    between atoms: C2_2  and  C8_8 
ROOT
HETATM    1  C1  UNL     1     -34.002   6.323   4.985  1.00 20.00    -0.081 C 
HETATM    2  C2  UNL     1     -33.157   6.938   4.144  1.00 20.00    -0.078 C 
HETATM    3  C3  UNL     1     -34.205   7.122   6.238  1.00 20.00     0.034 C 
HETATM    4  C4  UNL     1     -32.672   8.239   4.710  1.00 20.00     0.034 C 
HETATM    5  C5  UNL     1     -33.624   8.484   5.876  1.00 20.00     0.009 C 
HETATM    6  C6  UNL     1     -34.687   5.009   4.838  1.00 20.00     0.043 C 
ENDROOT
BRANCH   2   7
HETATM    7  C8  UNL     1     -32.657   6.488   2.816  1.00 20.00     0.030 C 
HETATM    8  C7  UNL     1     -32.167   7.669   2.001  1.00 20.00     0.010 C 
ENDBRANCH   2   7
TORSDOF 1
ENDMDL
MODEL 9
REMARK VINA RESULT:      -3.6     15.866     16.885
REMARK  1 active torsions:
REMARK  status: ('A' for Active; 'I' for Inactive)
REMARK    1  A    between atoms: C2_2  and  C8_8 
ROOT
HETATM    1  C1  UNL     1     -22.725  18.638  11.161  1.00 20.00    -0.081 C 
HETATM    2  C2  UNL     1     -24.058  18.491  11.123  1.00 20.00    -0.078 C 
HETATM    3  C3  UNL     1     -22.167  18.916   9.797  1.00 20.00     0.034 C 
HETATM    4  C4  UNL     1     -24.587  18.652   9.730  1.00 20.00     0.034 C 
HETATM    5  C5  UNL     1     -23.407  19.262   8.981  1.00 20.00     0.009 C 
HETATM    6  C6  UNL     1     -21.798  18.529  12.321  1.00 20.00     0.043 C 
ENDROOT
BRANCH   2   7
HETATM    7  C8  UNL     1     -25.002  18.177  12.231  1.00 20.00     0.030 C 
HETATM    8  C7  UNL     1     -26.085  19.234  12.326  1.00 20.00     0.010 C 
ENDBRANCH   2   7
TORSDOF 1
ENDMDL
