MODEL 1
REMARK VINA RESULT:      -5.5      0.000      0.000
REMARK  0 active torsions:
REMARK  status: ('A' for Active; 'I' for Inactive)
ROOT
HETATM    1  C1  UNL     1     -34.485   4.938   5.518  1.00 20.00     0.000 C 
HETATM    2  C2  UNL     1     -34.372   5.376   4.061  1.00 20.00     0.000 C 
HETATM    3  C3  UNL     1     -34.707   6.128   6.446  1.00 20.00     0.000 C 
HETATM    4  C4  UNL     1     -33.293   6.440   3.875  1.00 20.00     0.004 C 
HETATM    5  C5  UNL     1     -33.629   7.194   6.264  1.00 20.00     0.004 C 
HETATM    6  C6  UNL     1     -33.518   7.643   4.801  1.00 20.00    -0.018 C 
HETATM    7  C7  UNL     1     -32.397   8.669   4.634  1.00 20.00     0.010 C 
ENDROOT
TORSDOF 0
ENDMDL
MODEL 2
REMARK VINA RESULT:      -5.3      0.946      2.514
REMARK  0 active torsions:
REMARK  status: ('A' for Active; 'I' for Inactive)
ROOT
HETATM    1  C1  UNL     1     -34.066   6.923   6.427  1.00 20.00     0.000 C 
HETATM    2  C2  UNL     1     -34.884   5.734   5.932  1.00 20.00     0.000 C 
HETATM    3  C3  UNL     1     -33.678   7.853   5.282  1.00 20.00     0.000 C 
HETATM    4  C4  UNL     1     -34.163   4.980   4.818  1.00 20.00     0.004 C 
HETATM    5  C5  UNL     1     -32.956   7.102   4.166  1.00 20.00     0.004 C 
HETATM    6  C6  UNL     1     -33.779   5.911   3.660  1.00 20.00    -0.018 C 
HETATM    7  C7  UNL     1     -33.014   5.144   2.582  1.00 20.00     0.010 C 
ENDROOT
TORSDOF 0
ENDMDL
MODEL 3
REMARK VINA RESULT:      -5.2      0.544      1.971
REMARK  0 active torsions:
REMARK  status: ('A' for Active; 'I' for Inactive)
ROOT
HETATM    1  C1  UNL     1     -34.952   5.240   4.936  1.00 20.00     0.000 C 
HETATM    2  C2  UNL     1     -34.524   5.832   6.275  1.00 20.00     0.000 C 
HETATM    3  C3  UNL     1     -33.850   5.366   3.889  1.00 20.00     0.000 C 
HETATM    4  C4  UNL     1     -34.057   7.277   6.128  1.00 20.00     0.004 C 
HETATM    5  C5  UNL     1     -33.381   6.811   3.738  1.00 20.00     0.004 C 
HETATM    6  C6  UNL     1     -32.942   7.408   5.081  1.00 20.00    -0.018 C 
HETATM    7  C7  UNL     1     -32.527   8.869   4.914  1.00 20.00     0.010 C 
ENDROOT
TORSDOF 0
ENDMDL
MODEL 4
REMARK VINA RESULT:      -5.1      1.076      3.330
REMARK  0 active torsions:
REMARK  status: ('A' for Active; 'I' for Inactive)
ROOT
HETATM    1  C1  UNL     1     -32.095   7.505   3.344  1.00 20.00     0.000 C 
HETATM    2  C2  UNL     1     -32.878   8.339   4.353  1.00 20.00     0.000 C 
HETATM    3  C3  UNL     1     -32.941   6.367   2.780  1.00 20.00     0.000 C 
HETATM    4  C4  UNL     1     -33.464   7.473   5.466  1.00 20.00     0.004 C 
HETATM    5  C5  UNL     1     -33.527   5.498   3.890  1.00 20.00     0.004 C 
HETATM    6  C6  UNL     1     -34.323   6.333   4.903  1.00 20.00    -0.018 C 
HETATM    7  C7  UNL     1     -34.854   5.450   6.031  1.00 20.00     0.010 C 
ENDROOT
TORSDOF 0
ENDMDL
MODEL 5
REMARK VINA RESULT:      -4.9      1.005      2.504
REMARK  0 active torsions:
REMARK  status: ('A' for Active; 'I' for Inactive)
ROOT
HETATM    1  C1  UNL     1     -34.458   6.928   6.346  1.00 20.00     0.000 C 
HETATM    2  C2  UNL     1     -33.255   7.542   5.635  1.00 20.00     0.000 C 
HETATM    3  C3  UNL     1     -34.505   5.414   6.163  1.00 20.00     0.000 C 
HETATM    4  C4  UNL     1     -33.217   7.156   4.159  1.00 20.00     0.004 C 
HETATM    5  C5  UNL     1     -34.468   5.024   4.687  1.00 20.00     0.004 C 
HETATM    6  C6  UNL     1     -33.256   5.633   3.970  1.00 20.00    -0.018 C 
HETATM    7  C7  UNL     1     -33.270   5.273   2.485  1.00 20.00     0.010 C 
ENDROOT
TORSDOF 0
ENDMDL
MODEL 6
REMARK VINA RESULT:      -4.9      0.920      2.888
REMARK  0 active torsions:
REMARK  status: ('A' for Active; 'I' for Inactive)
ROOT
HETATM    1  C1  UNL     1     -32.566   8.237   3.390  1.00 20.00     0.000 C 
HETATM    2  C2  UNL     1     -32.563   6.732   3.142  1.00 20.00     0.000 C 
HETATM    3  C3  UNL     1     -32.543   8.561   4.880  1.00 20.00     0.000 C 
HETATM    4  C4  UNL     1     -33.704   6.038   3.882  1.00 20.00     0.004 C 
HETATM    5  C5  UNL     1     -33.684   7.869   5.624  1.00 20.00     0.004 C 
HETATM    6  C6  UNL     1     -33.680   6.354   5.384  1.00 20.00    -0.018 C 
HETATM    7  C7  UNL     1     -34.860   5.692   6.093  1.00 20.00     0.010 C 
ENDROOT
TORSDOF 0
ENDMDL
MODEL 7
REMARK VINA RESULT:      -3.4      8.904      9.968
REMARK  0 active torsions:
REMARK  status: ('A' for Active; 'I' for Inactive)
ROOT
HETATM    1  C1  UNL     1     -40.930   7.634  -0.427  1.00 20.00     0.000 C 
HETATM    2  C2  UNL     1     -42.380   8.068  -0.231  1.00 20.00     0.000 C 
HETATM    3  C3  UNL     1     -40.793   6.115  -0.417  1.00 20.00     0.000 C 
HETATM    4  C4  UNL     1     -42.983   7.461   1.033  1.00 20.00     0.004 C 
HETATM    5  C5  UNL     1     -41.394   5.504   0.846  1.00 20.00     0.004 C 
HETATM    6  C6  UNL     1     -42.855   5.931   1.043  1.00 20.00    -0.018 C 
HETATM    7  C7  UNL     1     -43.417   5.351   2.340  1.00 20.00     0.010 C 
ENDROOT
TORSDOF 0
ENDMDL
MODEL 8
REMARK VINA RESULT:      -3.4     15.260     15.951
REMARK  0 active torsions:
REMARK  status: ('A' for Active; 'I' for Inactive)
ROOT
HETATM    1  C1  UNL     1     -23.631  17.051  10.431  1.00 20.00     0.000 C 
HETATM    2  C2  UNL     1     -24.039  16.621  11.837  1.00 20.00     0.000 C 
HETATM    3  C3  UNL     1     -23.755  18.560  10.248  1.00 20.00     0.000 C 
HETATM    4  C4  UNL     1     -25.438  17.115  12.193  1.00 20.00     0.004 C 
HETATM    5  C5  UNL     1     -25.154  19.058  10.603  1.00 20.00     0.004 C 
HETATM    6  C6  UNL     1     -25.564  18.634  12.019  1.00 20.00    -0.018 C 
HETATM    7  C7  UNL     1     -26.986  19.098  12.331  1.00 20.00     0.010 C 
ENDROOT
TORSDOF 0
ENDMDL
MODEL 9
REMARK VINA RESULT:      -3.4     12.480     13.204
REMARK  0 active torsions:
REMARK  status: ('A' for Active; 'I' for Inactive)
ROOT
HETATM    1  C1  UNL     1     -32.222  19.069   1.515  1.00 20.00     0.000 C 
HETATM    2  C2  UNL     1     -33.690  18.993   1.104  1.00 20.00     0.000 C 
HETATM    3  C3  UNL     1     -31.311  19.263   0.307  1.00 20.00     0.000 C 
HETATM    4  C4  UNL     1     -33.923  17.915   0.048  1.00 20.00     0.004 C 
HETATM    5  C5  UNL     1     -31.541  18.186  -0.751  1.00 20.00     0.004 C 
HETATM    6  C6  UNL     1     -33.015  18.112  -1.173  1.00 20.00    -0.018 C 
HETATM    7  C7  UNL     1     -33.229  16.993  -2.191  1.00 20.00     0.010 C 
ENDROOT
TORSDOF 0
ENDMDL
