MODEL 1
REMARK VINA RESULT:      -5.9      0.000      0.000
REMARK  3 active torsions:
REMARK  status: ('A' for Active; 'I' for Inactive)
REMARK    1  A    between atoms: C6_6  and  C8_8 
REMARK    2  A    between atoms: C8_8  and  C10_10 
REMARK    3  A    between atoms: C9_9  and  C10_10 
ROOT
HETATM    1  C1  UNL     1     -34.762   5.413   5.996  1.00 20.00     0.000 A 
HETATM    2  C2  UNL     1     -34.488   5.060   4.675  1.00 20.00     0.001 A 
HETATM    3  C3  UNL     1     -34.303   6.629   6.502  1.00 20.00     0.001 A 
HETATM    4  C4  UNL     1     -33.756   5.923   3.859  1.00 20.00     0.007 A 
HETATM    5  C5  UNL     1     -33.572   7.492   5.687  1.00 20.00     0.007 A 
HETATM    6  C6  UNL     1     -33.298   7.139   4.365  1.00 20.00    -0.058 A 
ENDROOT
BRANCH   6   7
HETATM    7  C8  UNL     1     -32.507   8.073   3.485  1.00 20.00     0.038 C 
BRANCH   7   8
HETATM    8  C10 UNL     1     -32.146   7.416   2.150  1.00 20.00     0.004 C 
BRANCH   8   9
HETATM    9  C9  UNL     1     -32.170   8.430   1.007  1.00 20.00    -0.004 C 
HETATM   10  C7  UNL     1     -32.941   9.684   1.391  1.00 20.00     0.005 C 
ENDBRANCH   8   9
ENDBRANCH   7   8
ENDBRANCH   6   7
TORSDOF 3
ENDMDL
MODEL 2
REMARK VINA RESULT:      -5.8      0.573      1.676
REMARK  3 active torsions:
REMARK  status: ('A' for Active; 'I' for Inactive)
REMARK    1  A    between atoms: C6_6  and  C8_8 
REMARK    2  A    between atoms: C8_8  and  C10_10 
REMARK    3  A    between atoms: C9_9  and  C10_10 
ROOT
HETATM    1  C1  UNL     1     -34.815   5.232   5.739  1.00 20.00     0.000 A 
HETATM    2  C2  UNL     1     -34.463   6.340   6.510  1.00 20.00     0.001 A 
HETATM    3  C3  UNL     1     -34.418   5.158   4.404  1.00 20.00     0.001 A 
HETATM    4  C4  UNL     1     -33.715   7.373   5.947  1.00 20.00     0.007 A 
HETATM    5  C5  UNL     1     -33.670   6.192   3.841  1.00 20.00     0.007 A 
HETATM    6  C6  UNL     1     -33.318   7.300   4.612  1.00 20.00    -0.058 A 
ENDROOT
BRANCH   6   7
HETATM    7  C8  UNL     1     -32.509   8.416   4.002  1.00 20.00     0.038 C 
BRANCH   7   8
HETATM    8  C10 UNL     1     -32.286   8.193   2.503  1.00 20.00     0.004 C 
BRANCH   8   9
HETATM    9  C9  UNL     1     -32.876   9.337   1.678  1.00 20.00    -0.004 C 
HETATM   10  C7  UNL     1     -32.591   9.159   0.195  1.00 20.00     0.005 C 
ENDBRANCH   8   9
ENDBRANCH   7   8
ENDBRANCH   6   7
TORSDOF 3
ENDMDL
MODEL 3
REMARK VINA RESULT:      -5.5      0.701      1.662
REMARK  3 active torsions:
REMARK  status: ('A' for Active; 'I' for Inactive)
REMARK    1  A    between atoms: C6_6  and  C8_8 
REMARK    2  A    between atoms: C8_8  and  C10_10 
REMARK    3  A    between atoms: C9_9  and  C10_10 
ROOT
HETATM    1  C1  UNL     1     -34.733   6.103   6.354  1.00 20.00     0.000 A 
HETATM    2  C2  UNL     1     -33.933   7.225   6.136  1.00 20.00     0.001 A 
HETATM    3  C3  UNL     1     -34.834   5.118   5.372  1.00 20.00     0.001 A 
HETATM    4  C4  UNL     1     -33.235   7.361   4.937  1.00 20.00     0.007 A 
HETATM    5  C5  UNL     1     -34.135   5.254   4.173  1.00 20.00     0.007 A 
HETATM    6  C6  UNL     1     -33.336   6.376   3.955  1.00 20.00    -0.058 A 
ENDROOT
BRANCH   6   7
HETATM    7  C8  UNL     1     -32.582   6.522   2.658  1.00 20.00     0.038 C 
BRANCH   7   8
HETATM    8  C10 UNL     1     -32.164   7.975   2.412  1.00 20.00     0.004 C 
BRANCH   8   9
HETATM    9  C9  UNL     1     -32.096   8.288   0.917  1.00 20.00    -0.004 C 
HETATM   10  C7  UNL     1     -32.816   9.586   0.586  1.00 20.00     0.005 C 
ENDBRANCH   8   9
ENDBRANCH   7   8
ENDBRANCH   6   7
TORSDOF 3
ENDMDL
MODEL 4
REMARK VINA RESULT:      -4.5      1.000      4.714
REMARK  3 active torsions:
REMARK  status: ('A' for Active; 'I' for Inactive)
REMARK    1  A    between atoms: C6_6  and  C8_8 
REMARK    2  A    between atoms: C8_8  and  C10_10 
REMARK    3  A    between atoms: C9_9  and  C10_10 
ROOT
HETATM    1  C1  UNL     1     -32.531   8.864   0.602  1.00 20.00     0.000 A 
HETATM    2  C2  UNL     1     -32.119   7.638   1.125  1.00 20.00     0.001 A 
HETATM    3  C3  UNL     1     -32.946   9.883   1.458  1.00 20.00     0.001 A 
HETATM    4  C4  UNL     1     -32.121   7.432   2.504  1.00 20.00     0.007 A 
HETATM    5  C5  UNL     1     -32.948   9.677   2.838  1.00 20.00     0.007 A 
HETATM    6  C6  UNL     1     -32.536   8.451   3.361  1.00 20.00    -0.058 A 
ENDROOT
BRANCH   6   7
HETATM    7  C8  UNL     1     -32.539   8.230   4.852  1.00 20.00     0.038 C 
BRANCH   7   8
HETATM    8  C10 UNL     1     -33.951   7.944   5.374  1.00 20.00     0.004 C 
BRANCH   8   9
HETATM    9  C9  UNL     1     -33.948   6.790   6.377  1.00 20.00    -0.004 C 
HETATM   10  C7  UNL     1     -34.684   5.575   5.832  1.00 20.00     0.005 C 
ENDBRANCH   8   9
ENDBRANCH   7   8
ENDBRANCH   6   7
TORSDOF 3
ENDMDL
MODEL 5
REMARK VINA RESULT:      -4.5      0.980      4.870
REMARK  3 active torsions:
REMARK  status: ('A' for Active; 'I' for Inactive)
REMARK    1  A    between atoms: C6_6  and  C8_8 
REMARK    2  A    between atoms: C8_8  and  C10_10 
REMARK    3  A    between atoms: C9_9  and  C10_10 
ROOT
HETATM    1  C1  UNL     1     -32.528   8.852   0.608  1.00 20.00     0.000 A 
HETATM    2  C2  UNL     1     -32.949   9.869   1.464  1.00 20.00     0.001 A 
HETATM    3  C3  UNL     1     -32.108   7.629   1.131  1.00 20.00     0.001 A 
HETATM    4  C4  UNL     1     -32.951   9.663   2.844  1.00 20.00     0.007 A 
HETATM    5  C5  UNL     1     -32.110   7.423   2.510  1.00 20.00     0.007 A 
HETATM    6  C6  UNL     1     -32.531   8.440   3.367  1.00 20.00    -0.058 A 
ENDROOT
BRANCH   6   7
HETATM    7  C8  UNL     1     -32.532   8.217   4.858  1.00 20.00     0.038 C 
BRANCH   7   8
HETATM    8  C10 UNL     1     -33.946   7.951   5.385  1.00 20.00     0.004 C 
BRANCH   8   9
HETATM    9  C9  UNL     1     -33.961   6.778   6.364  1.00 20.00    -0.004 C 
HETATM   10  C7  UNL     1     -34.676   5.570   5.776  1.00 20.00     0.005 C 
ENDBRANCH   8   9
ENDBRANCH   7   8
ENDBRANCH   6   7
TORSDOF 3
ENDMDL
MODEL 6
REMARK VINA RESULT:      -4.3     11.232     12.038
REMARK  3 active torsions:
REMARK  status: ('A' for Active; 'I' for Inactive)
REMARK    1  A    between atoms: C6_6  and  C8_8 
REMARK    2  A    between atoms: C8_8  and  C10_10 
REMARK    3  A    between atoms: C9_9  and  C10_10 
ROOT
HETATM    1  C1  UNL     1     -32.250  18.913   1.531  1.00 20.00     0.000 A 
HETATM    2  C2  UNL     1     -33.533  18.601   1.084  1.00 20.00     0.001 A 
HETATM    3  C3  UNL     1     -31.168  18.837   0.654  1.00 20.00     0.001 A 
HETATM    4  C4  UNL     1     -33.737  18.213  -0.240  1.00 20.00     0.007 A 
HETATM    5  C5  UNL     1     -31.371  18.450  -0.671  1.00 20.00     0.007 A 
HETATM    6  C6  UNL     1     -32.655  18.137  -1.118  1.00 20.00    -0.058 A 
ENDROOT
BRANCH   6   7
HETATM    7  C8  UNL     1     -32.873  17.718  -2.549  1.00 20.00     0.038 C 
BRANCH   7   8
HETATM    8  C10 UNL     1     -33.564  16.354  -2.636  1.00 20.00     0.004 C 
BRANCH   8   9
HETATM    9  C9  UNL     1     -33.091  15.569  -3.859  1.00 20.00    -0.004 C 
HETATM   10  C7  UNL     1     -34.078  14.475  -4.236  1.00 20.00     0.005 C 
ENDBRANCH   8   9
ENDBRANCH   7   8
ENDBRANCH   6   7
TORSDOF 3
ENDMDL
MODEL 7
REMARK VINA RESULT:      -4.0     11.422     12.614
REMARK  3 active torsions:
REMARK  status: ('A' for Active; 'I' for Inactive)
REMARK    1  A    between atoms: C6_6  and  C8_8 
REMARK    2  A    between atoms: C8_8  and  C10_10 
REMARK    3  A    between atoms: C9_9  and  C10_10 
ROOT
HETATM    1  C1  UNL     1     -34.530  15.043  -5.585  1.00 20.00     0.000 A 
HETATM    2  C2  UNL     1     -33.803  14.603  -4.479  1.00 20.00     0.001 A 
HETATM    3  C3  UNL     1     -34.822  16.399  -5.733  1.00 20.00     0.001 A 
HETATM    4  C4  UNL     1     -33.367  15.518  -3.521  1.00 20.00     0.007 A 
HETATM    5  C5  UNL     1     -34.386  17.314  -4.775  1.00 20.00     0.007 A 
HETATM    6  C6  UNL     1     -33.659  16.874  -3.669  1.00 20.00    -0.058 A 
ENDROOT
BRANCH   6   7
HETATM    7  C8  UNL     1     -33.188  17.865  -2.635  1.00 20.00     0.038 C 
BRANCH   7   8
HETATM    8  C10 UNL     1     -33.637  17.462  -1.227  1.00 20.00     0.004 C 
BRANCH   8   9
HETATM    9  C9  UNL     1     -32.934  18.300  -0.159  1.00 20.00    -0.004 C 
HETATM   10  C7  UNL     1     -31.458  18.486  -0.478  1.00 20.00     0.005 C 
ENDBRANCH   8   9
ENDBRANCH   7   8
ENDBRANCH   6   7
TORSDOF 3
ENDMDL
MODEL 8
REMARK VINA RESULT:      -4.0     11.486     12.695
REMARK  3 active torsions:
REMARK  status: ('A' for Active; 'I' for Inactive)
REMARK    1  A    between atoms: C6_6  and  C8_8 
REMARK    2  A    between atoms: C8_8  and  C10_10 
REMARK    3  A    between atoms: C9_9  and  C10_10 
ROOT
HETATM    1  C1  UNL     1     -34.129  15.131  -5.683  1.00 20.00     0.000 A 
HETATM    2  C2  UNL     1     -34.594  16.436  -5.847  1.00 20.00     0.001 A 
HETATM    3  C3  UNL     1     -33.475  14.766  -4.506  1.00 20.00     0.001 A 
HETATM    4  C4  UNL     1     -34.405  17.376  -4.834  1.00 20.00     0.007 A 
HETATM    5  C5  UNL     1     -33.286  15.706  -3.494  1.00 20.00     0.007 A 
HETATM    6  C6  UNL     1     -33.751  17.011  -3.657  1.00 20.00    -0.058 A 
ENDROOT
BRANCH   6   7
HETATM    7  C8  UNL     1     -33.546  18.026  -2.562  1.00 20.00     0.038 C 
BRANCH   7   8
HETATM    8  C10 UNL     1     -33.668  17.388  -1.175  1.00 20.00     0.004 C 
BRANCH   8   9
HETATM    9  C9  UNL     1     -32.979  18.241  -0.109  1.00 20.00    -0.004 C 
HETATM   10  C7  UNL     1     -31.526  18.513  -0.465  1.00 20.00     0.005 C 
ENDBRANCH   8   9
ENDBRANCH   7   8
ENDBRANCH   6   7
TORSDOF 3
ENDMDL
MODEL 9
REMARK VINA RESULT:      -3.8      9.709     10.618
REMARK  3 active torsions:
REMARK  status: ('A' for Active; 'I' for Inactive)
REMARK    1  A    between atoms: C6_6  and  C8_8 
REMARK    2  A    between atoms: C8_8  and  C10_10 
REMARK    3  A    between atoms: C9_9  and  C10_10 
ROOT
HETATM    1  C1  UNL     1     -41.850  16.251   7.016  1.00 20.00     0.000 A 
HETATM    2  C2  UNL     1     -40.859  15.588   7.740  1.00 20.00     0.001 A 
HETATM    3  C3  UNL     1     -42.474  15.613   5.944  1.00 20.00     0.001 A 
HETATM    4  C4  UNL     1     -40.492  14.288   7.392  1.00 20.00     0.007 A 
HETATM    5  C5  UNL     1     -42.107  14.313   5.597  1.00 20.00     0.007 A 
HETATM    6  C6  UNL     1     -41.116  13.650   6.320  1.00 20.00    -0.058 A 
ENDROOT
BRANCH   6   7
HETATM    7  C8  UNL     1     -40.720  12.245   5.943  1.00 20.00     0.038 C 
BRANCH   7   8
HETATM    8  C10 UNL     1     -39.290  11.926   6.390  1.00 20.00     0.004 C 
BRANCH   8   9
HETATM    9  C9  UNL     1     -38.318  11.969   5.211  1.00 20.00    -0.004 C 
HETATM   10  C7  UNL     1     -39.020  11.661   3.898  1.00 20.00     0.005 C 
ENDBRANCH   8   9
ENDBRANCH   7   8
ENDBRANCH   6   7
TORSDOF 3
ENDMDL
