MODEL 1
REMARK VINA RESULT:      -5.3      0.000      0.000
REMARK  5 active torsions:
REMARK  status: ('A' for Active; 'I' for Inactive)
REMARK    1  A    between atoms: C6_6  and  C8_8 
REMARK    2  A    between atoms: C8_8  and  C10_10 
REMARK    3  A    between atoms: C9_9  and  C11_11 
REMARK    4  A    between atoms: C10_10  and  C12_12 
REMARK    5  A    between atoms: C11_11  and  C12_12 
ROOT
HETATM    1  C1  UNL     1     -32.497   8.732   0.590  1.00 20.00     0.000 A 
HETATM    2  C2  UNL     1     -32.093   7.552   1.215  1.00 20.00     0.001 A 
HETATM    3  C3  UNL     1     -32.912   9.820   1.358  1.00 20.00     0.001 A 
HETATM    4  C4  UNL     1     -32.104   7.460   2.606  1.00 20.00     0.007 A 
HETATM    5  C5  UNL     1     -32.922   9.728   2.750  1.00 20.00     0.007 A 
HETATM    6  C6  UNL     1     -32.518   8.548   3.374  1.00 20.00    -0.058 A 
ENDROOT
BRANCH   6   7
HETATM    7  C8  UNL     1     -32.529   8.451   4.868  1.00 20.00     0.038 C 
BRANCH   7   8
HETATM    8  C10 UNL     1     -33.888   7.983   5.396  1.00 20.00     0.005 C 
BRANCH   8   9
HETATM    9  C12 UNL     1     -33.727   6.851   6.413  1.00 20.00     0.000 C 
BRANCH   9  10
HETATM   10  C11 UNL     1     -34.768   5.752   6.193  1.00 20.00    -0.000 C 
BRANCH  10  11
HETATM   11  C9  UNL     1     -35.006   5.503   4.704  1.00 20.00    -0.005 C 
HETATM   12  C7  UNL     1     -33.991   4.525   4.134  1.00 20.00     0.005 C 
ENDBRANCH  10  11
ENDBRANCH   9  10
ENDBRANCH   8   9
ENDBRANCH   7   8
ENDBRANCH   6   7
TORSDOF 5
ENDMDL
MODEL 2
REMARK VINA RESULT:      -4.6      0.901      5.062
REMARK  5 active torsions:
REMARK  status: ('A' for Active; 'I' for Inactive)
REMARK    1  A    between atoms: C6_6  and  C8_8 
REMARK    2  A    between atoms: C8_8  and  C10_10 
REMARK    3  A    between atoms: C9_9  and  C11_11 
REMARK    4  A    between atoms: C10_10  and  C12_12 
REMARK    5  A    between atoms: C11_11  and  C12_12 
ROOT
HETATM    1  C1  UNL     1     -34.996   5.003   5.847  1.00 20.00     0.000 A 
HETATM    2  C2  UNL     1     -34.737   6.051   6.732  1.00 20.00     0.001 A 
HETATM    3  C3  UNL     1     -34.512   5.060   4.541  1.00 20.00     0.001 A 
HETATM    4  C4  UNL     1     -33.995   7.153   6.311  1.00 20.00     0.007 A 
HETATM    5  C5  UNL     1     -33.768   6.163   4.119  1.00 20.00     0.007 A 
HETATM    6  C6  UNL     1     -33.510   7.209   5.004  1.00 20.00    -0.058 A 
ENDROOT
BRANCH   6   7
HETATM    7  C8  UNL     1     -32.713   8.393   4.550  1.00 20.00     0.038 C 
BRANCH   7   8
HETATM    8  C10 UNL     1     -31.618   7.992   3.558  1.00 20.00     0.005 C 
BRANCH   8   9
HETATM    9  C12 UNL     1     -32.127   8.055   2.117  1.00 20.00     0.000 C 
BRANCH   9  10
HETATM   10  C11 UNL     1     -32.839   9.379   1.834  1.00 20.00    -0.000 C 
BRANCH  10  11
HETATM   11  C9  UNL     1     -32.835   9.705   0.341  1.00 20.00    -0.005 C 
HETATM   12  C7  UNL     1     -32.849   8.441  -0.504  1.00 20.00     0.005 C 
ENDBRANCH  10  11
ENDBRANCH   9  10
ENDBRANCH   8   9
ENDBRANCH   7   8
ENDBRANCH   6   7
TORSDOF 5
ENDMDL
MODEL 3
REMARK VINA RESULT:      -4.6      0.892      4.969
REMARK  5 active torsions:
REMARK  status: ('A' for Active; 'I' for Inactive)
REMARK    1  A    between atoms: C6_6  and  C8_8 
REMARK    2  A    between atoms: C8_8  and  C10_10 
REMARK    3  A    between atoms: C9_9  and  C11_11 
REMARK    4  A    between atoms: C10_10  and  C12_12 
REMARK    5  A    between atoms: C11_11  and  C12_12 
ROOT
HETATM    1  C1  UNL     1     -35.015   5.031   5.847  1.00 20.00     0.000 A 
HETATM    2  C2  UNL     1     -34.548   5.093   4.533  1.00 20.00     0.001 A 
HETATM    3  C3  UNL     1     -34.732   6.068   6.736  1.00 20.00     0.001 A 
HETATM    4  C4  UNL     1     -33.801   6.190   4.109  1.00 20.00     0.007 A 
HETATM    5  C5  UNL     1     -33.984   7.167   6.311  1.00 20.00     0.007 A 
HETATM    6  C6  UNL     1     -33.518   7.228   4.998  1.00 20.00    -0.058 A 
ENDROOT
BRANCH   6   7
HETATM    7  C8  UNL     1     -32.715   8.407   4.544  1.00 20.00     0.038 C 
BRANCH   7   8
HETATM    8  C10 UNL     1     -31.624   8.001   3.551  1.00 20.00     0.005 C 
BRANCH   8   9
HETATM    9  C12 UNL     1     -32.130   8.079   2.109  1.00 20.00     0.000 C 
BRANCH   9  10
HETATM   10  C11 UNL     1     -32.810   9.420   1.829  1.00 20.00    -0.000 C 
BRANCH  10  11
HETATM   11  C9  UNL     1     -32.888   9.701   0.328  1.00 20.00    -0.005 C 
HETATM   12  C7  UNL     1     -32.813   8.416  -0.483  1.00 20.00     0.005 C 
ENDBRANCH  10  11
ENDBRANCH   9  10
ENDBRANCH   8   9
ENDBRANCH   7   8
ENDBRANCH   6   7
TORSDOF 5
ENDMDL
MODEL 4
REMARK VINA RESULT:      -4.4      1.086      4.440
REMARK  5 active torsions:
REMARK  status: ('A' for Active; 'I' for Inactive)
REMARK    1  A    between atoms: C6_6  and  C8_8 
REMARK    2  A    between atoms: C8_8  and  C10_10 
REMARK    3  A    between atoms: C9_9  and  C11_11 
REMARK    4  A    between atoms: C10_10  and  C12_12 
REMARK    5  A    between atoms: C11_11  and  C12_12 
ROOT
HETATM    1  C1  UNL     1     -35.009   4.929   5.770  1.00 20.00     0.000 A 
HETATM    2  C2  UNL     1     -35.443   5.729   4.713  1.00 20.00     0.001 A 
HETATM    3  C3  UNL     1     -34.029   5.400   6.644  1.00 20.00     0.001 A 
HETATM    4  C4  UNL     1     -34.899   6.999   4.530  1.00 20.00     0.007 A 
HETATM    5  C5  UNL     1     -33.485   6.671   6.461  1.00 20.00     0.007 A 
HETATM    6  C6  UNL     1     -33.919   7.471   5.404  1.00 20.00    -0.058 A 
ENDROOT
BRANCH   6   7
HETATM    7  C8  UNL     1     -33.333   8.835   5.209  1.00 20.00     0.038 C 
BRANCH   7   8
HETATM    8  C10 UNL     1     -32.155   8.812   4.232  1.00 20.00     0.005 C 
BRANCH   8   9
HETATM    9  C12 UNL     1     -32.632   8.960   2.786  1.00 20.00     0.000 C 
BRANCH   9  10
HETATM   10  C11 UNL     1     -32.282   7.724   1.955  1.00 20.00    -0.000 C 
BRANCH  10  11
HETATM   11  C9  UNL     1     -32.067   6.499   2.844  1.00 20.00    -0.005 C 
HETATM   12  C7  UNL     1     -32.834   5.293   2.325  1.00 20.00     0.005 C 
ENDBRANCH  10  11
ENDBRANCH   9  10
ENDBRANCH   8   9
ENDBRANCH   7   8
ENDBRANCH   6   7
TORSDOF 5
ENDMDL
MODEL 5
REMARK VINA RESULT:      -4.4     10.753     11.915
REMARK  5 active torsions:
REMARK  status: ('A' for Active; 'I' for Inactive)
REMARK    1  A    between atoms: C6_6  and  C8_8 
REMARK    2  A    between atoms: C8_8  and  C10_10 
REMARK    3  A    between atoms: C9_9  and  C11_11 
REMARK    4  A    between atoms: C10_10  and  C12_12 
REMARK    5  A    between atoms: C11_11  and  C12_12 
ROOT
HETATM    1  C1  UNL     1     -32.188  18.909   1.509  1.00 20.00     0.000 A 
HETATM    2  C2  UNL     1     -33.478  18.561   1.105  1.00 20.00     0.001 A 
HETATM    3  C3  UNL     1     -31.136  18.862   0.595  1.00 20.00     0.001 A 
HETATM    4  C4  UNL     1     -33.714  18.169  -0.212  1.00 20.00     0.007 A 
HETATM    5  C5  UNL     1     -31.372  18.470  -0.723  1.00 20.00     0.007 A 
HETATM    6  C6  UNL     1     -32.661  18.123  -1.126  1.00 20.00    -0.058 A 
ENDROOT
BRANCH   6   7
HETATM    7  C8  UNL     1     -32.914  17.701  -2.540  1.00 20.00     0.038 C 
BRANCH   7   8
HETATM    8  C10 UNL     1     -33.543  16.307  -2.613  1.00 20.00     0.005 C 
BRANCH   8   9
HETATM    9  C12 UNL     1     -33.138  15.583  -3.898  1.00 20.00     0.000 C 
BRANCH   9  10
HETATM   10  C11 UNL     1     -34.108  14.447  -4.227  1.00 20.00    -0.000 C 
BRANCH  10  11
HETATM   11  C9  UNL     1     -34.967  14.785  -5.446  1.00 20.00    -0.005 C 
HETATM   12  C7  UNL     1     -34.121  15.318  -6.592  1.00 20.00     0.005 C 
ENDBRANCH  10  11
ENDBRANCH   9  10
ENDBRANCH   8   9
ENDBRANCH   7   8
ENDBRANCH   6   7
TORSDOF 5
ENDMDL
MODEL 6
REMARK VINA RESULT:      -4.3      0.748      2.219
REMARK  5 active torsions:
REMARK  status: ('A' for Active; 'I' for Inactive)
REMARK    1  A    between atoms: C6_6  and  C8_8 
REMARK    2  A    between atoms: C8_8  and  C10_10 
REMARK    3  A    between atoms: C9_9  and  C11_11 
REMARK    4  A    between atoms: C10_10  and  C12_12 
REMARK    5  A    between atoms: C11_11  and  C12_12 
ROOT
HETATM    1  C1  UNL     1     -32.748   9.897   0.933  1.00 20.00     0.000 A 
HETATM    2  C2  UNL     1     -32.336   8.710   0.325  1.00 20.00     0.001 A 
HETATM    3  C3  UNL     1     -33.011   9.922   2.302  1.00 20.00     0.001 A 
HETATM    4  C4  UNL     1     -32.187   7.552   1.085  1.00 20.00     0.007 A 
HETATM    5  C5  UNL     1     -32.862   8.762   3.063  1.00 20.00     0.007 A 
HETATM    6  C6  UNL     1     -32.450   7.577   2.455  1.00 20.00    -0.058 A 
ENDROOT
BRANCH   6   7
HETATM    7  C8  UNL     1     -32.290   6.333   3.273  1.00 20.00     0.038 C 
BRANCH   7   8
HETATM    8  C10 UNL     1     -33.253   5.231   2.823  1.00 20.00     0.005 C 
BRANCH   8   9
HETATM    9  C12 UNL     1     -33.901   4.539   4.024  1.00 20.00     0.000 C 
BRANCH   9  10
HETATM   10  C11 UNL     1     -34.934   5.443   4.697  1.00 20.00    -0.000 C 
BRANCH  10  11
HETATM   11  C9  UNL     1     -34.606   5.656   6.175  1.00 20.00    -0.005 C 
HETATM   12  C7  UNL     1     -34.124   7.073   6.440  1.00 20.00     0.005 C 
ENDBRANCH  10  11
ENDBRANCH   9  10
ENDBRANCH   8   9
ENDBRANCH   7   8
ENDBRANCH   6   7
TORSDOF 5
ENDMDL
MODEL 7
REMARK VINA RESULT:      -4.3      0.705      2.487
REMARK  5 active torsions:
REMARK  status: ('A' for Active; 'I' for Inactive)
REMARK    1  A    between atoms: C6_6  and  C8_8 
REMARK    2  A    between atoms: C8_8  and  C10_10 
REMARK    3  A    between atoms: C9_9  and  C11_11 
REMARK    4  A    between atoms: C10_10  and  C12_12 
REMARK    5  A    between atoms: C11_11  and  C12_12 
ROOT
HETATM    1  C1  UNL     1     -32.778   9.919   1.061  1.00 20.00     0.000 A 
HETATM    2  C2  UNL     1     -33.007   9.898   2.437  1.00 20.00     0.001 A 
HETATM    3  C3  UNL     1     -32.371   8.758   0.405  1.00 20.00     0.001 A 
HETATM    4  C4  UNL     1     -32.831   8.717   3.156  1.00 20.00     0.007 A 
HETATM    5  C5  UNL     1     -32.196   7.575   1.124  1.00 20.00     0.007 A 
HETATM    6  C6  UNL     1     -32.425   7.555   2.499  1.00 20.00    -0.058 A 
ENDROOT
BRANCH   6   7
HETATM    7  C8  UNL     1     -32.236   6.285   3.270  1.00 20.00     0.038 C 
BRANCH   7   8
HETATM    8  C10 UNL     1     -33.191   5.186   2.797  1.00 20.00     0.005 C 
BRANCH   8   9
HETATM    9  C12 UNL     1     -33.934   4.553   3.975  1.00 20.00     0.000 C 
BRANCH   9  10
HETATM   10  C11 UNL     1     -34.897   5.547   4.625  1.00 20.00    -0.000 C 
BRANCH  10  11
HETATM   11  C9  UNL     1     -34.617   5.696   6.120  1.00 20.00    -0.005 C 
HETATM   12  C7  UNL     1     -34.113   7.091   6.456  1.00 20.00     0.005 C 
ENDBRANCH  10  11
ENDBRANCH   9  10
ENDBRANCH   8   9
ENDBRANCH   7   8
ENDBRANCH   6   7
TORSDOF 5
ENDMDL
MODEL 8
REMARK VINA RESULT:      -4.2     10.858     11.938
REMARK  5 active torsions:
REMARK  status: ('A' for Active; 'I' for Inactive)
REMARK    1  A    between atoms: C6_6  and  C8_8 
REMARK    2  A    between atoms: C8_8  and  C10_10 
REMARK    3  A    between atoms: C9_9  and  C11_11 
REMARK    4  A    between atoms: C10_10  and  C12_12 
REMARK    5  A    between atoms: C11_11  and  C12_12 
ROOT
HETATM    1  C1  UNL     1     -34.675  15.259  -5.647  1.00 20.00     0.000 A 
HETATM    2  C2  UNL     1     -34.885  16.637  -5.576  1.00 20.00     0.001 A 
HETATM    3  C3  UNL     1     -33.897  14.622  -4.681  1.00 20.00     0.001 A 
HETATM    4  C4  UNL     1     -34.318  17.377  -4.540  1.00 20.00     0.007 A 
HETATM    5  C5  UNL     1     -33.330  15.362  -3.643  1.00 20.00     0.007 A 
HETATM    6  C6  UNL     1     -33.540  16.739  -3.573  1.00 20.00    -0.058 A 
ENDROOT
BRANCH   6   7
HETATM    7  C8  UNL     1     -32.930  17.533  -2.459  1.00 20.00     0.038 C 
BRANCH   7   8
HETATM    8  C10 UNL     1     -33.770  17.455  -1.182  1.00 20.00     0.005 C 
BRANCH   8   9
HETATM    9  C12 UNL     1     -33.089  18.191  -0.026  1.00 20.00     0.000 C 
BRANCH   9  10
HETATM   10  C11 UNL     1     -31.649  18.567  -0.376  1.00 20.00    -0.000 C 
BRANCH  10  11
HETATM   11  C9  UNL     1     -30.956  19.263   0.795  1.00 20.00    -0.005 C 
HETATM   12  C7  UNL     1     -30.611  18.279   1.903  1.00 20.00     0.005 C 
ENDBRANCH  10  11
ENDBRANCH   9  10
ENDBRANCH   8   9
ENDBRANCH   7   8
ENDBRANCH   6   7
TORSDOF 5
ENDMDL
MODEL 9
REMARK VINA RESULT:      -4.2     10.677     11.750
REMARK  5 active torsions:
REMARK  status: ('A' for Active; 'I' for Inactive)
REMARK    1  A    between atoms: C6_6  and  C8_8 
REMARK    2  A    between atoms: C8_8  and  C10_10 
REMARK    3  A    between atoms: C9_9  and  C11_11 
REMARK    4  A    between atoms: C10_10  and  C12_12 
REMARK    5  A    between atoms: C11_11  and  C12_12 
ROOT
HETATM    1  C1  UNL     1     -31.542  19.130   1.607  1.00 20.00     0.000 A 
HETATM    2  C2  UNL     1     -30.955  18.781   0.390  1.00 20.00     0.001 A 
HETATM    3  C3  UNL     1     -32.927  19.054   1.760  1.00 20.00     0.001 A 
HETATM    4  C4  UNL     1     -31.752  18.357  -0.673  1.00 20.00     0.007 A 
HETATM    5  C5  UNL     1     -33.724  18.629   0.696  1.00 20.00     0.007 A 
HETATM    6  C6  UNL     1     -33.136  18.281  -0.520  1.00 20.00    -0.058 A 
ENDROOT
BRANCH   6   7
HETATM    7  C8  UNL     1     -33.993  17.825  -1.660  1.00 20.00     0.038 C 
BRANCH   7   8
HETATM    8  C10 UNL     1     -33.554  16.457  -2.188  1.00 20.00     0.005 C 
BRANCH   8   9
HETATM    9  C12 UNL     1     -33.230  16.517  -3.681  1.00 20.00     0.000 C 
BRANCH   9  10
HETATM   10  C11 UNL     1     -33.078  15.116  -4.275  1.00 20.00    -0.000 C 
BRANCH  10  11
HETATM   11  C9  UNL     1     -34.383  14.327  -4.180  1.00 20.00    -0.005 C 
HETATM   12  C7  UNL     1     -35.335  14.688  -5.310  1.00 20.00     0.005 C 
ENDBRANCH  10  11
ENDBRANCH   9  10
ENDBRANCH   8   9
ENDBRANCH   7   8
ENDBRANCH   6   7
TORSDOF 5
ENDMDL
