MODEL 1
REMARK VINA RESULT:      -5.2      0.000      0.000
REMARK  1 active torsions:
REMARK  status: ('A' for Active; 'I' for Inactive)
REMARK    1  A    between atoms: C6_6  and  N8_8 
ROOT
HETATM    1  C1  UNL     1     -34.797   5.345   5.996  1.00 20.00     0.000 A 
HETATM    2  C2  UNL     1     -34.504   5.002   4.677  1.00 20.00     0.002 A 
HETATM    3  C3  UNL     1     -34.334   6.553   6.522  1.00 20.00     0.002 A 
HETATM    4  C4  UNL     1     -33.752   5.866   3.881  1.00 20.00     0.029 A 
HETATM    5  C5  UNL     1     -33.582   7.416   5.727  1.00 20.00     0.029 A 
HETATM    6  C6  UNL     1     -33.290   7.073   4.407  1.00 20.00     0.027 A 
ENDROOT
BRANCH   6   7
HETATM    7  N8  UNL     1     -32.529   7.946   3.603  1.00 20.00    -0.394 N 
HETATM    8  C7  UNL     1     -32.213   7.668   2.237  1.00 20.00     0.146 C 
HETATM    9  H17 UNL     1     -32.204   8.792   4.033  1.00 20.00     0.159 HD
ENDBRANCH   6   7
TORSDOF 1
ENDMDL
MODEL 2
REMARK VINA RESULT:      -5.2      0.009      1.709
REMARK  1 active torsions:
REMARK  status: ('A' for Active; 'I' for Inactive)
REMARK    1  A    between atoms: C6_6  and  N8_8 
ROOT
HETATM    1  C1  UNL     1     -34.794   5.338   5.989  1.00 20.00     0.000 A 
HETATM    2  C2  UNL     1     -34.337   6.544   6.517  1.00 20.00     0.002 A 
HETATM    3  C3  UNL     1     -34.498   4.997   4.668  1.00 20.00     0.002 A 
HETATM    4  C4  UNL     1     -33.582   7.410   5.726  1.00 20.00     0.029 A 
HETATM    5  C5  UNL     1     -33.744   5.862   3.878  1.00 20.00     0.029 A 
HETATM    6  C6  UNL     1     -33.285   7.069   4.406  1.00 20.00     0.027 A 
ENDROOT
BRANCH   6   7
HETATM    7  N8  UNL     1     -32.522   7.945   3.607  1.00 20.00    -0.394 N 
HETATM    8  C7  UNL     1     -32.210   7.673   2.238  1.00 20.00     0.146 C 
HETATM    9  H17 UNL     1     -32.195   8.787   4.040  1.00 20.00     0.159 HD
ENDBRANCH   6   7
TORSDOF 1
ENDMDL
MODEL 3
REMARK VINA RESULT:      -4.5      1.630      3.776
REMARK  1 active torsions:
REMARK  status: ('A' for Active; 'I' for Inactive)
REMARK    1  A    between atoms: C6_6  and  N8_8 
ROOT
HETATM    1  C1  UNL     1     -32.160   7.634   3.013  1.00 20.00     0.000 A 
HETATM    2  C2  UNL     1     -32.747   8.236   4.126  1.00 20.00     0.002 A 
HETATM    3  C3  UNL     1     -32.526   6.338   2.647  1.00 20.00     0.002 A 
HETATM    4  C4  UNL     1     -33.700   7.543   4.873  1.00 20.00     0.029 A 
HETATM    5  C5  UNL     1     -33.478   5.645   3.393  1.00 20.00     0.029 A 
HETATM    6  C6  UNL     1     -34.066   6.248   4.506  1.00 20.00     0.027 A 
ENDROOT
BRANCH   6   7
HETATM    7  N8  UNL     1     -35.028   5.547   5.261  1.00 20.00    -0.394 N 
HETATM    8  C7  UNL     1     -34.873   5.272   6.656  1.00 20.00     0.146 C 
HETATM    9  H17 UNL     1     -35.849   5.236   4.775  1.00 20.00     0.159 HD
ENDBRANCH   6   7
TORSDOF 1
ENDMDL
MODEL 4
REMARK VINA RESULT:      -4.5      1.622      3.388
REMARK  1 active torsions:
REMARK  status: ('A' for Active; 'I' for Inactive)
REMARK    1  A    between atoms: C6_6  and  N8_8 
ROOT
HETATM    1  C1  UNL     1     -32.163   7.621   2.961  1.00 20.00     0.000 A 
HETATM    2  C2  UNL     1     -32.514   6.321   2.598  1.00 20.00     0.002 A 
HETATM    3  C3  UNL     1     -32.745   8.213   4.083  1.00 20.00     0.002 A 
HETATM    4  C4  UNL     1     -33.444   5.611   3.357  1.00 20.00     0.029 A 
HETATM    5  C5  UNL     1     -33.675   7.504   4.842  1.00 20.00     0.029 A 
HETATM    6  C6  UNL     1     -34.025   6.202   4.479  1.00 20.00     0.027 A 
ENDROOT
BRANCH   6   7
HETATM    7  N8  UNL     1     -34.966   5.486   5.246  1.00 20.00    -0.394 N 
HETATM    8  C7  UNL     1     -34.817   5.266   6.651  1.00 20.00     0.146 C 
HETATM    9  H17 UNL     1     -35.766   5.123   4.762  1.00 20.00     0.159 HD
ENDBRANCH   6   7
TORSDOF 1
ENDMDL
MODEL 5
REMARK VINA RESULT:      -4.3      1.278      1.765
REMARK  1 active torsions:
REMARK  status: ('A' for Active; 'I' for Inactive)
REMARK    1  A    between atoms: C6_6  and  N8_8 
ROOT
HETATM    1  C1  UNL     1     -34.496   6.632   6.646  1.00 20.00     0.000 A 
HETATM    2  C2  UNL     1     -34.800   5.425   6.017  1.00 20.00     0.002 A 
HETATM    3  C3  UNL     1     -33.739   7.595   5.977  1.00 20.00     0.002 A 
HETATM    4  C4  UNL     1     -34.350   5.181   4.720  1.00 20.00     0.029 A 
HETATM    5  C5  UNL     1     -33.288   7.352   4.681  1.00 20.00     0.029 A 
HETATM    6  C6  UNL     1     -33.594   6.144   4.051  1.00 20.00     0.027 A 
ENDROOT
BRANCH   6   7
HETATM    7  N8  UNL     1     -33.138   5.898   2.740  1.00 20.00    -0.394 N 
HETATM    8  C7  UNL     1     -32.812   4.589   2.265  1.00 20.00     0.146 C 
HETATM    9  H17 UNL     1     -33.045   6.692   2.135  1.00 20.00     0.159 HD
ENDBRANCH   6   7
TORSDOF 1
ENDMDL
MODEL 6
REMARK VINA RESULT:      -4.0      1.529      2.459
REMARK  1 active torsions:
REMARK  status: ('A' for Active; 'I' for Inactive)
REMARK    1  A    between atoms: C6_6  and  N8_8 
ROOT
HETATM    1  C1  UNL     1     -33.550   8.363   6.142  1.00 20.00     0.000 A 
HETATM    2  C2  UNL     1     -32.906   8.447   4.908  1.00 20.00     0.002 A 
HETATM    3  C3  UNL     1     -34.259   7.211   6.483  1.00 20.00     0.002 A 
HETATM    4  C4  UNL     1     -32.970   7.378   4.014  1.00 20.00     0.029 A 
HETATM    5  C5  UNL     1     -34.323   6.143   5.590  1.00 20.00     0.029 A 
HETATM    6  C6  UNL     1     -33.679   6.225   4.355  1.00 20.00     0.027 A 
ENDROOT
BRANCH   6   7
HETATM    7  N8  UNL     1     -33.744   5.145   3.452  1.00 20.00    -0.394 N 
HETATM    8  C7  UNL     1     -32.877   5.023   2.321  1.00 20.00     0.146 C 
HETATM    9  H17 UNL     1     -34.439   4.444   3.631  1.00 20.00     0.159 HD
ENDBRANCH   6   7
TORSDOF 1
ENDMDL
MODEL 7
REMARK VINA RESULT:      -3.7     15.384     16.460
REMARK  1 active torsions:
REMARK  status: ('A' for Active; 'I' for Inactive)
REMARK    1  A    between atoms: C6_6  and  N8_8 
ROOT
HETATM    1  C1  UNL     1     -23.079  19.108   7.936  1.00 20.00     0.000 A 
HETATM    2  C2  UNL     1     -22.077  18.172   8.190  1.00 20.00     0.002 A 
HETATM    3  C3  UNL     1     -24.134  19.263   8.837  1.00 20.00     0.002 A 
HETATM    4  C4  UNL     1     -22.128  17.391   9.345  1.00 20.00     0.029 A 
HETATM    5  C5  UNL     1     -24.185  18.483   9.992  1.00 20.00     0.029 A 
HETATM    6  C6  UNL     1     -23.182  17.547  10.246  1.00 20.00     0.027 A 
ENDROOT
BRANCH   6   7
HETATM    7  N8  UNL     1     -23.234  16.758  11.413  1.00 20.00    -0.394 N 
HETATM    8  C7  UNL     1     -24.455  16.242  11.949  1.00 20.00     0.146 C 
HETATM    9  H17 UNL     1     -22.362  16.565  11.871  1.00 20.00     0.159 HD
ENDBRANCH   6   7
TORSDOF 1
ENDMDL
MODEL 8
REMARK VINA RESULT:      -3.7     15.331     15.876
REMARK  1 active torsions:
REMARK  status: ('A' for Active; 'I' for Inactive)
REMARK    1  A    between atoms: C6_6  and  N8_8 
ROOT
HETATM    1  C1  UNL     1     -25.925  18.028  12.224  1.00 20.00     0.000 A 
HETATM    2  C2  UNL     1     -25.334  18.962  11.374  1.00 20.00     0.002 A 
HETATM    3  C3  UNL     1     -25.391  16.743  12.330  1.00 20.00     0.002 A 
HETATM    4  C4  UNL     1     -24.207  18.613  10.630  1.00 20.00     0.029 A 
HETATM    5  C5  UNL     1     -24.265  16.394  11.586  1.00 20.00     0.029 A 
HETATM    6  C6  UNL     1     -23.672  17.328  10.736  1.00 20.00     0.027 A 
ENDROOT
BRANCH   6   7
HETATM    7  N8  UNL     1     -22.534  16.974   9.984  1.00 20.00    -0.394 N 
HETATM    8  C7  UNL     1     -22.288  17.472   8.666  1.00 20.00     0.146 C 
HETATM    9  H17 UNL     1     -21.883  16.343  10.413  1.00 20.00     0.159 HD
ENDBRANCH   6   7
TORSDOF 1
ENDMDL
MODEL 9
REMARK VINA RESULT:      -3.6     12.504     13.040
REMARK  1 active torsions:
REMARK  status: ('A' for Active; 'I' for Inactive)
REMARK    1  A    between atoms: C6_6  and  N8_8 
ROOT
HETATM    1  C1  UNL     1     -32.565  17.952  -1.395  1.00 20.00     0.000 A 
HETATM    2  C2  UNL     1     -31.434  18.481  -0.774  1.00 20.00     0.002 A 
HETATM    3  C3  UNL     1     -33.763  17.841  -0.686  1.00 20.00     0.002 A 
HETATM    4  C4  UNL     1     -31.499  18.902   0.554  1.00 20.00     0.029 A 
HETATM    5  C5  UNL     1     -33.828  18.262   0.641  1.00 20.00     0.029 A 
HETATM    6  C6  UNL     1     -32.697  18.792   1.262  1.00 20.00     0.027 A 
ENDROOT
BRANCH   6   7
HETATM    7  N8  UNL     1     -32.763  19.217   2.605  1.00 20.00    -0.394 N 
HETATM    8  C7  UNL     1     -31.623  19.249   3.466  1.00 20.00     0.146 C 
HETATM    9  H17 UNL     1     -33.662  19.502   2.947  1.00 20.00     0.159 HD
ENDBRANCH   6   7
TORSDOF 1
ENDMDL
