MODEL 1
REMARK VINA RESULT:      -5.8      0.000      0.000
REMARK  2 active torsions:
REMARK  status: ('A' for Active; 'I' for Inactive)
REMARK    1  A    between atoms: C6_6  and  C8_8 
REMARK    2  A    between atoms: C8_8  and  C9_9 
ROOT
HETATM    1  C1  UNL     1     -34.807   5.361   5.941  1.00 20.00     0.000 A 
HETATM    2  C2  UNL     1     -34.518   5.073   4.607  1.00 20.00     0.001 A 
HETATM    3  C3  UNL     1     -34.351   6.548   6.514  1.00 20.00     0.001 A 
HETATM    4  C4  UNL     1     -33.772   5.974   3.846  1.00 20.00     0.007 A 
HETATM    5  C5  UNL     1     -33.605   7.448   5.753  1.00 20.00     0.007 A 
HETATM    6  C6  UNL     1     -33.315   7.161   4.419  1.00 20.00    -0.058 A 
ENDROOT
BRANCH   6   7
HETATM    7  C8  UNL     1     -32.517   8.124   3.606  1.00 20.00     0.038 C 
BRANCH   7   8
HETATM    8  C9  UNL     1     -32.179   7.564   2.216  1.00 20.00     0.000 C 
HETATM    9  C7  UNL     1     -32.340   8.611   1.126  1.00 20.00     0.005 C 
ENDBRANCH   7   8
ENDBRANCH   6   7
TORSDOF 2
ENDMDL
MODEL 2
REMARK VINA RESULT:      -5.8      0.015      1.611
REMARK  2 active torsions:
REMARK  status: ('A' for Active; 'I' for Inactive)
REMARK    1  A    between atoms: C6_6  and  C8_8 
REMARK    2  A    between atoms: C8_8  and  C9_9 
ROOT
HETATM    1  C1  UNL     1     -34.805   5.368   5.938  1.00 20.00     0.000 A 
HETATM    2  C2  UNL     1     -34.356   6.561   6.506  1.00 20.00     0.001 A 
HETATM    3  C3  UNL     1     -34.510   5.076   4.606  1.00 20.00     0.001 A 
HETATM    4  C4  UNL     1     -33.613   7.461   5.742  1.00 20.00     0.007 A 
HETATM    5  C5  UNL     1     -33.767   5.976   3.843  1.00 20.00     0.007 A 
HETATM    6  C6  UNL     1     -33.319   7.168   4.410  1.00 20.00    -0.058 A 
ENDROOT
BRANCH   6   7
HETATM    7  C8  UNL     1     -32.524   8.130   3.593  1.00 20.00     0.038 C 
BRANCH   7   8
HETATM    8  C9  UNL     1     -32.170   7.560   2.211  1.00 20.00     0.000 C 
HETATM    9  C7  UNL     1     -32.340   8.592   1.108  1.00 20.00     0.005 C 
ENDBRANCH   7   8
ENDBRANCH   6   7
TORSDOF 2
ENDMDL
MODEL 3
REMARK VINA RESULT:      -4.7      1.134      3.897
REMARK  2 active torsions:
REMARK  status: ('A' for Active; 'I' for Inactive)
REMARK    1  A    between atoms: C6_6  and  C8_8 
REMARK    2  A    between atoms: C8_8  and  C9_9 
ROOT
HETATM    1  C1  UNL     1     -31.842   8.386   3.707  1.00 20.00     0.000 A 
HETATM    2  C2  UNL     1     -32.089   7.234   2.960  1.00 20.00     0.001 A 
HETATM    3  C3  UNL     1     -32.658   8.702   4.794  1.00 20.00     0.001 A 
HETATM    4  C4  UNL     1     -33.153   6.398   3.300  1.00 20.00     0.007 A 
HETATM    5  C5  UNL     1     -33.722   7.865   5.133  1.00 20.00     0.007 A 
HETATM    6  C6  UNL     1     -33.970   6.714   4.386  1.00 20.00    -0.058 A 
ENDROOT
BRANCH   6   7
HETATM    7  C8  UNL     1     -35.108   5.821   4.749  1.00 20.00     0.038 C 
BRANCH   7   8
HETATM    8  C9  UNL     1     -35.062   5.397   6.225  1.00 20.00     0.000 C 
HETATM    9  C7  UNL     1     -33.666   4.973   6.652  1.00 20.00     0.005 C 
ENDBRANCH   7   8
ENDBRANCH   6   7
TORSDOF 2
ENDMDL
MODEL 4
REMARK VINA RESULT:      -4.7      1.135      4.205
REMARK  2 active torsions:
REMARK  status: ('A' for Active; 'I' for Inactive)
REMARK    1  A    between atoms: C6_6  and  C8_8 
REMARK    2  A    between atoms: C8_8  and  C9_9 
ROOT
HETATM    1  C1  UNL     1     -31.830   8.396   3.717  1.00 20.00     0.000 A 
HETATM    2  C2  UNL     1     -32.645   8.716   4.803  1.00 20.00     0.001 A 
HETATM    3  C3  UNL     1     -32.079   7.243   2.972  1.00 20.00     0.001 A 
HETATM    4  C4  UNL     1     -33.711   7.883   5.143  1.00 20.00     0.007 A 
HETATM    5  C5  UNL     1     -33.145   6.411   3.313  1.00 20.00     0.007 A 
HETATM    6  C6  UNL     1     -33.960   6.730   4.398  1.00 20.00    -0.058 A 
ENDROOT
BRANCH   6   7
HETATM    7  C8  UNL     1     -35.100   5.838   4.762  1.00 20.00     0.038 C 
BRANCH   7   8
HETATM    8  C9  UNL     1     -35.052   5.413   6.238  1.00 20.00     0.000 C 
HETATM    9  C7  UNL     1     -33.664   4.955   6.653  1.00 20.00     0.005 C 
ENDBRANCH   7   8
ENDBRANCH   6   7
TORSDOF 2
ENDMDL
MODEL 5
REMARK VINA RESULT:      -4.3      0.905      4.102
REMARK  2 active torsions:
REMARK  status: ('A' for Active; 'I' for Inactive)
REMARK    1  A    between atoms: C6_6  and  C8_8 
REMARK    2  A    between atoms: C8_8  and  C9_9 
ROOT
HETATM    1  C1  UNL     1     -32.117   8.118   2.705  1.00 20.00     0.000 A 
HETATM    2  C2  UNL     1     -32.318   9.046   3.727  1.00 20.00     0.001 A 
HETATM    3  C3  UNL     1     -32.538   6.797   2.870  1.00 20.00     0.001 A 
HETATM    4  C4  UNL     1     -32.938   8.655   4.912  1.00 20.00     0.007 A 
HETATM    5  C5  UNL     1     -33.159   6.407   4.056  1.00 20.00     0.007 A 
HETATM    6  C6  UNL     1     -33.359   7.335   5.077  1.00 20.00    -0.058 A 
ENDROOT
BRANCH   6   7
HETATM    7  C8  UNL     1     -34.023   6.915   6.346  1.00 20.00     0.038 C 
BRANCH   7   8
HETATM    8  C9  UNL     1     -34.502   5.457   6.293  1.00 20.00     0.000 C 
HETATM    9  C7  UNL     1     -35.401   5.197   5.095  1.00 20.00     0.005 C 
ENDBRANCH   7   8
ENDBRANCH   6   7
TORSDOF 2
ENDMDL
MODEL 6
REMARK VINA RESULT:      -4.1     11.828     12.422
REMARK  2 active torsions:
REMARK  status: ('A' for Active; 'I' for Inactive)
REMARK    1  A    between atoms: C6_6  and  C8_8 
REMARK    2  A    between atoms: C8_8  and  C9_9 
ROOT
HETATM    1  C1  UNL     1     -32.205  18.880   1.523  1.00 20.00     0.000 A 
HETATM    2  C2  UNL     1     -31.144  18.844   0.618  1.00 20.00     0.001 A 
HETATM    3  C3  UNL     1     -33.490  18.531   1.107  1.00 20.00     0.001 A 
HETATM    4  C4  UNL     1     -31.369  18.459  -0.704  1.00 20.00     0.007 A 
HETATM    5  C5  UNL     1     -33.713  18.146  -0.215  1.00 20.00     0.007 A 
HETATM    6  C6  UNL     1     -32.654  18.110  -1.120  1.00 20.00    -0.058 A 
ENDROOT
BRANCH   6   7
HETATM    7  C8  UNL     1     -32.894  17.698  -2.534  1.00 20.00     0.038 C 
BRANCH   7   8
HETATM    8  C9  UNL     1     -33.570  16.322  -2.628  1.00 20.00     0.000 C 
HETATM    9  C7  UNL     1     -33.162  15.572  -3.885  1.00 20.00     0.005 C 
ENDBRANCH   7   8
ENDBRANCH   6   7
TORSDOF 2
ENDMDL
MODEL 7
REMARK VINA RESULT:      -4.1     12.084     12.704
REMARK  2 active torsions:
REMARK  status: ('A' for Active; 'I' for Inactive)
REMARK    1  A    between atoms: C6_6  and  C8_8 
REMARK    2  A    between atoms: C8_8  and  C9_9 
ROOT
HETATM    1  C1  UNL     1     -33.785  17.819  -0.834  1.00 20.00     0.000 A 
HETATM    2  C2  UNL     1     -33.933  18.171   0.508  1.00 20.00     0.001 A 
HETATM    3  C3  UNL     1     -32.541  17.937  -1.454  1.00 20.00     0.001 A 
HETATM    4  C4  UNL     1     -32.836  18.641   1.230  1.00 20.00     0.007 A 
HETATM    5  C5  UNL     1     -31.444  18.406  -0.731  1.00 20.00     0.007 A 
HETATM    6  C6  UNL     1     -31.591  18.759   0.610  1.00 20.00    -0.058 A 
ENDROOT
BRANCH   6   7
HETATM    7  C8  UNL     1     -30.418  19.262   1.382  1.00 20.00     0.038 C 
BRANCH   7   8
HETATM    8  C9  UNL     1     -30.254  18.533   2.724  1.00 20.00     0.000 C 
HETATM    9  C7  UNL     1     -28.894  18.794   3.351  1.00 20.00     0.005 C 
ENDBRANCH   7   8
ENDBRANCH   6   7
TORSDOF 2
ENDMDL
MODEL 8
REMARK VINA RESULT:      -3.9     15.334     16.887
REMARK  2 active torsions:
REMARK  status: ('A' for Active; 'I' for Inactive)
REMARK    1  A    between atoms: C6_6  and  C8_8 
REMARK    2  A    between atoms: C8_8  and  C9_9 
ROOT
HETATM    1  C1  UNL     1     -22.264  18.645   7.975  1.00 20.00     0.000 A 
HETATM    2  C2  UNL     1     -21.402  18.235   8.993  1.00 20.00     0.001 A 
HETATM    3  C3  UNL     1     -23.576  19.012   8.277  1.00 20.00     0.001 A 
HETATM    4  C4  UNL     1     -21.852  18.194  10.312  1.00 20.00     0.007 A 
HETATM    5  C5  UNL     1     -24.024  18.970   9.596  1.00 20.00     0.007 A 
HETATM    6  C6  UNL     1     -23.164  18.561  10.614  1.00 20.00    -0.058 A 
ENDROOT
BRANCH   6   7
HETATM    7  C8  UNL     1     -23.645  18.516  12.025  1.00 20.00     0.038 C 
BRANCH   7   8
HETATM    8  C9  UNL     1     -24.836  17.562  12.199  1.00 20.00     0.000 C 
HETATM    9  C7  UNL     1     -24.461  16.121  11.892  1.00 20.00     0.005 C 
ENDBRANCH   7   8
ENDBRANCH   6   7
TORSDOF 2
ENDMDL
MODEL 9
REMARK VINA RESULT:      -3.8      1.414      4.663
REMARK  2 active torsions:
REMARK  status: ('A' for Active; 'I' for Inactive)
REMARK    1  A    between atoms: C6_6  and  C8_8 
REMARK    2  A    between atoms: C8_8  and  C9_9 
ROOT
HETATM    1  C1  UNL     1     -32.505   8.869   0.629  1.00 20.00     0.000 A 
HETATM    2  C2  UNL     1     -32.933   9.876   1.495  1.00 20.00     0.001 A 
HETATM    3  C3  UNL     1     -32.089   7.639   1.140  1.00 20.00     0.001 A 
HETATM    4  C4  UNL     1     -32.946   9.652   2.871  1.00 20.00     0.007 A 
HETATM    5  C5  UNL     1     -32.102   7.417   2.517  1.00 20.00     0.007 A 
HETATM    6  C6  UNL     1     -32.530   8.423   3.383  1.00 20.00    -0.058 A 
ENDROOT
BRANCH   6   7
HETATM    7  C8  UNL     1     -32.543   8.184   4.855  1.00 20.00     0.038 C 
BRANCH   7   8
HETATM    8  C9  UNL     1     -33.964   7.949   5.390  1.00 20.00     0.000 C 
HETATM    9  C7  UNL     1     -34.033   6.741   6.310  1.00 20.00     0.005 C 
ENDBRANCH   7   8
ENDBRANCH   6   7
TORSDOF 2
ENDMDL
