MODEL 1
REMARK VINA RESULT:      -6.8      0.000      0.000
REMARK  0 active torsions:
REMARK  status: ('A' for Active; 'I' for Inactive)
ROOT
HETATM    1  C1  UNL     1     -32.155   7.389   2.439  1.00 20.00     0.001 A 
HETATM    2  C2  UNL     1     -32.039   8.460   3.321  1.00 20.00     0.001 A 
HETATM    3  C3  UNL     1     -34.851   4.990   5.702  1.00 20.00     0.001 A 
HETATM    4  C4  UNL     1     -34.736   6.060   6.584  1.00 20.00     0.001 A 
HETATM    5  C5  UNL     1     -32.881   6.256   2.806  1.00 20.00     0.012 A 
HETATM    6  C6  UNL     1     -32.650   8.401   4.574  1.00 20.00     0.012 A 
HETATM    7  C7  UNL     1     -34.240   5.048   4.449  1.00 20.00     0.012 A 
HETATM    8  C8  UNL     1     -34.009   7.193   6.217  1.00 20.00     0.012 A 
HETATM    9  C9  UNL     1     -33.503   6.181   4.063  1.00 20.00    -0.026 A 
HETATM   10  C10 UNL     1     -33.387   7.269   4.961  1.00 20.00    -0.026 A 
ENDROOT
TORSDOF 0
ENDMDL
MODEL 2
REMARK VINA RESULT:      -6.8      0.043      2.071
REMARK  0 active torsions:
REMARK  status: ('A' for Active; 'I' for Inactive)
ROOT
HETATM    1  C1  UNL     1     -32.032   8.467   3.376  1.00 20.00     0.001 A 
HETATM    2  C2  UNL     1     -32.160   7.420   2.467  1.00 20.00     0.001 A 
HETATM    3  C3  UNL     1     -34.739   6.012   6.589  1.00 20.00     0.001 A 
HETATM    4  C4  UNL     1     -34.866   4.965   5.680  1.00 20.00     0.001 A 
HETATM    5  C5  UNL     1     -32.640   8.383   4.629  1.00 20.00     0.012 A 
HETATM    6  C6  UNL     1     -32.897   6.286   2.809  1.00 20.00     0.012 A 
HETATM    7  C7  UNL     1     -34.002   7.147   6.247  1.00 20.00     0.012 A 
HETATM    8  C8  UNL     1     -34.259   5.049   4.427  1.00 20.00     0.012 A 
HETATM    9  C9  UNL     1     -33.384   7.249   4.989  1.00 20.00    -0.026 A 
HETATM   10  C10 UNL     1     -33.515   6.184   4.066  1.00 20.00    -0.026 A 
ENDROOT
TORSDOF 0
ENDMDL
MODEL 3
REMARK VINA RESULT:      -6.8      0.032      4.020
REMARK  0 active torsions:
REMARK  status: ('A' for Active; 'I' for Inactive)
ROOT
HETATM    1  C1  UNL     1     -34.749   6.086   6.584  1.00 20.00     0.001 A 
HETATM    2  C2  UNL     1     -34.873   5.007   5.713  1.00 20.00     0.001 A 
HETATM    3  C3  UNL     1     -32.054   8.440   3.287  1.00 20.00     0.001 A 
HETATM    4  C4  UNL     1     -32.179   7.361   2.416  1.00 20.00     0.001 A 
HETATM    5  C5  UNL     1     -34.019   7.211   6.203  1.00 20.00     0.012 A 
HETATM    6  C6  UNL     1     -34.266   5.050   4.457  1.00 20.00     0.012 A 
HETATM    7  C7  UNL     1     -32.662   8.397   4.543  1.00 20.00     0.012 A 
HETATM    8  C8  UNL     1     -32.909   6.235   2.797  1.00 20.00     0.012 A 
HETATM    9  C9  UNL     1     -33.401   7.271   4.943  1.00 20.00    -0.026 A 
HETATM   10  C10 UNL     1     -33.526   6.175   4.057  1.00 20.00    -0.026 A 
ENDROOT
TORSDOF 0
ENDMDL
MODEL 4
REMARK VINA RESULT:      -6.8      0.115      3.445
REMARK  0 active torsions:
REMARK  status: ('A' for Active; 'I' for Inactive)
ROOT
HETATM    1  C1  UNL     1     -34.894   5.018   5.801  1.00 20.00     0.001 A 
HETATM    2  C2  UNL     1     -34.751   6.125   6.634  1.00 20.00     0.001 A 
HETATM    3  C3  UNL     1     -32.211   7.228   2.397  1.00 20.00     0.001 A 
HETATM    4  C4  UNL     1     -32.068   8.335   3.229  1.00 20.00     0.001 A 
HETATM    5  C5  UNL     1     -34.301   5.011   4.539  1.00 20.00     0.012 A 
HETATM    6  C6  UNL     1     -34.013   7.229   6.205  1.00 20.00     0.012 A 
HETATM    7  C7  UNL     1     -32.949   6.124   2.825  1.00 20.00     0.012 A 
HETATM    8  C8  UNL     1     -32.662   8.342   4.491  1.00 20.00     0.012 A 
HETATM    9  C9  UNL     1     -33.554   6.113   4.093  1.00 20.00    -0.026 A 
HETATM   10  C10 UNL     1     -33.408   7.240   4.938  1.00 20.00    -0.026 A 
ENDROOT
TORSDOF 0
ENDMDL
MODEL 5
REMARK VINA RESULT:      -5.6      0.860      1.944
REMARK  0 active torsions:
REMARK  status: ('A' for Active; 'I' for Inactive)
ROOT
HETATM    1  C1  UNL     1     -32.270   9.044   4.405  1.00 20.00     0.001 A 
HETATM    2  C2  UNL     1     -33.005   9.108   5.585  1.00 20.00     0.001 A 
HETATM    3  C3  UNL     1     -33.911   4.531   3.624  1.00 20.00     0.001 A 
HETATM    4  C4  UNL     1     -34.646   4.594   4.804  1.00 20.00     0.001 A 
HETATM    5  C5  UNL     1     -32.308   7.892   3.619  1.00 20.00     0.012 A 
HETATM    6  C6  UNL     1     -33.781   8.019   5.984  1.00 20.00     0.012 A 
HETATM    7  C7  UNL     1     -33.134   5.620   3.226  1.00 20.00     0.012 A 
HETATM    8  C8  UNL     1     -34.608   5.746   5.591  1.00 20.00     0.012 A 
HETATM    9  C9  UNL     1     -33.084   6.788   4.005  1.00 20.00    -0.026 A 
HETATM   10  C10 UNL     1     -33.832   6.851   5.205  1.00 20.00    -0.026 A 
ENDROOT
TORSDOF 0
ENDMDL
MODEL 6
REMARK VINA RESULT:      -5.5      0.949      3.091
REMARK  0 active torsions:
REMARK  status: ('A' for Active; 'I' for Inactive)
ROOT
HETATM    1  C1  UNL     1     -34.021   4.403   3.664  1.00 20.00     0.001 A 
HETATM    2  C2  UNL     1     -33.142   4.825   2.670  1.00 20.00     0.001 A 
HETATM    3  C3  UNL     1     -33.500   8.672   5.939  1.00 20.00     0.001 A 
HETATM    4  C4  UNL     1     -32.622   9.094   4.945  1.00 20.00     0.001 A 
HETATM    5  C5  UNL     1     -34.332   5.250   4.727  1.00 20.00     0.012 A 
HETATM    6  C6  UNL     1     -32.572   6.097   2.736  1.00 20.00     0.012 A 
HETATM    7  C7  UNL     1     -34.070   7.400   5.873  1.00 20.00     0.012 A 
HETATM    8  C8  UNL     1     -32.310   8.246   3.882  1.00 20.00     0.012 A 
HETATM    9  C9  UNL     1     -33.768   6.533   4.809  1.00 20.00    -0.026 A 
HETATM   10  C10 UNL     1     -32.874   6.964   3.799  1.00 20.00    -0.026 A 
ENDROOT
TORSDOF 0
ENDMDL
MODEL 7
REMARK VINA RESULT:      -5.5      0.942      2.943
REMARK  0 active torsions:
REMARK  status: ('A' for Active; 'I' for Inactive)
ROOT
HETATM    1  C1  UNL     1     -33.067   4.948   2.593  1.00 20.00     0.001 A 
HETATM    2  C2  UNL     1     -33.948   4.465   3.556  1.00 20.00     0.001 A 
HETATM    3  C3  UNL     1     -32.643   9.117   5.065  1.00 20.00     0.001 A 
HETATM    4  C4  UNL     1     -33.523   8.635   6.029  1.00 20.00     0.001 A 
HETATM    5  C5  UNL     1     -32.520   6.225   2.722  1.00 20.00     0.012 A 
HETATM    6  C6  UNL     1     -34.285   5.259   4.654  1.00 20.00     0.012 A 
HETATM    7  C7  UNL     1     -32.306   8.324   3.967  1.00 20.00     0.012 A 
HETATM    8  C8  UNL     1     -34.071   7.358   5.898  1.00 20.00     0.012 A 
HETATM    9  C9  UNL     1     -32.848   7.036   3.820  1.00 20.00    -0.026 A 
HETATM   10  C10 UNL     1     -33.744   6.547   4.801  1.00 20.00    -0.026 A 
ENDROOT
TORSDOF 0
ENDMDL
MODEL 8
REMARK VINA RESULT:      -5.3      0.903      2.900
REMARK  0 active torsions:
REMARK  status: ('A' for Active; 'I' for Inactive)
ROOT
HETATM    1  C1  UNL     1     -34.017   8.020   6.428  1.00 20.00     0.001 A 
HETATM    2  C2  UNL     1     -33.234   8.786   5.569  1.00 20.00     0.001 A 
HETATM    3  C3  UNL     1     -33.746   4.272   3.337  1.00 20.00     0.001 A 
HETATM    4  C4  UNL     1     -32.962   5.037   2.479  1.00 20.00     0.001 A 
HETATM    5  C5  UNL     1     -34.344   6.706   6.092  1.00 20.00     0.012 A 
HETATM    6  C6  UNL     1     -32.773   8.239   4.371  1.00 20.00     0.012 A 
HETATM    7  C7  UNL     1     -34.207   4.819   4.536  1.00 20.00     0.012 A 
HETATM    8  C8  UNL     1     -32.636   6.352   2.815  1.00 20.00     0.012 A 
HETATM    9  C9  UNL     1     -33.888   6.140   4.890  1.00 20.00    -0.026 A 
HETATM   10  C10 UNL     1     -33.092   6.918   4.016  1.00 20.00    -0.026 A 
ENDROOT
TORSDOF 0
ENDMDL
MODEL 9
REMARK VINA RESULT:      -4.4     15.503     15.754
REMARK  0 active torsions:
REMARK  status: ('A' for Active; 'I' for Inactive)
ROOT
HETATM    1  C1  UNL     1     -22.323  17.755   8.354  1.00 20.00     0.001 A 
HETATM    2  C2  UNL     1     -23.086  18.872   8.028  1.00 20.00     0.001 A 
HETATM    3  C3  UNL     1     -25.038  17.061  12.332  1.00 20.00     0.001 A 
HETATM    4  C4  UNL     1     -25.802  18.178  12.005  1.00 20.00     0.001 A 
HETATM    5  C5  UNL     1     -22.614  17.022   9.505  1.00 20.00     0.012 A 
HETATM    6  C6  UNL     1     -24.143  19.261   8.852  1.00 20.00     0.012 A 
HETATM    7  C7  UNL     1     -23.981  16.672  11.507  1.00 20.00     0.012 A 
HETATM    8  C8  UNL     1     -25.511  18.911  10.854  1.00 20.00     0.012 A 
HETATM    9  C9  UNL     1     -23.674  17.398  10.345  1.00 20.00    -0.026 A 
HETATM   10  C10 UNL     1     -24.451  18.535  10.014  1.00 20.00    -0.026 A 
ENDROOT
TORSDOF 0
ENDMDL
