MODEL 1
REMARK VINA RESULT:      -6.4      0.000      0.000
REMARK  0 active torsions:
REMARK  status: ('A' for Active; 'I' for Inactive)
ROOT
HETATM    1  C1  UNL     1     -34.771   5.381   5.993  1.00 20.00     0.001 A 
HETATM    2  C2  UNL     1     -34.423   6.653   6.447  1.00 20.00     0.001 A 
HETATM    3  C3  UNL     1     -34.342   4.945   4.739  1.00 20.00     0.007 A 
HETATM    4  C4  UNL     1     -33.645   7.491   5.646  1.00 20.00     0.007 A 
HETATM    5  C5  UNL     1     -33.565   5.783   3.939  1.00 20.00    -0.056 A 
HETATM    6  C6  UNL     1     -33.217   7.055   4.392  1.00 20.00    -0.056 A 
HETATM    7  C7  UNL     1     -33.117   5.295   2.600  1.00 20.00     0.049 C 
HETATM    8  C8  UNL     1     -32.387   7.969   3.552  1.00 20.00     0.049 C 
ENDROOT
TORSDOF 0
ENDMDL
MODEL 2
REMARK VINA RESULT:      -6.3      0.034      2.251
REMARK  0 active torsions:
REMARK  status: ('A' for Active; 'I' for Inactive)
ROOT
HETATM    1  C1  UNL     1     -34.429   6.637   6.464  1.00 20.00     0.001 A 
HETATM    2  C2  UNL     1     -34.760   5.365   5.998  1.00 20.00     0.001 A 
HETATM    3  C3  UNL     1     -33.664   7.493   5.672  1.00 20.00     0.007 A 
HETATM    4  C4  UNL     1     -34.326   4.948   4.738  1.00 20.00     0.007 A 
HETATM    5  C5  UNL     1     -33.230   7.077   4.414  1.00 20.00    -0.056 A 
HETATM    6  C6  UNL     1     -33.561   5.805   3.947  1.00 20.00    -0.056 A 
HETATM    7  C7  UNL     1     -32.412   8.011   3.583  1.00 20.00     0.049 C 
HETATM    8  C8  UNL     1     -33.106   5.337   2.604  1.00 20.00     0.049 C 
ENDROOT
TORSDOF 0
ENDMDL
MODEL 3
REMARK VINA RESULT:      -6.1      0.954      1.088
REMARK  0 active torsions:
REMARK  status: ('A' for Active; 'I' for Inactive)
ROOT
HETATM    1  C1  UNL     1     -34.685   5.100   5.199  1.00 20.00     0.001 A 
HETATM    2  C2  UNL     1     -34.671   5.986   6.276  1.00 20.00     0.001 A 
HETATM    3  C3  UNL     1     -33.980   5.404   4.035  1.00 20.00     0.007 A 
HETATM    4  C4  UNL     1     -33.950   7.178   6.188  1.00 20.00     0.007 A 
HETATM    5  C5  UNL     1     -33.259   6.595   3.948  1.00 20.00    -0.056 A 
HETATM    6  C6  UNL     1     -33.245   7.482   5.025  1.00 20.00    -0.056 A 
HETATM    7  C7  UNL     1     -32.510   6.899   2.692  1.00 20.00     0.049 C 
HETATM    8  C8  UNL     1     -32.481   8.764   4.954  1.00 20.00     0.049 C 
ENDROOT
TORSDOF 0
ENDMDL
MODEL 4
REMARK VINA RESULT:      -6.1      0.941      2.325
REMARK  0 active torsions:
REMARK  status: ('A' for Active; 'I' for Inactive)
ROOT
HETATM    1  C1  UNL     1     -34.669   5.961   6.249  1.00 20.00     0.001 A 
HETATM    2  C2  UNL     1     -34.668   5.077   5.169  1.00 20.00     0.001 A 
HETATM    3  C3  UNL     1     -33.959   7.158   6.172  1.00 20.00     0.007 A 
HETATM    4  C4  UNL     1     -33.955   5.392   4.011  1.00 20.00     0.007 A 
HETATM    5  C5  UNL     1     -33.246   7.473   5.014  1.00 20.00    -0.056 A 
HETATM    6  C6  UNL     1     -33.245   6.590   3.934  1.00 20.00    -0.056 A 
HETATM    7  C7  UNL     1     -32.494   8.762   4.953  1.00 20.00     0.049 C 
HETATM    8  C8  UNL     1     -32.489   6.905   2.685  1.00 20.00     0.049 C 
ENDROOT
TORSDOF 0
ENDMDL
MODEL 5
REMARK VINA RESULT:      -6.0      0.820      2.712
REMARK  0 active torsions:
REMARK  status: ('A' for Active; 'I' for Inactive)
ROOT
HETATM    1  C1  UNL     1     -33.173   8.501   5.324  1.00 20.00     0.001 A 
HETATM    2  C2  UNL     1     -32.316   8.545   4.224  1.00 20.00     0.001 A 
HETATM    3  C3  UNL     1     -33.976   7.382   5.540  1.00 20.00     0.007 A 
HETATM    4  C4  UNL     1     -32.264   7.467   3.338  1.00 20.00     0.007 A 
HETATM    5  C5  UNL     1     -33.923   6.305   4.654  1.00 20.00    -0.056 A 
HETATM    6  C6  UNL     1     -33.067   6.348   3.554  1.00 20.00    -0.056 A 
HETATM    7  C7  UNL     1     -34.791   5.116   4.906  1.00 20.00     0.049 C 
HETATM    8  C8  UNL     1     -32.994   5.208   2.592  1.00 20.00     0.049 C 
ENDROOT
TORSDOF 0
ENDMDL
MODEL 6
REMARK VINA RESULT:      -6.0      0.839      2.648
REMARK  0 active torsions:
REMARK  status: ('A' for Active; 'I' for Inactive)
ROOT
HETATM    1  C1  UNL     1     -32.292   8.516   4.164  1.00 20.00     0.001 A 
HETATM    2  C2  UNL     1     -33.147   8.482   5.265  1.00 20.00     0.001 A 
HETATM    3  C3  UNL     1     -32.242   7.435   3.285  1.00 20.00     0.007 A 
HETATM    4  C4  UNL     1     -33.955   7.365   5.487  1.00 20.00     0.007 A 
HETATM    5  C5  UNL     1     -33.049   6.319   3.507  1.00 20.00    -0.056 A 
HETATM    6  C6  UNL     1     -33.905   6.284   4.607  1.00 20.00    -0.056 A 
HETATM    7  C7  UNL     1     -32.981   5.173   2.551  1.00 20.00     0.049 C 
HETATM    8  C8  UNL     1     -34.778   5.100   4.865  1.00 20.00     0.049 C 
ENDROOT
TORSDOF 0
ENDMDL
MODEL 7
REMARK VINA RESULT:      -5.7      0.866      2.801
REMARK  0 active torsions:
REMARK  status: ('A' for Active; 'I' for Inactive)
ROOT
HETATM    1  C1  UNL     1     -32.247   7.537   3.006  1.00 20.00     0.001 A 
HETATM    2  C2  UNL     1     -32.309   8.489   4.024  1.00 20.00     0.001 A 
HETATM    3  C3  UNL     1     -32.914   6.320   3.146  1.00 20.00     0.007 A 
HETATM    4  C4  UNL     1     -33.038   8.222   5.184  1.00 20.00     0.007 A 
HETATM    5  C5  UNL     1     -33.643   6.055   4.305  1.00 20.00    -0.056 A 
HETATM    6  C6  UNL     1     -33.705   7.006   5.324  1.00 20.00    -0.056 A 
HETATM    7  C7  UNL     1     -34.350   4.745   4.433  1.00 20.00     0.049 C 
HETATM    8  C8  UNL     1     -34.477   6.743   6.574  1.00 20.00     0.049 C 
ENDROOT
TORSDOF 0
ENDMDL
MODEL 8
REMARK VINA RESULT:      -5.7      0.881      3.507
REMARK  0 active torsions:
REMARK  status: ('A' for Active; 'I' for Inactive)
ROOT
HETATM    1  C1  UNL     1     -32.234   8.439   4.017  1.00 20.00     0.001 A 
HETATM    2  C2  UNL     1     -32.259   7.473   3.010  1.00 20.00     0.001 A 
HETATM    3  C3  UNL     1     -32.941   8.232   5.201  1.00 20.00     0.007 A 
HETATM    4  C4  UNL     1     -32.992   6.299   3.189  1.00 20.00     0.007 A 
HETATM    5  C5  UNL     1     -33.673   7.058   5.379  1.00 20.00    -0.056 A 
HETATM    6  C6  UNL     1     -33.698   6.092   4.374  1.00 20.00    -0.056 A 
HETATM    7  C7  UNL     1     -34.421   6.858   6.656  1.00 20.00     0.049 C 
HETATM    8  C8  UNL     1     -34.476   4.829   4.542  1.00 20.00     0.049 C 
ENDROOT
TORSDOF 0
ENDMDL
MODEL 9
REMARK VINA RESULT:      -3.8     16.272     17.253
REMARK  0 active torsions:
REMARK  status: ('A' for Active; 'I' for Inactive)
ROOT
HETATM    1  C1  UNL     1     -23.705  19.087   8.292  1.00 20.00     0.001 A 
HETATM    2  C2  UNL     1     -22.358  18.932   8.621  1.00 20.00     0.001 A 
HETATM    3  C3  UNL     1     -24.683  18.974   9.280  1.00 20.00     0.007 A 
HETATM    4  C4  UNL     1     -21.989  18.663   9.940  1.00 20.00     0.007 A 
HETATM    5  C5  UNL     1     -24.314  18.705  10.598  1.00 20.00    -0.056 A 
HETATM    6  C6  UNL     1     -22.967  18.549  10.928  1.00 20.00    -0.056 A 
HETATM    7  C7  UNL     1     -25.378  18.589  11.639  1.00 20.00     0.049 C 
HETATM    8  C8  UNL     1     -22.549  18.260  12.332  1.00 20.00     0.049 C 
ENDROOT
TORSDOF 0
ENDMDL
