MODEL 1
REMARK VINA RESULT:      -5.0      0.000      0.000
REMARK  1 active torsions:
REMARK  status: ('A' for Active; 'I' for Inactive)
REMARK    1  A    between atoms: C6_6  and  N9_9 
ROOT
HETATM    1  N8  UNL     1     -32.827   9.508   0.707  1.00 20.00     0.068 N 
HETATM    2  N9  UNL     1     -31.812   7.657   1.832  1.00 20.00    -0.073 NA
HETATM    3  N10 UNL     1     -32.345   8.625   1.246  1.00 20.00    -0.162 NA
ENDROOT
BRANCH   2   4
HETATM    4  C6  UNL     1     -32.547   7.220   2.938  1.00 20.00     0.093 A 
HETATM    5  C3  UNL     1     -32.679   8.045   4.056  1.00 20.00     0.035 A 
HETATM    6  C1  UNL     1     -33.414   7.611   5.159  1.00 20.00     0.009 A 
HETATM    7  C5  UNL     1     -34.015   6.352   5.146  1.00 20.00    -0.062 A 
HETATM    8  C2  UNL     1     -33.883   5.529   4.028  1.00 20.00     0.009 A 
HETATM    9  C7  UNL     1     -34.799   5.887   6.325  1.00 20.00     0.048 C 
HETATM   10  C4  UNL     1     -33.149   5.962   2.924  1.00 20.00     0.035 A 
ENDBRANCH   2   4
TORSDOF 1
ENDMDL
MODEL 2
REMARK VINA RESULT:      -4.0      3.175      4.601
REMARK  1 active torsions:
REMARK  status: ('A' for Active; 'I' for Inactive)
REMARK    1  A    between atoms: C6_6  and  N9_9 
ROOT
HETATM    1  N8  UNL     1     -34.791   5.010   6.407  1.00 20.00     0.068 N 
HETATM    2  N9  UNL     1     -33.660   7.111   6.238  1.00 20.00    -0.073 NA
HETATM    3  N10 UNL     1     -34.250   6.012   6.323  1.00 20.00    -0.162 NA
ENDROOT
BRANCH   2   4
HETATM    4  C6  UNL     1     -33.228   7.395   4.939  1.00 20.00     0.093 A 
HETATM    5  C3  UNL     1     -33.147   6.373   3.992  1.00 20.00     0.035 A 
HETATM    6  C1  UNL     1     -32.718   6.656   2.696  1.00 20.00     0.009 A 
HETATM    7  C5  UNL     1     -32.368   7.961   2.346  1.00 20.00    -0.062 A 
HETATM    8  C2  UNL     1     -32.449   8.982   3.293  1.00 20.00     0.009 A 
HETATM    9  C7  UNL     1     -31.908   8.264   0.961  1.00 20.00     0.048 C 
HETATM   10  C4  UNL     1     -32.878   8.699   4.590  1.00 20.00     0.035 A 
ENDBRANCH   2   4
TORSDOF 1
ENDMDL
MODEL 3
REMARK VINA RESULT:      -4.0      3.158      4.344
REMARK  1 active torsions:
REMARK  status: ('A' for Active; 'I' for Inactive)
REMARK    1  A    between atoms: C6_6  and  N9_9 
ROOT
HETATM    1  N8  UNL     1     -34.803   5.007   6.407  1.00 20.00     0.068 N 
HETATM    2  N9  UNL     1     -33.665   7.102   6.206  1.00 20.00    -0.073 NA
HETATM    3  N10 UNL     1     -34.259   6.006   6.308  1.00 20.00    -0.162 NA
ENDROOT
BRANCH   2   4
HETATM    4  C6  UNL     1     -33.231   7.365   4.903  1.00 20.00     0.093 A 
HETATM    5  C3  UNL     1     -32.870   8.662   4.538  1.00 20.00     0.035 A 
HETATM    6  C1  UNL     1     -32.435   8.925   3.239  1.00 20.00     0.009 A 
HETATM    7  C5  UNL     1     -32.362   7.892   2.304  1.00 20.00    -0.062 A 
HETATM    8  C2  UNL     1     -32.723   6.595   2.671  1.00 20.00     0.009 A 
HETATM    9  C7  UNL     1     -31.899   8.172   0.916  1.00 20.00     0.048 C 
HETATM   10  C4  UNL     1     -33.158   6.331   3.970  1.00 20.00     0.035 A 
ENDBRANCH   2   4
TORSDOF 1
ENDMDL
MODEL 4
REMARK VINA RESULT:      -4.0     11.363     11.810
REMARK  1 active torsions:
REMARK  status: ('A' for Active; 'I' for Inactive)
REMARK    1  A    between atoms: C6_6  and  N9_9 
ROOT
HETATM    1  N8  UNL     1     -33.313  15.892  -3.389  1.00 20.00     0.068 N 
HETATM    2  N9  UNL     1     -34.071  17.795  -2.155  1.00 20.00    -0.073 NA
HETATM    3  N10 UNL     1     -33.672  16.800  -2.797  1.00 20.00    -0.162 NA
ENDROOT
BRANCH   2   4
HETATM    4  C6  UNL     1     -33.264  18.087  -1.051  1.00 20.00     0.093 A 
HETATM    5  C3  UNL     1     -33.832  18.193   0.219  1.00 20.00     0.035 A 
HETATM    6  C1  UNL     1     -33.028  18.482   1.321  1.00 20.00     0.009 A 
HETATM    7  C5  UNL     1     -31.655  18.668   1.154  1.00 20.00    -0.062 A 
HETATM    8  C2  UNL     1     -31.088  18.563  -0.116  1.00 20.00     0.009 A 
HETATM    9  C7  UNL     1     -30.795  18.979   2.330  1.00 20.00     0.048 C 
HETATM   10  C4  UNL     1     -31.892  18.273  -1.219  1.00 20.00     0.035 A 
ENDBRANCH   2   4
TORSDOF 1
ENDMDL
MODEL 5
REMARK VINA RESULT:      -4.0     11.715     12.137
REMARK  1 active torsions:
REMARK  status: ('A' for Active; 'I' for Inactive)
REMARK    1  A    between atoms: C6_6  and  N9_9 
ROOT
HETATM    1  N8  UNL     1     -29.524  18.513   2.958  1.00 20.00     0.068 N 
HETATM    2  N9  UNL     1     -31.729  19.263   2.414  1.00 20.00    -0.073 NA
HETATM    3  N10 UNL     1     -30.576  18.870   2.695  1.00 20.00    -0.162 NA
ENDROOT
BRANCH   2   4
HETATM    4  C6  UNL     1     -32.190  18.764   1.192  1.00 20.00     0.093 A 
HETATM    5  C3  UNL     1     -33.522  18.373   1.056  1.00 20.00     0.035 A 
HETATM    6  C1  UNL     1     -33.983  17.877  -0.163  1.00 20.00     0.009 A 
HETATM    7  C5  UNL     1     -33.111  17.769  -1.247  1.00 20.00    -0.062 A 
HETATM    8  C2  UNL     1     -31.779  18.160  -1.111  1.00 20.00     0.009 A 
HETATM    9  C7  UNL     1     -33.602  17.237  -2.549  1.00 20.00     0.048 C 
HETATM   10  C4  UNL     1     -31.318  18.657   0.108  1.00 20.00     0.035 A 
ENDBRANCH   2   4
TORSDOF 1
ENDMDL
MODEL 6
REMARK VINA RESULT:      -4.0     15.892     16.627
REMARK  1 active torsions:
REMARK  status: ('A' for Active; 'I' for Inactive)
REMARK    1  A    between atoms: C6_6  and  N9_9 
ROOT
HETATM    1  N8  UNL     1     -21.383  17.512   7.539  1.00 20.00     0.068 N 
HETATM    2  N9  UNL     1     -21.300  18.608   9.663  1.00 20.00    -0.073 NA
HETATM    3  N10 UNL     1     -21.347  18.035   8.553  1.00 20.00    -0.162 NA
ENDROOT
BRANCH   2   4
HETATM    4  C6  UNL     1     -22.541  18.647  10.306  1.00 20.00     0.093 A 
HETATM    5  C3  UNL     1     -23.705  18.848   9.564  1.00 20.00     0.035 A 
HETATM    6  C1  UNL     1     -24.943  18.886  10.204  1.00 20.00     0.009 A 
HETATM    7  C5  UNL     1     -25.018  18.724  11.588  1.00 20.00    -0.062 A 
HETATM    8  C2  UNL     1     -23.854  18.523  12.330  1.00 20.00     0.009 A 
HETATM    9  C7  UNL     1     -26.341  18.766  12.273  1.00 20.00     0.048 C 
HETATM   10  C4  UNL     1     -22.615  18.485  11.690  1.00 20.00     0.035 A 
ENDBRANCH   2   4
TORSDOF 1
ENDMDL
MODEL 7
REMARK VINA RESULT:      -3.9     11.443     12.469
REMARK  1 active torsions:
REMARK  status: ('A' for Active; 'I' for Inactive)
REMARK    1  A    between atoms: C6_6  and  N9_9 
ROOT
HETATM    1  N8  UNL     1     -36.382  15.405  -7.918  1.00 20.00     0.068 N 
HETATM    2  N9  UNL     1     -34.266  14.887  -6.932  1.00 20.00    -0.073 NA
HETATM    3  N10 UNL     1     -35.373  15.161  -7.445  1.00 20.00    -0.162 NA
ENDROOT
BRANCH   2   4
HETATM    4  C6  UNL     1     -34.077  15.502  -5.690  1.00 20.00     0.093 A 
HETATM    5  C3  UNL     1     -34.445  16.835  -5.510  1.00 20.00     0.035 A 
HETATM    6  C1  UNL     1     -34.258  17.449  -4.271  1.00 20.00     0.009 A 
HETATM    7  C5  UNL     1     -33.702  16.730  -3.213  1.00 20.00    -0.062 A 
HETATM    8  C2  UNL     1     -33.334  15.396  -3.394  1.00 20.00     0.009 A 
HETATM    9  C7  UNL     1     -33.501  17.385  -1.889  1.00 20.00     0.048 C 
HETATM   10  C4  UNL     1     -33.521  14.782  -4.632  1.00 20.00     0.035 A 
ENDBRANCH   2   4
TORSDOF 1
ENDMDL
MODEL 8
REMARK VINA RESULT:      -3.8     11.479     12.279
REMARK  1 active torsions:
REMARK  status: ('A' for Active; 'I' for Inactive)
REMARK    1  A    between atoms: C6_6  and  N9_9 
ROOT
HETATM    1  N8  UNL     1     -35.841  14.580  -5.920  1.00 20.00     0.068 N 
HETATM    2  N9  UNL     1     -34.653  16.643  -5.689  1.00 20.00    -0.073 NA
HETATM    3  N10 UNL     1     -35.275  15.565  -5.806  1.00 20.00    -0.162 NA
ENDROOT
BRANCH   2   4
HETATM    4  C6  UNL     1     -34.423  16.994  -4.355  1.00 20.00     0.093 A 
HETATM    5  C3  UNL     1     -35.071  18.100  -3.804  1.00 20.00     0.035 A 
HETATM    6  C1  UNL     1     -34.843  18.450  -2.473  1.00 20.00     0.009 A 
HETATM    7  C5  UNL     1     -33.966  17.695  -1.693  1.00 20.00    -0.062 A 
HETATM    8  C2  UNL     1     -33.319  16.589  -2.245  1.00 20.00     0.009 A 
HETATM    9  C7  UNL     1     -33.721  18.069  -0.271  1.00 20.00     0.048 C 
HETATM   10  C4  UNL     1     -33.547  16.239  -3.576  1.00 20.00     0.035 A 
ENDBRANCH   2   4
TORSDOF 1
ENDMDL
MODEL 9
REMARK VINA RESULT:      -3.8     16.068     16.836
REMARK  1 active torsions:
REMARK  status: ('A' for Active; 'I' for Inactive)
REMARK    1  A    between atoms: C6_6  and  N9_9 
ROOT
HETATM    1  N8  UNL     1     -26.031  17.278  12.332  1.00 20.00     0.068 N 
HETATM    2  N9  UNL     1     -24.207  18.810  12.116  1.00 20.00    -0.073 NA
HETATM    3  N10 UNL     1     -25.159  18.008  12.226  1.00 20.00    -0.162 NA
ENDROOT
BRANCH   2   4
HETATM    4  C6  UNL     1     -23.514  18.668  10.910  1.00 20.00     0.093 A 
HETATM    5  C3  UNL     1     -24.159  18.931   9.701  1.00 20.00     0.035 A 
HETATM    6  C1  UNL     1     -23.468  18.791   8.497  1.00 20.00     0.009 A 
HETATM    7  C5  UNL     1     -22.133  18.386   8.502  1.00 20.00    -0.062 A 
HETATM    8  C2  UNL     1     -21.489  18.123   9.711  1.00 20.00     0.009 A 
HETATM    9  C7  UNL     1     -21.394  18.234   7.216  1.00 20.00     0.048 C 
HETATM   10  C4  UNL     1     -22.179  18.264  10.915  1.00 20.00     0.035 A 
ENDBRANCH   2   4
TORSDOF 1
ENDMDL
