MODEL 1
REMARK VINA RESULT:      -5.1      0.000      0.000
REMARK  0 active torsions:
REMARK  status: ('A' for Active; 'I' for Inactive)
ROOT
HETATM    1  C1  UNL     1     -32.877   7.988   4.253  1.00 20.00     0.007 A 
HETATM    2  C2  UNL     1     -33.568   7.441   5.334  1.00 20.00     0.007 A 
HETATM    3  C3  UNL     1     -33.204   5.942   3.010  1.00 20.00     0.007 A 
HETATM    4  C4  UNL     1     -33.894   5.395   4.090  1.00 20.00     0.007 A 
HETATM    5  C5  UNL     1     -32.695   7.238   3.091  1.00 20.00    -0.062 A 
HETATM    6  C6  UNL     1     -34.077   6.144   5.253  1.00 20.00    -0.062 A 
HETATM    7  C7  UNL     1     -31.957   7.822   1.934  1.00 20.00     0.048 C 
HETATM    8  C8  UNL     1     -34.814   5.560   6.410  1.00 20.00     0.048 C 
ENDROOT
TORSDOF 0
ENDMDL
MODEL 2
REMARK VINA RESULT:      -5.1      0.023      1.709
REMARK  0 active torsions:
REMARK  status: ('A' for Active; 'I' for Inactive)
ROOT
HETATM    1  C1  UNL     1     -33.188   5.957   3.000  1.00 20.00     0.007 A 
HETATM    2  C2  UNL     1     -33.874   5.406   4.082  1.00 20.00     0.007 A 
HETATM    3  C3  UNL     1     -32.868   8.002   4.246  1.00 20.00     0.007 A 
HETATM    4  C4  UNL     1     -33.554   7.451   5.328  1.00 20.00     0.007 A 
HETATM    5  C5  UNL     1     -32.685   7.256   3.083  1.00 20.00    -0.062 A 
HETATM    6  C6  UNL     1     -34.057   6.153   5.246  1.00 20.00    -0.062 A 
HETATM    7  C7  UNL     1     -31.951   7.846   1.926  1.00 20.00     0.048 C 
HETATM    8  C8  UNL     1     -34.792   5.562   6.401  1.00 20.00     0.048 C 
ENDROOT
TORSDOF 0
ENDMDL
MODEL 3
REMARK VINA RESULT:      -5.1      0.030      3.764
REMARK  0 active torsions:
REMARK  status: ('A' for Active; 'I' for Inactive)
ROOT
HETATM    1  C1  UNL     1     -33.891   5.404   4.107  1.00 20.00     0.007 A 
HETATM    2  C2  UNL     1     -33.200   5.960   3.031  1.00 20.00     0.007 A 
HETATM    3  C3  UNL     1     -33.583   7.447   5.359  1.00 20.00     0.007 A 
HETATM    4  C4  UNL     1     -32.892   8.003   4.283  1.00 20.00     0.007 A 
HETATM    5  C5  UNL     1     -34.082   6.148   5.271  1.00 20.00    -0.062 A 
HETATM    6  C6  UNL     1     -32.700   7.260   3.119  1.00 20.00    -0.062 A 
HETATM    7  C7  UNL     1     -34.821   5.555   6.423  1.00 20.00     0.048 C 
HETATM    8  C8  UNL     1     -31.960   7.852   1.968  1.00 20.00     0.048 C 
ENDROOT
TORSDOF 0
ENDMDL
MODEL 4
REMARK VINA RESULT:      -5.1      0.045      3.354
REMARK  0 active torsions:
REMARK  status: ('A' for Active; 'I' for Inactive)
ROOT
HETATM    1  C1  UNL     1     -33.553   7.446   5.380  1.00 20.00     0.007 A 
HETATM    2  C2  UNL     1     -32.860   7.987   4.298  1.00 20.00     0.007 A 
HETATM    3  C3  UNL     1     -33.920   5.412   4.128  1.00 20.00     0.007 A 
HETATM    4  C4  UNL     1     -33.228   5.954   3.046  1.00 20.00     0.007 A 
HETATM    5  C5  UNL     1     -34.083   6.158   5.295  1.00 20.00    -0.062 A 
HETATM    6  C6  UNL     1     -32.698   7.241   3.130  1.00 20.00    -0.062 A 
HETATM    7  C7  UNL     1     -34.824   5.578   6.452  1.00 20.00     0.048 C 
HETATM    8  C8  UNL     1     -31.959   7.822   1.972  1.00 20.00     0.048 C 
ENDROOT
TORSDOF 0
ENDMDL
MODEL 5
REMARK VINA RESULT:      -4.5      0.887      2.895
REMARK  0 active torsions:
REMARK  status: ('A' for Active; 'I' for Inactive)
ROOT
HETATM    1  C1  UNL     1     -32.597   7.884   3.962  1.00 20.00     0.007 A 
HETATM    2  C2  UNL     1     -32.395   6.878   3.018  1.00 20.00     0.007 A 
HETATM    3  C3  UNL     1     -34.278   6.528   5.046  1.00 20.00     0.007 A 
HETATM    4  C4  UNL     1     -34.076   5.522   4.102  1.00 20.00     0.007 A 
HETATM    5  C5  UNL     1     -33.539   7.709   4.976  1.00 20.00    -0.062 A 
HETATM    6  C6  UNL     1     -33.134   5.697   3.087  1.00 20.00    -0.062 A 
HETATM    7  C7  UNL     1     -33.756   8.784   5.987  1.00 20.00     0.048 C 
HETATM    8  C8  UNL     1     -32.918   4.623   2.076  1.00 20.00     0.048 C 
ENDROOT
TORSDOF 0
ENDMDL
MODEL 6
REMARK VINA RESULT:      -4.5      0.882      3.068
REMARK  0 active torsions:
REMARK  status: ('A' for Active; 'I' for Inactive)
ROOT
HETATM    1  C1  UNL     1     -34.287   6.541   5.064  1.00 20.00     0.007 A 
HETATM    2  C2  UNL     1     -34.077   5.542   4.114  1.00 20.00     0.007 A 
HETATM    3  C3  UNL     1     -32.600   7.906   4.000  1.00 20.00     0.007 A 
HETATM    4  C4  UNL     1     -32.390   6.907   3.051  1.00 20.00     0.007 A 
HETATM    5  C5  UNL     1     -33.548   7.723   5.007  1.00 20.00    -0.062 A 
HETATM    6  C6  UNL     1     -33.128   5.725   3.107  1.00 20.00    -0.062 A 
HETATM    7  C7  UNL     1     -33.772   8.793   6.022  1.00 20.00     0.048 C 
HETATM    8  C8  UNL     1     -32.903   4.654   2.094  1.00 20.00     0.048 C 
ENDROOT
TORSDOF 0
ENDMDL
MODEL 7
REMARK VINA RESULT:      -4.5      0.883      2.409
REMARK  0 active torsions:
REMARK  status: ('A' for Active; 'I' for Inactive)
ROOT
HETATM    1  C1  UNL     1     -34.081   5.535   4.113  1.00 20.00     0.007 A 
HETATM    2  C2  UNL     1     -34.289   6.536   5.061  1.00 20.00     0.007 A 
HETATM    3  C3  UNL     1     -32.391   6.896   3.048  1.00 20.00     0.007 A 
HETATM    4  C4  UNL     1     -32.600   7.896   3.996  1.00 20.00     0.007 A 
HETATM    5  C5  UNL     1     -33.132   5.715   3.106  1.00 20.00    -0.062 A 
HETATM    6  C6  UNL     1     -33.549   7.717   5.002  1.00 20.00    -0.062 A 
HETATM    7  C7  UNL     1     -32.907   4.645   2.092  1.00 20.00     0.048 C 
HETATM    8  C8  UNL     1     -33.774   8.788   6.016  1.00 20.00     0.048 C 
ENDROOT
TORSDOF 0
ENDMDL
MODEL 8
REMARK VINA RESULT:      -4.5      0.893      2.212
REMARK  0 active torsions:
REMARK  status: ('A' for Active; 'I' for Inactive)
ROOT
HETATM    1  C1  UNL     1     -32.370   6.864   2.957  1.00 20.00     0.007 A 
HETATM    2  C2  UNL     1     -32.553   7.868   3.908  1.00 20.00     0.007 A 
HETATM    3  C3  UNL     1     -34.034   5.509   4.069  1.00 20.00     0.007 A 
HETATM    4  C4  UNL     1     -34.215   6.512   5.020  1.00 20.00     0.007 A 
HETATM    5  C5  UNL     1     -33.111   5.685   3.038  1.00 20.00    -0.062 A 
HETATM    6  C6  UNL     1     -33.475   7.692   4.940  1.00 20.00    -0.062 A 
HETATM    7  C7  UNL     1     -32.917   4.611   2.021  1.00 20.00     0.048 C 
HETATM    8  C8  UNL     1     -33.668   8.765   5.957  1.00 20.00     0.048 C 
ENDROOT
TORSDOF 0
ENDMDL
MODEL 9
REMARK VINA RESULT:      -3.8     16.129     16.823
REMARK  0 active torsions:
REMARK  status: ('A' for Active; 'I' for Inactive)
ROOT
HETATM    1  C1  UNL     1     -23.790  18.851   9.574  1.00 20.00     0.007 A 
HETATM    2  C2  UNL     1     -25.012  18.961  10.237  1.00 20.00     0.007 A 
HETATM    3  C3  UNL     1     -22.702  18.337  11.670  1.00 20.00     0.007 A 
HETATM    4  C4  UNL     1     -23.924  18.449  12.332  1.00 20.00     0.007 A 
HETATM    5  C5  UNL     1     -22.635  18.539  10.292  1.00 20.00    -0.062 A 
HETATM    6  C6  UNL     1     -25.079  18.761  11.616  1.00 20.00    -0.062 A 
HETATM    7  C7  UNL     1     -21.327  18.419   9.584  1.00 20.00     0.048 C 
HETATM    8  C8  UNL     1     -26.387  18.882  12.323  1.00 20.00     0.048 C 
ENDROOT
TORSDOF 0
ENDMDL
