MODEL 1
REMARK VINA RESULT:      -5.8      0.000      0.000
REMARK  0 active torsions:
REMARK  status: ('A' for Active; 'I' for Inactive)
ROOT
HETATM    1  C1  UNL     1     -32.021   7.917   2.172  1.00 20.00     0.018 C 
HETATM    2  C2  UNL     1     -32.622   7.426   3.087  1.00 20.00    -0.078 C 
HETATM    3  C3  UNL     1     -34.735   5.697   6.304  1.00 20.00     0.000 A 
HETATM    4  C4  UNL     1     -34.653   5.028   5.083  1.00 20.00     0.001 A 
HETATM    5  C5  UNL     1     -34.118   6.938   6.461  1.00 20.00     0.001 A 
HETATM    6  C6  UNL     1     -33.954   5.600   4.019  1.00 20.00     0.020 A 
HETATM    7  C7  UNL     1     -33.420   7.510   5.398  1.00 20.00     0.020 A 
HETATM    8  C8  UNL     1     -33.338   6.841   4.177  1.00 20.00     0.016 A 
ENDROOT
TORSDOF 0
ENDMDL
MODEL 2
REMARK VINA RESULT:      -5.8      0.005      1.708
REMARK  0 active torsions:
REMARK  status: ('A' for Active; 'I' for Inactive)
ROOT
HETATM    1  C1  UNL     1     -32.018   7.912   2.175  1.00 20.00     0.018 C 
HETATM    2  C2  UNL     1     -32.621   7.421   3.089  1.00 20.00    -0.078 C 
HETATM    3  C3  UNL     1     -34.739   5.696   6.305  1.00 20.00     0.000 A 
HETATM    4  C4  UNL     1     -34.123   6.938   6.461  1.00 20.00     0.001 A 
HETATM    5  C5  UNL     1     -34.656   5.025   5.085  1.00 20.00     0.001 A 
HETATM    6  C6  UNL     1     -33.422   7.508   5.398  1.00 20.00     0.020 A 
HETATM    7  C7  UNL     1     -33.955   5.595   4.021  1.00 20.00     0.020 A 
HETATM    8  C8  UNL     1     -33.339   6.836   4.178  1.00 20.00     0.016 A 
ENDROOT
TORSDOF 0
ENDMDL
MODEL 3
REMARK VINA RESULT:      -5.6      1.189      2.166
REMARK  0 active torsions:
REMARK  status: ('A' for Active; 'I' for Inactive)
ROOT
HETATM    1  C1  UNL     1     -32.028   9.510   4.804  1.00 20.00     0.018 C 
HETATM    2  C2  UNL     1     -32.650   8.490   4.922  1.00 20.00    -0.078 C 
HETATM    3  C3  UNL     1     -34.835   4.906   5.340  1.00 20.00     0.000 A 
HETATM    4  C4  UNL     1     -34.669   5.753   6.436  1.00 20.00     0.001 A 
HETATM    5  C5  UNL     1     -34.279   5.243   4.106  1.00 20.00     0.001 A 
HETATM    6  C6  UNL     1     -33.946   6.938   6.297  1.00 20.00     0.020 A 
HETATM    7  C7  UNL     1     -33.556   6.429   3.968  1.00 20.00     0.020 A 
HETATM    8  C8  UNL     1     -33.390   7.276   5.063  1.00 20.00     0.016 A 
ENDROOT
TORSDOF 0
ENDMDL
MODEL 4
REMARK VINA RESULT:      -5.3      1.166      2.195
REMARK  0 active torsions:
REMARK  status: ('A' for Active; 'I' for Inactive)
ROOT
HETATM    1  C1  UNL     1     -32.917   4.874   1.767  1.00 20.00     0.018 C 
HETATM    2  C2  UNL     1     -33.251   5.302   2.837  1.00 20.00    -0.078 C 
HETATM    3  C3  UNL     1     -34.424   6.811   6.598  1.00 20.00     0.000 A 
HETATM    4  C4  UNL     1     -33.705   7.618   5.716  1.00 20.00     0.001 A 
HETATM    5  C5  UNL     1     -34.755   5.505   6.237  1.00 20.00     0.001 A 
HETATM    6  C6  UNL     1     -33.317   7.119   4.473  1.00 20.00     0.020 A 
HETATM    7  C7  UNL     1     -34.368   5.006   4.993  1.00 20.00     0.020 A 
HETATM    8  C8  UNL     1     -33.648   5.813   4.111  1.00 20.00     0.016 A 
ENDROOT
TORSDOF 0
ENDMDL
MODEL 5
REMARK VINA RESULT:      -5.3      1.157      1.693
REMARK  0 active torsions:
REMARK  status: ('A' for Active; 'I' for Inactive)
ROOT
HETATM    1  C1  UNL     1     -32.914   4.896   1.777  1.00 20.00     0.018 C 
HETATM    2  C2  UNL     1     -33.245   5.334   2.844  1.00 20.00    -0.078 C 
HETATM    3  C3  UNL     1     -34.409   6.874   6.596  1.00 20.00     0.000 A 
HETATM    4  C4  UNL     1     -34.736   5.563   6.248  1.00 20.00     0.001 A 
HETATM    5  C5  UNL     1     -33.697   7.676   5.704  1.00 20.00     0.001 A 
HETATM    6  C6  UNL     1     -34.351   5.054   5.007  1.00 20.00     0.020 A 
HETATM    7  C7  UNL     1     -33.312   7.167   4.463  1.00 20.00     0.020 A 
HETATM    8  C8  UNL     1     -33.639   5.856   4.115  1.00 20.00     0.016 A 
ENDROOT
TORSDOF 0
ENDMDL
MODEL 6
REMARK VINA RESULT:      -5.0      0.893      3.891
REMARK  0 active torsions:
REMARK  status: ('A' for Active; 'I' for Inactive)
ROOT
HETATM    1  C1  UNL     1     -35.017   5.408   6.655  1.00 20.00     0.018 C 
HETATM    2  C2  UNL     1     -34.370   5.991   5.829  1.00 20.00    -0.078 C 
HETATM    3  C3  UNL     1     -32.098   8.045   2.928  1.00 20.00     0.000 A 
HETATM    4  C4  UNL     1     -32.413   8.667   4.136  1.00 20.00     0.001 A 
HETATM    5  C5  UNL     1     -32.534   6.743   2.679  1.00 20.00     0.001 A 
HETATM    6  C6  UNL     1     -33.165   7.988   5.095  1.00 20.00     0.020 A 
HETATM    7  C7  UNL     1     -33.285   6.064   3.638  1.00 20.00     0.020 A 
HETATM    8  C8  UNL     1     -33.601   6.687   4.846  1.00 20.00     0.016 A 
ENDROOT
TORSDOF 0
ENDMDL
MODEL 7
REMARK VINA RESULT:      -5.0      0.893      3.507
REMARK  0 active torsions:
REMARK  status: ('A' for Active; 'I' for Inactive)
ROOT
HETATM    1  C1  UNL     1     -35.002   5.434   6.629  1.00 20.00     0.018 C 
HETATM    2  C2  UNL     1     -34.358   6.017   5.800  1.00 20.00    -0.078 C 
HETATM    3  C3  UNL     1     -32.093   8.061   2.886  1.00 20.00     0.000 A 
HETATM    4  C4  UNL     1     -32.509   6.750   2.653  1.00 20.00     0.001 A 
HETATM    5  C5  UNL     1     -32.426   8.696   4.082  1.00 20.00     0.001 A 
HETATM    6  C6  UNL     1     -33.258   6.074   3.617  1.00 20.00     0.020 A 
HETATM    7  C7  UNL     1     -33.175   8.020   5.046  1.00 20.00     0.020 A 
HETATM    8  C8  UNL     1     -33.591   6.709   4.813  1.00 20.00     0.016 A 
ENDROOT
TORSDOF 0
ENDMDL
MODEL 8
REMARK VINA RESULT:      -4.2     12.479     12.843
REMARK  0 active torsions:
REMARK  status: ('A' for Active; 'I' for Inactive)
ROOT
HETATM    1  C1  UNL     1     -33.445  16.361  -3.270  1.00 20.00     0.018 C 
HETATM    2  C2  UNL     1     -33.203  17.004  -2.285  1.00 20.00    -0.078 C 
HETATM    3  C3  UNL     1     -32.347  19.263   1.174  1.00 20.00     0.000 A 
HETATM    4  C4  UNL     1     -31.327  18.951   0.275  1.00 20.00     0.001 A 
HETATM    5  C5  UNL     1     -33.650  18.828   0.930  1.00 20.00     0.001 A 
HETATM    6  C6  UNL     1     -31.610  18.204  -0.869  1.00 20.00     0.020 A 
HETATM    7  C7  UNL     1     -33.933  18.081  -0.214  1.00 20.00     0.020 A 
HETATM    8  C8  UNL     1     -32.913  17.769  -1.113  1.00 20.00     0.016 A 
ENDROOT
TORSDOF 0
ENDMDL
MODEL 9
REMARK VINA RESULT:      -3.9     12.545     12.918
REMARK  0 active torsions:
REMARK  status: ('A' for Active; 'I' for Inactive)
ROOT
HETATM    1  C1  UNL     1     -29.511  18.802   2.922  1.00 20.00     0.018 C 
HETATM    2  C2  UNL     1     -30.381  18.689   2.103  1.00 20.00    -0.078 C 
HETATM    3  C3  UNL     1     -33.436  18.291  -0.779  1.00 20.00     0.000 A 
HETATM    4  C4  UNL     1     -32.098  18.245  -1.170  1.00 20.00     0.001 A 
HETATM    5  C5  UNL     1     -33.765  18.468   0.565  1.00 20.00     0.001 A 
HETATM    6  C6  UNL     1     -31.088  18.377  -0.217  1.00 20.00     0.020 A 
HETATM    7  C7  UNL     1     -32.755  18.600   1.518  1.00 20.00     0.020 A 
HETATM    8  C8  UNL     1     -31.416  18.554   1.127  1.00 20.00     0.016 A 
ENDROOT
TORSDOF 0
ENDMDL
