MODEL 1
REMARK VINA RESULT:      -5.5      0.000      0.000
REMARK  1 active torsions:
REMARK  status: ('A' for Active; 'I' for Inactive)
REMARK    1  A    between atoms: C6_6  and  N8_8 
ROOT
HETATM    1  N7  UNL     1     -32.123   7.793   1.671  1.00 20.00     0.068 N 
HETATM    2  N8  UNL     1     -32.532   8.234   3.986  1.00 20.00    -0.073 NA
HETATM    3  N9  UNL     1     -32.320   8.000   2.776  1.00 20.00    -0.162 NA
ENDROOT
BRANCH   2   4
HETATM    4  C6  UNL     1     -33.300   7.243   4.605  1.00 20.00     0.093 A 
HETATM    5  C4  UNL     1     -33.679   6.106   3.891  1.00 20.00     0.034 A 
HETATM    6  C2  UNL     1     -34.444   5.117   4.508  1.00 20.00     0.002 A 
HETATM    7  C1  UNL     1     -34.832   5.265   5.840  1.00 20.00     0.000 A 
HETATM    8  C3  UNL     1     -34.454   6.402   6.554  1.00 20.00     0.002 A 
HETATM    9  C5  UNL     1     -33.687   7.391   5.937  1.00 20.00     0.034 A 
ENDBRANCH   2   4
TORSDOF 1
ENDMDL
MODEL 2
REMARK VINA RESULT:      -5.4      0.004      1.611
REMARK  1 active torsions:
REMARK  status: ('A' for Active; 'I' for Inactive)
REMARK    1  A    between atoms: C6_6  and  N8_8 
ROOT
HETATM    1  N7  UNL     1     -32.122   7.791   1.668  1.00 20.00     0.068 N 
HETATM    2  N8  UNL     1     -32.528   8.234   3.984  1.00 20.00    -0.073 NA
HETATM    3  N9  UNL     1     -32.317   7.999   2.774  1.00 20.00    -0.162 NA
ENDROOT
BRANCH   2   4
HETATM    4  C6  UNL     1     -33.297   7.244   4.603  1.00 20.00     0.093 A 
HETATM    5  C4  UNL     1     -33.684   7.391   5.934  1.00 20.00     0.034 A 
HETATM    6  C2  UNL     1     -34.451   6.403   6.551  1.00 20.00     0.002 A 
HETATM    7  C1  UNL     1     -34.831   5.266   5.836  1.00 20.00     0.000 A 
HETATM    8  C3  UNL     1     -34.443   5.119   4.504  1.00 20.00     0.002 A 
HETATM    9  C5  UNL     1     -33.676   6.107   3.888  1.00 20.00     0.034 A 
ENDBRANCH   2   4
TORSDOF 1
ENDMDL
MODEL 3
REMARK VINA RESULT:      -5.2      0.829      2.146
REMARK  1 active torsions:
REMARK  status: ('A' for Active; 'I' for Inactive)
REMARK    1  A    between atoms: C6_6  and  N8_8 
ROOT
HETATM    1  N7  UNL     1     -31.892   9.703   4.932  1.00 20.00     0.068 N 
HETATM    2  N8  UNL     1     -32.717   7.847   3.668  1.00 20.00    -0.073 NA
HETATM    3  N9  UNL     1     -32.287   8.816   4.332  1.00 20.00    -0.162 NA
ENDROOT
BRANCH   2   4
HETATM    4  C6  UNL     1     -33.428   6.929   4.446  1.00 20.00     0.093 A 
HETATM    5  C4  UNL     1     -33.764   7.241   5.763  1.00 20.00     0.034 A 
HETATM    6  C2  UNL     1     -34.474   6.325   6.538  1.00 20.00     0.002 A 
HETATM    7  C1  UNL     1     -34.849   5.095   5.996  1.00 20.00     0.000 A 
HETATM    8  C3  UNL     1     -34.513   4.782   4.679  1.00 20.00     0.002 A 
HETATM    9  C5  UNL     1     -33.803   5.699   3.903  1.00 20.00     0.034 A 
ENDBRANCH   2   4
TORSDOF 1
ENDMDL
MODEL 4
REMARK VINA RESULT:      -5.0      0.814      1.451
REMARK  1 active torsions:
REMARK  status: ('A' for Active; 'I' for Inactive)
REMARK    1  A    between atoms: C6_6  and  N8_8 
ROOT
HETATM    1  N7  UNL     1     -32.104   7.975   1.773  1.00 20.00     0.068 N 
HETATM    2  N8  UNL     1     -32.829   5.905   2.728  1.00 20.00    -0.073 NA
HETATM    3  N9  UNL     1     -32.451   6.989   2.232  1.00 20.00    -0.162 NA
ENDROOT
BRANCH   2   4
HETATM    4  C6  UNL     1     -33.425   6.061   3.983  1.00 20.00     0.093 A 
HETATM    5  C4  UNL     1     -34.242   5.055   4.498  1.00 20.00     0.034 A 
HETATM    6  C2  UNL     1     -34.835   5.211   5.750  1.00 20.00     0.002 A 
HETATM    7  C1  UNL     1     -34.613   6.375   6.488  1.00 20.00     0.000 A 
HETATM    8  C3  UNL     1     -33.797   7.382   5.972  1.00 20.00     0.002 A 
HETATM    9  C5  UNL     1     -33.203   7.225   4.720  1.00 20.00     0.034 A 
ENDBRANCH   2   4
TORSDOF 1
ENDMDL
MODEL 5
REMARK VINA RESULT:      -4.4      2.746      4.122
REMARK  1 active torsions:
REMARK  status: ('A' for Active; 'I' for Inactive)
REMARK    1  A    between atoms: C6_6  and  N8_8 
ROOT
HETATM    1  N7  UNL     1     -34.801   5.067   6.814  1.00 20.00     0.068 N 
HETATM    2  N8  UNL     1     -34.432   5.095   4.451  1.00 20.00    -0.073 NA
HETATM    3  N9  UNL     1     -34.623   5.083   5.687  1.00 20.00    -0.162 NA
ENDROOT
BRANCH   2   4
HETATM    4  C6  UNL     1     -33.664   6.186   4.031  1.00 20.00     0.093 A 
HETATM    5  C4  UNL     1     -33.678   7.373   4.763  1.00 20.00     0.034 A 
HETATM    6  C2  UNL     1     -32.911   8.460   4.344  1.00 20.00     0.002 A 
HETATM    7  C1  UNL     1     -32.131   8.360   3.191  1.00 20.00     0.000 A 
HETATM    8  C3  UNL     1     -32.118   7.174   2.458  1.00 20.00     0.002 A 
HETATM    9  C5  UNL     1     -32.884   6.086   2.878  1.00 20.00     0.034 A 
ENDBRANCH   2   4
TORSDOF 1
ENDMDL
MODEL 6
REMARK VINA RESULT:      -4.4      2.746      3.813
REMARK  1 active torsions:
REMARK  status: ('A' for Active; 'I' for Inactive)
REMARK    1  A    between atoms: C6_6  and  N8_8 
ROOT
HETATM    1  N7  UNL     1     -34.800   5.066   6.812  1.00 20.00     0.068 N 
HETATM    2  N8  UNL     1     -34.430   5.092   4.449  1.00 20.00    -0.073 NA
HETATM    3  N9  UNL     1     -34.621   5.081   5.684  1.00 20.00    -0.162 NA
ENDROOT
BRANCH   2   4
HETATM    4  C6  UNL     1     -33.663   6.183   4.028  1.00 20.00     0.093 A 
HETATM    5  C4  UNL     1     -32.881   6.084   2.877  1.00 20.00     0.034 A 
HETATM    6  C2  UNL     1     -32.117   7.173   2.457  1.00 20.00     0.002 A 
HETATM    7  C1  UNL     1     -32.134   8.361   3.189  1.00 20.00     0.000 A 
HETATM    8  C3  UNL     1     -32.915   8.459   4.340  1.00 20.00     0.002 A 
HETATM    9  C5  UNL     1     -33.680   7.371   4.760  1.00 20.00     0.034 A 
ENDBRANCH   2   4
TORSDOF 1
ENDMDL
MODEL 7
REMARK VINA RESULT:      -4.2      2.686      3.428
REMARK  1 active torsions:
REMARK  status: ('A' for Active; 'I' for Inactive)
REMARK    1  A    between atoms: C6_6  and  N8_8 
ROOT
HETATM    1  N7  UNL     1     -33.706   3.483   4.442  1.00 20.00     0.068 N 
HETATM    2  N8  UNL     1     -34.835   5.573   4.723  1.00 20.00    -0.073 NA
HETATM    3  N9  UNL     1     -34.242   4.482   4.576  1.00 20.00    -0.162 NA
ENDROOT
BRANCH   2   4
HETATM    4  C6  UNL     1     -33.971   6.672   4.670  1.00 20.00     0.093 A 
HETATM    5  C4  UNL     1     -33.108   6.830   3.586  1.00 20.00     0.034 A 
HETATM    6  C2  UNL     1     -32.247   7.926   3.533  1.00 20.00     0.002 A 
HETATM    7  C1  UNL     1     -32.249   8.865   4.566  1.00 20.00     0.000 A 
HETATM    8  C3  UNL     1     -33.112   8.707   5.650  1.00 20.00     0.002 A 
HETATM    9  C5  UNL     1     -33.973   7.611   5.702  1.00 20.00     0.034 A 
ENDBRANCH   2   4
TORSDOF 1
ENDMDL
MODEL 8
REMARK VINA RESULT:      -4.0     12.329     12.750
REMARK  1 active torsions:
REMARK  status: ('A' for Active; 'I' for Inactive)
REMARK    1  A    between atoms: C6_6  and  N8_8 
ROOT
HETATM    1  N7  UNL     1     -29.811  18.468   3.115  1.00 20.00     0.068 N 
HETATM    2  N8  UNL     1     -30.289  19.263   0.910  1.00 20.00    -0.073 NA
HETATM    3  N9  UNL     1     -30.042  18.846   2.063  1.00 20.00    -0.162 NA
ENDROOT
BRANCH   2   4
HETATM    4  C6  UNL     1     -31.512  18.800   0.415  1.00 20.00     0.093 A 
HETATM    5  C4  UNL     1     -32.665  18.907   1.192  1.00 20.00     0.034 A 
HETATM    6  C2  UNL     1     -33.885  18.446   0.697  1.00 20.00     0.002 A 
HETATM    7  C1  UNL     1     -33.951  17.874  -0.574  1.00 20.00     0.000 A 
HETATM    8  C3  UNL     1     -32.798  17.765  -1.351  1.00 20.00     0.002 A 
HETATM    9  C5  UNL     1     -31.578  18.228  -0.856  1.00 20.00     0.034 A 
ENDBRANCH   2   4
TORSDOF 1
ENDMDL
MODEL 9
REMARK VINA RESULT:      -4.0     10.099     10.633
REMARK  1 active torsions:
REMARK  status: ('A' for Active; 'I' for Inactive)
REMARK    1  A    between atoms: C6_6  and  N8_8 
ROOT
HETATM    1  N7  UNL     1     -42.298   3.570  -3.192  1.00 20.00     0.068 N 
HETATM    2  N8  UNL     1     -43.339   4.639  -1.322  1.00 20.00    -0.073 NA
HETATM    3  N9  UNL     1     -42.792   4.082  -2.299  1.00 20.00    -0.162 NA
ENDROOT
BRANCH   2   4
HETATM    4  C6  UNL     1     -42.562   5.664  -0.776  1.00 20.00     0.093 A 
HETATM    5  C4  UNL     1     -41.192   5.479  -0.589  1.00 20.00     0.034 A 
HETATM    6  C2  UNL     1     -40.417   6.502  -0.045  1.00 20.00     0.002 A 
HETATM    7  C1  UNL     1     -41.012   7.713   0.313  1.00 20.00     0.000 A 
HETATM    8  C3  UNL     1     -42.382   7.899   0.127  1.00 20.00     0.002 A 
HETATM    9  C5  UNL     1     -43.157   6.875  -0.418  1.00 20.00     0.034 A 
ENDBRANCH   2   4
TORSDOF 1
ENDMDL
