MODEL 1
REMARK VINA RESULT:      -6.1      0.000      0.000
REMARK  2 active torsions:
REMARK  status: ('A' for Active; 'I' for Inactive)
REMARK    1  A    between atoms: C6_6  and  C10_10 
REMARK    2  A    between atoms: C9_9  and  C10_10 
ROOT
HETATM    1  C1  UNL     1     -34.794   5.092   6.063  1.00 20.00     0.000 A 
HETATM    2  C2  UNL     1     -34.537   4.888   4.707  1.00 20.00     0.001 A 
HETATM    3  C3  UNL     1     -34.443   6.300   6.665  1.00 20.00     0.001 A 
HETATM    4  C4  UNL     1     -33.929   5.891   3.953  1.00 20.00     0.007 A 
HETATM    5  C5  UNL     1     -33.833   7.303   5.911  1.00 20.00     0.007 A 
HETATM    6  C6  UNL     1     -33.577   7.100   4.556  1.00 20.00    -0.054 A 
ENDROOT
BRANCH   6   7
HETATM    7  C10 UNL     1     -32.913   8.193   3.737  1.00 20.00     0.014 C 
HETATM    8  C8  UNL     1     -32.088   9.116   4.640  1.00 20.00     0.015 C 
BRANCH   7   9
HETATM    9  C9  UNL     1     -32.039   7.645   2.589  1.00 20.00     0.004 C 
HETATM   10  C7  UNL     1     -32.234   8.395   1.278  1.00 20.00     0.006 C 
ENDBRANCH   7   9
ENDBRANCH   6   7
TORSDOF 2
ENDMDL
MODEL 2
REMARK VINA RESULT:      -6.0      0.029      1.528
REMARK  2 active torsions:
REMARK  status: ('A' for Active; 'I' for Inactive)
REMARK    1  A    between atoms: C6_6  and  C10_10 
REMARK    2  A    between atoms: C9_9  and  C10_10 
ROOT
HETATM    1  C1  UNL     1     -34.790   5.075   6.071  1.00 20.00     0.000 A 
HETATM    2  C2  UNL     1     -34.421   6.272   6.684  1.00 20.00     0.001 A 
HETATM    3  C3  UNL     1     -34.555   4.888   4.709  1.00 20.00     0.001 A 
HETATM    4  C4  UNL     1     -33.818   7.283   5.937  1.00 20.00     0.007 A 
HETATM    5  C5  UNL     1     -33.952   5.899   3.961  1.00 20.00     0.007 A 
HETATM    6  C6  UNL     1     -33.583   7.096   4.574  1.00 20.00    -0.054 A 
ENDROOT
BRANCH   6   7
HETATM    7  C10 UNL     1     -32.926   8.196   3.757  1.00 20.00     0.014 C 
HETATM    8  C8  UNL     1     -32.098   9.115   4.661  1.00 20.00     0.015 C 
BRANCH   7   9
HETATM    9  C9  UNL     1     -32.058   7.657   2.601  1.00 20.00     0.004 C 
HETATM   10  C7  UNL     1     -32.247   8.428   1.301  1.00 20.00     0.006 C 
ENDBRANCH   7   9
ENDBRANCH   6   7
TORSDOF 2
ENDMDL
MODEL 3
REMARK VINA RESULT:      -5.6      0.849      1.347
REMARK  2 active torsions:
REMARK  status: ('A' for Active; 'I' for Inactive)
REMARK    1  A    between atoms: C6_6  and  C10_10 
REMARK    2  A    between atoms: C9_9  and  C10_10 
ROOT
HETATM    1  C1  UNL     1     -34.819   5.562   6.105  1.00 20.00     0.000 A 
HETATM    2  C2  UNL     1     -34.575   5.056   4.828  1.00 20.00     0.001 A 
HETATM    3  C3  UNL     1     -34.254   6.778   6.492  1.00 20.00     0.001 A 
HETATM    4  C4  UNL     1     -33.765   5.762   3.939  1.00 20.00     0.007 A 
HETATM    5  C5  UNL     1     -33.443   7.484   5.603  1.00 20.00     0.007 A 
HETATM    6  C6  UNL     1     -33.199   6.977   4.327  1.00 20.00    -0.054 A 
ENDROOT
BRANCH   6   7
HETATM    7  C10 UNL     1     -32.316   7.747   3.360  1.00 20.00     0.014 C 
HETATM    8  C8  UNL     1     -32.168   6.982   2.041  1.00 20.00     0.015 C 
BRANCH   7   9
HETATM    9  C9  UNL     1     -32.816   9.183   3.095  1.00 20.00     0.004 C 
HETATM   10  C7  UNL     1     -32.867   9.533   1.613  1.00 20.00     0.006 C 
ENDBRANCH   7   9
ENDBRANCH   6   7
TORSDOF 2
ENDMDL
MODEL 4
REMARK VINA RESULT:      -5.5      0.872      2.023
REMARK  2 active torsions:
REMARK  status: ('A' for Active; 'I' for Inactive)
REMARK    1  A    between atoms: C6_6  and  C10_10 
REMARK    2  A    between atoms: C9_9  and  C10_10 
ROOT
HETATM    1  C1  UNL     1     -34.852   5.713   6.166  1.00 20.00     0.000 A 
HETATM    2  C2  UNL     1     -34.223   6.896   6.552  1.00 20.00     0.001 A 
HETATM    3  C3  UNL     1     -34.662   5.211   4.878  1.00 20.00     0.001 A 
HETATM    4  C4  UNL     1     -33.406   7.580   5.652  1.00 20.00     0.007 A 
HETATM    5  C5  UNL     1     -33.845   5.895   3.977  1.00 20.00     0.007 A 
HETATM    6  C6  UNL     1     -33.217   7.078   4.364  1.00 20.00    -0.054 A 
ENDROOT
BRANCH   6   7
HETATM    7  C10 UNL     1     -32.328   7.822   3.381  1.00 20.00     0.014 C 
HETATM    8  C8  UNL     1     -32.143   7.003   2.099  1.00 20.00     0.015 C 
BRANCH   7   9
HETATM    9  C9  UNL     1     -32.846   9.235   3.045  1.00 20.00     0.004 C 
HETATM   10  C7  UNL     1     -32.817   9.544   1.553  1.00 20.00     0.006 C 
ENDBRANCH   7   9
ENDBRANCH   6   7
TORSDOF 2
ENDMDL
MODEL 5
REMARK VINA RESULT:      -4.4      0.976      4.380
REMARK  2 active torsions:
REMARK  status: ('A' for Active; 'I' for Inactive)
REMARK    1  A    between atoms: C6_6  and  C10_10 
REMARK    2  A    between atoms: C9_9  and  C10_10 
ROOT
HETATM    1  C1  UNL     1     -32.073   8.912   3.772  1.00 20.00     0.000 A 
HETATM    2  C2  UNL     1     -32.956   8.938   4.852  1.00 20.00     0.001 A 
HETATM    3  C3  UNL     1     -32.022   7.794   2.940  1.00 20.00     0.001 A 
HETATM    4  C4  UNL     1     -33.786   7.846   5.102  1.00 20.00     0.007 A 
HETATM    5  C5  UNL     1     -32.852   6.701   3.190  1.00 20.00     0.007 A 
HETATM    6  C6  UNL     1     -33.735   6.727   4.270  1.00 20.00    -0.054 A 
ENDROOT
BRANCH   6   7
HETATM    7  C10 UNL     1     -34.638   5.535   4.540  1.00 20.00     0.014 C 
HETATM    8  C8  UNL     1     -33.998   4.245   4.015  1.00 20.00     0.015 C 
BRANCH   7   9
HETATM    9  C9  UNL     1     -35.008   5.382   6.030  1.00 20.00     0.004 C 
HETATM   10  C7  UNL     1     -33.808   5.070   6.916  1.00 20.00     0.006 C 
ENDBRANCH   7   9
ENDBRANCH   6   7
TORSDOF 2
ENDMDL
MODEL 6
REMARK VINA RESULT:      -4.1      1.046      3.818
REMARK  2 active torsions:
REMARK  status: ('A' for Active; 'I' for Inactive)
REMARK    1  A    between atoms: C6_6  and  C10_10 
REMARK    2  A    between atoms: C9_9  and  C10_10 
ROOT
HETATM    1  C1  UNL     1     -32.121   8.682   2.746  1.00 20.00     0.000 A 
HETATM    2  C2  UNL     1     -32.256   7.328   2.440  1.00 20.00     0.001 A 
HETATM    3  C3  UNL     1     -32.554   9.164   3.981  1.00 20.00     0.001 A 
HETATM    4  C4  UNL     1     -32.825   6.456   3.367  1.00 20.00     0.007 A 
HETATM    5  C5  UNL     1     -33.124   8.292   4.909  1.00 20.00     0.007 A 
HETATM    6  C6  UNL     1     -33.259   6.938   4.603  1.00 20.00    -0.054 A 
ENDROOT
BRANCH   6   7
HETATM    7  C10 UNL     1     -33.880   5.990   5.614  1.00 20.00     0.014 C 
HETATM    8  C8  UNL     1     -34.406   6.766   6.827  1.00 20.00     0.015 C 
BRANCH   7   9
HETATM    9  C9  UNL     1     -34.998   5.111   5.015  1.00 20.00     0.004 C 
HETATM   10  C7  UNL     1     -36.004   5.904   4.189  1.00 20.00     0.006 C 
ENDBRANCH   7   9
ENDBRANCH   6   7
TORSDOF 2
ENDMDL
MODEL 7
REMARK VINA RESULT:      -4.1      1.064      4.111
REMARK  2 active torsions:
REMARK  status: ('A' for Active; 'I' for Inactive)
REMARK    1  A    between atoms: C6_6  and  C10_10 
REMARK    2  A    between atoms: C9_9  and  C10_10 
ROOT
HETATM    1  C1  UNL     1     -32.158   8.636   2.463  1.00 20.00     0.000 A 
HETATM    2  C2  UNL     1     -32.625   9.181   3.658  1.00 20.00     0.001 A 
HETATM    3  C3  UNL     1     -32.222   7.258   2.253  1.00 20.00     0.001 A 
HETATM    4  C4  UNL     1     -33.154   8.350   4.645  1.00 20.00     0.007 A 
HETATM    5  C5  UNL     1     -32.750   6.427   3.240  1.00 20.00     0.007 A 
HETATM    6  C6  UNL     1     -33.217   6.972   4.436  1.00 20.00    -0.054 A 
ENDROOT
BRANCH   6   7
HETATM    7  C10 UNL     1     -33.792   6.064   5.510  1.00 20.00     0.014 C 
HETATM    8  C8  UNL     1     -34.294   6.891   6.699  1.00 20.00     0.015 C 
BRANCH   7   9
HETATM    9  C9  UNL     1     -34.913   5.141   4.987  1.00 20.00     0.004 C 
HETATM   10  C7  UNL     1     -35.984   5.887   4.201  1.00 20.00     0.006 C 
ENDBRANCH   7   9
ENDBRANCH   6   7
TORSDOF 2
ENDMDL
MODEL 8
REMARK VINA RESULT:      -4.1     11.922     12.633
REMARK  2 active torsions:
REMARK  status: ('A' for Active; 'I' for Inactive)
REMARK    1  A    between atoms: C6_6  and  C10_10 
REMARK    2  A    between atoms: C9_9  and  C10_10 
ROOT
HETATM    1  C1  UNL     1     -32.132  18.776   1.152  1.00 20.00     0.000 A 
HETATM    2  C2  UNL     1     -31.269  18.600   0.071  1.00 20.00     0.001 A 
HETATM    3  C3  UNL     1     -33.501  18.553   0.995  1.00 20.00     0.001 A 
HETATM    4  C4  UNL     1     -31.773  18.203  -1.168  1.00 20.00     0.007 A 
HETATM    5  C5  UNL     1     -34.005  18.157  -0.244  1.00 20.00     0.007 A 
HETATM    6  C6  UNL     1     -33.142  17.981  -1.325  1.00 20.00    -0.054 A 
ENDROOT
BRANCH   6   7
HETATM    7  C10 UNL     1     -33.693  17.549  -2.673  1.00 20.00     0.014 C 
HETATM    8  C8  UNL     1     -33.278  18.541  -3.766  1.00 20.00     0.015 C 
BRANCH   7   9
HETATM    9  C9  UNL     1     -33.279  16.116  -3.066  1.00 20.00     0.004 C 
HETATM   10  C7  UNL     1     -33.896  15.655  -4.381  1.00 20.00     0.006 C 
ENDBRANCH   7   9
ENDBRANCH   6   7
TORSDOF 2
ENDMDL
MODEL 9
REMARK VINA RESULT:      -4.1     11.869     12.769
REMARK  2 active torsions:
REMARK  status: ('A' for Active; 'I' for Inactive)
REMARK    1  A    between atoms: C6_6  and  C10_10 
REMARK    2  A    between atoms: C9_9  and  C10_10 
ROOT
HETATM    1  C1  UNL     1     -31.386  19.127   1.918  1.00 20.00     0.000 A 
HETATM    2  C2  UNL     1     -32.781  19.148   1.895  1.00 20.00     0.001 A 
HETATM    3  C3  UNL     1     -30.674  18.817   0.759  1.00 20.00     0.001 A 
HETATM    4  C4  UNL     1     -33.464  18.855   0.715  1.00 20.00     0.007 A 
HETATM    5  C5  UNL     1     -31.358  18.524  -0.421  1.00 20.00     0.007 A 
HETATM    6  C6  UNL     1     -32.752  18.544  -0.444  1.00 20.00    -0.054 A 
ENDROOT
BRANCH   6   7
HETATM    7  C10 UNL     1     -33.495  18.224  -1.730  1.00 20.00     0.014 C 
HETATM    8  C8  UNL     1     -32.842  18.939  -2.919  1.00 20.00     0.015 C 
BRANCH   7   9
HETATM    9  C9  UNL     1     -33.603  16.711  -2.008  1.00 20.00     0.004 C 
HETATM   10  C7  UNL     1     -33.230  16.337  -3.437  1.00 20.00     0.006 C 
ENDBRANCH   7   9
ENDBRANCH   6   7
TORSDOF 2
ENDMDL
