MODEL 1
REMARK VINA RESULT:      -5.8      0.000      0.000
REMARK  1 active torsions:
REMARK  status: ('A' for Active; 'I' for Inactive)
REMARK    1  A    between atoms: C6_6  and  C8_8 
ROOT
HETATM    1  C1  UNL     1     -34.820   5.339   6.012  1.00 20.00     0.000 A 
HETATM    2  C2  UNL     1     -34.355   6.537   6.553  1.00 20.00     0.001 A 
HETATM    3  C3  UNL     1     -34.529   5.013   4.688  1.00 20.00     0.001 A 
HETATM    4  C4  UNL     1     -33.598   7.409   5.771  1.00 20.00     0.011 A 
HETATM    5  C5  UNL     1     -33.772   5.884   3.905  1.00 20.00     0.011 A 
HETATM    6  C6  UNL     1     -33.306   7.083   4.446  1.00 20.00    -0.037 A 
ENDROOT
BRANCH   6   7
HETATM    7  C8  UNL     1     -32.518   7.992   3.629  1.00 20.00     0.001 C 
HETATM    8  C7  UNL     1     -32.188   7.750   2.368  1.00 20.00     0.012 C 
ENDBRANCH   6   7
TORSDOF 1
ENDMDL
MODEL 2
REMARK VINA RESULT:      -5.8      0.020      1.708
REMARK  1 active torsions:
REMARK  status: ('A' for Active; 'I' for Inactive)
REMARK    1  A    between atoms: C6_6  and  C8_8 
ROOT
HETATM    1  C1  UNL     1     -34.826   5.362   6.028  1.00 20.00     0.000 A 
HETATM    2  C2  UNL     1     -34.541   5.025   4.705  1.00 20.00     0.001 A 
HETATM    3  C3  UNL     1     -34.354   6.561   6.559  1.00 20.00     0.001 A 
HETATM    4  C4  UNL     1     -33.783   5.888   3.913  1.00 20.00     0.011 A 
HETATM    5  C5  UNL     1     -33.595   7.425   5.767  1.00 20.00     0.011 A 
HETATM    6  C6  UNL     1     -33.310   7.088   4.444  1.00 20.00    -0.037 A 
ENDROOT
BRANCH   6   7
HETATM    7  C8  UNL     1     -32.519   7.987   3.620  1.00 20.00     0.001 C 
HETATM    8  C7  UNL     1     -32.185   7.732   2.362  1.00 20.00     0.012 C 
ENDBRANCH   6   7
TORSDOF 1
ENDMDL
MODEL 3
REMARK VINA RESULT:      -5.4      0.809      3.786
REMARK  1 active torsions:
REMARK  status: ('A' for Active; 'I' for Inactive)
REMARK    1  A    between atoms: C6_6  and  C8_8 
ROOT
HETATM    1  C1  UNL     1     -32.141   7.683   2.908  1.00 20.00     0.000 A 
HETATM    2  C2  UNL     1     -32.515   6.381   2.576  1.00 20.00     0.001 A 
HETATM    3  C3  UNL     1     -32.683   8.297   4.037  1.00 20.00     0.001 A 
HETATM    4  C4  UNL     1     -33.430   5.693   3.372  1.00 20.00     0.011 A 
HETATM    5  C5  UNL     1     -33.598   7.610   4.834  1.00 20.00     0.011 A 
HETATM    6  C6  UNL     1     -33.972   6.308   4.502  1.00 20.00    -0.037 A 
ENDROOT
BRANCH   6   7
HETATM    7  C8  UNL     1     -34.927   5.592   5.333  1.00 20.00     0.001 C 
HETATM    8  C7  UNL     1     -34.771   5.400   6.636  1.00 20.00     0.012 C 
ENDBRANCH   6   7
TORSDOF 1
ENDMDL
MODEL 4
REMARK VINA RESULT:      -5.4      0.797      3.399
REMARK  1 active torsions:
REMARK  status: ('A' for Active; 'I' for Inactive)
REMARK    1  A    between atoms: C6_6  and  C8_8 
ROOT
HETATM    1  C1  UNL     1     -32.123   7.675   2.900  1.00 20.00     0.000 A 
HETATM    2  C2  UNL     1     -32.672   8.276   4.032  1.00 20.00     0.001 A 
HETATM    3  C3  UNL     1     -32.484   6.373   2.558  1.00 20.00     0.001 A 
HETATM    4  C4  UNL     1     -33.581   7.575   4.823  1.00 20.00     0.011 A 
HETATM    5  C5  UNL     1     -33.394   5.671   3.349  1.00 20.00     0.011 A 
HETATM    6  C6  UNL     1     -33.943   6.272   4.481  1.00 20.00    -0.037 A 
ENDROOT
BRANCH   6   7
HETATM    7  C8  UNL     1     -34.891   5.539   5.306  1.00 20.00     0.001 C 
HETATM    8  C7  UNL     1     -34.771   5.400   6.619  1.00 20.00     0.012 C 
ENDBRANCH   6   7
TORSDOF 1
ENDMDL
MODEL 5
REMARK VINA RESULT:      -5.2      0.973      1.829
REMARK  1 active torsions:
REMARK  status: ('A' for Active; 'I' for Inactive)
REMARK    1  A    between atoms: C6_6  and  C8_8 
ROOT
HETATM    1  C1  UNL     1     -34.488   6.632   6.615  1.00 20.00     0.000 A 
HETATM    2  C2  UNL     1     -33.742   7.581   5.915  1.00 20.00     0.001 A 
HETATM    3  C3  UNL     1     -34.793   5.409   6.019  1.00 20.00     0.001 A 
HETATM    4  C4  UNL     1     -33.303   7.307   4.620  1.00 20.00     0.011 A 
HETATM    5  C5  UNL     1     -34.354   5.134   4.724  1.00 20.00     0.011 A 
HETATM    6  C6  UNL     1     -33.609   6.083   4.025  1.00 20.00    -0.037 A 
ENDROOT
BRANCH   6   7
HETATM    7  C8  UNL     1     -33.151   5.796   2.674  1.00 20.00     0.001 C 
HETATM    8  C7  UNL     1     -32.778   4.591   2.263  1.00 20.00     0.012 C 
ENDBRANCH   6   7
TORSDOF 1
ENDMDL
MODEL 6
REMARK VINA RESULT:      -5.2      0.970      2.240
REMARK  1 active torsions:
REMARK  status: ('A' for Active; 'I' for Inactive)
REMARK    1  A    between atoms: C6_6  and  C8_8 
ROOT
HETATM    1  C1  UNL     1     -34.493   6.610   6.626  1.00 20.00     0.000 A 
HETATM    2  C2  UNL     1     -34.783   5.376   6.044  1.00 20.00     0.001 A 
HETATM    3  C3  UNL     1     -33.774   7.566   5.909  1.00 20.00     0.001 A 
HETATM    4  C4  UNL     1     -34.355   5.098   4.746  1.00 20.00     0.011 A 
HETATM    5  C5  UNL     1     -33.345   7.288   4.611  1.00 20.00     0.011 A 
HETATM    6  C6  UNL     1     -33.636   6.054   4.029  1.00 20.00    -0.037 A 
ENDROOT
BRANCH   6   7
HETATM    7  C8  UNL     1     -33.188   5.765   2.676  1.00 20.00     0.001 C 
HETATM    8  C7  UNL     1     -32.754   4.576   2.282  1.00 20.00     0.012 C 
ENDBRANCH   6   7
TORSDOF 1
ENDMDL
MODEL 7
REMARK VINA RESULT:      -4.7      1.067      2.503
REMARK  1 active torsions:
REMARK  status: ('A' for Active; 'I' for Inactive)
REMARK    1  A    between atoms: C6_6  and  C8_8 
ROOT
HETATM    1  C1  UNL     1     -33.695   8.197   6.230  1.00 20.00     0.000 A 
HETATM    2  C2  UNL     1     -33.052   8.359   5.003  1.00 20.00     0.001 A 
HETATM    3  C3  UNL     1     -34.352   7.003   6.521  1.00 20.00     0.001 A 
HETATM    4  C4  UNL     1     -33.068   7.326   4.066  1.00 20.00     0.011 A 
HETATM    5  C5  UNL     1     -34.367   5.969   5.584  1.00 20.00     0.011 A 
HETATM    6  C6  UNL     1     -33.725   6.130   4.356  1.00 20.00    -0.037 A 
ENDROOT
BRANCH   6   7
HETATM    7  C8  UNL     1     -33.742   5.052   3.380  1.00 20.00     0.001 C 
HETATM    8  C7  UNL     1     -32.906   4.975   2.354  1.00 20.00     0.012 C 
ENDBRANCH   6   7
TORSDOF 1
ENDMDL
MODEL 8
REMARK VINA RESULT:      -4.4      0.928      3.205
REMARK  1 active torsions:
REMARK  status: ('A' for Active; 'I' for Inactive)
REMARK    1  A    between atoms: C6_6  and  C8_8 
ROOT
HETATM    1  C1  UNL     1     -32.615   5.804   2.293  1.00 20.00     0.000 A 
HETATM    2  C2  UNL     1     -32.169   7.064   2.692  1.00 20.00     0.001 A 
HETATM    3  C3  UNL     1     -33.524   5.104   3.084  1.00 20.00     0.001 A 
HETATM    4  C4  UNL     1     -32.634   7.624   3.882  1.00 20.00     0.011 A 
HETATM    5  C5  UNL     1     -33.989   5.663   4.275  1.00 20.00     0.011 A 
HETATM    6  C6  UNL     1     -33.544   6.923   4.674  1.00 20.00    -0.037 A 
ENDROOT
BRANCH   6   7
HETATM    7  C8  UNL     1     -34.028   7.506   5.915  1.00 20.00     0.001 C 
HETATM    8  C7  UNL     1     -34.494   6.792   6.931  1.00 20.00     0.012 C 
ENDBRANCH   6   7
TORSDOF 1
ENDMDL
MODEL 9
REMARK VINA RESULT:      -3.8     12.326     12.871
REMARK  1 active torsions:
REMARK  status: ('A' for Active; 'I' for Inactive)
REMARK    1  A    between atoms: C6_6  and  C8_8 
ROOT
HETATM    1  C1  UNL     1     -31.906  18.997   1.185  1.00 20.00     0.000 A 
HETATM    2  C2  UNL     1     -31.188  18.805   0.004  1.00 20.00     0.001 A 
HETATM    3  C3  UNL     1     -33.252  18.641   1.247  1.00 20.00     0.001 A 
HETATM    4  C4  UNL     1     -31.817  18.257  -1.114  1.00 20.00     0.011 A 
HETATM    5  C5  UNL     1     -33.882  18.092   0.130  1.00 20.00     0.011 A 
HETATM    6  C6  UNL     1     -33.164  17.901  -1.051  1.00 20.00    -0.037 A 
ENDROOT
BRANCH   6   7
HETATM    7  C8  UNL     1     -33.821  17.329  -2.216  1.00 20.00     0.001 C 
HETATM    8  C7  UNL     1     -33.335  16.309  -2.910  1.00 20.00     0.012 C 
ENDBRANCH   6   7
TORSDOF 1
ENDMDL
