MODEL 1
REMARK VINA RESULT:      -6.0      0.000      0.000
REMARK  0 active torsions:
REMARK  status: ('A' for Active; 'I' for Inactive)
ROOT
HETATM    1  C1  UNL     1     -34.773   5.668   6.349  1.00 20.00     0.001 A 
HETATM    2  C2  UNL     1     -34.692   4.910   5.190  1.00 20.00     0.001 A 
HETATM    3  C3  UNL     1     -34.157   6.920   6.418  1.00 20.00     0.013 A 
HETATM    4  C4  UNL     1     -33.995   5.385   4.077  1.00 20.00     0.019 A 
HETATM    5  C5  UNL     1     -32.739   8.669   5.139  1.00 20.00     0.020 A 
HETATM    6  C6  UNL     1     -32.168   8.796   3.895  1.00 20.00     0.051 A 
HETATM    7  C7  UNL     1     -33.444   7.430   5.307  1.00 20.00    -0.019 A 
HETATM    8  C8  UNL     1     -33.376   6.648   4.150  1.00 20.00     0.015 A 
HETATM    9  S9  UNL     1     -32.468   7.435   2.913  1.00 20.00    -0.101 SA
ENDROOT
TORSDOF 0
ENDMDL
MODEL 2
REMARK VINA RESULT:      -5.9      1.052      2.124
REMARK  0 active torsions:
REMARK  status: ('A' for Active; 'I' for Inactive)
ROOT
HETATM    1  C1  UNL     1     -34.798   5.010   5.699  1.00 20.00     0.001 A 
HETATM    2  C2  UNL     1     -34.652   6.125   6.513  1.00 20.00     0.001 A 
HETATM    3  C3  UNL     1     -34.210   4.982   4.431  1.00 20.00     0.013 A 
HETATM    4  C4  UNL     1     -33.918   7.231   6.081  1.00 20.00     0.019 A 
HETATM    5  C5  UNL     1     -32.772   6.290   2.721  1.00 20.00     0.020 A 
HETATM    6  C6  UNL     1     -32.151   7.514   2.645  1.00 20.00     0.051 A 
HETATM    7  C7  UNL     1     -33.460   6.087   3.964  1.00 20.00    -0.019 A 
HETATM    8  C8  UNL     1     -33.326   7.198   4.803  1.00 20.00     0.015 A 
HETATM    9  S9  UNL     1     -32.383   8.436   4.061  1.00 20.00    -0.101 SA
ENDROOT
TORSDOF 0
ENDMDL
MODEL 3
REMARK VINA RESULT:      -5.7      1.466      3.255
REMARK  0 active torsions:
REMARK  status: ('A' for Active; 'I' for Inactive)
ROOT
HETATM    1  C1  UNL     1     -32.192   8.554   3.716  1.00 20.00     0.001 A 
HETATM    2  C2  UNL     1     -32.249   7.541   2.769  1.00 20.00     0.001 A 
HETATM    3  C3  UNL     1     -32.824   8.400   4.953  1.00 20.00     0.013 A 
HETATM    4  C4  UNL     1     -32.935   6.355   3.036  1.00 20.00     0.019 A 
HETATM    5  C5  UNL     1     -34.243   6.822   6.437  1.00 20.00     0.020 A 
HETATM    6  C6  UNL     1     -34.798   5.568   6.340  1.00 20.00     0.051 A 
HETATM    7  C7  UNL     1     -33.527   7.209   5.255  1.00 20.00    -0.019 A 
HETATM    8  C8  UNL     1     -33.570   6.203   4.285  1.00 20.00     0.015 A 
HETATM    9  S9  UNL     1     -34.469   4.838   4.835  1.00 20.00    -0.101 SA
ENDROOT
TORSDOF 0
ENDMDL
MODEL 4
REMARK VINA RESULT:      -5.7      1.097      1.335
REMARK  0 active torsions:
REMARK  status: ('A' for Active; 'I' for Inactive)
ROOT
HETATM    1  C1  UNL     1     -34.515   6.631   6.623  1.00 20.00     0.001 A 
HETATM    2  C2  UNL     1     -34.866   5.398   6.092  1.00 20.00     0.001 A 
HETATM    3  C3  UNL     1     -33.709   7.510   5.893  1.00 20.00     0.013 A 
HETATM    4  C4  UNL     1     -34.423   5.016   4.824  1.00 20.00     0.019 A 
HETATM    5  C5  UNL     1     -32.420   7.873   3.677  1.00 20.00     0.020 A 
HETATM    6  C6  UNL     1     -32.187   7.177   2.514  1.00 20.00     0.051 A 
HETATM    7  C7  UNL     1     -33.244   7.153   4.605  1.00 20.00    -0.019 A 
HETATM    8  C8  UNL     1     -33.612   5.905   4.091  1.00 20.00     0.015 A 
HETATM    9  S9  UNL     1     -32.951   5.653   2.519  1.00 20.00    -0.101 SA
ENDROOT
TORSDOF 0
ENDMDL
MODEL 5
REMARK VINA RESULT:      -5.3      1.654      3.834
REMARK  0 active torsions:
REMARK  status: ('A' for Active; 'I' for Inactive)
ROOT
HETATM    1  C1  UNL     1     -32.222   7.442   2.636  1.00 20.00     0.001 A 
HETATM    2  C2  UNL     1     -32.199   8.450   3.591  1.00 20.00     0.001 A 
HETATM    3  C3  UNL     1     -32.903   6.248   2.887  1.00 20.00     0.013 A 
HETATM    4  C4  UNL     1     -32.854   8.287   4.813  1.00 20.00     0.019 A 
HETATM    5  C5  UNL     1     -34.334   4.932   4.598  1.00 20.00     0.020 A 
HETATM    6  C6  UNL     1     -34.838   5.129   5.862  1.00 20.00     0.051 A 
HETATM    7  C7  UNL     1     -33.577   6.052   4.116  1.00 20.00    -0.019 A 
HETATM    8  C8  UNL     1     -33.540   7.081   5.062  1.00 20.00     0.015 A 
HETATM    9  S9  UNL     1     -34.413   6.657   6.487  1.00 20.00    -0.101 SA
ENDROOT
TORSDOF 0
ENDMDL
MODEL 6
REMARK VINA RESULT:      -4.9      1.256      2.174
REMARK  0 active torsions:
REMARK  status: ('A' for Active; 'I' for Inactive)
ROOT
HETATM    1  C1  UNL     1     -34.053   4.567   3.723  1.00 20.00     0.001 A 
HETATM    2  C2  UNL     1     -34.657   4.827   4.945  1.00 20.00     0.001 A 
HETATM    3  C3  UNL     1     -33.248   5.533   3.114  1.00 20.00     0.013 A 
HETATM    4  C4  UNL     1     -34.471   6.055   5.584  1.00 20.00     0.019 A 
HETATM    5  C5  UNL     1     -32.267   7.922   3.315  1.00 20.00     0.020 A 
HETATM    6  C6  UNL     1     -32.316   8.965   4.209  1.00 20.00     0.051 A 
HETATM    7  C7  UNL     1     -33.039   6.788   3.736  1.00 20.00    -0.019 A 
HETATM    8  C8  UNL     1     -33.658   7.026   4.967  1.00 20.00     0.015 A 
HETATM    9  S9  UNL     1     -33.287   8.601   5.562  1.00 20.00    -0.101 SA
ENDROOT
TORSDOF 0
ENDMDL
MODEL 7
REMARK VINA RESULT:      -4.4      1.488      3.122
REMARK  0 active torsions:
REMARK  status: ('A' for Active; 'I' for Inactive)
ROOT
HETATM    1  C1  UNL     1     -33.201   4.877   2.621  1.00 20.00     0.001 A 
HETATM    2  C2  UNL     1     -32.547   6.062   2.312  1.00 20.00     0.001 A 
HETATM    3  C3  UNL     1     -33.890   4.745   3.829  1.00 20.00     0.013 A 
HETATM    4  C4  UNL     1     -32.567   7.138   3.202  1.00 20.00     0.019 A 
HETATM    5  C5  UNL     1     -34.561   5.922   6.037  1.00 20.00     0.020 A 
HETATM    6  C6  UNL     1     -34.366   7.145   6.633  1.00 20.00     0.051 A 
HETATM    7  C7  UNL     1     -33.929   5.818   4.752  1.00 20.00    -0.019 A 
HETATM    8  C8  UNL     1     -33.264   7.001   4.419  1.00 20.00     0.015 A 
HETATM    9  S9  UNL     1     -33.425   8.184   5.663  1.00 20.00    -0.101 SA
ENDROOT
TORSDOF 0
ENDMDL
MODEL 8
REMARK VINA RESULT:      -4.3      1.086      3.012
REMARK  0 active torsions:
REMARK  status: ('A' for Active; 'I' for Inactive)
ROOT
HETATM    1  C1  UNL     1     -33.720   8.223   6.318  1.00 20.00     0.001 A 
HETATM    2  C2  UNL     1     -32.937   8.694   5.273  1.00 20.00     0.001 A 
HETATM    3  C3  UNL     1     -34.268   6.939   6.266  1.00 20.00     0.013 A 
HETATM    4  C4  UNL     1     -32.685   7.894   4.157  1.00 20.00     0.019 A 
HETATM    5  C5  UNL     1     -34.477   4.768   4.869  1.00 20.00     0.020 A 
HETATM    6  C6  UNL     1     -34.028   4.295   3.659  1.00 20.00     0.051 A 
HETATM    7  C7  UNL     1     -34.031   6.104   5.148  1.00 20.00    -0.019 A 
HETATM    8  C8  UNL     1     -33.239   6.600   4.108  1.00 20.00     0.015 A 
HETATM    9  S9  UNL     1     -33.067   5.442   2.842  1.00 20.00    -0.101 SA
ENDROOT
TORSDOF 0
ENDMDL
MODEL 9
REMARK VINA RESULT:      -4.0     16.097     16.886
REMARK  0 active torsions:
REMARK  status: ('A' for Active; 'I' for Inactive)
ROOT
HETATM    1  C1  UNL     1     -22.804  18.889   7.870  1.00 20.00     0.001 A 
HETATM    2  C2  UNL     1     -21.569  18.691   8.474  1.00 20.00     0.001 A 
HETATM    3  C3  UNL     1     -23.971  18.902   8.638  1.00 20.00     0.013 A 
HETATM    4  C4  UNL     1     -21.474  18.503   9.854  1.00 20.00     0.019 A 
HETATM    5  C5  UNL     1     -24.950  18.688  11.026  1.00 20.00     0.020 A 
HETATM    6  C6  UNL     1     -24.478  18.477  12.300  1.00 20.00     0.051 A 
HETATM    7  C7  UNL     1     -23.908  18.714  10.040  1.00 20.00    -0.019 A 
HETATM    8  C8  UNL     1     -22.653  18.518  10.625  1.00 20.00     0.015 A 
HETATM    9  S9  UNL     1     -22.782  18.308  12.332  1.00 20.00    -0.101 SA
ENDROOT
TORSDOF 0
ENDMDL
