MODEL 1
REMARK VINA RESULT:      -5.0      0.000      0.000
REMARK  1 active torsions:
REMARK  status: ('A' for Active; 'I' for Inactive)
REMARK    1  A    between atoms: C6_6  and  S8_8 
ROOT
HETATM    1  C1  UNL     1     -34.837   5.186   5.940  1.00 20.00     0.000 A 
HETATM    2  C2  UNL     1     -34.472   6.357   6.606  1.00 20.00     0.001 A 
HETATM    3  C3  UNL     1     -34.488   5.009   4.600  1.00 20.00     0.001 A 
HETATM    4  C4  UNL     1     -33.761   7.350   5.933  1.00 20.00     0.018 A 
HETATM    5  C5  UNL     1     -33.776   6.002   3.927  1.00 20.00     0.018 A 
HETATM    6  C6  UNL     1     -33.412   7.172   4.594  1.00 20.00    -0.000 A 
ENDROOT
BRANCH   6   7
HETATM    7  S8  UNL     1     -32.503   8.441   3.734  1.00 20.00    -0.134 SA
HETATM    8  C7  UNL     1     -32.148   7.565   2.195  1.00 20.00     0.095 C 
ENDBRANCH   6   7
TORSDOF 1
ENDMDL
MODEL 2
REMARK VINA RESULT:      -5.0      0.012      1.709
REMARK  1 active torsions:
REMARK  status: ('A' for Active; 'I' for Inactive)
REMARK    1  A    between atoms: C6_6  and  S8_8 
ROOT
HETATM    1  C1  UNL     1     -34.837   5.190   5.937  1.00 20.00     0.000 A 
HETATM    2  C2  UNL     1     -34.486   5.017   4.598  1.00 20.00     0.001 A 
HETATM    3  C3  UNL     1     -34.475   6.359   6.607  1.00 20.00     0.001 A 
HETATM    4  C4  UNL     1     -33.772   6.012   3.929  1.00 20.00     0.018 A 
HETATM    5  C5  UNL     1     -33.762   7.355   5.939  1.00 20.00     0.018 A 
HETATM    6  C6  UNL     1     -33.411   7.181   4.600  1.00 20.00    -0.000 A 
ENDROOT
BRANCH   6   7
HETATM    7  S8  UNL     1     -32.499   8.453   3.746  1.00 20.00    -0.134 SA
HETATM    8  C7  UNL     1     -32.152   7.587   2.200  1.00 20.00     0.095 C 
ENDBRANCH   6   7
TORSDOF 1
ENDMDL
MODEL 3
REMARK VINA RESULT:      -4.3      1.840      3.940
REMARK  1 active torsions:
REMARK  status: ('A' for Active; 'I' for Inactive)
REMARK    1  A    between atoms: C6_6  and  S8_8 
ROOT
HETATM    1  C1  UNL     1     -32.103   8.708   3.746  1.00 20.00     0.000 A 
HETATM    2  C2  UNL     1     -32.159   7.616   2.880  1.00 20.00     0.001 A 
HETATM    3  C3  UNL     1     -32.826   8.689   4.940  1.00 20.00     0.001 A 
HETATM    4  C4  UNL     1     -32.939   6.506   3.206  1.00 20.00     0.018 A 
HETATM    5  C5  UNL     1     -33.605   7.579   5.266  1.00 20.00     0.018 A 
HETATM    6  C6  UNL     1     -33.661   6.487   4.399  1.00 20.00    -0.000 A 
ENDROOT
BRANCH   6   7
HETATM    7  S8  UNL     1     -34.657   5.069   4.816  1.00 20.00    -0.134 SA
HETATM    8  C7  UNL     1     -34.695   5.247   6.613  1.00 20.00     0.095 C 
ENDBRANCH   6   7
TORSDOF 1
ENDMDL
MODEL 4
REMARK VINA RESULT:      -4.3      1.837      3.570
REMARK  1 active torsions:
REMARK  status: ('A' for Active; 'I' for Inactive)
REMARK    1  A    between atoms: C6_6  and  S8_8 
ROOT
HETATM    1  C1  UNL     1     -32.100   8.691   3.731  1.00 20.00     0.000 A 
HETATM    2  C2  UNL     1     -32.824   8.681   4.923  1.00 20.00     0.001 A 
HETATM    3  C3  UNL     1     -32.155   7.594   2.871  1.00 20.00     0.001 A 
HETATM    4  C4  UNL     1     -33.603   7.572   5.257  1.00 20.00     0.018 A 
HETATM    5  C5  UNL     1     -32.934   6.485   3.205  1.00 20.00     0.018 A 
HETATM    6  C6  UNL     1     -33.658   6.475   4.397  1.00 20.00    -0.000 A 
ENDROOT
BRANCH   6   7
HETATM    7  S8  UNL     1     -34.652   5.058   4.823  1.00 20.00    -0.134 SA
HETATM    8  C7  UNL     1     -34.697   5.251   6.618  1.00 20.00     0.095 C 
ENDBRANCH   6   7
TORSDOF 1
ENDMDL
MODEL 5
REMARK VINA RESULT:      -3.5     15.415     15.908
REMARK  1 active torsions:
REMARK  status: ('A' for Active; 'I' for Inactive)
REMARK    1  A    between atoms: C6_6  and  S8_8 
ROOT
HETATM    1  C1  UNL     1     -25.445  17.003  12.332  1.00 20.00     0.000 A 
HETATM    2  C2  UNL     1     -24.409  16.383  11.633  1.00 20.00     0.001 A 
HETATM    3  C3  UNL     1     -25.828  18.304  12.003  1.00 20.00     0.001 A 
HETATM    4  C4  UNL     1     -23.756  17.064  10.605  1.00 20.00     0.018 A 
HETATM    5  C5  UNL     1     -25.175  18.985  10.976  1.00 20.00     0.018 A 
HETATM    6  C6  UNL     1     -24.139  18.365  10.276  1.00 20.00    -0.000 A 
ENDROOT
BRANCH   6   7
HETATM    7  S8  UNL     1     -23.304  19.235   8.964  1.00 20.00    -0.134 SA
HETATM    8  C7  UNL     1     -22.275  17.896   8.323  1.00 20.00     0.095 C 
ENDBRANCH   6   7
TORSDOF 1
ENDMDL
MODEL 6
REMARK VINA RESULT:      -3.3     12.655     12.998
REMARK  1 active torsions:
REMARK  status: ('A' for Active; 'I' for Inactive)
REMARK    1  A    between atoms: C6_6  and  S8_8 
ROOT
HETATM    1  C1  UNL     1     -33.402  18.111  -0.767  1.00 20.00     0.000 A 
HETATM    2  C2  UNL     1     -33.735  18.415   0.554  1.00 20.00     0.001 A 
HETATM    3  C3  UNL     1     -32.070  18.158  -1.179  1.00 20.00     0.001 A 
HETATM    4  C4  UNL     1     -32.736  18.766   1.462  1.00 20.00     0.018 A 
HETATM    5  C5  UNL     1     -31.071  18.510  -0.271  1.00 20.00     0.018 A 
HETATM    6  C6  UNL     1     -31.404  18.814   1.049  1.00 20.00    -0.000 A 
ENDROOT
BRANCH   6   7
HETATM    7  S8  UNL     1     -30.127  19.263   2.209  1.00 20.00    -0.134 SA
HETATM    8  C7  UNL     1     -30.993  18.922   3.756  1.00 20.00     0.095 C 
ENDBRANCH   6   7
TORSDOF 1
ENDMDL
MODEL 7
REMARK VINA RESULT:      -3.3     15.514     16.545
REMARK  1 active torsions:
REMARK  status: ('A' for Active; 'I' for Inactive)
REMARK    1  A    between atoms: C6_6  and  S8_8 
ROOT
HETATM    1  C1  UNL     1     -22.454  18.442   8.113  1.00 20.00     0.000 A 
HETATM    2  C2  UNL     1     -23.617  19.212   8.061  1.00 20.00     0.001 A 
HETATM    3  C3  UNL     1     -22.152  17.714   9.264  1.00 20.00     0.001 A 
HETATM    4  C4  UNL     1     -24.476  19.253   9.159  1.00 20.00     0.018 A 
HETATM    5  C5  UNL     1     -23.011  17.755  10.362  1.00 20.00     0.018 A 
HETATM    6  C6  UNL     1     -24.173  18.525  10.310  1.00 20.00    -0.000 A 
ENDROOT
BRANCH   6   7
HETATM    7  S8  UNL     1     -25.270  18.577  11.713  1.00 20.00    -0.134 SA
HETATM    8  C7  UNL     1     -25.157  16.856  12.248  1.00 20.00     0.095 C 
ENDBRANCH   6   7
TORSDOF 1
ENDMDL
MODEL 8
REMARK VINA RESULT:      -3.3      1.968      3.282
REMARK  1 active torsions:
REMARK  status: ('A' for Active; 'I' for Inactive)
REMARK    1  A    between atoms: C6_6  and  S8_8 
ROOT
HETATM    1  C1  UNL     1     -32.686   9.118   5.182  1.00 20.00     0.000 A 
HETATM    2  C2  UNL     1     -32.180   8.561   4.007  1.00 20.00     0.001 A 
HETATM    3  C3  UNL     1     -33.598   8.401   5.957  1.00 20.00     0.001 A 
HETATM    4  C4  UNL     1     -32.587   7.288   3.607  1.00 20.00     0.018 A 
HETATM    5  C5  UNL     1     -34.005   7.128   5.557  1.00 20.00     0.018 A 
HETATM    6  C6  UNL     1     -33.499   6.571   4.382  1.00 20.00    -0.000 A 
ENDROOT
BRANCH   6   7
HETATM    7  S8  UNL     1     -34.020   4.945   3.871  1.00 20.00    -0.134 SA
HETATM    8  C7  UNL     1     -32.952   4.726   2.431  1.00 20.00     0.095 C 
ENDBRANCH   6   7
TORSDOF 1
ENDMDL
MODEL 9
REMARK VINA RESULT:      -3.3     12.472     12.989
REMARK  1 active torsions:
REMARK  status: ('A' for Active; 'I' for Inactive)
REMARK    1  A    between atoms: C6_6  and  S8_8 
ROOT
HETATM    1  C1  UNL     1     -32.454  18.590   1.124  1.00 20.00     0.000 A 
HETATM    2  C2  UNL     1     -31.420  18.709   0.194  1.00 20.00     0.001 A 
HETATM    3  C3  UNL     1     -33.739  18.252   0.698  1.00 20.00     0.001 A 
HETATM    4  C4  UNL     1     -31.672  18.490  -1.161  1.00 20.00     0.018 A 
HETATM    5  C5  UNL     1     -33.991  18.034  -0.656  1.00 20.00     0.018 A 
HETATM    6  C6  UNL     1     -32.957  18.152  -1.586  1.00 20.00    -0.000 A 
ENDROOT
BRANCH   6   7
HETATM    7  S8  UNL     1     -33.279  17.873  -3.316  1.00 20.00    -0.134 SA
HETATM    8  C7  UNL     1     -33.367  16.070  -3.319  1.00 20.00     0.095 C 
ENDBRANCH   6   7
TORSDOF 1
ENDMDL
