MODEL 1
REMARK VINA RESULT:      -3.9      0.000      0.000
REMARK  1 active torsions:
REMARK  status: ('A' for Active; 'I' for Inactive)
REMARK    1  A    between atoms: C4_4  and  S6_6 
ROOT
HETATM    1  C1  UNL     1     -34.718   5.720   6.322  1.00 20.00     0.009 A 
HETATM    2  C2  UNL     1     -33.989   6.944   6.273  1.00 20.00     0.026 A 
HETATM    3  C3  UNL     1     -34.707   5.063   5.111  1.00 20.00     0.051 A 
HETATM    4  C4  UNL     1     -33.448   7.174   5.027  1.00 20.00     0.038 A 
HETATM    5  S5  UNL     1     -33.821   5.920   3.923  1.00 20.00    -0.095 SA
ENDROOT
BRANCH   4   6
HETATM    6  S6  UNL     1     -32.484   8.565   4.563  1.00 20.00    -0.136 SA
HETATM    7  H10 UNL     1     -31.646   8.585   5.617  1.00 20.00     0.107 HD
ENDBRANCH   4   6
TORSDOF 1
ENDMDL
MODEL 2
REMARK VINA RESULT:      -3.7      1.314      1.720
REMARK  1 active torsions:
REMARK  status: ('A' for Active; 'I' for Inactive)
REMARK    1  A    between atoms: C4_4  and  S6_6 
ROOT
HETATM    1  C1  UNL     1     -34.658   4.988   4.845  1.00 20.00     0.009 A 
HETATM    2  C2  UNL     1     -33.943   5.871   3.986  1.00 20.00     0.026 A 
HETATM    3  C3  UNL     1     -34.734   5.469   6.134  1.00 20.00     0.051 A 
HETATM    4  C4  UNL     1     -33.501   6.994   4.651  1.00 20.00     0.038 A 
HETATM    5  S5  UNL     1     -33.947   6.980   6.304  1.00 20.00    -0.095 SA
ENDROOT
BRANCH   4   6
HETATM    6  S6  UNL     1     -32.588   8.317   3.946  1.00 20.00    -0.136 SA
HETATM    7  H10 UNL     1     -33.449   9.317   4.213  1.00 20.00     0.107 HD
ENDBRANCH   4   6
TORSDOF 1
ENDMDL
MODEL 3
REMARK VINA RESULT:      -3.5      1.111      2.242
REMARK  1 active torsions:
REMARK  status: ('A' for Active; 'I' for Inactive)
REMARK    1  A    between atoms: C4_4  and  S6_6 
ROOT
HETATM    1  C1  UNL     1     -34.800   5.659   6.273  1.00 20.00     0.009 A 
HETATM    2  C2  UNL     1     -34.464   5.037   5.036  1.00 20.00     0.026 A 
HETATM    3  C3  UNL     1     -34.280   6.931   6.372  1.00 20.00     0.051 A 
HETATM    4  C4  UNL     1     -33.699   5.858   4.236  1.00 20.00     0.038 A 
HETATM    5  S5  UNL     1     -33.389   7.370   4.977  1.00 20.00    -0.095 SA
ENDROOT
BRANCH   4   6
HETATM    6  S6  UNL     1     -33.086   5.463   2.640  1.00 20.00    -0.136 SA
HETATM    7  H10 UNL     1     -32.313   6.548   2.450  1.00 20.00     0.107 HD
ENDBRANCH   4   6
TORSDOF 1
ENDMDL
MODEL 4
REMARK VINA RESULT:      -3.3      1.761      3.472
REMARK  1 active torsions:
REMARK  status: ('A' for Active; 'I' for Inactive)
REMARK    1  A    between atoms: C4_4  and  S6_6 
ROOT
HETATM    1  C1  UNL     1     -32.127   7.520   3.127  1.00 20.00     0.009 A 
HETATM    2  C2  UNL     1     -32.943   6.365   3.304  1.00 20.00     0.026 A 
HETATM    3  C3  UNL     1     -32.321   8.448   4.127  1.00 20.00     0.051 A 
HETATM    4  C4  UNL     1     -33.728   6.454   4.433  1.00 20.00     0.038 A 
HETATM    5  S5  UNL     1     -33.482   7.926   5.272  1.00 20.00    -0.095 SA
ENDROOT
BRANCH   4   6
HETATM    6  S6  UNL     1     -34.862   5.241   4.998  1.00 20.00    -0.136 SA
HETATM    7  H10 UNL     1     -35.088   5.738   6.228  1.00 20.00     0.107 HD
ENDBRANCH   4   6
TORSDOF 1
ENDMDL
MODEL 5
REMARK VINA RESULT:      -3.3      1.803      3.017
REMARK  1 active torsions:
REMARK  status: ('A' for Active; 'I' for Inactive)
REMARK    1  A    between atoms: C4_4  and  S6_6 
ROOT
HETATM    1  C1  UNL     1     -32.446   8.510   4.368  1.00 20.00     0.009 A 
HETATM    2  C2  UNL     1     -33.401   7.837   5.184  1.00 20.00     0.026 A 
HETATM    3  C3  UNL     1     -32.097   7.768   3.261  1.00 20.00     0.051 A 
HETATM    4  C4  UNL     1     -33.745   6.607   4.670  1.00 20.00     0.038 A 
HETATM    5  S5  UNL     1     -32.918   6.267   3.209  1.00 20.00    -0.095 SA
ENDROOT
BRANCH   4   6
HETATM    6  S6  UNL     1     -34.887   5.477   5.376  1.00 20.00    -0.136 SA
HETATM    7  H10 UNL     1     -35.874   6.347   5.664  1.00 20.00     0.107 HD
ENDBRANCH   4   6
TORSDOF 1
ENDMDL
MODEL 6
REMARK VINA RESULT:      -3.1      1.826      2.177
REMARK  1 active torsions:
REMARK  status: ('A' for Active; 'I' for Inactive)
REMARK    1  A    between atoms: C4_4  and  S6_6 
ROOT
HETATM    1  C1  UNL     1     -33.940   7.475   6.006  1.00 20.00     0.009 A 
HETATM    2  C2  UNL     1     -33.336   7.310   4.726  1.00 20.00     0.026 A 
HETATM    3  C3  UNL     1     -34.635   6.352   6.399  1.00 20.00     0.051 A 
HETATM    4  C4  UNL     1     -33.593   6.067   4.190  1.00 20.00     0.038 A 
HETATM    5  S5  UNL     1     -34.558   5.106   5.227  1.00 20.00    -0.095 SA
ENDROOT
BRANCH   4   6
HETATM    6  S6  UNL     1     -33.026   5.478   2.637  1.00 20.00    -0.136 SA
HETATM    7  H10 UNL     1     -31.761   5.934   2.701  1.00 20.00     0.107 HD
ENDBRANCH   4   6
TORSDOF 1
ENDMDL
MODEL 7
REMARK VINA RESULT:      -3.0      2.064      2.978
REMARK  1 active torsions:
REMARK  status: ('A' for Active; 'I' for Inactive)
REMARK    1  A    between atoms: C4_4  and  S6_6 
ROOT
HETATM    1  C1  UNL     1     -32.975   5.679   2.733  1.00 20.00     0.009 A 
HETATM    2  C2  UNL     1     -33.690   5.559   3.960  1.00 20.00     0.026 A 
HETATM    3  C3  UNL     1     -32.311   6.883   2.637  1.00 20.00     0.051 A 
HETATM    4  C4  UNL     1     -33.545   6.675   4.754  1.00 20.00     0.038 A 
HETATM    5  S5  UNL     1     -32.552   7.861   4.021  1.00 20.00    -0.095 SA
ENDROOT
BRANCH   4   6
HETATM    6  S6  UNL     1     -34.264   6.913   6.337  1.00 20.00    -0.136 SA
HETATM    7  H10 UNL     1     -33.137   7.156   7.032  1.00 20.00     0.107 HD
ENDBRANCH   4   6
TORSDOF 1
ENDMDL
MODEL 8
REMARK VINA RESULT:      -2.8     15.443     15.752
REMARK  1 active torsions:
REMARK  status: ('A' for Active; 'I' for Inactive)
REMARK    1  A    between atoms: C4_4  and  S6_6 
ROOT
HETATM    1  C1  UNL     1     -24.487  16.324  11.691  1.00 20.00     0.009 A 
HETATM    2  C2  UNL     1     -23.887  16.907  10.537  1.00 20.00     0.026 A 
HETATM    3  C3  UNL     1     -25.337  17.199  12.331  1.00 20.00     0.051 A 
HETATM    4  C4  UNL     1     -24.303  18.206  10.340  1.00 20.00     0.038 A 
HETATM    5  S5  UNL     1     -25.410  18.717  11.542  1.00 20.00    -0.095 SA
ENDROOT
BRANCH   4   6
HETATM    6  S6  UNL     1     -23.797  19.262   9.033  1.00 20.00    -0.136 SA
HETATM    7  H10 UNL     1     -24.786  18.987   8.162  1.00 20.00     0.107 HD
ENDBRANCH   4   6
TORSDOF 1
ENDMDL
MODEL 9
REMARK VINA RESULT:      -2.7     16.340     16.924
REMARK  1 active torsions:
REMARK  status: ('A' for Active; 'I' for Inactive)
REMARK    1  A    between atoms: C4_4  and  S6_6 
ROOT
HETATM    1  C1  UNL     1     -22.471  18.440  12.257  1.00 20.00     0.009 A 
HETATM    2  C2  UNL     1     -21.776  18.472  11.013  1.00 20.00     0.026 A 
HETATM    3  C3  UNL     1     -23.659  17.748  12.168  1.00 20.00     0.051 A 
HETATM    4  C4  UNL     1     -22.459  17.802  10.022  1.00 20.00     0.038 A 
HETATM    5  S5  UNL     1     -23.932  17.140  10.591  1.00 20.00    -0.095 SA
ENDROOT
BRANCH   4   6
HETATM    6  S6  UNL     1     -21.937  17.613   8.358  1.00 20.00    -0.136 SA
HETATM    7  H10 UNL     1     -22.314  18.818   7.893  1.00 20.00     0.107 HD
ENDBRANCH   4   6
TORSDOF 1
ENDMDL
