MODEL 1
REMARK VINA RESULT:      -5.7      0.000      0.000
REMARK  0 active torsions:
REMARK  status: ('A' for Active; 'I' for Inactive)
ROOT
HETATM    1  C1  UNL     1     -34.779   5.297   5.947  1.00 20.00     0.000 A 
HETATM    2  C2  UNL     1     -34.375   6.486   6.551  1.00 20.00     0.001 A 
HETATM    3  C3  UNL     1     -34.464   5.051   4.610  1.00 20.00     0.001 A 
HETATM    4  C4  UNL     1     -33.654   7.431   5.820  1.00 20.00     0.007 A 
HETATM    5  C5  UNL     1     -33.744   5.996   3.879  1.00 20.00     0.007 A 
HETATM    6  C6  UNL     1     -33.339   7.185   4.484  1.00 20.00    -0.062 A 
HETATM    7  C7  UNL     1     -32.569   8.195   3.702  1.00 20.00     0.048 C 
ENDROOT
TORSDOF 0
ENDMDL
MODEL 2
REMARK VINA RESULT:      -5.7      0.012      1.826
REMARK  0 active torsions:
REMARK  status: ('A' for Active; 'I' for Inactive)
ROOT
HETATM    1  C1  UNL     1     -34.776   5.289   5.935  1.00 20.00     0.000 A 
HETATM    2  C2  UNL     1     -34.459   5.048   4.599  1.00 20.00     0.001 A 
HETATM    3  C3  UNL     1     -34.378   6.480   6.543  1.00 20.00     0.001 A 
HETATM    4  C4  UNL     1     -33.744   5.998   3.869  1.00 20.00     0.007 A 
HETATM    5  C5  UNL     1     -33.663   7.430   5.813  1.00 20.00     0.007 A 
HETATM    6  C6  UNL     1     -33.347   7.189   4.477  1.00 20.00    -0.062 A 
HETATM    7  C7  UNL     1     -32.583   8.205   3.697  1.00 20.00     0.048 C 
ENDROOT
TORSDOF 0
ENDMDL
MODEL 3
REMARK VINA RESULT:      -5.6      0.647      2.189
REMARK  0 active torsions:
REMARK  status: ('A' for Active; 'I' for Inactive)
ROOT
HETATM    1  C1  UNL     1     -34.382   6.723   6.420  1.00 20.00     0.000 A 
HETATM    2  C2  UNL     1     -34.728   5.432   6.022  1.00 20.00     0.001 A 
HETATM    3  C3  UNL     1     -33.630   7.537   5.572  1.00 20.00     0.001 A 
HETATM    4  C4  UNL     1     -34.324   4.955   4.775  1.00 20.00     0.007 A 
HETATM    5  C5  UNL     1     -33.225   7.059   4.326  1.00 20.00     0.007 A 
HETATM    6  C6  UNL     1     -33.572   5.769   3.928  1.00 20.00    -0.062 A 
HETATM    7  C7  UNL     1     -33.139   5.259   2.594  1.00 20.00     0.048 C 
ENDROOT
TORSDOF 0
ENDMDL
MODEL 4
REMARK VINA RESULT:      -5.6      0.648      1.876
REMARK  0 active torsions:
REMARK  status: ('A' for Active; 'I' for Inactive)
ROOT
HETATM    1  C1  UNL     1     -34.379   6.727   6.418  1.00 20.00     0.000 A 
HETATM    2  C2  UNL     1     -33.628   7.539   5.569  1.00 20.00     0.001 A 
HETATM    3  C3  UNL     1     -34.728   5.436   6.022  1.00 20.00     0.001 A 
HETATM    4  C4  UNL     1     -33.223   7.059   4.323  1.00 20.00     0.007 A 
HETATM    5  C5  UNL     1     -34.324   4.957   4.775  1.00 20.00     0.007 A 
HETATM    6  C6  UNL     1     -33.572   5.768   3.927  1.00 20.00    -0.062 A 
HETATM    7  C7  UNL     1     -33.140   5.255   2.595  1.00 20.00     0.048 C 
ENDROOT
TORSDOF 0
ENDMDL
MODEL 5
REMARK VINA RESULT:      -5.3      0.845      3.343
REMARK  0 active torsions:
REMARK  status: ('A' for Active; 'I' for Inactive)
ROOT
HETATM    1  C1  UNL     1     -32.261   7.626   3.239  1.00 20.00     0.000 A 
HETATM    2  C2  UNL     1     -32.823   6.379   2.965  1.00 20.00     0.001 A 
HETATM    3  C3  UNL     1     -32.544   8.269   4.445  1.00 20.00     0.001 A 
HETATM    4  C4  UNL     1     -33.667   5.774   3.897  1.00 20.00     0.007 A 
HETATM    5  C5  UNL     1     -33.389   7.664   5.376  1.00 20.00     0.007 A 
HETATM    6  C6  UNL     1     -33.949   6.417   5.102  1.00 20.00    -0.062 A 
HETATM    7  C7  UNL     1     -34.852   5.771   6.098  1.00 20.00     0.048 C 
ENDROOT
TORSDOF 0
ENDMDL
MODEL 6
REMARK VINA RESULT:      -5.3      0.840      2.819
REMARK  0 active torsions:
REMARK  status: ('A' for Active; 'I' for Inactive)
ROOT
HETATM    1  C1  UNL     1     -32.286   7.632   3.241  1.00 20.00     0.000 A 
HETATM    2  C2  UNL     1     -32.550   8.271   4.451  1.00 20.00     0.001 A 
HETATM    3  C3  UNL     1     -32.847   6.383   2.974  1.00 20.00     0.001 A 
HETATM    4  C4  UNL     1     -33.379   7.663   5.395  1.00 20.00     0.007 A 
HETATM    5  C5  UNL     1     -33.674   5.774   3.918  1.00 20.00     0.007 A 
HETATM    6  C6  UNL     1     -33.940   6.415   5.128  1.00 20.00    -0.062 A 
HETATM    7  C7  UNL     1     -34.825   5.764   6.137  1.00 20.00     0.048 C 
ENDROOT
TORSDOF 0
ENDMDL
MODEL 7
REMARK VINA RESULT:      -5.0      1.165      2.709
REMARK  0 active torsions:
REMARK  status: ('A' for Active; 'I' for Inactive)
ROOT
HETATM    1  C1  UNL     1     -33.246   8.382   5.250  1.00 20.00     0.000 A 
HETATM    2  C2  UNL     1     -34.020   7.238   5.436  1.00 20.00     0.001 A 
HETATM    3  C3  UNL     1     -32.374   8.467   4.164  1.00 20.00     0.001 A 
HETATM    4  C4  UNL     1     -33.924   6.177   4.535  1.00 20.00     0.007 A 
HETATM    5  C5  UNL     1     -32.278   7.405   3.264  1.00 20.00     0.007 A 
HETATM    6  C6  UNL     1     -33.053   6.261   3.450  1.00 20.00    -0.062 A 
HETATM    7  C7  UNL     1     -32.951   5.127   2.486  1.00 20.00     0.048 C 
ENDROOT
TORSDOF 0
ENDMDL
MODEL 8
REMARK VINA RESULT:      -5.0      1.039      2.212
REMARK  0 active torsions:
REMARK  status: ('A' for Active; 'I' for Inactive)
ROOT
HETATM    1  C1  UNL     1     -34.051   5.018   3.718  1.00 20.00     0.000 A 
HETATM    2  C2  UNL     1     -33.054   5.592   2.931  1.00 20.00     0.001 A 
HETATM    3  C3  UNL     1     -34.522   5.688   4.847  1.00 20.00     0.001 A 
HETATM    4  C4  UNL     1     -32.527   6.839   3.272  1.00 20.00     0.007 A 
HETATM    5  C5  UNL     1     -33.995   6.934   5.188  1.00 20.00     0.007 A 
HETATM    6  C6  UNL     1     -32.999   7.508   4.401  1.00 20.00    -0.062 A 
HETATM    7  C7  UNL     1     -32.436   8.841   4.766  1.00 20.00     0.048 C 
ENDROOT
TORSDOF 0
ENDMDL
MODEL 9
REMARK VINA RESULT:      -3.5     12.620     13.152
REMARK  0 active torsions:
REMARK  status: ('A' for Active; 'I' for Inactive)
ROOT
HETATM    1  C1  UNL     1     -32.403  19.262   1.158  1.00 20.00     0.000 A 
HETATM    2  C2  UNL     1     -33.666  18.691   1.007  1.00 20.00     0.001 A 
HETATM    3  C3  UNL     1     -31.430  19.076   0.175  1.00 20.00     0.001 A 
HETATM    4  C4  UNL     1     -33.958  17.935  -0.129  1.00 20.00     0.007 A 
HETATM    5  C5  UNL     1     -31.723  18.319  -0.960  1.00 20.00     0.007 A 
HETATM    6  C6  UNL     1     -32.986  17.750  -1.111  1.00 20.00    -0.062 A 
HETATM    7  C7  UNL     1     -33.298  16.941  -2.326  1.00 20.00     0.048 C 
ENDROOT
TORSDOF 0
ENDMDL
