REMARK  1 active torsions:
REMARK  status: ('A' for Active; 'I' for Inactive)
REMARK    1  A    between atoms: C3_3  and  C8_8 
ROOT
HETATM    1  C1  UNL     1     -34.244   4.267   5.388  1.00 20.00    -0.026 C 
HETATM    2  C2  UNL     1     -34.846   4.957   4.408  1.00 20.00    -0.024 C 
HETATM    3  C4  UNL     1     -35.151   6.155   6.353  1.00 20.00     0.018 C 
HETATM    4  C5  UNL     1     -32.790   6.176   6.009  1.00 20.00     0.029 C 
HETATM    5  C6  UNL     1     -33.929   5.244   6.496  1.00 20.00     0.010 C 
HETATM    6  C7  UNL     1     -34.913   6.400   4.854  1.00 20.00     0.027 C 
HETATM    7  C8  UNL     1     -33.481   6.987   4.876  1.00 20.00     0.052 C 
HETATM    8  C9  UNL     1     -32.733   6.959   3.549  1.00 20.00     0.027 C 
ENDROOT
BRANCH   7   9
HETATM    9  C3  UNL     1     -33.523   8.469   5.233  1.00 20.00     0.182 C 
HETATM   10  O10 UNL     1     -34.549   8.842   5.867  1.00 20.00    -0.647 OA
HETATM   11  O11 UNL     1     -32.522   9.136   4.847  1.00 20.00    -0.647 OA
ENDBRANCH   7   9
TORSDOF 1
