REMARK  0 active torsions:
REMARK  status: ('A' for Active; 'I' for Inactive)
ROOT
HETATM    1  C1  UNL     1     -33.950   7.391   6.400  1.00 20.00     0.029 C 
HETATM    2  C2  UNL     1     -33.951   5.906   6.039  1.00 20.00     0.048 C 
HETATM    3  C3  UNL     1     -33.057   8.175   5.448  1.00 20.00     0.170 C 
HETATM    4  C4  UNL     1     -33.303   6.583   3.706  1.00 20.00     0.255 C 
HETATM    5  C5  UNL     1     -34.229   5.679   4.544  1.00 20.00     0.152 C 
HETATM    6  O6  UNL     1     -33.440   7.953   4.091  1.00 20.00    -0.367 OA
HETATM    7 CL7  UNL     1     -33.604   6.473   1.946  1.00 20.00    -0.092 Cl
HETATM    8 CL8  UNL     1     -33.942   3.947   4.163  1.00 20.00    -0.098 Cl
HETATM    9 CL9  UNL     1     -35.964   6.037   4.209  1.00 20.00    -0.098 Cl
ENDROOT
TORSDOF 0
