REMARK  0 active torsions:
REMARK  status: ('A' for Active; 'I' for Inactive)
ROOT
HETATM    1  C1  UNL     1     -34.792   4.834   5.058  1.00 20.00    -0.030 C 
HETATM    2  C2  UNL     1     -34.889   5.233   6.348  1.00 20.00    -0.029 C 
HETATM    3  C3  UNL     1     -33.473   8.353   4.147  1.00 20.00     0.224 C 
HETATM    4  C4  UNL     1     -34.266   5.725   3.933  1.00 20.00     0.043 C 
HETATM    5  C5  UNL     1     -34.420   6.600   6.846  1.00 20.00     0.053 C 
HETATM    6  C6  UNL     1     -34.338   7.136   4.464  1.00 20.00     0.104 C 
HETATM    7  C7  UNL     1     -33.505   7.119   5.767  1.00 20.00     0.101 C 
HETATM    8  N8  UNL     1     -33.285   8.532   5.503  1.00 20.00    -0.355 N 
HETATM    9  O9  UNL     1     -33.130   8.979   3.174  1.00 20.00    -0.273 OA
HETATM   10  H18 UNL     1     -32.677   9.210   5.945  1.00 20.00     0.162 HD
ENDROOT
TORSDOF 0
