REMARK  1 active torsions:
REMARK  status: ('A' for Active; 'I' for Inactive)
REMARK    1  A    between atoms: C8_8  and  N9_9 
ROOT
HETATM    1  C1  UNL     1     -32.531   8.139   2.886  1.00 20.00     0.158 C 
HETATM    2  N9  UNL     1     -33.436   8.071   3.632  1.00 20.00    -0.270 NA
HETATM    3  S10 UNL     1     -31.316   8.256   1.863  1.00 20.00    -0.055 SA
ENDROOT
BRANCH   2   4
HETATM    4  C8  UNL     1     -33.426   6.897   4.507  1.00 20.00     0.118 C 
HETATM    5  C5  UNL     1     -33.543   5.600   3.656  1.00 20.00     0.036 C 
HETATM    6  C6  UNL     1     -34.864   4.979   4.164  1.00 20.00     0.010 C 
HETATM    7  C2  UNL     1     -34.668   4.580   5.609  1.00 20.00    -0.026 C 
HETATM    8  C4  UNL     1     -35.717   6.231   4.379  1.00 20.00     0.019 C 
HETATM    9  C3  UNL     1     -34.584   5.711   6.325  1.00 20.00    -0.024 C 
HETATM   10  C7  UNL     1     -34.717   6.863   5.356  1.00 20.00     0.033 C 
ENDBRANCH   2   4
TORSDOF 1
