REMARK  0 active torsions:
REMARK  status: ('A' for Active; 'I' for Inactive)
ROOT
HETATM    1  C1  UNL     1     -34.151   6.342   4.397  1.00 20.00     0.056 A 
HETATM    2  C2  UNL     1     -33.175   6.132   3.445  1.00 20.00     0.077 A 
HETATM    3  C3  UNL     1     -32.885   8.079   4.834  1.00 20.00     0.072 A 
HETATM    4  C4  UNL     1     -35.340   5.497   4.641  1.00 20.00     0.072 C 
HETATM    5  C5  UNL     1     -32.379   9.318   5.463  1.00 20.00     0.079 C 
HETATM    6  N6  UNL     1     -33.986   7.458   5.195  1.00 20.00    -0.249 NA
HETATM    7  S7  UNL     1     -32.000   7.377   3.543  1.00 20.00    -0.066 SA
HETATM    8 BR8  UNL     1     -33.105   4.705   2.202  1.00 20.00    -0.041 Br
ENDROOT
TORSDOF 0
