REMARK  2 active torsions:
REMARK  status: ('A' for Active; 'I' for Inactive)
REMARK    1  A    between atoms: C3_3  and  C5_5 
REMARK    2  A    between atoms: C5_5  and  C6_6 
ROOT
HETATM    1  C1  UNL     1     -34.279   5.918   6.604  1.00 20.00     0.179 C 
HETATM    2  C2  UNL     1     -34.302   4.628   5.804  1.00 20.00     0.103 C 
HETATM    3  C3  UNL     1     -34.094   6.874   4.503  1.00 20.00     0.182 C 
HETATM    4  O7  UNL     1     -33.570   6.899   5.838  1.00 20.00    -0.375 OA
HETATM    5  S8  UNL     1     -34.682   5.198   4.139  1.00 20.00    -0.135 SA
ENDROOT
BRANCH   3   6
HETATM    6  C5  UNL     1     -33.000   7.297   3.540  1.00 20.00     0.042 C 
BRANCH   6   7
HETATM    7  C6  UNL     1     -32.820   8.815   3.526  1.00 20.00    -0.001 C 
HETATM    8  C4  UNL     1     -32.470   9.349   4.905  1.00 20.00     0.005 C 
ENDBRANCH   6   7
ENDBRANCH   3   6
TORSDOF 2
