REMARK  1 active torsions:
REMARK  status: ('A' for Active; 'I' for Inactive)
REMARK    1  A    between atoms: C4_4  and  C5_5 
ROOT
HETATM    1  C1  UNL     1     -34.371   5.038   6.476  1.00 20.00     0.029 C 
HETATM    2  C2  UNL     1     -33.790   6.429   6.443  1.00 20.00     0.035 C 
HETATM    3  C3  UNL     1     -34.466   4.703   5.003  1.00 20.00     0.168 C 
HETATM    4  C4  UNL     1     -34.494   7.022   5.235  1.00 20.00     0.131 C 
HETATM    5  O6  UNL     1     -34.673   5.940   4.305  1.00 20.00    -0.385 OA
ENDROOT
BRANCH   4   6
HETATM    6  C5  UNL     1     -33.719   8.146   4.574  1.00 20.00     0.117 C 
HETATM    7 BR7  UNL     1     -31.975   7.500   4.014  1.00 20.00    -0.094 Br
ENDBRANCH   4   6
TORSDOF 1
