REMARK  0 active torsions:
REMARK  status: ('A' for Active; 'I' for Inactive)
ROOT
HETATM    1  C1  UNL     1     -32.180   7.610   2.625  1.00 20.00     0.136 A 
HETATM    2  C2  UNL     1     -32.473   6.324   2.241  1.00 20.00     0.136 A 
HETATM    3  C3  UNL     1     -33.221   7.253   4.644  1.00 20.00     0.059 A 
HETATM    4  C4  UNL     1     -33.508   5.947   4.260  1.00 20.00     0.059 A 
HETATM    5  C5  UNL     1     -33.585   7.776   6.006  1.00 20.00     0.061 C 
HETATM    6  C6  UNL     1     -34.296   5.017   5.138  1.00 20.00     0.061 C 
HETATM    7  C7  UNL     1     -34.660   6.943   6.701  1.00 20.00     0.006 C 
HETATM    8  C8  UNL     1     -34.331   5.458   6.600  1.00 20.00     0.006 C 
HETATM    9  N9  UNL     1     -32.544   8.093   3.828  1.00 20.00    -0.262 NA
HETATM   10  N10 UNL     1     -33.141   5.476   3.045  1.00 20.00    -0.262 NA
ENDROOT
TORSDOF 0
