REMARK  0 active torsions:
REMARK  status: ('A' for Active; 'I' for Inactive)
ROOT
HETATM    1  C1  UNL     1     -32.590   7.368   2.445  1.00 20.00     0.075 C 
HETATM    2  C2  UNL     1     -34.613   5.966   6.283  1.00 20.00     0.084 C 
HETATM    3  C3  UNL     1     -34.273   4.887   5.266  1.00 20.00     0.085 C 
HETATM    4  C4  UNL     1     -33.207   7.819   4.779  1.00 20.00     0.104 C 
HETATM    5  C5  UNL     1     -32.858   6.741   3.751  1.00 20.00     0.163 C 
HETATM    6  N6  UNL     1     -32.380   7.862   1.416  1.00 20.00    -0.196 NA
HETATM    7  S7  UNL     1     -33.280   7.185   6.483  1.00 20.00    -0.166 SA
HETATM    8  S8  UNL     1     -34.209   5.521   3.564  1.00 20.00    -0.148 SA
ENDROOT
TORSDOF 0
