REMARK  0 active torsions:
REMARK  status: ('A' for Active; 'I' for Inactive)
ROOT
HETATM    1  C1  UNL     1     -33.915   5.754   6.849  1.00 20.00     0.197 C 
HETATM    2  C2  UNL     1     -33.293   7.060   6.438  1.00 20.00     0.197 C 
HETATM    3  C3  UNL     1     -34.315   6.117   4.647  1.00 20.00     0.156 C 
HETATM    4  C4  UNL     1     -35.785   6.139   4.247  1.00 20.00     0.078 C 
HETATM    5  C5  UNL     1     -33.417   5.863   3.443  1.00 20.00     0.078 C 
HETATM    6  O6  UNL     1     -34.100   5.072   5.609  1.00 20.00    -0.354 OA
HETATM    7  O7  UNL     1     -33.979   7.387   5.230  1.00 20.00    -0.354 OA
ENDROOT
TORSDOF 0
