REMARK  0 active torsions:
REMARK  status: ('A' for Active; 'I' for Inactive)
ROOT
HETATM    1  C1  UNL     1     -32.602   8.538   3.956  1.00 20.00     0.038 A 
HETATM    2  C2  UNL     1     -33.430   6.324   3.508  1.00 20.00     0.058 A 
HETATM    3  C3  UNL     1     -33.017   8.369   5.267  1.00 20.00     0.119 A 
HETATM    4  C4  UNL     1     -32.817   7.491   3.066  1.00 20.00     0.015 A 
HETATM    5  C5  UNL     1     -33.808   6.254   4.839  1.00 20.00     0.104 A 
HETATM    6  N6  UNL     1     -33.616   7.250   5.734  1.00 20.00    -0.254 NA
HETATM    7 BR7  UNL     1     -32.274   7.655   1.264  1.00 20.00    -0.051 Br
HETATM    8 BR8  UNL     1     -34.647   4.670   5.466  1.00 20.00    -0.029 Br
ENDROOT
TORSDOF 0
