REMARK  0 active torsions:
REMARK  status: ('A' for Active; 'I' for Inactive)
ROOT
HETATM    1  C1  UNL     1     -34.296   4.958   6.403  1.00 20.00    -0.028 C 
HETATM    2  C2  UNL     1     -34.188   4.474   5.162  1.00 20.00    -0.023 C 
HETATM    3  C3  UNL     1     -32.851   6.915   3.632  1.00 20.00     0.259 C 
HETATM    4  C4  UNL     1     -34.832   6.353   6.411  1.00 20.00     0.060 C 
HETATM    5  C5  UNL     1     -33.638   5.775   3.057  1.00 20.00     0.122 C 
HETATM    6  C6  UNL     1     -34.651   5.464   4.135  1.00 20.00     0.047 C 
HETATM    7  C7  UNL     1     -34.743   6.753   4.938  1.00 20.00     0.143 C 
HETATM    8  O8  UNL     1     -31.791   7.332   3.192  1.00 20.00    -0.265 OA
HETATM    9  O9  UNL     1     -33.509   7.451   4.700  1.00 20.00    -0.315 OA
ENDROOT
TORSDOF 0
