REMARK  0 active torsions:
REMARK  status: ('A' for Active; 'I' for Inactive)
ROOT
HETATM    1  C1  UNL     1     -34.276   4.695   6.141  1.00 20.00     0.006 C 
HETATM    2  C2  UNL     1     -35.102   4.869   4.864  1.00 20.00     0.006 C 
HETATM    3  C3  UNL     1     -33.786   6.089   6.522  1.00 20.00     0.068 C 
HETATM    4  C4  UNL     1     -35.058   6.357   4.529  1.00 20.00     0.068 C 
HETATM    5  C5  UNL     1     -31.851   7.695   4.400  1.00 20.00     0.197 C 
HETATM    6  C6  UNL     1     -32.871   8.795   4.508  1.00 20.00     0.197 C 
HETATM    7  C7  UNL     1     -33.788   6.857   5.206  1.00 20.00     0.164 C 
HETATM    8  O8  UNL     1     -32.643   6.509   4.417  1.00 20.00    -0.353 OA
HETATM    9  O9  UNL     1     -33.826   8.266   5.427  1.00 20.00    -0.353 OA
ENDROOT
TORSDOF 0
