REMARK  0 active torsions:
REMARK  status: ('A' for Active; 'I' for Inactive)
ROOT
HETATM    1  C1  UNL     1     -34.895   4.922   6.219  1.00 20.00     0.000 C 
HETATM    2  C2  UNL     1     -34.790   6.236   6.822  1.00 20.00     0.017 C 
HETATM    3  C3  UNL     1     -34.555   4.729   4.931  1.00 20.00     0.010 C 
HETATM    4  C4  UNL     1     -34.146   7.210   6.158  1.00 20.00     0.092 C 
HETATM    5  C5  UNL     1     -31.972   7.021   3.279  1.00 20.00     0.072 C 
HETATM    6  C6  UNL     1     -32.540   7.677   4.308  1.00 20.00     0.015 C 
HETATM    7  C7  UNL     1     -34.114   5.879   4.070  1.00 20.00     0.178 C 
HETATM    8  C8  UNL     1     -32.034   8.979   4.836  1.00 20.00     0.069 C 
HETATM    9  N9  UNL     1     -33.630   7.018   4.888  1.00 20.00    -0.343 N 
HETATM   10  S10 UNL     1     -32.723   5.480   2.946  1.00 20.00    -0.110 SA
ENDROOT
TORSDOF 0
