REMARK  3 active torsions:
REMARK  status: ('A' for Active; 'I' for Inactive)
REMARK    1  A    between atoms: C2_2  and  C5_5 
REMARK    2  A    between atoms: C2_2  and  O10_10 
REMARK    3  A    between atoms: C7_7  and  O10_10 
ROOT
HETATM    1  C1  UNL     1     -32.188   7.562   2.369  1.00 20.00     0.065 C 
HETATM    2  C3  UNL     1     -32.290   8.495   4.717  1.00 20.00     0.036 A 
HETATM    3  C4  UNL     1     -32.273   7.319   3.779  1.00 20.00     0.107 A 
HETATM    4  C5  UNL     1     -33.545   7.692   4.503  1.00 20.00     0.104 A 
HETATM    5  N8  UNL     1     -32.119   7.759   1.227  1.00 20.00    -0.197 NA
ENDROOT
BRANCH   4   6
HETATM    6  C2  UNL     1     -34.034   6.825   5.582  1.00 20.00     0.264 C 
HETATM    7  O9  UNL     1     -33.772   6.989   6.766  1.00 20.00    -0.265 OA
BRANCH   6   8
HETATM    8  O10 UNL     1     -34.807   5.833   5.054  1.00 20.00    -0.322 OA
BRANCH   8   9
HETATM    9  C7  UNL     1     -34.347   4.500   5.298  1.00 20.00     0.174 C 
HETATM   10  C6  UNL     1     -34.082   3.819   3.972  1.00 20.00     0.034 C 
ENDBRANCH   8   9
ENDBRANCH   6   8
ENDBRANCH   4   6
TORSDOF 3
