REMARK  0 active torsions:
REMARK  status: ('A' for Active; 'I' for Inactive)
ROOT
HETATM    1  C1  UNL     1     -33.528   5.513   3.956  1.00 20.00     0.226 C 
HETATM    2  C2  UNL     1     -34.303   7.231   5.417  1.00 20.00     0.043 C 
HETATM    3  C3  UNL     1     -33.546   7.858   4.250  1.00 20.00     0.081 C 
HETATM    4  C4  UNL     1     -34.676   5.823   4.910  1.00 20.00     0.035 C 
HETATM    5  C5  UNL     1     -32.533   8.900   4.688  1.00 20.00     0.032 C 
HETATM    6  C6  UNL     1     -35.990   5.837   4.122  1.00 20.00     0.025 C 
HETATM    7  C7  UNL     1     -34.743   4.809   6.048  1.00 20.00     0.025 C 
HETATM    8  N8  UNL     1     -32.930   6.722   3.614  1.00 20.00    -0.356 N 
HETATM    9  O9  UNL     1     -33.224   4.405   3.539  1.00 20.00    -0.273 OA
HETATM   10  H22 UNL     1     -32.139   6.796   2.981  1.00 20.00     0.162 HD
ENDROOT
TORSDOF 0
