REMARK  0 active torsions:
REMARK  status: ('A' for Active; 'I' for Inactive)
ROOT
HETATM    1  C1  UNL     1     -33.019   8.315   3.566  1.00 20.00     0.089 A 
HETATM    2  C2  UNL     1     -32.767   6.157   2.375  1.00 20.00     0.089 A 
HETATM    3  C3  UNL     1     -33.561   7.260   4.257  1.00 20.00     0.109 A 
HETATM    4  C4  UNL     1     -33.392   6.024   3.590  1.00 20.00     0.109 A 
HETATM    5  C5  UNL     1     -34.919   6.215   5.782  1.00 20.00     0.202 C 
HETATM    6  C6  UNL     1     -34.124   4.943   5.477  1.00 20.00     0.202 C 
HETATM    7  O7  UNL     1     -34.172   7.400   5.457  1.00 20.00    -0.346 OA
HETATM    8  O8  UNL     1     -33.814   4.833   4.077  1.00 20.00    -0.346 OA
HETATM    9  S9  UNL     1     -32.343   7.795   2.073  1.00 20.00    -0.108 SA
ENDROOT
TORSDOF 0
