REMARK  2 active torsions:
REMARK  status: ('A' for Active; 'I' for Inactive)
REMARK    1  A    between atoms: C5_5  and  C6_6 
REMARK    2  A    between atoms: C6_6  and  N8_8 
ROOT
HETATM    1  C1  UNL     1     -34.266   5.494   6.517  1.00 20.00     0.135 A 
HETATM    2  C2  UNL     1     -34.077   6.849   6.375  1.00 20.00     0.111 A 
HETATM    3  C3  UNL     1     -34.201   5.843   4.418  1.00 20.00     0.209 A 
HETATM    4  N7  UNL     1     -34.342   4.874   5.295  1.00 20.00    -0.255 NA
HETATM    5  N8  UNL     1     -34.037   7.057   5.025  1.00 20.00    -0.350 N 
ENDROOT
BRANCH   5   6
HETATM    6  C6  UNL     1     -33.855   8.340   4.354  1.00 20.00     0.129 C 
BRANCH   6   7
HETATM    7  C5  UNL     1     -32.432   8.514   3.827  1.00 20.00     0.016 C 
HETATM    8  C4  UNL     1     -32.081   7.436   2.815  1.00 20.00     0.006 C 
ENDBRANCH   6   7
ENDBRANCH   5   6
TORSDOF 2
