REMARK  0 active torsions:
REMARK  status: ('A' for Active; 'I' for Inactive)
ROOT
HETATM    1  C1  UNL     1     -33.198   8.292   4.351  1.00 20.00    -0.007 C 
HETATM    2  C2  UNL     1     -33.106   7.230   3.542  1.00 20.00     0.008 C 
HETATM    3  C3  UNL     1     -33.972   8.284   5.634  1.00 20.00     0.035 C 
HETATM    4  C4  UNL     1     -33.756   5.910   3.822  1.00 20.00     0.058 C 
HETATM    5  C5  UNL     1     -33.529   6.059   6.859  1.00 20.00     0.172 C 
HETATM    6  C6  UNL     1     -34.956   4.655   5.655  1.00 20.00     0.172 C 
HETATM    7  C7  UNL     1     -34.499   6.914   6.054  1.00 20.00     0.019 C 
HETATM    8  C8  UNL     1     -34.849   5.977   4.909  1.00 20.00     0.021 C 
HETATM    9  O9  UNL     1     -33.967   4.698   6.700  1.00 20.00    -0.390 OA
HETATM   10 CL10 UNL     1     -32.185   7.319   2.081  1.00 20.00    -0.089 Cl
ENDROOT
TORSDOF 0
