REMARK  1 active torsions:
REMARK  status: ('A' for Active; 'I' for Inactive)
REMARK    1  A    between atoms: C3_3  and  O11_11 
ROOT
HETATM    1  C1  UNL     1     -33.426   5.986   3.465  1.00 20.00    -0.019 A 
HETATM    2  C2  UNL     1     -32.773   7.214   3.472  1.00 20.00    -0.029 A 
HETATM    3  C3  UNL     1     -34.140   5.577   4.585  1.00 20.00     0.096 A 
HETATM    4  C4  UNL     1     -32.865   7.990   4.616  1.00 20.00     0.037 A 
HETATM    5  C5  UNL     1     -34.171   6.426   5.680  1.00 20.00     0.064 A 
HETATM    6  C6  UNL     1     -33.363   5.104   2.259  1.00 20.00     0.052 C 
HETATM    7  C7  UNL     1     -31.999   7.679   2.285  1.00 20.00     0.051 C 
HETATM    8  C8  UNL     1     -32.186   9.318   4.683  1.00 20.00     0.071 C 
HETATM    9  C9  UNL     1     -34.923   6.037   6.910  1.00 20.00     0.073 C 
HETATM   10  N10 UNL     1     -33.549   7.626   5.724  1.00 20.00    -0.255 NA
ENDROOT
BRANCH   3  11
HETATM   11  O11 UNL     1     -34.787   4.382   4.606  1.00 20.00    -0.358 OA
HETATM   12  H24 UNL     1     -35.233   4.254   5.459  1.00 20.00     0.217 HD
ENDBRANCH   3  11
TORSDOF 1
