REMARK  0 active torsions:
REMARK  status: ('A' for Active; 'I' for Inactive)
ROOT
HETATM    1  C1  UNL     1     -33.651   7.729   4.367  1.00 20.00    -0.017 C 
HETATM    2  C2  UNL     1     -32.903   6.824   3.433  1.00 20.00     0.155 C 
HETATM    3  C3  UNL     1     -33.398   9.039   4.434  1.00 20.00     0.023 C 
HETATM    4  C4  UNL     1     -33.272   5.347   3.540  1.00 20.00     0.089 C 
HETATM    5  C5  UNL     1     -35.555   6.096   4.361  1.00 20.00     0.016 C 
HETATM    6  C6  UNL     1     -34.697   7.085   5.227  1.00 20.00     0.030 C 
HETATM    7  C7  UNL     1     -34.382   5.089   4.580  1.00 20.00     0.002 C 
HETATM    8  C8  UNL     1     -34.179   5.788   5.991  1.00 20.00    -0.036 C 
HETATM    9  C9  UNL     1     -35.120   5.283   7.102  1.00 20.00     0.016 C 
HETATM   10  C10 UNL     1     -32.756   5.812   6.562  1.00 20.00     0.016 C 
HETATM   11  O11 UNL     1     -32.054   7.233   2.647  1.00 20.00    -0.293 OA
ENDROOT
TORSDOF 0
