REMARK  1 active torsions:
REMARK  status: ('A' for Active; 'I' for Inactive)
REMARK    1  A    between atoms: C3_3  and  N6_6 
ROOT
HETATM    1  C1  UNL     1     -33.704   8.183   4.291  1.00 20.00     0.123 C 
HETATM    2  C2  UNL     1     -34.765   5.923   3.494  1.00 20.00     0.123 C 
HETATM    3  C3  UNL     1     -34.496   6.907   4.654  1.00 20.00     0.242 C 
HETATM    4  S7  UNL     1     -31.998   7.904   3.705  1.00 20.00    -0.084 SA
HETATM    5  S8  UNL     1     -33.279   5.176   2.741  1.00 20.00    -0.084 SA
HETATM    6  S9  UNL     1     -32.386   6.856   1.993  1.00 20.00    -0.025 SA
ENDROOT
BRANCH   3   7
HETATM    7  N6  UNL     1     -33.874   6.215   5.788  1.00 20.00     0.086 N 
HETATM    8  C4  UNL     1     -34.632   5.012   6.120  1.00 20.00     0.310 C 
HETATM    9  C5  UNL     1     -33.792   7.109   6.939  1.00 20.00     0.310 C 
ENDBRANCH   3   7
TORSDOF 1
