REMARK  1 active torsions:
REMARK  status: ('A' for Active; 'I' for Inactive)
REMARK    1  A    between atoms: C4_4  and  C6_6 
REMARK       I    between atoms: C4_4  and  N8_8 
ROOT
HETATM    1  C1  UNL     1     -34.714   4.960   6.418  1.00 20.00     0.135 A 
HETATM    2  C2  UNL     1     -34.159   4.603   5.212  1.00 20.00     0.120 A 
HETATM    3  C3  UNL     1     -34.083   6.776   5.519  1.00 20.00     0.216 A 
HETATM    4  C4  UNL     1     -33.123   5.970   3.391  1.00 20.00     0.228 C 
HETATM    5  N7  UNL     1     -34.663   6.312   6.603  1.00 20.00    -0.254 NA
HETATM    6  N8  UNL     1     -33.749   5.779   4.626  1.00 20.00    -0.286 N 
HETATM    7  O9  UNL     1     -32.878   4.999   2.689  1.00 20.00    -0.273 OA
ENDROOT
BRANCH   4   8
HETATM    8  C6  UNL     1     -32.802   7.390   3.039  1.00 20.00     0.099 C 
HETATM    9  C5  UNL     1     -32.098   7.453   1.701  1.00 20.00     0.014 C 
ENDBRANCH   4   8
TORSDOF 1
