REMARK  2 active torsions:
REMARK  status: ('A' for Active; 'I' for Inactive)
REMARK    1  A    between atoms: C3_3  and  C10_10 
REMARK    2  A    between atoms: C5_5  and  C10_10 
ROOT
HETATM    1  C1  UNL     1     -33.669   7.309   6.481  1.00 20.00    -0.023 C 
HETATM    2  C2  UNL     1     -33.908   6.061   6.054  1.00 20.00    -0.079 C 
HETATM    3  C4  UNL     1     -33.785   8.308   5.378  1.00 20.00     0.033 C 
HETATM    4  C5  UNL     1     -33.707   7.431   4.113  1.00 20.00     0.007 C 
HETATM    5  C6  UNL     1     -34.234   6.031   4.572  1.00 20.00    -0.021 C 
HETATM    6  C7  UNL     1     -33.921   4.843   6.911  1.00 20.00     0.044 C 
HETATM    7  C8  UNL     1     -35.761   5.955   4.380  1.00 20.00     0.020 C 
HETATM    8  C9  UNL     1     -33.585   4.852   3.836  1.00 20.00     0.020 C 
ENDROOT
BRANCH   4   9
HETATM    9  C10 UNL     1     -32.271   7.437   3.568  1.00 20.00     0.075 C 
BRANCH   9  10
HETATM   10  C3  UNL     1     -32.207   7.063   2.110  1.00 20.00     0.231 C 
HETATM   11  O11 UNL     1     -33.178   6.802   1.408  1.00 20.00    -0.307 OA
ENDBRANCH   9  10
ENDBRANCH   4   9
TORSDOF 2
