REMARK  2 active torsions:
REMARK  status: ('A' for Active; 'I' for Inactive)
REMARK    1  A    between atoms: C2_2  and  C4_4 
REMARK    2  A    between atoms: C4_4  and  O5_5 
ROOT
HETATM    1  C1  UNL     1     -34.730   8.150   4.921  1.00 20.00     0.052 A 
HETATM    2  C2  UNL     1     -34.032   7.368   6.000  1.00 20.00     0.051 A 
HETATM    3  C3  UNL     1     -33.372   7.551   4.652  1.00 20.00     0.119 A 
HETATM    4 CL6  UNL     1     -33.268   6.211   3.518  1.00 20.00    -0.101 Cl
HETATM    5 CL7  UNL     1     -31.995   8.649   4.558  1.00 20.00    -0.101 Cl
ENDROOT
BRANCH   2   6
HETATM    6  C4  UNL     1     -34.592   6.063   6.454  1.00 20.00     0.172 C 
BRANCH   6   7
HETATM    7  O5  UNL     1     -35.090   5.332   5.333  1.00 20.00    -0.400 OA
HETATM    8  H13 UNL     1     -35.440   4.499   5.683  1.00 20.00     0.209 HD
ENDBRANCH   6   7
ENDBRANCH   2   6
TORSDOF 2
