REMARK  1 active torsions:
REMARK  status: ('A' for Active; 'I' for Inactive)
REMARK    1  A    between atoms: C1_1  and  C10_10 
ROOT
HETATM    1  C2  UNL     1     -35.335   5.580   6.345  1.00 20.00     0.009 C 
HETATM    2  C3  UNL     1     -32.833   5.252   6.299  1.00 20.00     0.010 C 
HETATM    3  C4  UNL     1     -34.155   4.770   4.267  1.00 20.00     0.010 C 
HETATM    4  C5  UNL     1     -33.630   7.441   6.299  1.00 20.00     0.022 C 
HETATM    5  C6  UNL     1     -34.954   6.960   4.265  1.00 20.00     0.022 C 
HETATM    6  C7  UNL     1     -33.969   6.077   6.905  1.00 20.00    -0.013 C 
HETATM    7  C8  UNL     1     -35.347   5.576   4.787  1.00 20.00    -0.013 C 
HETATM    8  C9  UNL     1     -32.983   5.603   4.810  1.00 20.00     0.002 C 
HETATM    9  C10 UNL     1     -33.528   7.075   4.812  1.00 20.00     0.024 C 
ENDROOT
BRANCH   9  10
HETATM   10  C1  UNL     1     -32.672   8.029   4.045  1.00 20.00     0.132 C 
HETATM   11  C11 UNL     1     -32.509   7.760   2.574  1.00 20.00     0.091 C 
HETATM   12  O12 UNL     1     -32.129   8.990   4.589  1.00 20.00    -0.298 OA
ENDBRANCH   9  10
TORSDOF 1
