REMARK  1 active torsions:
REMARK  status: ('A' for Active; 'I' for Inactive)
REMARK    1  A    between atoms: C11_11  and  C12_12 
ROOT
HETATM    1  C1  UNL     1     -32.373   8.746   3.259  1.00 20.00     0.059 C 
HETATM    2  C12 UNL     1     -32.034   8.187   4.560  1.00 20.00     0.133 C 
HETATM    3  N13 UNL     1     -32.614   9.213   2.225  1.00 20.00    -0.197 NA
ENDROOT
BRANCH   2   4
HETATM    4  C11 UNL     1     -33.116   7.131   4.804  1.00 20.00    -0.027 C 
HETATM    5  C5  UNL     1     -33.078   6.058   3.691  1.00 20.00     0.015 C 
HETATM    6  C8  UNL     1     -34.164   4.995   3.932  1.00 20.00    -0.013 C 
HETATM    7  C2  UNL     1     -33.922   4.324   5.295  1.00 20.00     0.009 C 
HETATM    8  C3  UNL     1     -35.544   5.673   3.939  1.00 20.00     0.009 C 
HETATM    9  C9  UNL     1     -33.976   5.375   6.416  1.00 20.00    -0.013 C 
HETATM   10  C4  UNL     1     -35.357   6.052   6.411  1.00 20.00     0.009 C 
HETATM   11  C6  UNL     1     -32.891   6.437   6.168  1.00 20.00     0.015 C 
HETATM   12  C10 UNL     1     -35.606   6.730   5.054  1.00 20.00    -0.013 C 
HETATM   13  C7  UNL     1     -34.516   7.789   4.809  1.00 20.00     0.015 C 
ENDBRANCH   2   4
TORSDOF 1
