REMARK  1 active torsions:
REMARK  status: ('A' for Active; 'I' for Inactive)
REMARK    1  A    between atoms: C5_5  and  C6_6 
ROOT
HETATM    1  C1  UNL     1     -33.157   4.941   2.634  1.00 20.00     0.014 C 
HETATM    2  C2  UNL     1     -33.605   5.443   3.629  1.00 20.00    -0.091 C 
HETATM    3  C4  UNL     1     -35.568   6.595   4.556  1.00 20.00     0.046 C 
HETATM    4  C6  UNL     1     -34.160   6.063   4.846  1.00 20.00     0.095 C 
HETATM    5 CL7  UNL     1     -34.300   4.770   6.084  1.00 20.00    -0.105 Cl
ENDROOT
BRANCH   4   6
HETATM    6  C5  UNL     1     -33.264   7.211   5.358  1.00 20.00     0.034 C 
HETATM    7  C3  UNL     1     -33.050   8.369   4.386  1.00 20.00     0.008 C 
ENDBRANCH   4   6
TORSDOF 1
