REMARK  2 active torsions:
REMARK  status: ('A' for Active; 'I' for Inactive)
REMARK    1  A    between atoms: C1_1  and  C7_7 
REMARK    2  A    between atoms: C7_7  and  S10_10 
ROOT
HETATM    1  C1  UNL     1     -33.045   7.328   3.932  1.00 20.00     0.009 A 
HETATM    2  C2  UNL     1     -33.099   8.072   5.123  1.00 20.00     0.068 A 
HETATM    3  C3  UNL     1     -33.703   6.168   4.242  1.00 20.00     0.084 A 
HETATM    4  C4  UNL     1     -32.549   9.413   5.381  1.00 20.00     0.073 C 
HETATM    5  C5  UNL     1     -34.028   4.947   3.493  1.00 20.00     0.079 C 
HETATM    6  N8  UNL     1     -33.742   7.423   6.098  1.00 20.00    -0.133 NA
HETATM    7  O9  UNL     1     -34.124   6.212   5.532  1.00 20.00    -0.217 OA
ENDROOT
BRANCH   1   8
HETATM    8  C7  UNL     1     -32.414   7.710   2.621  1.00 20.00     0.116 C 
BRANCH   8   9
HETATM    9  S10 UNL     1     -33.421   8.894   1.699  1.00 20.00    -0.169 SA
HETATM   10  C6  UNL     1     -32.355   9.084   0.250  1.00 20.00     0.090 C 
ENDBRANCH   8   9
ENDBRANCH   1   8
TORSDOF 2
