REMARK  1 active torsions:
REMARK  status: ('A' for Active; 'I' for Inactive)
REMARK    1  A    between atoms: C4_4  and  C7_7 
ROOT
HETATM    1  C1  UNL     1     -32.688   9.098   4.092  1.00 20.00     0.015 A 
HETATM    2  C2  UNL     1     -32.983   8.433   5.283  1.00 20.00     0.008 A 
HETATM    3  C3  UNL     1     -33.115   7.078   2.803  1.00 20.00     0.022 A 
HETATM    4  C4  UNL     1     -32.754   8.426   2.861  1.00 20.00     0.002 A 
HETATM    5  C5  UNL     1     -33.353   7.100   5.216  1.00 20.00    -0.052 A 
HETATM    6  C6  UNL     1     -33.418   6.430   3.989  1.00 20.00    -0.051 A 
HETATM    7  C8  UNL     1     -33.675   6.174   6.346  1.00 20.00     0.039 C 
HETATM    8  C9  UNL     1     -33.789   4.994   4.185  1.00 20.00     0.039 C 
HETATM    9  C10 UNL     1     -34.380   5.030   5.602  1.00 20.00     0.009 C 
ENDROOT
BRANCH   4  10
HETATM   10  C7  UNL     1     -32.435   9.139   1.634  1.00 20.00     0.269 C 
HETATM   11  O11 UNL     1     -32.471   8.612   0.519  1.00 20.00    -0.301 OA
ENDBRANCH   4  10
TORSDOF 1
