REMARK  1 active torsions:
REMARK  status: ('A' for Active; 'I' for Inactive)
REMARK    1  A    between atoms: C5_5  and  C7_7 
ROOT
HETATM    1  C1  UNL     1     -32.847   7.239   4.921  1.00 20.00     0.010 C 
HETATM    2  C2  UNL     1     -33.492   6.939   6.308  1.00 20.00    -0.004 A 
HETATM    3  C3  UNL     1     -33.704   6.312   4.007  1.00 20.00    -0.004 A 
HETATM    4  C4  UNL     1     -34.956   6.615   6.077  1.00 20.00    -0.000 A 
HETATM    5  C5  UNL     1     -33.979   5.502   6.290  1.00 20.00    -0.000 A 
HETATM    6  C6  UNL     1     -35.090   6.217   4.615  1.00 20.00    -0.000 A 
HETATM    7  C7  UNL     1     -34.114   5.104   4.828  1.00 20.00    -0.000 A 
ENDROOT
TORSDOF 1
