REMARK  2 active torsions:
REMARK  status: ('A' for Active; 'I' for Inactive)
REMARK    1  A    between atoms: C3_3  and  C9_9 
REMARK    2  A    between atoms: C4_4  and  C10_10 
ROOT
HETATM    1  C1  UNL     1     -32.951   6.232   3.204  1.00 20.00     0.009 A 
HETATM    2  C2  UNL     1     -33.763   5.294   3.684  1.00 20.00     0.009 A 
HETATM    3  C3  UNL     1     -33.256   7.548   3.837  1.00 20.00     0.076 A 
HETATM    4  C4  UNL     1     -34.695   5.887   4.686  1.00 20.00     0.076 A 
HETATM    5  C5  UNL     1     -33.729   8.575   2.812  1.00 20.00     0.050 C 
HETATM    6  C6  UNL     1     -36.152   5.779   4.241  1.00 20.00     0.050 C 
HETATM    7  O11 UNL     1     -34.347   7.290   4.753  1.00 20.00    -0.362 OA
ENDROOT
BRANCH   3   8
HETATM    8  C9  UNL     1     -32.073   8.079   4.643  1.00 20.00     0.037 C 
HETATM    9  C7  UNL     1     -32.382   9.396   5.276  1.00 20.00     0.008 C 
ENDBRANCH   3   8
BRANCH   4  10
HETATM   10  C10 UNL     1     -34.497   5.280   6.073  1.00 20.00     0.037 C 
HETATM   11  C8  UNL     1     -33.110   5.501   6.580  1.00 20.00     0.008 C 
ENDBRANCH   4  10
TORSDOF 2
