REMARK  2 active torsions:
REMARK  status: ('A' for Active; 'I' for Inactive)
REMARK    1  A    between atoms: C1_1  and  C6_6 
REMARK    2  A    between atoms: C7_7  and  C9_9 
ROOT
HETATM    1  C2  UNL     1     -33.714   8.043   4.663  1.00 20.00     0.015 C 
HETATM    2  C3  UNL     1     -34.214   6.106   3.077  1.00 20.00     0.015 C 
HETATM    3  C4  UNL     1     -32.217   7.817   4.443  1.00 20.00     0.005 C 
HETATM    4  C5  UNL     1     -32.710   5.900   2.882  1.00 20.00     0.005 C 
HETATM    5  C6  UNL     1     -34.568   6.812   4.382  1.00 20.00     0.087 C 
HETATM    6  C7  UNL     1     -31.893   7.181   3.086  1.00 20.00    -0.015 C 
ENDROOT
BRANCH   5   7
HETATM    7  C1  UNL     1     -34.427   5.824   5.529  1.00 20.00     0.177 C 
HETATM    8  O10 UNL     1     -34.157   6.335   6.650  1.00 20.00    -0.648 OA
HETATM    9  O11 UNL     1     -34.598   4.614   5.210  1.00 20.00    -0.648 OA
ENDBRANCH   5   7
BRANCH   6  10
HETATM   10  C9  UNL     1     -32.091   8.170   1.934  1.00 20.00     0.000 C 
HETATM   11  C8  UNL     1     -31.723   7.567   0.619  1.00 20.00     0.005 C 
ENDBRANCH   6  10
TORSDOF 2
