REMARK  1 active torsions:
REMARK  status: ('A' for Active; 'I' for Inactive)
REMARK    1  A    between atoms: C6_6  and  C10_10 
ROOT
HETATM    1  C1  UNL     1     -33.746   6.051   4.865  1.00 20.00     0.053 A 
HETATM    2  C2  UNL     1     -34.000   7.209   5.498  1.00 20.00    -0.075 A 
HETATM    3  C3  UNL     1     -33.066   6.405   3.598  1.00 20.00     0.159 A 
HETATM    4  C4  UNL     1     -32.124   8.660   4.471  1.00 20.00     0.029 A 
HETATM    5  C5  UNL     1     -33.576   8.429   4.787  1.00 20.00     0.032 A 
HETATM    6  C6  UNL     1     -32.979   7.898   3.483  1.00 20.00     0.035 A 
HETATM    7  C7  UNL     1     -34.659   7.322   6.830  1.00 20.00     0.044 C 
HETATM    8  O11 UNL     1     -32.640   5.620   2.770  1.00 20.00    -0.292 OA
ENDROOT
BRANCH   6   9
HETATM    9  C10 UNL     1     -33.346   8.566   2.191  1.00 20.00    -0.006 C 
HETATM   10  C8  UNL     1     -33.223  10.094   2.291  1.00 20.00     0.011 C 
HETATM   11  C9  UNL     1     -32.482   8.056   1.027  1.00 20.00     0.011 C 
ENDBRANCH   6   9
TORSDOF 1
