REMARK  0 active torsions:
REMARK  status: ('A' for Active; 'I' for Inactive)
ROOT
HETATM    1  C1  UNL     1     -33.509   6.505   3.965  1.00 20.00    -0.021 C 
HETATM    2  C2  UNL     1     -33.797   5.264   3.525  1.00 20.00    -0.021 C 
HETATM    3  C3  UNL     1     -34.036   5.811   6.273  1.00 20.00    -0.021 C 
HETATM    4  C4  UNL     1     -34.324   4.569   5.833  1.00 20.00    -0.021 C 
HETATM    5  C5  UNL     1     -35.652   6.028   4.650  1.00 20.00     0.024 C 
HETATM    6  C6  UNL     1     -34.409   6.773   5.159  1.00 20.00     0.031 C 
HETATM    7  C7  UNL     1     -34.886   4.715   4.430  1.00 20.00     0.031 C 
ENDROOT
TORSDOF 0
