REMARK  4 active torsions:
REMARK  status: ('A' for Active; 'I' for Inactive)
REMARK    1  A    between atoms: C1_1  and  C7_7 
REMARK    2  A    between atoms: C1_1  and  C8_8 
REMARK    3  A    between atoms: C7_7  and  C9_9 
REMARK    4  A    between atoms: C8_8  and  C10_10 
ROOT
HETATM    1  C1  UNL     1     -32.776   7.399   4.384  1.00 20.00     0.131 C 
HETATM    2  O11 UNL     1     -32.652   8.378   5.120  1.00 20.00    -0.298 OA
ENDROOT
BRANCH   1   3
HETATM    3  C7  UNL     1     -32.011   7.279   3.072  1.00 20.00     0.082 C 
BRANCH   3   4
HETATM    4  C9  UNL     1     -32.731   7.934   1.884  1.00 20.00    -0.016 C 
HETATM    5  C3  UNL     1     -32.951   9.430   2.123  1.00 20.00     0.010 C 
HETATM    6  C4  UNL     1     -31.923   7.726   0.602  1.00 20.00     0.010 C 
ENDBRANCH   3   4
ENDBRANCH   1   3
BRANCH   1   7
HETATM    7  C8  UNL     1     -33.731   6.251   4.722  1.00 20.00     0.054 C 
HETATM    8  C2  UNL     1     -35.089   6.474   4.054  1.00 20.00     0.018 C 
BRANCH   7   9
HETATM    9  C10 UNL     1     -33.792   6.039   6.255  1.00 20.00    -0.012 C 
HETATM   10  C5  UNL     1     -34.248   4.619   6.604  1.00 20.00     0.010 C 
HETATM   11  C6  UNL     1     -34.674   7.058   6.981  1.00 20.00     0.010 C 
ENDBRANCH   7   9
ENDBRANCH   1   7
TORSDOF 4
