REMARK  2 active torsions:
REMARK  status: ('A' for Active; 'I' for Inactive)
REMARK    1  A    between atoms: C2_2  and  C4_4 
REMARK    2  A    between atoms: C5_5  and  C9_9 
ROOT
HETATM    1  C1  UNL     1     -33.375   5.714   3.105  1.00 20.00    -0.016 C 
HETATM    2  C2  UNL     1     -33.786   5.942   4.360  1.00 20.00    -0.024 C 
HETATM    3  C6  UNL     1     -32.902   6.813   2.196  1.00 20.00     0.036 C 
HETATM    4  C7  UNL     1     -33.850   7.303   4.983  1.00 20.00     0.042 C 
HETATM    5  C8  UNL     1     -33.740   8.431   3.951  1.00 20.00     0.014 C 
HETATM    6  C9  UNL     1     -32.632   8.139   2.929  1.00 20.00     0.017 C 
ENDROOT
BRANCH   6   7
HETATM    7  C5  UNL     1     -32.488   9.262   1.949  1.00 20.00    -0.089 C 
HETATM    8  C3  UNL     1     -32.043   9.061   0.700  1.00 20.00     0.014 C 
HETATM    9  C10 UNL     1     -32.870  10.625   2.444  1.00 20.00     0.043 C 
ENDBRANCH   6   7
BRANCH   2  10
HETATM   10  C4  UNL     1     -34.217   4.790   5.156  1.00 20.00     0.265 C 
HETATM   11  O11 UNL     1     -34.608   4.896   6.312  1.00 20.00    -0.302 OA
ENDBRANCH   2  10
TORSDOF 2
