REMARK  0 active torsions:
REMARK  status: ('A' for Active; 'I' for Inactive)
ROOT
HETATM    1  C1  UNL     1     -33.314   4.967   3.025  1.00 20.00     0.128 C 
HETATM    2  C2  UNL     1     -33.899   4.427   4.310  1.00 20.00     0.087 C 
HETATM    3  C3  UNL     1     -32.336   6.109   3.166  1.00 20.00     0.087 C 
HETATM    4  C4  UNL     1     -33.629   6.773   5.252  1.00 20.00     0.018 C 
HETATM    5  C5  UNL     1     -34.566   5.540   5.135  1.00 20.00    -0.041 C 
HETATM    6  C6  UNL     1     -32.949   7.280   3.952  1.00 20.00    -0.041 C 
HETATM    7  C7  UNL     1     -35.935   5.902   4.530  1.00 20.00     0.015 C 
HETATM    8  C8  UNL     1     -34.829   5.003   6.559  1.00 20.00     0.015 C 
HETATM    9  C9  UNL     1     -33.919   8.072   3.056  1.00 20.00     0.015 C 
HETATM   10  C10 UNL     1     -31.814   8.249   4.353  1.00 20.00     0.015 C 
HETATM   11  O11 UNL     1     -33.559   4.453   1.935  1.00 20.00    -0.298 OA
ENDROOT
TORSDOF 0
