REMARK  1 active torsions:
REMARK  status: ('A' for Active; 'I' for Inactive)
REMARK    1  A    between atoms: C1_1  and  C3_3 
ROOT
HETATM    1  C1  UNL     1     -33.996   7.622   6.047  1.00 20.00     0.000 C 
HETATM    2  C2  UNL     1     -33.285   7.906   4.953  1.00 20.00     0.081 C 
HETATM    3 CL4  UNL     1     -32.271   9.281   4.829  1.00 20.00    -0.097 Cl
ENDROOT
BRANCH   1   4
HETATM    4  C3  UNL     1     -34.875   6.421   6.165  1.00 20.00     0.142 C 
HETATM    5 CL5  UNL     1     -33.947   5.053   6.817  1.00 20.00    -0.126 Cl
ENDBRANCH   1   4
TORSDOF 1
