REMARK  1 active torsions:
REMARK  status: ('A' for Active; 'I' for Inactive)
REMARK    1  A    between atoms: C8_8  and  O9_9 
ROOT
HETATM    1  C1  UNL     1     -34.022   9.794   3.018  1.00 20.00     0.015 C 
HETATM    2  C2  UNL     1     -33.372   9.000   3.641  1.00 20.00    -0.079 C 
HETATM    3  C3  UNL     1     -33.297   5.300   3.452  1.00 20.00     0.000 C 
HETATM    4  C4  UNL     1     -34.243   6.091   4.350  1.00 20.00     0.004 C 
HETATM    5  C5  UNL     1     -32.418   6.218   2.607  1.00 20.00     0.004 C 
HETATM    6  C6  UNL     1     -33.486   7.094   5.221  1.00 20.00     0.051 C 
HETATM    7  C7  UNL     1     -31.656   7.221   3.474  1.00 20.00     0.051 C 
HETATM    8  C8  UNL     1     -32.574   8.026   4.407  1.00 20.00     0.120 C 
ENDROOT
BRANCH   8   9
HETATM    9  O9  UNL     1     -31.756   8.764   5.317  1.00 20.00    -0.378 OA
HETATM   10  H21 UNL     1     -31.239   8.111   5.811  1.00 20.00     0.211 HD
ENDBRANCH   8   9
TORSDOF 1
