REMARK  1 active torsions:
REMARK  status: ('A' for Active; 'I' for Inactive)
REMARK    1  A    between atoms: C3_3  and  C6_6 
ROOT
HETATM    1  C1  UNL     1     -32.096   6.254   2.147  1.00 20.00    -0.030 C 
HETATM    2  C2  UNL     1     -33.010   5.325   2.450  1.00 20.00    -0.026 C 
HETATM    3  C4  UNL     1     -31.879   7.487   2.966  1.00 20.00     0.031 C 
HETATM    4  C5  UNL     1     -33.900   5.392   3.664  1.00 20.00     0.014 C 
HETATM    5  C6  UNL     1     -33.490   6.508   4.658  1.00 20.00     0.058 C 
HETATM    6  C7  UNL     1     -33.043   7.791   3.927  1.00 20.00    -0.004 C 
HETATM    7  C8  UNL     1     -33.916   4.027   4.365  1.00 20.00     0.015 C 
HETATM    8  C9  UNL     1     -32.623   8.900   4.898  1.00 20.00     0.011 C 
ENDROOT
BRANCH   5   9
HETATM    9  C3  UNL     1     -34.666   6.806   5.546  1.00 20.00     0.236 C 
HETATM   10  O10 UNL     1     -34.648   6.659   6.764  1.00 20.00    -0.306 OA
ENDBRANCH   5   9
TORSDOF 1
