REMARK  1 active torsions:
REMARK  status: ('A' for Active; 'I' for Inactive)
REMARK    1  A    between atoms: C3_3  and  C8_8 
ROOT
HETATM    1  C1  UNL     1     -34.134   4.908   5.912  1.00 20.00    -0.026 C 
HETATM    2  C2  UNL     1     -34.201   6.222   6.170  1.00 20.00    -0.025 C 
HETATM    3  C4  UNL     1     -35.720   5.798   4.484  1.00 20.00     0.017 C 
HETATM    4  C5  UNL     1     -33.599   5.286   3.530  1.00 20.00     0.021 C 
HETATM    5  C6  UNL     1     -34.647   4.704   4.506  1.00 20.00     0.009 C 
HETATM    6  C7  UNL     1     -34.748   6.897   4.930  1.00 20.00     0.019 C 
HETATM    7  C8  UNL     1     -33.698   6.816   3.796  1.00 20.00     0.055 C 
ENDROOT
BRANCH   7   8
HETATM    8  C3  UNL     1     -32.383   7.436   4.157  1.00 20.00     0.236 C 
HETATM    9  O9  UNL     1     -32.273   8.402   4.904  1.00 20.00    -0.306 OA
ENDBRANCH   7   8
TORSDOF 1
