REMARK  2 active torsions:
REMARK  status: ('A' for Active; 'I' for Inactive)
REMARK    1  A    between atoms: C1_1  and  C2_2 
REMARK    2  A    between atoms: C1_1  and  C3_3 
ROOT
HETATM    1  C1  UNL     1     -33.844   5.635   4.045  1.00 20.00     0.168 C 
HETATM    2  O4  UNL     1     -33.188   5.428   3.026  1.00 20.00    -0.294 OA
ENDROOT
BRANCH   1   3
HETATM    3  C2  UNL     1     -34.088   7.041   4.531  1.00 20.00     0.301 C 
HETATM    4  F5  UNL     1     -33.116   7.439   5.396  1.00 20.00    -0.248 F 
ENDBRANCH   1   3
BRANCH   1   5
HETATM    5  C3  UNL     1     -34.454   4.537   4.885  1.00 20.00     0.195 C 
HETATM    6 CL6  UNL     1     -34.536   5.021   6.586  1.00 20.00    -0.122 Cl
ENDBRANCH   1   5
TORSDOF 2
