REMARK  2 active torsions:
REMARK  status: ('A' for Active; 'I' for Inactive)
REMARK    1  A    between atoms: C1_1  and  C2_2 
REMARK    2  A    between atoms: C2_2  and  C3_3 
ROOT
HETATM    1  C1  UNL     1     -33.216   6.521   3.912  1.00 20.00     0.173 C 
HETATM    2  O4  UNL     1     -33.908   5.480   3.720  1.00 20.00    -0.648 OA
HETATM    3  O5  UNL     1     -32.183   6.918   3.306  1.00 20.00    -0.648 OA
ENDROOT
BRANCH   1   4
HETATM    4  C2  UNL     1     -33.734   7.420   5.041  1.00 20.00     0.128 C 
BRANCH   4   5
HETATM    5  C3  UNL     1     -33.706   6.842   6.446  1.00 20.00     0.125 C 
HETATM    6 CL6  UNL     1     -34.726   5.386   6.562  1.00 20.00    -0.130 Cl
ENDBRANCH   4   5
ENDBRANCH   1   4
TORSDOF 2
