REMARK  2 active torsions:
REMARK  status: ('A' for Active; 'I' for Inactive)
REMARK    1  A    between atoms: C2_2  and  C4_4 
REMARK    2  A    between atoms: C3_3  and  C4_4 
ROOT
HETATM    1  C4  UNL     1     -33.955   6.518   4.183  1.00 20.00     0.127 C 
HETATM    2 CL7  UNL     1     -33.120   5.219   3.279  1.00 20.00    -0.121 Cl
ENDROOT
BRANCH   1   3
HETATM    3  C2  UNL     1     -32.931   7.516   4.710  1.00 20.00     0.164 A 
HETATM    4  C1  UNL     1     -32.652   8.802   3.984  1.00 20.00     0.201 A 
HETATM    5  O5  UNL     1     -33.485   8.759   5.154  1.00 20.00    -0.380 OA
ENDBRANCH   1   3
BRANCH   1   6
HETATM    6  C3  UNL     1     -34.861   5.934   5.269  1.00 20.00     0.137 C 
HETATM    7 CL6  UNL     1     -33.977   5.054   6.541  1.00 20.00    -0.129 Cl
ENDBRANCH   1   6
TORSDOF 2
