REMARK  0 active torsions:
REMARK  status: ('A' for Active; 'I' for Inactive)
ROOT
HETATM    1  C1  UNL     1     -34.378   4.810   6.046  1.00 20.00    -0.029 C 
HETATM    2  C2  UNL     1     -34.141   6.053   6.474  1.00 20.00    -0.023 C 
HETATM    3  C3  UNL     1     -33.196   6.355   3.503  1.00 20.00     0.264 C 
HETATM    4  C4  UNL     1     -34.835   4.790   4.623  1.00 20.00     0.042 C 
HETATM    5  C5  UNL     1     -33.274   8.000   5.106  1.00 20.00     0.188 C 
HETATM    6  C6  UNL     1     -34.424   7.070   5.410  1.00 20.00     0.046 C 
HETATM    7  C7  UNL     1     -34.553   6.218   4.154  1.00 20.00     0.098 C 
HETATM    8  O8  UNL     1     -32.785   5.684   2.569  1.00 20.00    -0.265 OA
HETATM    9  O9  UNL     1     -32.482   7.351   4.106  1.00 20.00    -0.320 OA
ENDROOT
TORSDOF 0
