REMARK  1 active torsions:
REMARK  status: ('A' for Active; 'I' for Inactive)
REMARK    1  A    between atoms: C6_6  and  C9_9 
ROOT
HETATM    1  C1  UNL     1     -32.737   8.566   2.737  1.00 20.00     0.127 C 
HETATM    2  C2  UNL     1     -32.195   7.158   2.658  1.00 20.00     0.079 C 
HETATM    3  C3  UNL     1     -33.127   9.063   4.110  1.00 20.00     0.079 C 
HETATM    4  C4  UNL     1     -33.114   6.187   3.388  1.00 20.00     0.012 C 
HETATM    5  C5  UNL     1     -34.027   8.053   4.811  1.00 20.00     0.012 C 
HETATM    6  C6  UNL     1     -33.407   6.648   4.823  1.00 20.00    -0.010 C 
HETATM    7  O10 UNL     1     -32.762   9.304   1.753  1.00 20.00    -0.298 OA
ENDROOT
BRANCH   6   8
HETATM    8  C9  UNL     1     -34.333   5.658   5.527  1.00 20.00    -0.019 C 
HETATM    9  C7  UNL     1     -33.706   4.266   5.558  1.00 20.00     0.010 C 
HETATM   10  C8  UNL     1     -34.652   6.135   6.942  1.00 20.00     0.010 C 
ENDBRANCH   6   8
TORSDOF 1
