REMARK  1 active torsions:
REMARK  status: ('A' for Active; 'I' for Inactive)
REMARK    1  A    between atoms: C6_6  and  C10_10 
ROOT
HETATM    1  C1  UNL     1     -34.263   5.391   5.506  1.00 20.00     0.127 C 
HETATM    2  C2  UNL     1     -33.652   6.473   6.369  1.00 20.00     0.082 C 
HETATM    3  C3  UNL     1     -34.919   5.820   4.211  1.00 20.00     0.083 C 
HETATM    4  C4  UNL     1     -33.947   8.169   4.518  1.00 20.00     0.010 C 
HETATM    5  C5  UNL     1     -34.221   7.841   5.995  1.00 20.00    -0.011 C 
HETATM    6  C6  UNL     1     -34.164   6.981   3.557  1.00 20.00    -0.004 C 
HETATM    7  C7  UNL     1     -33.662   8.933   6.905  1.00 20.00     0.010 C 
HETATM    8  O11 UNL     1     -34.236   4.210   5.850  1.00 20.00    -0.298 OA
ENDROOT
BRANCH   6   9
HETATM    9  C10 UNL     1     -32.833   6.506   2.963  1.00 20.00    -0.018 C 
HETATM   10  C8  UNL     1     -32.991   5.128   2.325  1.00 20.00     0.010 C 
HETATM   11  C9  UNL     1     -32.311   7.514   1.941  1.00 20.00     0.010 C 
ENDBRANCH   6   9
TORSDOF 1
