REMARK  3 active torsions:
REMARK  status: ('A' for Active; 'I' for Inactive)
REMARK    1  A    between atoms: C3_3  and  C4_4 
REMARK    2  A    between atoms: C3_3  and  S7_7 
REMARK    3  A    between atoms: C4_4  and  S8_8 
ROOT
HETATM    1  C1  UNL     1     -34.718   4.910   5.397  1.00 20.00     0.133 C 
HETATM    2  N5  UNL     1     -34.805   4.127   4.545  1.00 20.00    -0.184 NA
HETATM    3  S7  UNL     1     -34.593   6.041   6.646  1.00 20.00    -0.050 SA
ENDROOT
BRANCH   3   4
HETATM    4  C3  UNL     1     -34.246   7.512   5.636  1.00 20.00     0.101 C 
BRANCH   4   5
HETATM    5  C4  UNL     1     -33.264   7.166   4.526  1.00 20.00     0.101 C 
BRANCH   5   6
HETATM    6  S8  UNL     1     -32.910   8.638   3.521  1.00 20.00    -0.050 SA
HETATM    7  C2  UNL     1     -32.376   7.857   2.121  1.00 20.00     0.133 C 
HETATM    8  N6  UNL     1     -32.008   7.328   1.156  1.00 20.00    -0.184 NA
ENDBRANCH   5   6
ENDBRANCH   4   5
ENDBRANCH   3   4
TORSDOF 3
