REMARK  2 active torsions:
REMARK  status: ('A' for Active; 'I' for Inactive)
REMARK    1  A    between atoms: C2_2  and  C4_4 
REMARK    2  A    between atoms: C3_3  and  C4_4 
ROOT
HETATM    1  C4  UNL     1     -34.055   6.477   4.631  1.00 20.00     0.127 C 
HETATM    2 CL7  UNL     1     -34.919   6.262   6.183  1.00 20.00    -0.121 Cl
ENDROOT
BRANCH   1   3
HETATM    3  C2  UNL     1     -32.746   7.219   4.869  1.00 20.00     0.164 A 
HETATM    4  C1  UNL     1     -32.633   8.697   4.623  1.00 20.00     0.201 A 
HETATM    5  O5  UNL     1     -32.130   7.734   3.684  1.00 20.00    -0.380 OA
ENDBRANCH   1   3
BRANCH   1   6
HETATM    6  C3  UNL     1     -33.883   5.133   3.920  1.00 20.00     0.137 C 
HETATM    7 CL6  UNL     1     -33.135   5.266   2.309  1.00 20.00    -0.129 Cl
ENDBRANCH   1   6
TORSDOF 2
