REMARK  1 active torsions:
REMARK  status: ('A' for Active; 'I' for Inactive)
REMARK    1  A    between atoms: C1_1  and  C6_6 
ROOT
HETATM    1  C3  UNL     1     -35.899   6.053   4.502  1.00 20.00     0.022 C 
HETATM    2  C4  UNL     1     -34.229   4.726   5.837  1.00 20.00     0.022 C 
HETATM    3  C5  UNL     1     -33.837   5.151   3.410  1.00 20.00     0.022 C 
HETATM    4  C6  UNL     1     -34.410   5.749   4.707  1.00 20.00     0.009 C 
ENDROOT
BRANCH   4   5
HETATM    5  C1  UNL     1     -33.673   7.062   5.035  1.00 20.00     0.130 C 
HETATM    6  C2  UNL     1     -34.092   7.835   6.263  1.00 20.00     0.091 C 
HETATM    7  O7  UNL     1     -32.774   7.502   4.315  1.00 20.00    -0.298 OA
ENDBRANCH   4   5
TORSDOF 1
