REMARK  0 active torsions:
REMARK  status: ('A' for Active; 'I' for Inactive)
ROOT
HETATM    1  C1  UNL     1     -33.917   4.283   4.184  1.00 20.00    -0.018 C 
HETATM    2  C2  UNL     1     -34.216   4.242   5.494  1.00 20.00    -0.025 C 
HETATM    3  C3  UNL     1     -33.335   6.583   4.355  1.00 20.00     0.135 C 
HETATM    4  C4  UNL     1     -33.663   6.641   5.847  1.00 20.00     0.087 C 
HETATM    5  C5  UNL     1     -35.535   5.903   4.557  1.00 20.00     0.025 C 
HETATM    6  C6  UNL     1     -34.314   5.639   3.671  1.00 20.00     0.078 C 
HETATM    7  C7  UNL     1     -34.800   5.590   5.869  1.00 20.00     0.016 C 
HETATM    8  O8  UNL     1     -32.410   7.165   3.811  1.00 20.00    -0.297 OA
ENDROOT
TORSDOF 0
