REMARK  1 active torsions:
REMARK  status: ('A' for Active; 'I' for Inactive)
REMARK    1  A    between atoms: C3_3  and  C6_6 
ROOT
HETATM    1  C1  UNL     1     -33.139   6.084   3.793  1.00 20.00     0.100 C 
HETATM    2  C2  UNL     1     -34.229   6.105   6.108  1.00 20.00     0.169 A 
HETATM    3  C3  UNL     1     -33.848   6.795   4.814  1.00 20.00     0.174 A 
HETATM    4  C4  UNL     1     -33.895   4.686   6.409  1.00 20.00     0.044 C 
HETATM    5  N7  UNL     1     -32.564   5.508   2.966  1.00 20.00    -0.194 NA
HETATM    6  O8  UNL     1     -35.170   6.279   5.044  1.00 20.00    -0.354 OA
ENDROOT
BRANCH   3   7
HETATM    7  C6  UNL     1     -33.791   8.289   4.774  1.00 20.00     0.052 C 
HETATM    8  C5  UNL     1     -32.471   8.836   5.248  1.00 20.00     0.009 C 
ENDBRANCH   3   7
TORSDOF 1
