REMARK  0 active torsions:
REMARK  status: ('A' for Active; 'I' for Inactive)
ROOT
HETATM    1  C1  UNL     1     -33.507   7.083   4.914  1.00 20.00    -0.017 C 
HETATM    2  C2  UNL     1     -33.301   6.256   3.685  1.00 20.00     0.159 C 
HETATM    3  C3  UNL     1     -32.770   8.128   5.282  1.00 20.00     0.023 C 
HETATM    4  C4  UNL     1     -34.358   5.065   6.075  1.00 20.00     0.010 C 
HETATM    5  C5  UNL     1     -34.126   4.235   4.786  1.00 20.00     0.013 C 
HETATM    6  C6  UNL     1     -35.535   6.097   4.290  1.00 20.00     0.022 C 
HETATM    7  C7  UNL     1     -34.732   6.464   5.545  1.00 20.00     0.022 C 
HETATM    8  C8  UNL     1     -34.424   5.241   3.665  1.00 20.00     0.061 C 
HETATM    9  O9  UNL     1     -32.383   6.353   2.893  1.00 20.00    -0.292 OA
ENDROOT
TORSDOF 0
