REMARK  0 active torsions:
REMARK  status: ('A' for Active; 'I' for Inactive)
ROOT
HETATM    1  C1  UNL     1     -33.949   7.477   5.109  1.00 20.00     0.118 C 
HETATM    2  C2  UNL     1     -33.433   5.519   3.719  1.00 20.00     0.118 C 
HETATM    3  C3  UNL     1     -34.278   6.093   4.768  1.00 20.00     0.288 C 
HETATM    4  N4  UNL     1     -33.686   8.575   5.379  1.00 20.00    -0.193 NA
HETATM    5  N5  UNL     1     -32.762   5.066   2.887  1.00 20.00    -0.193 NA
HETATM    6 CL6  UNL     1     -34.099   5.099   6.234  1.00 20.00    -0.069 Cl
HETATM    7 CL7  UNL     1     -35.968   6.042   4.213  1.00 20.00    -0.069 Cl
ENDROOT
TORSDOF 0
