REMARK  2 active torsions:
REMARK  status: ('A' for Active; 'I' for Inactive)
REMARK    1  A    between atoms: C1_1  and  C8_8 
REMARK    2  A    between atoms: C8_8  and  O10_10 
ROOT
HETATM    1  C1  UNL     1     -32.759   8.104   3.152  1.00 20.00    -0.069 C 
HETATM    2  C2  UNL     1     -32.743   8.619   2.067  1.00 20.00    -0.108 C 
HETATM    3  C9  UNL     1     -32.723   9.245   0.746  1.00 20.00     0.112 C 
ENDROOT
BRANCH   1   4
HETATM    4  C8  UNL     1     -32.779   7.472   4.484  1.00 20.00     0.121 C 
HETATM    5  C6  UNL     1     -34.208   7.445   5.051  1.00 20.00     0.051 C 
HETATM    6  C4  UNL     1     -35.114   6.440   4.340  1.00 20.00     0.004 C 
HETATM    7  C3  UNL     1     -34.497   5.045   4.316  1.00 20.00     0.000 C 
HETATM    8  C5  UNL     1     -33.096   5.055   3.713  1.00 20.00     0.004 C 
HETATM    9  C7  UNL     1     -32.184   6.056   4.423  1.00 20.00     0.051 C 
BRANCH   4  10
HETATM   10  O10 UNL     1     -31.965   8.267   5.347  1.00 20.00    -0.378 OA
HETATM   11  H24 UNL     1     -31.989   7.839   6.216  1.00 20.00     0.211 HD
ENDBRANCH   4  10
ENDBRANCH   1   4
TORSDOF 2
