REMARK  2 active torsions:
REMARK  status: ('A' for Active; 'I' for Inactive)
REMARK    1  A    between atoms: C3_3  and  C4_4 
REMARK    2  A    between atoms: C4_4  and  S6_6 
ROOT
HETATM    1  C1  UNL     1     -34.470   7.053   5.530  1.00 20.00     0.133 C 
HETATM    2  N5  UNL     1     -35.054   6.139   5.940  1.00 20.00    -0.184 NA
HETATM    3  S6  UNL     1     -33.627   8.392   4.936  1.00 20.00    -0.046 SA
ENDROOT
BRANCH   3   4
HETATM    4  C4  UNL     1     -32.155   7.527   4.320  1.00 20.00     0.135 C 
BRANCH   4   5
HETATM    5  C3  UNL     1     -32.408   6.931   2.967  1.00 20.00    -0.011 C 
HETATM    6  C2  UNL     1     -32.171   7.589   1.823  1.00 20.00     0.027 C 
HETATM    7 BR7  UNL     1     -33.174   5.220   2.959  1.00 20.00    -0.056 Br
ENDBRANCH   4   5
ENDBRANCH   3   4
TORSDOF 2
