REMARK  1 active torsions:
REMARK  status: ('A' for Active; 'I' for Inactive)
REMARK    1  A    between atoms: C1_1  and  C4_4 
REMARK       I    between atoms: C1_1  and  N5_5 
ROOT
HETATM    1  C1  UNL     1     -33.211   6.715   3.950  1.00 20.00     0.326 C 
HETATM    2  C2  UNL     1     -33.895   7.041   6.371  1.00 20.00     0.152 C 
HETATM    3  C3  UNL     1     -35.126   5.493   4.903  1.00 20.00     0.152 C 
HETATM    4  N5  UNL     1     -34.030   6.444   5.045  1.00 20.00    -0.353 N 
HETATM    5  O6  UNL     1     -32.965   5.900   3.056  1.00 20.00    -0.263 OA
ENDROOT
BRANCH   1   6
HETATM    6  C4  UNL     1     -32.600   8.088   3.872  1.00 20.00     0.472 C 
HETATM    7  F7  UNL     1     -32.957   8.874   4.919  1.00 20.00    -0.162 F 
HETATM    8  F8  UNL     1     -31.244   8.050   3.833  1.00 20.00    -0.162 F 
HETATM    9  F9  UNL     1     -32.994   8.747   2.750  1.00 20.00    -0.162 F 
ENDBRANCH   1   6
TORSDOF 1
