REMARK  0 active torsions:
REMARK  status: ('A' for Active; 'I' for Inactive)
ROOT
HETATM    1  C1  UNL     1     -33.181   5.901   3.619  1.00 20.00    -0.077 C 
HETATM    2  C2  UNL     1     -32.486   5.210   2.708  1.00 20.00     0.015 C 
HETATM    3  C3  UNL     1     -33.584   5.365   5.995  1.00 20.00     0.009 C 
HETATM    4  C4  UNL     1     -33.646   6.866   6.333  1.00 20.00     0.006 C 
HETATM    5  C5  UNL     1     -35.222   6.430   4.636  1.00 20.00     0.014 C 
HETATM    6  C6  UNL     1     -34.190   5.306   4.582  1.00 20.00     0.015 C 
HETATM    7  C7  UNL     1     -34.185   7.495   5.028  1.00 20.00    -0.002 C 
HETATM    8  C8  UNL     1     -33.149   7.407   3.858  1.00 20.00    -0.021 C 
HETATM    9  C9  UNL     1     -33.641   8.195   2.629  1.00 20.00     0.020 C 
HETATM   10  C10 UNL     1     -31.753   7.919   4.239  1.00 20.00     0.020 C 
ENDROOT
TORSDOF 0
