REMARK  1 active torsions:
REMARK  status: ('A' for Active; 'I' for Inactive)
REMARK    1  A    between atoms: C8_8  and  O10_10 
ROOT
HETATM    1  C1  UNL     1     -33.592   4.150   4.641  1.00 20.00     0.005 C 
HETATM    2  C2  UNL     1     -34.889   5.724   3.186  1.00 20.00     0.005 C 
HETATM    3  C3  UNL     1     -34.485   4.543   5.825  1.00 20.00     0.008 C 
HETATM    4  C4  UNL     1     -35.755   6.115   4.392  1.00 20.00     0.008 C 
HETATM    5  C5  UNL     1     -32.824   6.519   4.359  1.00 20.00     0.042 C 
HETATM    6  C6  UNL     1     -33.477   5.318   3.646  1.00 20.00    -0.012 C 
HETATM    7  C7  UNL     1     -34.924   6.018   5.687  1.00 20.00     0.019 C 
HETATM    8  C8  UNL     1     -33.670   6.932   5.588  1.00 20.00     0.058 C 
HETATM    9  C9  UNL     1     -34.021   8.421   5.541  1.00 20.00     0.046 C 
ENDROOT
BRANCH   8  10
HETATM   10  O10 UNL     1     -32.866   6.738   6.759  1.00 20.00    -0.390 OA
HETATM   11  H26 UNL     1     -32.091   7.306   6.648  1.00 20.00     0.210 HD
ENDBRANCH   8  10
TORSDOF 1
