REMARK  1 active torsions:
REMARK  status: ('A' for Active; 'I' for Inactive)
REMARK    1  A    between atoms: C7_7  and  C8_8 
ROOT
HETATM    1  C1  UNL     1     -32.684   6.633   3.473  1.00 20.00     0.064 C 
HETATM    2  C2  UNL     1     -33.001   5.961   6.551  1.00 20.00     0.002 C 
HETATM    3  C3  UNL     1     -33.245   7.271   5.804  1.00 20.00     0.019 C 
HETATM    4  C4  UNL     1     -34.245   5.078   6.552  1.00 20.00     0.005 C 
HETATM    5  C5  UNL     1     -34.958   6.096   4.339  1.00 20.00     0.024 C 
HETATM    6  C6  UNL     1     -33.765   7.063   4.377  1.00 20.00     0.093 C 
HETATM    7  C7  UNL     1     -34.780   4.794   5.142  1.00 20.00    -0.003 C 
HETATM    8  N9  UNL     1     -31.833   6.295   2.760  1.00 20.00    -0.197 NA
ENDROOT
BRANCH   7   9
HETATM    9  C8  UNL     1     -33.923   3.759   4.410  1.00 20.00     0.089 C 
HETATM   10 BR10 UNL     1     -34.370   1.984   5.049  1.00 20.00    -0.096 Br
ENDBRANCH   7   9
TORSDOF 1
