REMARK  3 active torsions:
REMARK  status: ('A' for Active; 'I' for Inactive)
REMARK    1  A    between atoms: C1_1  and  C7_7 
REMARK    2  A    between atoms: C1_1  and  C9_9 
REMARK    3  A    between atoms: C7_7  and  C8_8 
ROOT
HETATM    1  C1  UNL     1     -34.206   7.080   5.316  1.00 20.00     0.134 C 
HETATM    2  O10 UNL     1     -33.750   7.240   6.451  1.00 20.00    -0.297 OA
ENDROOT
BRANCH   1   3
HETATM    3  C7  UNL     1     -34.278   8.244   4.331  1.00 20.00     0.083 C 
BRANCH   3   4
HETATM    4  C8  UNL     1     -32.913   8.891   4.047  1.00 20.00    -0.016 C 
HETATM    5  C2  UNL     1     -31.956   7.856   3.452  1.00 20.00     0.010 C 
HETATM    6  C3  UNL     1     -32.304   9.488   5.319  1.00 20.00     0.010 C 
ENDBRANCH   3   4
ENDBRANCH   1   3
BRANCH   1   7
HETATM    7  C9  UNL     1     -34.730   5.705   4.851  1.00 20.00     0.009 C 
HETATM    8  C4  UNL     1     -33.930   5.239   3.622  1.00 20.00     0.022 C 
HETATM    9  C5  UNL     1     -34.567   4.659   5.962  1.00 20.00     0.022 C 
HETATM   10  C6  UNL     1     -36.207   5.842   4.458  1.00 20.00     0.022 C 
ENDBRANCH   1   7
TORSDOF 3
