REMARK  0 active torsions:
REMARK  status: ('A' for Active; 'I' for Inactive)
ROOT
HETATM    1  C1  UNL     1     -33.883   7.154   5.579  1.00 20.00     0.111 C 
HETATM    2  C2  UNL     1     -34.885   5.097   6.337  1.00 20.00     0.049 C 
HETATM    3  C3  UNL     1     -34.322   5.821   5.364  1.00 20.00     0.104 C 
HETATM    4  N4  UNL     1     -33.523   8.243   5.752  1.00 20.00    -0.190 NA
HETATM    5 CL5  UNL     1     -34.105   5.161   3.785  1.00 20.00    -0.073 Cl
ENDROOT
TORSDOF 0
