REMARK  2 active torsions:
REMARK  status: ('A' for Active; 'I' for Inactive)
REMARK    1  A    between atoms: C1_1  and  C3_3 
REMARK    2  A    between atoms: C1_1  and  O5_5 
ROOT
HETATM    1  C1  UNL     1     -33.461   7.422   4.855  1.00 20.00     0.291 C 
HETATM    2  O4  UNL     1     -33.619   8.390   5.587  1.00 20.00    -0.262 OA
ENDROOT
BRANCH   1   3
HETATM    3  C3  UNL     1     -33.827   6.002   5.197  1.00 20.00     0.277 C 
HETATM    4 CL6  UNL     1     -34.491   5.933   6.838  1.00 20.00    -0.097 Cl
HETATM    5 CL7  UNL     1     -35.016   5.444   4.012  1.00 20.00    -0.097 Cl
ENDBRANCH   1   3
BRANCH   1   6
HETATM    6  O5  UNL     1     -32.951   7.461   3.587  1.00 20.00    -0.324 OA
HETATM    7  C2  UNL     1     -32.582   8.759   3.109  1.00 20.00     0.213 C 
ENDBRANCH   1   6
TORSDOF 2
