REMARK  3 active torsions:
REMARK  status: ('A' for Active; 'I' for Inactive)
REMARK    1  A    between atoms: C5_5  and  C7_7 
REMARK    2  A    between atoms: C6_6  and  C8_8 
REMARK    3  A    between atoms: C7_7  and  C8_8 
ROOT
HETATM    1  C1  UNL     1     -34.414   5.923   6.057  1.00 20.00     0.012 C 
HETATM    2  C3  UNL     1     -34.290   6.883   5.346  1.00 20.00    -0.117 C 
HETATM    3  C5  UNL     1     -34.143   8.057   4.475  1.00 20.00     0.093 C 
ENDROOT
BRANCH   3   4
HETATM    4  C7  UNL     1     -32.678   8.368   4.160  1.00 20.00     0.013 C 
BRANCH   4   5
HETATM    5  C8  UNL     1     -31.944   7.182   3.516  1.00 20.00     0.013 C 
BRANCH   5   6
HETATM    6  C6  UNL     1     -32.531   6.789   2.159  1.00 20.00     0.093 C 
HETATM    7  C4  UNL     1     -32.538   7.911   1.209  1.00 20.00    -0.117 C 
HETATM    8  C2  UNL     1     -32.547   8.826   0.431  1.00 20.00     0.012 C 
ENDBRANCH   5   6
ENDBRANCH   4   5
ENDBRANCH   3   4
TORSDOF 3
