REMARK  2 active torsions:
REMARK  status: ('A' for Active; 'I' for Inactive)
REMARK    1  A    between atoms: C4_4  and  C5_5 
REMARK    2  A    between atoms: C4_4  and  C6_6 
ROOT
HETATM    1  C1  UNL     1     -33.287   6.695   4.011  1.00 20.00     0.068 C 
HETATM    2  C2  UNL     1     -35.567   5.828   4.267  1.00 20.00     0.031 C 
HETATM    3  C3  UNL     1     -33.683   4.284   3.703  1.00 20.00     0.031 C 
HETATM    4  C6  UNL     1     -34.072   5.538   4.502  1.00 20.00     0.043 C 
HETATM    5  N7  UNL     1     -32.673   7.601   3.627  1.00 20.00    -0.196 NA
ENDROOT
BRANCH   4   6
HETATM    6  C4  UNL     1     -33.842   5.340   6.023  1.00 20.00     0.039 C 
BRANCH   6   7
HETATM    7  C5  UNL     1     -34.685   6.240   6.927  1.00 20.00     0.116 C 
HETATM    8 CL8  UNL     1     -34.314   7.954   6.606  1.00 20.00    -0.130 Cl
ENDBRANCH   6   7
ENDBRANCH   4   6
TORSDOF 2
