REMARK  1 active torsions:
REMARK  status: ('A' for Active; 'I' for Inactive)
REMARK    1  A    between atoms: C1_1  and  N7_7 
ROOT
HETATM    1  C2  UNL     1     -34.806   5.313   5.453  1.00 20.00     0.003 C 
HETATM    2  C3  UNL     1     -34.521   6.739   5.926  1.00 20.00     0.020 C 
HETATM    3  C4  UNL     1     -34.629   5.192   3.939  1.00 20.00     0.020 C 
HETATM    4  C5  UNL     1     -33.146   7.210   5.460  1.00 20.00     0.123 C 
HETATM    5  C6  UNL     1     -33.254   5.686   3.502  1.00 20.00     0.123 C 
HETATM    6  N7  UNL     1     -32.991   7.023   4.022  1.00 20.00    -0.381 N 
ENDROOT
BRANCH   6   7
HETATM    7  C1  UNL     1     -32.555   8.024   3.219  1.00 20.00     0.168 C 
HETATM    8  S8  UNL     1     -32.364   7.858   1.574  1.00 20.00    -0.074 SA
ENDBRANCH   6   7
TORSDOF 1
