REMARK  1 active torsions:
REMARK  status: ('A' for Active; 'I' for Inactive)
REMARK    1  A    between atoms: C5_5  and  S6_6 
ROOT
HETATM    1  C1  UNL     1     -35.787   6.073   4.582  1.00 20.00     0.026 C 
HETATM    2  C2  UNL     1     -34.014   4.291   4.555  1.00 20.00     0.026 C 
HETATM    3  C3  UNL     1     -34.162   5.885   6.493  1.00 20.00     0.026 C 
HETATM    4  C5  UNL     1     -34.351   5.722   4.982  1.00 20.00    -0.003 C 
ENDROOT
BRANCH   4   5
HETATM    5  S6  UNL     1     -33.205   6.867   4.119  1.00 20.00    -0.165 SA
HETATM    6  C4  UNL     1     -33.839   8.410   4.807  1.00 20.00     0.090 C 
ENDBRANCH   4   5
TORSDOF 1
