REMARK  2 active torsions:
REMARK  status: ('A' for Active; 'I' for Inactive)
REMARK    1  A    between atoms: C1_1  and  C6_6 
REMARK    2  A    between atoms: C1_1  and  C7_7 
ROOT
HETATM    1  C1  UNL     1     -33.294   6.325   3.694  1.00 20.00     0.135 C 
HETATM    2  O8  UNL     1     -33.120   5.181   3.275  1.00 20.00    -0.297 OA
ENDROOT
BRANCH   1   3
HETATM    3  C6  UNL     1     -32.377   7.417   3.351  1.00 20.00     0.056 A 
HETATM    4  C2  UNL     1     -32.923   8.807   3.159  1.00 20.00     0.013 A 
HETATM    5  C3  UNL     1     -32.094   8.489   4.368  1.00 20.00     0.013 A 
ENDBRANCH   1   3
BRANCH   1   6
HETATM    6  C7  UNL     1     -34.458   6.672   4.582  1.00 20.00     0.056 A 
HETATM    7  C4  UNL     1     -35.059   5.590   5.405  1.00 20.00     0.013 A 
HETATM    8  C5  UNL     1     -34.242   6.667   6.052  1.00 20.00     0.013 A 
ENDBRANCH   1   6
TORSDOF 2
