REMARK  1 active torsions:
REMARK  status: ('A' for Active; 'I' for Inactive)
REMARK    1  A    between atoms: C1_1  and  C3_3 
ROOT
HETATM    1  C2  UNL     1     -34.596   5.040   6.069  1.00 20.00     0.208 A 
HETATM    2  C3  UNL     1     -34.740   5.244   4.583  1.00 20.00     0.206 A 
HETATM    3  O5  UNL     1     -34.396   6.323   5.466  1.00 20.00    -0.374 OA
ENDROOT
BRANCH   2   4
HETATM    4  C1  UNL     1     -33.657   4.866   3.678  1.00 20.00     0.265 C 
HETATM    5  O4  UNL     1     -33.396   5.472   2.645  1.00 20.00    -0.304 OA
ENDBRANCH   2   4
TORSDOF 1
