REMARK  2 active torsions:
REMARK  status: ('A' for Active; 'I' for Inactive)
REMARK    1  A    between atoms: C6_6  and  C7_7 
REMARK    2  A    between atoms: C7_7  and  C8_8 
ROOT
HETATM    1  C1  UNL     1     -33.299   6.064   3.482  1.00 20.00     0.069 C 
HETATM    2  C2  UNL     1     -35.328   4.869   5.450  1.00 20.00     0.002 C 
HETATM    3  C3  UNL     1     -34.040   4.997   6.262  1.00 20.00     0.002 C 
HETATM    4  C4  UNL     1     -35.473   6.177   4.671  1.00 20.00     0.024 C 
HETATM    5  C5  UNL     1     -33.466   6.376   5.937  1.00 20.00     0.024 C 
HETATM    6  C6  UNL     1     -34.049   6.736   4.565  1.00 20.00     0.050 C 
HETATM    7  N9  UNL     1     -32.711   5.537   2.632  1.00 20.00    -0.196 NA
ENDROOT
BRANCH   6   8
HETATM    8  C7  UNL     1     -34.045   8.245   4.321  1.00 20.00     0.039 C 
BRANCH   8   9
HETATM    9  C8  UNL     1     -32.787   8.932   4.832  1.00 20.00     0.116 C 
HETATM   10 CL10 UNL     1     -31.319   8.322   4.034  1.00 20.00    -0.130 Cl
ENDBRANCH   8   9
ENDBRANCH   6   8
TORSDOF 2
