REMARK  3 active torsions:
REMARK  status: ('A' for Active; 'I' for Inactive)
REMARK    1  A    between atoms: C3_3  and  C8_8 
REMARK    2  A    between atoms: C6_6  and  C7_7 
REMARK    3  A    between atoms: C7_7  and  C8_8 
ROOT
HETATM    1  C5  UNL     1     -32.566   9.186   4.664  1.00 20.00     0.010 C 
HETATM    2  C8  UNL     1     -33.112   7.830   4.213  1.00 20.00    -0.014 C 
ENDROOT
BRANCH   2   3
HETATM    3  C3  UNL     1     -32.155   7.200   3.197  1.00 20.00    -0.011 A 
HETATM    4  C1  UNL     1     -32.651   6.156   2.236  1.00 20.00     0.005 A 
HETATM    5  C2  UNL     1     -32.283   7.525   1.735  1.00 20.00     0.005 A 
ENDBRANCH   2   3
BRANCH   2   6
HETATM    6  C7  UNL     1     -33.333   6.864   5.391  1.00 20.00     0.004 C 
BRANCH   6   7
HETATM    7  C6  UNL     1     -34.296   5.718   5.068  1.00 20.00    -0.004 C 
HETATM    8  C4  UNL     1     -34.424   4.755   6.238  1.00 20.00     0.005 C 
ENDBRANCH   6   7
ENDBRANCH   2   6
TORSDOF 3
