REMARK  1 active torsions:
REMARK  status: ('A' for Active; 'I' for Inactive)
REMARK    1  A    between atoms: C4_4  and  C9_9 
ROOT
HETATM    1  C1  UNL     1     -34.360   4.615   5.714  1.00 20.00    -0.025 C 
HETATM    2  C2  UNL     1     -33.444   4.842   4.761  1.00 20.00    -0.025 C 
HETATM    3  C5  UNL     1     -35.274   6.156   4.257  1.00 20.00     0.017 C 
HETATM    4  C6  UNL     1     -34.483   7.013   6.325  1.00 20.00     0.017 C 
HETATM    5  C7  UNL     1     -35.277   5.818   5.749  1.00 20.00     0.009 C 
HETATM    6  C8  UNL     1     -33.742   6.202   4.171  1.00 20.00     0.016 C 
HETATM    7  C9  UNL     1     -33.389   7.248   5.251  1.00 20.00     0.015 C 
ENDROOT
BRANCH   7   8
HETATM    8  C4  UNL     1     -33.400   8.649   4.723  1.00 20.00    -0.031 C 
HETATM    9  C3  UNL     1     -32.354   9.479   4.783  1.00 20.00     0.007 C 
ENDBRANCH   7   8
TORSDOF 1
