REMARK  2 active torsions:
REMARK  status: ('A' for Active; 'I' for Inactive)
REMARK    1  A    between atoms: C6_6  and  C11_11 
REMARK    2  A    between atoms: C11_11  and  O12_12 
ROOT
HETATM    1  C1  UNL     1     -32.428   6.682   2.325  1.00 20.00    -0.024 C 
HETATM    2  C2  UNL     1     -32.483   8.010   2.520  1.00 20.00    -0.087 C 
HETATM    3  C3  UNL     1     -33.032   5.677   3.261  1.00 20.00     0.035 C 
HETATM    4  C4  UNL     1     -33.200   8.613   3.702  1.00 20.00     0.034 C 
HETATM    5  C5  UNL     1     -34.098   7.623   4.450  1.00 20.00     0.012 C 
HETATM    6  C6  UNL     1     -33.402   6.270   4.630  1.00 20.00     0.023 C 
HETATM    7  C7  UNL     1     -31.834   8.979   1.576  1.00 20.00     0.043 C 
ENDROOT
BRANCH   6   8
HETATM    8  C11 UNL     1     -34.276   5.301   5.423  1.00 20.00     0.057 C 
HETATM    9  C8  UNL     1     -33.555   3.970   5.626  1.00 20.00     0.046 C 
HETATM   10  C9  UNL     1     -35.619   5.083   4.726  1.00 20.00     0.046 C 
BRANCH   8  11
HETATM   11  O12 UNL     1     -34.520   5.860   6.714  1.00 20.00    -0.385 OA
HETATM   12  C10 UNL     1     -35.330   5.002   7.501  1.00 20.00     0.202 C 
ENDBRANCH   8  11
ENDBRANCH   6   8
TORSDOF 2
