REMARK  0 active torsions:
REMARK  status: ('A' for Active; 'I' for Inactive)
ROOT
HETATM    1  C1  UNL     1     -32.700   8.156   5.115  1.00 20.00     0.064 C 
HETATM    2  C2  UNL     1     -34.161   4.118   4.685  1.00 20.00     0.005 C 
HETATM    3  C3  UNL     1     -35.717   6.075   4.688  1.00 20.00     0.005 C 
HETATM    4  C4  UNL     1     -33.384   4.752   3.522  1.00 20.00     0.006 C 
HETATM    5  C5  UNL     1     -34.916   6.715   3.547  1.00 20.00     0.006 C 
HETATM    6  C6  UNL     1     -33.681   6.106   6.134  1.00 20.00     0.024 C 
HETATM    7  C7  UNL     1     -32.829   6.694   4.990  1.00 20.00     0.097 C 
HETATM    8  C8  UNL     1     -34.796   5.209   5.563  1.00 20.00    -0.013 C 
HETATM    9  C9  UNL     1     -33.436   6.289   3.625  1.00 20.00     0.003 C 
HETATM   10  N10 UNL     1     -32.597   9.308   5.213  1.00 20.00    -0.197 NA
ENDROOT
TORSDOF 0
