REMARK  1 active torsions:
REMARK  status: ('A' for Active; 'I' for Inactive)
REMARK    1  A    between atoms: C1_1  and  C2_2 
ROOT
HETATM    1  C1  UNL     1     -33.106   7.253   3.594  1.00 20.00    -0.005 C 
HETATM    2  C3  UNL     1     -32.414   6.877   2.509  1.00 20.00    -0.031 C 
HETATM    3  C5  UNL     1     -31.958   7.825   1.448  1.00 20.00     0.036 C 
ENDROOT
BRANCH   1   4
HETATM    4  C2  UNL     1     -33.542   6.326   4.613  1.00 20.00    -0.005 C 
HETATM    5  C4  UNL     1     -34.235   6.701   5.698  1.00 20.00    -0.031 C 
HETATM    6  C6  UNL     1     -34.691   5.753   6.759  1.00 20.00     0.036 C 
ENDBRANCH   1   4
TORSDOF 1
