REMARK  3 active torsions:
REMARK  status: ('A' for Active; 'I' for Inactive)
REMARK    1  A    between atoms: C6_6  and  C7_7 
REMARK    2  A    between atoms: C6_6  and  C8_8 
REMARK    3  A    between atoms: C7_7  and  C9_9 
ROOT
HETATM    1  C7  UNL     1     -33.405   6.696   4.732  1.00 20.00     0.008 C 
ENDROOT
BRANCH   1   2
HETATM    2  C6  UNL     1     -33.835   7.803   3.757  1.00 20.00     0.004 C 
BRANCH   2   3
HETATM    3  C8  UNL     1     -32.749   8.875   3.537  1.00 20.00    -0.023 C 
HETATM    4  C1  UNL     1     -32.356   9.588   4.832  1.00 20.00     0.009 C 
HETATM    5  C2  UNL     1     -33.235   9.902   2.511  1.00 20.00     0.009 C 
ENDBRANCH   2   3
ENDBRANCH   1   2
BRANCH   1   6
HETATM    6  C9  UNL     1     -34.440   5.560   4.958  1.00 20.00    -0.051 C 
HETATM    7  C3  UNL     1     -34.810   5.432   6.445  1.00 20.00     0.014 C 
HETATM    8  C4  UNL     1     -33.803   4.234   4.497  1.00 20.00     0.014 C 
HETATM    9  C5  UNL     1     -35.718   5.795   4.136  1.00 20.00     0.014 C 
ENDBRANCH   1   6
TORSDOF 3
