REMARK  2 active torsions:
REMARK  status: ('A' for Active; 'I' for Inactive)
REMARK    1  A    between atoms: C3_3  and  C4_4 
REMARK    2  A    between atoms: C4_4  and  O5_5 
ROOT
HETATM    1  C1  UNL     1     -34.831   5.903   6.426  1.00 20.00     0.046 C 
HETATM    2  C2  UNL     1     -33.876   4.987   4.304  1.00 20.00     0.046 C 
HETATM    3  C4  UNL     1     -34.757   6.084   4.906  1.00 20.00     0.063 C 
ENDROOT
BRANCH   3   4
HETATM    4  C3  UNL     1     -34.254   7.499   4.583  1.00 20.00     0.151 C 
HETATM    5 CL6  UNL     1     -32.925   8.029   5.650  1.00 20.00    -0.127 Cl
ENDBRANCH   3   4
BRANCH   3   6
HETATM    6  O5  UNL     1     -36.078   5.919   4.386  1.00 20.00    -0.390 OA
HETATM    7  H15 UNL     1     -36.356   5.024   4.630  1.00 20.00     0.210 HD
ENDBRANCH   3   6
TORSDOF 2
