REMARK  3 active torsions:
REMARK  status: ('A' for Active; 'I' for Inactive)
REMARK    1  A    between atoms: C2_2  and  C6_6 
REMARK    2  A    between atoms: C2_2  and  C7_7 
REMARK    3  A    between atoms: C6_6  and  C8_8 
ROOT
HETATM    1  C6  UNL     1     -34.101   8.127   3.987  1.00 20.00     0.042 C 
ENDROOT
BRANCH   1   2
HETATM    2  C2  UNL     1     -34.413   7.113   5.070  1.00 20.00    -0.075 C 
HETATM    3  C1  UNL     1     -34.035   7.318   6.343  1.00 20.00     0.015 C 
BRANCH   2   4
HETATM    4  C7  UNL     1     -35.110   5.841   4.675  1.00 20.00     0.147 C 
HETATM    5 CL9  UNL     1     -34.088   4.430   5.036  1.00 20.00    -0.126 Cl
ENDBRANCH   2   4
ENDBRANCH   1   2
BRANCH   1   6
HETATM    6  C8  UNL     1     -32.724   8.014   3.269  1.00 20.00    -0.048 C 
HETATM    7  C3  UNL     1     -32.526   9.151   2.251  1.00 20.00     0.015 C 
HETATM    8  C4  UNL     1     -31.619   8.126   4.340  1.00 20.00     0.015 C 
HETATM    9  C5  UNL     1     -32.561   6.666   2.548  1.00 20.00     0.015 C 
ENDBRANCH   1   6
TORSDOF 3
