REMARK  2 active torsions:
REMARK  status: ('A' for Active; 'I' for Inactive)
REMARK    1  A    between atoms: C3_3  and  C5_5 
REMARK    2  A    between atoms: C5_5  and  N6_6 
ROOT
HETATM    1  C1  UNL     1     -33.798   4.595   3.898  1.00 20.00     0.157 C 
HETATM    2  N6  UNL     1     -34.664   4.553   4.691  1.00 20.00    -0.271 NA
HETATM    3  S7  UNL     1     -32.620   4.623   2.827  1.00 20.00    -0.055 SA
ENDROOT
BRANCH   2   4
HETATM    4  C5  UNL     1     -35.317   5.836   4.959  1.00 20.00     0.183 C 
BRANCH   4   5
HETATM    5  C3  UNL     1     -34.304   6.844   5.425  1.00 20.00    -0.073 C 
HETATM    6  C2  UNL     1     -34.076   7.978   4.746  1.00 20.00     0.015 C 
HETATM    7  C4  UNL     1     -33.537   6.508   6.672  1.00 20.00     0.044 C 
ENDBRANCH   4   5
ENDBRANCH   2   4
TORSDOF 2
