REMARK  1 active torsions:
REMARK  status: ('A' for Active; 'I' for Inactive)
REMARK    1  A    between atoms: C7_7  and  O12_12 
ROOT
HETATM    1  C1  UNL     1     -33.847  10.157   3.429  1.00 20.00     0.015 C 
HETATM    2  C2  UNL     1     -33.200   9.306   3.975  1.00 20.00    -0.079 C 
HETATM    3  C3  UNL     1     -31.899   7.215   3.644  1.00 20.00     0.055 C 
HETATM    4  C4  UNL     1     -33.686   5.576   4.344  1.00 20.00     0.013 C 
HETATM    5  C5  UNL     1     -33.189   7.601   5.794  1.00 20.00     0.060 C 
HETATM    6  C6  UNL     1     -32.996   6.261   3.155  1.00 20.00    -0.014 C 
HETATM    7  C7  UNL     1     -32.407   8.262   4.646  1.00 20.00     0.121 C 
HETATM    8  C8  UNL     1     -34.268   6.569   5.376  1.00 20.00    -0.044 C 
HETATM    9  C9  UNL     1     -32.406   5.213   2.208  1.00 20.00     0.010 C 
HETATM   10  C10 UNL     1     -35.528   7.256   4.815  1.00 20.00     0.015 C 
HETATM   11  C11 UNL     1     -34.700   5.781   6.631  1.00 20.00     0.015 C 
ENDROOT
BRANCH   7  12
HETATM   12  O12 UNL     1     -31.266   8.898   5.235  1.00 20.00    -0.378 OA
HETATM   13  H30 UNL     1     -30.760   8.196   5.669  1.00 20.00     0.211 HD
ENDBRANCH   7  12
TORSDOF 1
