REMARK  1 active torsions:
REMARK  status: ('A' for Active; 'I' for Inactive)
REMARK    1  A    between atoms: C7_7  and  C8_8 
ROOT
HETATM    1  C1  UNL     1     -31.933   7.658   4.041  1.00 20.00     0.015 C 
HETATM    2  C2  UNL     1     -33.150   5.837   2.864  1.00 20.00     0.015 C 
HETATM    3  C3  UNL     1     -34.205   8.073   3.121  1.00 20.00     0.015 C 
HETATM    4  C7  UNL     1     -33.331   7.021   3.845  1.00 20.00    -0.045 C 
ENDROOT
BRANCH   4   5
HETATM    5  C8  UNL     1     -33.976   6.557   5.230  1.00 20.00    -0.045 C 
HETATM    6  C4  UNL     1     -34.157   7.741   6.210  1.00 20.00     0.015 C 
HETATM    7  C5  UNL     1     -33.102   5.505   5.954  1.00 20.00     0.015 C 
HETATM    8  C6  UNL     1     -35.374   5.921   5.034  1.00 20.00     0.015 C 
ENDBRANCH   4   5
TORSDOF 1
