REMARK  3 active torsions:
REMARK  status: ('A' for Active; 'I' for Inactive)
REMARK    1  A    between atoms: C2_2  and  C8_8 
REMARK    2  A    between atoms: C4_4  and  C7_7 
REMARK    3  A    between atoms: C7_7  and  C8_8 
ROOT
HETATM    1  C7  UNL     1     -32.990   8.333   5.198  1.00 20.00     0.034 C 
ENDROOT
BRANCH   1   2
HETATM    2  C4  UNL     1     -33.465   7.149   5.996  1.00 20.00    -0.030 C 
HETATM    3  C3  UNL     1     -34.393   6.283   5.566  1.00 20.00    -0.035 C 
HETATM    4  C5  UNL     1     -34.863   5.108   6.357  1.00 20.00     0.035 C 
ENDBRANCH   1   2
BRANCH   1   5
HETATM    5  C8  UNL     1     -33.049   8.087   3.677  1.00 20.00     0.007 C 
HETATM    6  C6  UNL     1     -32.603   9.343   2.924  1.00 20.00     0.014 C 
BRANCH   5   7
HETATM    7  C2  UNL     1     -32.174   6.924   3.271  1.00 20.00    -0.032 C 
HETATM    8  C1  UNL     1     -32.630   5.825   2.659  1.00 20.00     0.007 C 
ENDBRANCH   5   7
ENDBRANCH   1   5
TORSDOF 3
