REMARK  2 active torsions:
REMARK  status: ('A' for Active; 'I' for Inactive)
REMARK    1  A    between atoms: C1_1  and  C6_6 
REMARK    2  A    between atoms: C5_5  and  C10_10 
ROOT
HETATM    1  C2  UNL     1     -32.586   6.492   3.260  1.00 20.00     0.006 C 
HETATM    2  C3  UNL     1     -33.665   5.461   3.596  1.00 20.00     0.016 C 
HETATM    3  C4  UNL     1     -34.113   7.595   4.712  1.00 20.00     0.021 C 
HETATM    4  C5  UNL     1     -32.618   7.477   4.423  1.00 20.00    -0.010 C 
HETATM    5  C6  UNL     1     -34.627   6.151   4.585  1.00 20.00     0.010 C 
HETATM    6  C7  UNL     1     -36.078   6.104   4.115  1.00 20.00     0.023 C 
ENDROOT
BRANCH   4   7
HETATM    7  C10 UNL     1     -31.965   8.809   4.095  1.00 20.00    -0.019 C 
HETATM    8  C8  UNL     1     -32.651   9.472   2.899  1.00 20.00     0.010 C 
HETATM    9  C9  UNL     1     -31.994   9.743   5.307  1.00 20.00     0.010 C 
ENDBRANCH   4   7
BRANCH   5  10
HETATM   10  C1  UNL     1     -34.568   5.463   5.926  1.00 20.00     0.240 C 
HETATM   11  O11 UNL     1     -34.237   6.029   6.963  1.00 20.00    -0.306 OA
ENDBRANCH   5  10
TORSDOF 2
