REMARK  2 active torsions:
REMARK  status: ('A' for Active; 'I' for Inactive)
REMARK    1  A    between atoms: C1_1  and  C3_3 
REMARK    2  A    between atoms: C2_2  and  C4_4 
ROOT
HETATM    1  C1  UNL     1     -34.095   7.163   4.751  1.00 20.00    -0.015 C 
HETATM    2  C2  UNL     1     -34.263   6.166   5.631  1.00 20.00    -0.015 C 
ENDROOT
BRANCH   1   3
HETATM    3  C3  UNL     1     -33.894   8.590   5.145  1.00 20.00     0.141 C 
HETATM    4 CL5  UNL     1     -32.332   9.172   4.534  1.00 20.00    -0.126 Cl
ENDBRANCH   1   3
BRANCH   2   5
HETATM    5  C4  UNL     1     -34.482   4.742   5.236  1.00 20.00     0.141 C 
HETATM    6 CL6  UNL     1     -33.643   4.403   3.707  1.00 20.00    -0.126 Cl
ENDBRANCH   2   5
TORSDOF 2
