REMARK  0 active torsions:
REMARK  status: ('A' for Active; 'I' for Inactive)
ROOT
HETATM    1  C1  UNL     1     -32.340   6.613   2.980  1.00 20.00     0.047 C 
HETATM    2  C2  UNL     1     -33.244   5.689   3.330  1.00 20.00    -0.013 C 
HETATM    3  C3  UNL     1     -33.430   5.609   6.848  1.00 20.00    -0.030 C 
HETATM    4  C4  UNL     1     -34.152   4.622   6.310  1.00 20.00    -0.030 C 
HETATM    5  C5  UNL     1     -32.526   8.034   3.369  1.00 20.00     0.149 C 
HETATM    6  C6  UNL     1     -33.287   6.958   6.221  1.00 20.00     0.033 C 
HETATM    7  C7  UNL     1     -34.896   4.760   5.019  1.00 20.00     0.040 C 
HETATM    8  C8  UNL     1     -33.725   8.415   4.216  1.00 20.00     0.088 C 
HETATM    9  C9  UNL     1     -34.254   7.229   5.038  1.00 20.00     0.008 C 
HETATM   10  C10 UNL     1     -34.492   5.979   4.143  1.00 20.00    -0.019 C 
HETATM   11  C11 UNL     1     -35.640   6.221   3.138  1.00 20.00     0.020 C 
HETATM   12  O12 UNL     1     -31.730   8.881   2.967  1.00 20.00    -0.293 OA
ENDROOT
TORSDOF 0
