REMARK  1 active torsions:
REMARK  status: ('A' for Active; 'I' for Inactive)
REMARK    1  A    between atoms: C3_3  and  C4_4 
ROOT
HETATM    1  C1  UNL     1     -35.652   5.854   4.528  1.00 20.00     0.033 C 
HETATM    2  C2  UNL     1     -33.783   4.227   4.099  1.00 20.00     0.033 C 
HETATM    3  C4  UNL     1     -34.206   5.480   4.874  1.00 20.00     0.042 C 
HETATM    4 CL6  UNL     1     -34.156   5.073   6.635  1.00 20.00    -0.119 Cl
ENDROOT
BRANCH   3   5
HETATM    5  C3  UNL     1     -33.235   6.653   4.654  1.00 20.00     0.139 C 
HETATM    6 CL5  UNL     1     -33.618   8.091   5.636  1.00 20.00    -0.129 Cl
ENDBRANCH   3   5
TORSDOF 1
