REMARK  2 active torsions:
REMARK  status: ('A' for Active; 'I' for Inactive)
REMARK    1  A    between atoms: C1_1  and  C3_3 
REMARK    2  A    between atoms: C2_2  and  C3_3 
ROOT
HETATM    1  C3  UNL     1     -34.151   7.078   4.489  1.00 20.00     0.109 C 
HETATM    2 CL6  UNL     1     -33.491   8.215   5.715  1.00 20.00    -0.123 Cl
ENDROOT
BRANCH   1   3
HETATM    3  C1  UNL     1     -35.026   6.023   5.174  1.00 20.00     0.135 C 
HETATM    4 CL4  UNL     1     -34.133   4.993   6.321  1.00 20.00    -0.129 Cl
ENDBRANCH   1   3
BRANCH   1   5
HETATM    5  C2  UNL     1     -32.992   6.538   3.650  1.00 20.00     0.135 C 
HETATM    6 CL5  UNL     1     -32.383   7.753   2.499  1.00 20.00    -0.129 Cl
ENDBRANCH   1   5
TORSDOF 2
