REMARK  4 active torsions:
REMARK  status: ('A' for Active; 'I' for Inactive)
REMARK    1  A    between atoms: C1_1  and  C9_9 
REMARK    2  A    between atoms: C2_2  and  C7_7 
REMARK    3  A    between atoms: C2_2  and  C9_9 
REMARK    4  A    between atoms: C7_7  and  C8_8 
ROOT
HETATM    1  C5  UNL     1     -33.720   4.195   4.372  1.00 20.00     0.031 C 
HETATM    2  C6  UNL     1     -35.632   5.793   4.160  1.00 20.00     0.031 C 
HETATM    3  C9  UNL     1     -34.215   5.604   4.726  1.00 20.00     0.073 C 
ENDROOT
BRANCH   3   4
HETATM    4  C1  UNL     1     -34.299   5.821   6.247  1.00 20.00     0.138 C 
HETATM    5  C3  UNL     1     -34.752   7.165   6.764  1.00 20.00     0.092 C 
HETATM    6  O10 UNL     1     -33.970   4.935   7.041  1.00 20.00    -0.297 OA
ENDBRANCH   3   4
BRANCH   3   7
HETATM    7  C2  UNL     1     -33.262   6.634   4.073  1.00 20.00     0.142 C 
HETATM    8  O11 UNL     1     -32.678   7.489   4.741  1.00 20.00    -0.297 OA
BRANCH   7   9
HETATM    9  C7  UNL     1     -33.086   6.562   2.559  1.00 20.00     0.079 C 
BRANCH   9  10
HETATM   10  C8  UNL     1     -32.119   7.609   2.010  1.00 20.00     0.003 C 
HETATM   11  C4  UNL     1     -32.010   7.563   0.492  1.00 20.00     0.005 C 
ENDBRANCH   9  10
ENDBRANCH   7   9
ENDBRANCH   3   7
TORSDOF 4
