REMARK  2 active torsions:
REMARK  status: ('A' for Active; 'I' for Inactive)
REMARK    1  A    between atoms: C1_1  and  C3_3 
REMARK    2  A    between atoms: C2_2  and  C5_5 
ROOT
HETATM    1  C1  UNL     1     -33.344   8.071   4.787  1.00 20.00     0.003 C 
HETATM    2  C2  UNL     1     -34.007   6.947   5.085  1.00 20.00     0.041 C 
ENDROOT
BRANCH   1   3
HETATM    3  C3  UNL     1     -32.961   8.417   3.437  1.00 20.00    -0.004 C 
HETATM    4  C4  UNL     1     -32.500   7.520   2.552  1.00 20.00    -0.031 C 
HETATM    5  C6  UNL     1     -32.101   7.865   1.155  1.00 20.00     0.036 C 
ENDBRANCH   1   3
BRANCH   2   6
HETATM    6  C5  UNL     1     -34.358   6.674   6.492  1.00 20.00     0.258 C 
HETATM    7  O7  UNL     1     -34.964   5.663   6.825  1.00 20.00    -0.302 OA
ENDBRANCH   2   6
TORSDOF 2
