REMARK  2 active torsions:
REMARK  status: ('A' for Active; 'I' for Inactive)
REMARK    1  A    between atoms: C1_1  and  C2_2 
REMARK    2  A    between atoms: C3_3  and  C4_4 
ROOT
HETATM    1  C1  UNL     1     -33.165   5.758   3.134  1.00 20.00     0.051 C 
HETATM    2  C3  UNL     1     -33.984   5.756   4.199  1.00 20.00    -0.014 C 
HETATM    3  C5  UNL     1     -35.042   4.736   4.517  1.00 20.00     0.052 C 
ENDROOT
BRANCH   2   4
HETATM    4  C4  UNL     1     -33.875   6.870   5.215  1.00 20.00     0.151 C 
HETATM    5  C6  UNL     1     -34.218   6.611   6.662  1.00 20.00     0.096 C 
HETATM    6  O8  UNL     1     -33.505   7.991   4.863  1.00 20.00    -0.293 OA
ENDBRANCH   2   4
BRANCH   1   7
HETATM    7  C2  UNL     1     -32.135   6.787   2.863  1.00 20.00     0.259 C 
HETATM    8  O7  UNL     1     -32.388   7.792   2.207  1.00 20.00    -0.302 OA
ENDBRANCH   1   7
TORSDOF 2
