REMARK  1 active torsions:
REMARK  status: ('A' for Active; 'I' for Inactive)
REMARK    1  A    between atoms: C5_5  and  C6_6 
ROOT
HETATM    1  C1  UNL     1     -32.297   7.794   1.605  1.00 20.00     0.086 C 
HETATM    2  C2  UNL     1     -32.043   6.396   2.125  1.00 20.00     0.086 C 
HETATM    3  C5  UNL     1     -32.835   7.872   4.279  1.00 20.00     0.078 C 
HETATM    4  C7  UNL     1     -32.112   8.965   5.066  1.00 20.00     0.041 C 
HETATM    5  S9  UNL     1     -33.485   8.582   2.719  1.00 20.00    -0.145 SA
HETATM    6  S10 UNL     1     -31.644   6.535   3.885  1.00 20.00    -0.145 SA
ENDROOT
BRANCH   3   7
HETATM    7  C6  UNL     1     -33.998   7.289   5.081  1.00 20.00     0.078 C 
HETATM    8  C8  UNL     1     -35.026   8.366   5.430  1.00 20.00     0.041 C 
HETATM    9  S11 UNL     1     -33.345   6.556   6.630  1.00 20.00    -0.145 SA
HETATM   10  C3  UNL     1     -34.200   4.966   6.499  1.00 20.00     0.086 C 
HETATM   11  C4  UNL     1     -34.201   4.568   5.039  1.00 20.00     0.086 C 
HETATM   12  S12 UNL     1     -34.818   5.982   4.091  1.00 20.00    -0.145 SA
ENDBRANCH   3   7
TORSDOF 1
