REMARK  0 active torsions:
REMARK  status: ('A' for Active; 'I' for Inactive)
ROOT
HETATM    1  C1  UNL     1     -34.407   4.604   5.482  1.00 20.00     0.005 C 
HETATM    2  C2  UNL     1     -33.072   5.158   5.998  1.00 20.00     0.008 C 
HETATM    3  C3  UNL     1     -34.793   6.621   6.684  1.00 20.00     0.012 C 
HETATM    4  C4  UNL     1     -34.900   6.755   4.293  1.00 20.00     0.047 C 
HETATM    5  C5  UNL     1     -35.313   5.847   5.473  1.00 20.00    -0.011 C 
HETATM    6  C6  UNL     1     -33.354   6.668   6.148  1.00 20.00     0.025 C 
HETATM    7  C7  UNL     1     -33.557   7.354   4.770  1.00 20.00     0.117 C 
HETATM    8 CL8  UNL     1     -33.701   9.133   4.976  1.00 20.00    -0.101 Cl
HETATM    9 CL9  UNL     1     -32.236   7.051   3.615  1.00 20.00    -0.101 Cl
ENDROOT
TORSDOF 0
