REMARK  3 active torsions:
REMARK  status: ('A' for Active; 'I' for Inactive)
REMARK    1  A    between atoms: C4_4  and  C10_10 
REMARK    2  A    between atoms: C5_5  and  C11_11 
REMARK    3  A    between atoms: C6_6  and  C12_12 
ROOT
HETATM    1  C7  UNL     1     -32.958   6.009   2.386  1.00 20.00     0.009 C 
HETATM    2  C8  UNL     1     -33.459   5.347   3.668  1.00 20.00     0.010 C 
HETATM    3  C9  UNL     1     -32.990   8.259   3.528  1.00 20.00     0.017 C 
HETATM    4  C10 UNL     1     -32.159   7.279   2.689  1.00 20.00     0.008 C 
HETATM    5  C11 UNL     1     -34.287   6.313   4.529  1.00 20.00     0.015 C 
HETATM    6  C12 UNL     1     -33.499   7.609   4.827  1.00 20.00     0.015 C 
ENDROOT
BRANCH   4   7
HETATM    7  C4  UNL     1     -31.694   7.921   1.418  1.00 20.00    -0.032 C 
HETATM    8  C1  UNL     1     -32.516   8.388   0.472  1.00 20.00     0.007 C 
ENDBRANCH   4   7
BRANCH   6   9
HETATM    9  C6  UNL     1     -34.326   8.602   5.592  1.00 20.00    -0.031 C 
HETATM   10  C3  UNL     1     -34.010   9.060   6.808  1.00 20.00     0.007 C 
ENDBRANCH   6   9
BRANCH   5  11
HETATM   11  C5  UNL     1     -34.717   5.605   5.782  1.00 20.00    -0.031 C 
HETATM   12  C2  UNL     1     -33.870   5.141   6.707  1.00 20.00     0.007 C 
ENDBRANCH   5  11
TORSDOF 3
