REMARK  2 active torsions:
REMARK  status: ('A' for Active; 'I' for Inactive)
REMARK    1  A    between atoms: C5_5  and  C9_9 
REMARK    2  A    between atoms: C9_9  and  O10_10 
ROOT
HETATM    1  C1  UNL     1     -33.119   8.695   4.886  1.00 20.00    -0.024 C 
HETATM    2  C2  UNL     1     -32.916   8.261   3.636  1.00 20.00    -0.087 C 
HETATM    3  C3  UNL     1     -33.631   7.609   5.773  1.00 20.00     0.035 C 
HETATM    4  C4  UNL     1     -33.259   6.810   3.494  1.00 20.00     0.041 C 
HETATM    5  C5  UNL     1     -33.336   6.345   4.955  1.00 20.00     0.026 C 
HETATM    6  C6  UNL     1     -32.452   9.062   2.474  1.00 20.00     0.043 C 
ENDROOT
BRANCH   5   7
HETATM    7  C9  UNL     1     -34.355   5.238   5.177  1.00 20.00     0.055 C 
HETATM    8  C7  UNL     1     -34.389   4.816   6.647  1.00 20.00     0.045 C 
HETATM    9  C8  UNL     1     -34.062   4.030   4.283  1.00 20.00     0.045 C 
BRANCH   7  10
HETATM   10  O10 UNL     1     -35.655   5.735   4.848  1.00 20.00    -0.390 OA
HETATM   11  H26 UNL     1     -36.271   5.004   5.002  1.00 20.00     0.210 HD
ENDBRANCH   7  10
ENDBRANCH   5   7
TORSDOF 2
