REMARK  0 active torsions:
REMARK  status: ('A' for Active; 'I' for Inactive)
ROOT
HETATM    1  C1  UNL     1     -33.098   7.752   4.418  1.00 20.00     0.131 C 
HETATM    2  C2  UNL     1     -32.332   6.784   3.536  1.00 20.00     0.079 C 
HETATM    3  C3  UNL     1     -33.192   5.669   2.946  1.00 20.00     0.012 C 
HETATM    4  C4  UNL     1     -33.111   5.099   6.134  1.00 20.00     0.001 C 
HETATM    5  C5  UNL     1     -33.773   6.438   6.464  1.00 20.00     0.012 C 
HETATM    6  C6  UNL     1     -33.833   4.311   5.042  1.00 20.00     0.005 C 
HETATM    7  C7  UNL     1     -35.140   6.340   4.351  1.00 20.00     0.016 C 
HETATM    8  C8  UNL     1     -34.262   7.213   5.237  1.00 20.00     0.056 C 
HETATM    9  C9  UNL     1     -34.321   5.153   3.852  1.00 20.00    -0.013 C 
HETATM   10  O10 UNL     1     -32.726   8.920   4.542  1.00 20.00    -0.298 OA
ENDROOT
TORSDOF 0
