REMARK  0 active torsions:
REMARK  status: ('A' for Active; 'I' for Inactive)
ROOT
HETATM    1  C1  UNL     1     -34.173   5.923   5.574  1.00 20.00    -0.089 C 
HETATM    2  C2  UNL     1     -34.688   5.017   6.424  1.00 20.00     0.014 C 
HETATM    3  C3  UNL     1     -34.583   5.915   4.123  1.00 20.00     0.033 C 
HETATM    4  C4  UNL     1     -33.217   6.976   6.089  1.00 20.00     0.033 C 
HETATM    5  C5  UNL     1     -33.479   5.555   3.131  1.00 20.00     0.004 C 
HETATM    6  C6  UNL     1     -33.372   8.379   5.490  1.00 20.00     0.004 C 
HETATM    7  C7  UNL     1     -32.261   6.479   3.076  1.00 20.00     0.000 C 
HETATM    8  C8  UNL     1     -32.389   8.705   4.361  1.00 20.00     0.000 C 
HETATM    9  C9  UNL     1     -32.588   7.972   3.033  1.00 20.00     0.000 C 
ENDROOT
TORSDOF 0
