REMARK  2 active torsions:
REMARK  status: ('A' for Active; 'I' for Inactive)
REMARK    1  A    between atoms: C9_9  and  C11_11 
REMARK    2  A    between atoms: C10_10  and  C11_11 
ROOT
HETATM    1  C6  UNL     1     -31.681   7.936   4.341  1.00 20.00     0.207 A 
HETATM    2  C11 UNL     1     -32.996   7.240   4.590  1.00 20.00     0.089 A 
HETATM    3  O12 UNL     1     -32.759   7.990   3.393  1.00 20.00    -0.374 OA
ENDROOT
BRANCH   2   4
HETATM    4  C9  UNL     1     -34.024   7.831   5.525  1.00 20.00     0.023 C 
HETATM    5  C2  UNL     1     -35.428   7.519   4.974  1.00 20.00     0.012 C 
HETATM    6  C7  UNL     1     -35.611   5.995   4.824  1.00 20.00    -0.013 C 
HETATM    7  C1  UNL     1     -35.432   5.326   6.198  1.00 20.00     0.009 C 
HETATM    8  C3  UNL     1     -34.545   5.451   3.850  1.00 20.00     0.012 C 
HETATM    9  C8  UNL     1     -34.028   5.623   6.754  1.00 20.00    -0.013 C 
HETATM   10  C4  UNL     1     -33.854   7.150   6.898  1.00 20.00     0.012 C 
HETATM   11  C5  UNL     1     -32.968   5.078   5.772  1.00 20.00     0.012 C 
HETATM   12  C10 UNL     1     -33.134   5.748   4.394  1.00 20.00     0.023 C 
ENDBRANCH   2   4
TORSDOF 2
