REMARK  2 active torsions:
REMARK  status: ('A' for Active; 'I' for Inactive)
REMARK    1  A    between atoms: C1_1  and  C7_7 
REMARK       I    between atoms: C1_1  and  N9_9 
REMARK    2  A    between atoms: C7_7  and  C8_8 
ROOT
HETATM    1  C1  UNL     1     -32.674   7.979   3.947  1.00 20.00     0.219 C 
HETATM    2  C2  UNL     1     -32.079   8.549   0.336  1.00 20.00     0.021 C 
HETATM    3  C3  UNL     1     -32.928   9.750   0.734  1.00 20.00     0.021 C 
HETATM    4  C4  UNL     1     -32.338   7.560   1.464  1.00 20.00     0.126 C 
HETATM    5  C5  UNL     1     -32.768   9.790   2.246  1.00 20.00     0.126 C 
HETATM    6  N9  UNL     1     -32.594   8.397   2.631  1.00 20.00    -0.352 N 
HETATM    7  O10 UNL     1     -32.367   8.680   4.913  1.00 20.00    -0.273 OA
ENDROOT
BRANCH   1   8
HETATM    8  C7  UNL     1     -33.166   6.569   4.152  1.00 20.00     0.103 C 
BRANCH   8   9
HETATM    9  C8  UNL     1     -33.896   6.450   5.479  1.00 20.00     0.005 C 
HETATM   10  C6  UNL     1     -34.363   5.031   5.772  1.00 20.00     0.005 C 
ENDBRANCH   8   9
ENDBRANCH   1   8
TORSDOF 2
