REMARK  0 active torsions:
REMARK  status: ('A' for Active; 'I' for Inactive)
ROOT
HETATM    1  C1  UNL     1     -33.287   5.854   2.985  1.00 20.00     0.053 A 
HETATM    2  C2  UNL     1     -34.000   6.139   4.076  1.00 20.00    -0.072 A 
HETATM    3  C3  UNL     1     -32.468   7.047   2.730  1.00 20.00     0.150 A 
HETATM    4  C4  UNL     1     -34.939   5.230   4.800  1.00 20.00     0.034 C 
HETATM    5  C5  UNL     1     -32.689   8.116   3.764  1.00 20.00     0.092 A 
HETATM    6  C6  UNL     1     -34.557   5.155   6.281  1.00 20.00     0.004 C 
HETATM    7  C7  UNL     1     -34.377   6.542   6.908  1.00 20.00     0.001 C 
HETATM    8  C8  UNL     1     -33.369   7.393   6.126  1.00 20.00     0.009 C 
HETATM    9  C9  UNL     1     -33.772   7.507   4.654  1.00 20.00     0.022 A 
HETATM   10  O10 UNL     1     -31.696   7.136   1.787  1.00 20.00    -0.293 OA
ENDROOT
TORSDOF 0
