REMARK  4 active torsions:
REMARK  status: ('A' for Active; 'I' for Inactive)
REMARK    1  A    between atoms: C1_1  and  C2_2 
REMARK    2  A    between atoms: C2_2  and  C3_3 
REMARK    3  A    between atoms: C3_3  and  C4_4 
REMARK    4  A    between atoms: C4_4  and  C5_5 
ROOT
HETATM    1  C2  UNL     1     -31.705   7.633   3.779  1.00 20.00     0.096 C 
ENDROOT
BRANCH   1   2
HETATM    2  C1  UNL     1     -32.198   7.051   2.464  1.00 20.00     0.218 C 
HETATM    3  O6  UNL     1     -32.101   7.643   1.394  1.00 20.00    -0.280 OA
HETATM    4 CL7  UNL     1     -32.859   5.454   2.677  1.00 20.00    -0.044 Cl
ENDBRANCH   1   2
BRANCH   1   5
HETATM    5  C3  UNL     1     -32.766   8.450   4.519  1.00 20.00     0.010 C 
BRANCH   5   6
HETATM    6  C4  UNL     1     -33.967   7.596   4.943  1.00 20.00     0.015 C 
BRANCH   6   7
HETATM    7  C5  UNL     1     -33.578   6.405   5.814  1.00 20.00     0.114 C 
HETATM    8 CL8  UNL     1     -34.990   5.422   6.266  1.00 20.00    -0.130 Cl
ENDBRANCH   6   7
ENDBRANCH   5   6
ENDBRANCH   1   5
TORSDOF 4
