REMARK  2 active torsions:
REMARK  status: ('A' for Active; 'I' for Inactive)
REMARK    1  A    between atoms: C2_2  and  C3_3 
REMARK    2  A    between atoms: C2_2  and  S5_5 
ROOT
HETATM    1  C1  UNL     1     -33.986   5.543   3.525  1.00 20.00     0.133 C 
HETATM    2  N4  UNL     1     -33.097   5.696   2.795  1.00 20.00    -0.184 NA
HETATM    3  S5  UNL     1     -35.288   5.318   4.578  1.00 20.00    -0.050 SA
ENDROOT
BRANCH   3   4
HETATM    4  C2  UNL     1     -34.365   5.325   6.144  1.00 20.00     0.105 C 
BRANCH   4   5
HETATM    5  C3  UNL     1     -34.099   6.733   6.656  1.00 20.00     0.126 C 
HETATM    6 CL6  UNL     1     -33.098   7.680   5.527  1.00 20.00    -0.130 Cl
ENDBRANCH   4   5
ENDBRANCH   3   4
TORSDOF 2
