REMARK  0 active torsions:
REMARK  status: ('A' for Active; 'I' for Inactive)
ROOT
HETATM    1  C1  UNL     1     -33.186   7.955   4.756  1.00 20.00     0.223 A 
HETATM    2  C2  UNL     1     -33.514   6.714   2.533  1.00 20.00     0.027 A 
HETATM    3  C3  UNL     1     -32.687   6.986   3.753  1.00 20.00     0.089 A 
HETATM    4  C4  UNL     1     -33.634   5.805   3.746  1.00 20.00    -0.006 A 
HETATM    5  C5  UNL     1     -34.689   6.084   4.832  1.00 20.00     0.034 A 
HETATM    6  C6  UNL     1     -33.102   4.410   3.594  1.00 20.00     0.018 C 
HETATM    7  C7  UNL     1     -34.595   5.121   6.022  1.00 20.00     0.039 C 
HETATM    8  C8  UNL     1     -36.106   6.066   4.258  1.00 20.00     0.039 C 
HETATM    9  N9  UNL     1     -34.339   7.427   5.306  1.00 20.00    -0.351 N 
HETATM   10  O10 UNL     1     -32.640   9.019   4.996  1.00 20.00    -0.273 OA
HETATM   11  H23 UNL     1     -34.875   7.912   6.019  1.00 20.00     0.163 HD
ENDROOT
TORSDOF 0
