REMARK  1 active torsions:
REMARK  status: ('A' for Active; 'I' for Inactive)
REMARK    1  A    between atoms: C1_1  and  C8_8 
ROOT
HETATM    1  C1  UNL     1     -32.885   7.201   4.179  1.00 20.00     0.139 C 
HETATM    2  C2  UNL     1     -33.436   5.108   3.843  1.00 20.00     0.209 C 
HETATM    3  C3  UNL     1     -34.067   5.637   5.126  1.00 20.00     0.070 C 
HETATM    4  C4  UNL     1     -35.576   5.848   4.975  1.00 20.00     0.042 C 
HETATM    5  C5  UNL     1     -33.768   4.742   6.325  1.00 20.00     0.042 C 
HETATM    6  N9  UNL     1     -33.433   6.956   5.326  1.00 20.00    -0.258 NA
HETATM    7  O10 UNL     1     -32.932   6.272   3.199  1.00 20.00    -0.335 OA
ENDROOT
BRANCH   1   8
HETATM    8  C8  UNL     1     -32.171   8.451   3.822  1.00 20.00     0.054 C 
HETATM    9  C6  UNL     1     -32.823   9.122   2.610  1.00 20.00     0.018 C 
HETATM   10  C7  UNL     1     -32.123   9.423   5.005  1.00 20.00     0.018 C 
ENDBRANCH   1   8
TORSDOF 1
