REMARK  0 active torsions:
REMARK  status: ('A' for Active; 'I' for Inactive)
ROOT
HETATM    1  C1  UNL     1     -34.051   5.403   6.780  1.00 20.00     0.000 C 
HETATM    2  C2  UNL     1     -32.721   6.088   6.488  1.00 20.00     0.003 C 
HETATM    3  C3  UNL     1     -34.846   5.157   5.503  1.00 20.00     0.003 C 
HETATM    4  C4  UNL     1     -32.727   8.575   2.776  1.00 20.00     0.029 C 
HETATM    5  C5  UNL     1     -32.915   7.382   5.696  1.00 20.00     0.038 C 
HETATM    6  C6  UNL     1     -35.048   6.446   4.706  1.00 20.00     0.038 C 
HETATM    7  C7  UNL     1     -33.954   8.474   3.649  1.00 20.00     0.040 C 
HETATM    8  C8  UNL     1     -32.487   7.129   2.410  1.00 20.00     0.168 C 
HETATM    9  C9  UNL     1     -33.724   7.162   4.403  1.00 20.00     0.061 C 
HETATM   10  O10 UNL     1     -32.935   6.337   3.517  1.00 20.00    -0.380 OA
ENDROOT
TORSDOF 0
