REMARK  0 active torsions:
REMARK  status: ('A' for Active; 'I' for Inactive)
ROOT
HETATM    1  C1  UNL     1     -33.928   4.137   5.379  1.00 20.00     0.005 C 
HETATM    2  C2  UNL     1     -34.578   4.896   4.215  1.00 20.00     0.008 C 
HETATM    3  C3  UNL     1     -35.149   5.997   6.223  1.00 20.00     0.012 C 
HETATM    4  C4  UNL     1     -32.764   6.218   6.154  1.00 20.00     0.047 C 
HETATM    5  C5  UNL     1     -33.874   5.198   6.491  1.00 20.00    -0.011 C 
HETATM    6  C6  UNL     1     -34.746   6.324   4.777  1.00 20.00     0.025 C 
HETATM    7  C7  UNL     1     -33.377   7.024   4.986  1.00 20.00     0.117 C 
HETATM    8 CL8  UNL     1     -32.337   7.014   3.541  1.00 20.00    -0.101 Cl
HETATM    9 CL9  UNL     1     -33.621   8.738   5.467  1.00 20.00    -0.101 Cl
ENDROOT
TORSDOF 0
