REMARK  1 active torsions:
REMARK  status: ('A' for Active; 'I' for Inactive)
REMARK    1  A    between atoms: C2_2  and  C3_3 
ROOT
HETATM    1  C3  UNL     1     -34.501   5.706   4.650  1.00 20.00     0.423 C 
HETATM    2  F4  UNL     1     -34.020   4.549   4.125  1.00 20.00    -0.166 F 
HETATM    3  F5  UNL     1     -35.805   5.782   4.277  1.00 20.00    -0.166 F 
HETATM    4  F6  UNL     1     -34.497   5.556   6.000  1.00 20.00    -0.166 F 
ENDROOT
BRANCH   1   5
HETATM    5  C2  UNL     1     -33.701   6.889   4.218  1.00 20.00     0.085 C 
HETATM    6  C1  UNL     1     -33.967   8.146   4.596  1.00 20.00     0.036 C 
HETATM    7 BR7  UNL     1     -32.266   6.497   3.083  1.00 20.00    -0.047 Br
ENDBRANCH   1   5
TORSDOF 1
