REMARK  1 active torsions:
REMARK  status: ('A' for Active; 'I' for Inactive)
REMARK    1  A    between atoms: C1_1  and  O7_7 
ROOT
HETATM    1  C1  UNL     1     -33.863   6.595   4.110  1.00 20.00     0.294 A 
HETATM    2  C2  UNL     1     -34.297   5.833   5.344  1.00 20.00     0.106 A 
HETATM    3  C3  UNL     1     -34.195   4.341   5.346  1.00 20.00     0.051 C 
HETATM    4  C4  UNL     1     -34.357   6.505   6.679  1.00 20.00     0.051 C 
HETATM    5  O6  UNL     1     -35.248   6.346   4.399  1.00 20.00    -0.343 OA
ENDROOT
BRANCH   1   6
HETATM    6  O7  UNL     1     -33.419   7.948   4.291  1.00 20.00    -0.363 OA
HETATM    7  C5  UNL     1     -32.079   7.985   4.749  1.00 20.00     0.204 C 
ENDBRANCH   1   6
TORSDOF 1
