REMARK  1 active torsions:
REMARK  status: ('A' for Active; 'I' for Inactive)
REMARK    1  A    between atoms: C4_4  and  O5_5 
ROOT
HETATM    1  C1  UNL     1     -34.466   7.206   6.892  1.00 20.00     0.014 C 
HETATM    2  C2  UNL     1     -34.334   6.059   6.566  1.00 20.00    -0.091 C 
HETATM    3  C4  UNL     1     -34.171   4.659   6.171  1.00 20.00     0.259 C 
ENDROOT
BRANCH   3   4
HETATM    4  O5  UNL     1     -34.859   4.403   4.954  1.00 20.00    -0.384 OA
HETATM    5  C3  UNL     1     -34.110   4.841   3.829  1.00 20.00     0.202 C 
ENDBRANCH   3   4
TORSDOF 1
