REMARK  2 active torsions:
REMARK  status: ('A' for Active; 'I' for Inactive)
REMARK    1  A    between atoms: C3_3  and  C8_8 
REMARK    2  A    between atoms: C4_4  and  C7_7 
ROOT
HETATM    1  C5  UNL     1     -33.020   5.586   2.733  1.00 20.00     0.040 C 
HETATM    2  C6  UNL     1     -33.614   4.478   3.573  1.00 20.00     0.045 C 
HETATM    3  C7  UNL     1     -32.576   6.575   3.799  1.00 20.00     0.151 C 
HETATM    4  C8  UNL     1     -34.292   5.250   4.704  1.00 20.00     0.075 C 
HETATM    5  C10 UNL     1     -34.303   4.464   6.011  1.00 20.00     0.050 C 
HETATM    6  O11 UNL     1     -33.505   6.445   4.891  1.00 20.00    -0.367 OA
ENDROOT
BRANCH   3   7
HETATM    7  C4  UNL     1     -32.556   7.983   3.318  1.00 20.00    -0.065 C 
HETATM    8  C2  UNL     1     -32.831   8.302   2.044  1.00 20.00     0.016 C 
HETATM    9  C9  UNL     1     -32.210   9.026   4.339  1.00 20.00     0.045 C 
ENDBRANCH   3   7
BRANCH   4  10
HETATM   10  C3  UNL     1     -35.689   5.669   4.351  1.00 20.00     0.000 C 
HETATM   11  C1  UNL     1     -35.994   6.463   3.318  1.00 20.00     0.010 C 
ENDBRANCH   4  10
TORSDOF 2
