REMARK  1 active torsions:
REMARK  status: ('A' for Active; 'I' for Inactive)
REMARK    1  A    between atoms: C3_3  and  C7_7 
ROOT
HETATM    1  C1  UNL     1     -33.778   6.861   5.647  1.00 20.00     0.001 C 
HETATM    2  C2  UNL     1     -33.975   5.862   4.771  1.00 20.00    -0.083 C 
HETATM    3  C5  UNL     1     -32.987   8.086   5.299  1.00 20.00     0.196 C 
HETATM    4  C6  UNL     1     -33.427   5.962   3.371  1.00 20.00     0.069 C 
HETATM    5  C7  UNL     1     -33.019   7.401   3.027  1.00 20.00     0.148 C 
HETATM    6  C8  UNL     1     -34.729   4.616   5.119  1.00 20.00     0.043 C 
HETATM    7  O11 UNL     1     -32.227   7.926   4.096  1.00 20.00    -0.378 OA
ENDROOT
BRANCH   5   8
HETATM    8  C3  UNL     1     -32.211   7.458   1.773  1.00 20.00     0.007 C 
HETATM    9  C4  UNL     1     -32.116   8.479   0.900  1.00 20.00    -0.089 C 
HETATM   10  C9  UNL     1     -31.251   8.377  -0.326  1.00 20.00     0.042 C 
HETATM   11  C10 UNL     1     -32.841   9.785   1.060  1.00 20.00     0.042 C 
ENDBRANCH   5   8
TORSDOF 1
