REMARK  0 active torsions:
REMARK  status: ('A' for Active; 'I' for Inactive)
ROOT
HETATM    1  C1  UNL     1     -32.563   8.382   3.501  1.00 20.00    -0.030 C 
HETATM    2  C2  UNL     1     -32.435   7.317   2.688  1.00 20.00    -0.030 C 
HETATM    3  C3  UNL     1     -34.869   5.328   6.181  1.00 20.00    -0.030 C 
HETATM    4  C4  UNL     1     -34.284   6.511   6.429  1.00 20.00    -0.025 C 
HETATM    5  C5  UNL     1     -33.221   8.321   4.862  1.00 20.00     0.035 C 
HETATM    6  C6  UNL     1     -32.990   5.948   3.012  1.00 20.00     0.032 C 
HETATM    7  C7  UNL     1     -34.470   4.778   4.839  1.00 20.00     0.032 C 
HETATM    8  C8  UNL     1     -33.359   6.869   5.312  1.00 20.00     0.016 C 
HETATM    9  C9  UNL     1     -33.978   6.054   4.167  1.00 20.00     0.000 C 
ENDROOT
TORSDOF 0
