REMARK  2 active torsions:
REMARK  status: ('A' for Active; 'I' for Inactive)
REMARK    1  A    between atoms: C1_1  and  C2_2 
REMARK    2  A    between atoms: C1_1  and  C3_3 
ROOT
HETATM    1  C1  UNL     1     -34.122   7.807   4.594  1.00 20.00     0.188 C 
ENDROOT
BRANCH   1   2
HETATM    2  C2  UNL     1     -32.712   8.109   5.059  1.00 20.00     0.361 C 
HETATM    3  F4  UNL     1     -32.504   9.450   5.015  1.00 20.00    -0.214 F 
HETATM    4  F5  UNL     1     -31.814   7.550   4.211  1.00 20.00    -0.214 F 
ENDBRANCH   1   2
BRANCH   1   5
HETATM    5  C3  UNL     1     -34.418   6.325   4.588  1.00 20.00     0.392 C 
HETATM    6  F6  UNL     1     -35.662   6.072   4.128  1.00 20.00    -0.171 F 
HETATM    7  F7  UNL     1     -33.541   5.651   3.814  1.00 20.00    -0.171 F 
HETATM    8  F8  UNL     1     -34.334   5.821   5.839  1.00 20.00    -0.171 F 
ENDBRANCH   1   5
TORSDOF 2
