REMARK  0 active torsions:
REMARK  status: ('A' for Active; 'I' for Inactive)
ROOT
HETATM    1  C1  UNL     1     -33.662   9.007   2.477  1.00 20.00     0.047 C 
HETATM    2  C2  UNL     1     -33.954   8.333   3.596  1.00 20.00    -0.014 C 
HETATM    3  C3  UNL     1     -32.693   8.461   1.499  1.00 20.00     0.149 C 
HETATM    4  C4  UNL     1     -32.087   7.104   1.768  1.00 20.00     0.084 C 
HETATM    5  C5  UNL     1     -31.974   6.843   3.264  1.00 20.00     0.021 C 
HETATM    6  C6  UNL     1     -35.153   5.766   6.047  1.00 20.00     0.000 C 
HETATM    7  C7  UNL     1     -35.521   5.796   4.569  1.00 20.00     0.001 C 
HETATM    8  C8  UNL     1     -34.256   6.938   6.426  1.00 20.00     0.001 C 
HETATM    9  C9  UNL     1     -34.277   5.844   3.680  1.00 20.00     0.013 C 
HETATM   10  C10 UNL     1     -33.014   7.015   5.536  1.00 20.00     0.013 C 
HETATM   11  C11 UNL     1     -33.320   7.016   4.015  1.00 20.00    -0.022 C 
HETATM   12  O12 UNL     1     -32.447   9.086   0.469  1.00 20.00    -0.293 OA
ENDROOT
TORSDOF 0
