REMARK  3 active torsions:
REMARK  status: ('A' for Active; 'I' for Inactive)
REMARK    1  A    between atoms: C1_1  and  C10_10 
REMARK    2  A    between atoms: C2_2  and  C8_8 
REMARK    3  A    between atoms: C9_9  and  C10_10 
ROOT
HETATM    1  C1  UNL     1     -33.510   6.244   3.886  1.00 20.00    -0.016 C 
HETATM    2  C2  UNL     1     -33.019   7.462   3.572  1.00 20.00    -0.087 C 
HETATM    3  C3  UNL     1     -33.580   8.684   4.262  1.00 20.00     0.043 C 
ENDROOT
BRANCH   1   4
HETATM    4  C10 UNL     1     -34.598   5.814   4.870  1.00 20.00    -0.030 C 
HETATM    5  C6  UNL     1     -35.970   5.798   4.165  1.00 20.00     0.019 C 
HETATM    6  C7  UNL     1     -34.305   4.352   5.294  1.00 20.00     0.019 C 
BRANCH   4   7
HETATM    7  C9  UNL     1     -34.682   6.693   6.148  1.00 20.00     0.008 C 
HETATM    8  C5  UNL     1     -33.418   6.731   7.001  1.00 20.00     0.006 C 
ENDBRANCH   4   7
ENDBRANCH   1   4
BRANCH   2   9
HETATM    9  C8  UNL     1     -31.896   7.756   2.604  1.00 20.00     0.029 C 
HETATM   10  C4  UNL     1     -32.380   7.976   1.177  1.00 20.00     0.010 C 
ENDBRANCH   2   9
TORSDOF 3
