REMARK  2 active torsions:
REMARK  status: ('A' for Active; 'I' for Inactive)
REMARK    1  A    between atoms: C1_1  and  C2_2 
REMARK    2  A    between atoms: C2_2  and  C3_3 
ROOT
HETATM    1  C3  UNL     1     -34.497   5.660   4.974  1.00 20.00     0.393 C 
HETATM    2  F5  UNL     1     -34.736   5.089   6.173  1.00 20.00    -0.171 F 
HETATM    3  F6  UNL     1     -35.694   5.972   4.427  1.00 20.00    -0.171 F 
HETATM    4  F7  UNL     1     -33.914   4.740   4.177  1.00 20.00    -0.171 F 
ENDROOT
BRANCH   1   5
HETATM    5  C2  UNL     1     -33.643   6.897   5.109  1.00 20.00     0.186 C 
BRANCH   5   6
HETATM    6  C1  UNL     1     -33.364   7.571   3.789  1.00 20.00     0.239 C 
HETATM    7  O4  UNL     1     -33.212   8.778   3.638  1.00 20.00    -0.307 OA
ENDBRANCH   5   6
ENDBRANCH   1   5
TORSDOF 2
