REMARK  0 active torsions:
REMARK  status: ('A' for Active; 'I' for Inactive)
ROOT
HETATM    1  C1  UNL     1     -34.035   5.238   6.670  1.00 20.00     0.000 C 
HETATM    2  C2  UNL     1     -34.196   4.582   5.301  1.00 20.00     0.000 C 
HETATM    3  C3  UNL     1     -33.301   6.571   6.723  1.00 20.00     0.000 C 
HETATM    4  C4  UNL     1     -33.001   4.724   4.358  1.00 20.00     0.001 C 
HETATM    5  C5  UNL     1     -33.974   7.748   6.030  1.00 20.00     0.001 C 
HETATM    6  C6  UNL     1     -33.226   5.716   3.215  1.00 20.00     0.012 C 
HETATM    7  C7  UNL     1     -34.304   7.663   4.536  1.00 20.00     0.012 C 
HETATM    8  C8  UNL     1     -31.812   7.780   3.835  1.00 20.00     0.038 C 
HETATM    9  C9  UNL     1     -31.904   9.230   3.400  1.00 20.00     0.168 C 
HETATM   10  C10 UNL     1     -33.454   7.986   2.199  1.00 20.00     0.177 C 
HETATM   11  C11 UNL     1     -33.202   7.231   3.526  1.00 20.00    -0.017 C 
HETATM   12  O12 UNL     1     -32.863   9.286   2.338  1.00 20.00    -0.390 OA
ENDROOT
TORSDOF 0
