REMARK  2 active torsions:
REMARK  status: ('A' for Active; 'I' for Inactive)
REMARK    1  A    between atoms: C3_3  and  C8_8 
REMARK    2  A    between atoms: C4_4  and  C7_7 
ROOT
HETATM    1  C5  UNL     1     -32.834   7.938   5.620  1.00 20.00     0.040 C 
HETATM    2  C6  UNL     1     -31.824   7.995   4.496  1.00 20.00     0.045 C 
HETATM    3  C7  UNL     1     -34.063   7.356   4.940  1.00 20.00     0.151 C 
HETATM    4  C8  UNL     1     -32.693   8.301   3.275  1.00 20.00     0.075 C 
HETATM    5  C10 UNL     1     -32.872   9.807   3.065  1.00 20.00     0.050 C 
HETATM    6  O11 UNL     1     -33.992   7.742   3.557  1.00 20.00    -0.367 OA
ENDROOT
BRANCH   3   7
HETATM    7  C4  UNL     1     -34.135   5.866   5.008  1.00 20.00    -0.065 C 
HETATM    8  C2  UNL     1     -34.064   5.102   3.908  1.00 20.00     0.016 C 
HETATM    9  C9  UNL     1     -34.290   5.273   6.377  1.00 20.00     0.045 C 
ENDBRANCH   3   7
BRANCH   4  10
HETATM   10  C3  UNL     1     -32.159   7.650   2.037  1.00 20.00     0.000 C 
HETATM   11  C1  UNL     1     -31.781   8.320   0.943  1.00 20.00     0.010 C 
ENDBRANCH   4  10
TORSDOF 2
