REMARK  2 active torsions:
REMARK  status: ('A' for Active; 'I' for Inactive)
REMARK    1  A    between atoms: C1_1  and  C2_2 
REMARK    2  A    between atoms: C1_1  and  C3_3 
ROOT
HETATM    1  C3  UNL     1     -34.145   5.546   4.532  1.00 20.00     0.321 C 
HETATM    2  F4  UNL     1     -33.952   4.207   4.398  1.00 20.00    -0.188 F 
HETATM    3  F5  UNL     1     -35.429   5.787   4.163  1.00 20.00    -0.188 F 
HETATM    4 CL7  UNL     1     -33.042   6.400   3.443  1.00 20.00    -0.048 Cl
ENDROOT
BRANCH   1   5
HETATM    5  C1  UNL     1     -33.953   5.924   5.995  1.00 20.00     0.112 C 
BRANCH   5   6
HETATM    6  C2  UNL     1     -34.595   7.255   6.368  1.00 20.00     0.122 C 
HETATM    7 CL6  UNL     1     -33.914   8.568   5.377  1.00 20.00    -0.130 Cl
ENDBRANCH   5   6
ENDBRANCH   1   5
TORSDOF 2
