REMARK  0 active torsions:
REMARK  status: ('A' for Active; 'I' for Inactive)
ROOT
HETATM    1  C1  UNL     1     -35.672   6.032   4.172  1.00 20.00     0.044 C 
HETATM    2  C2  UNL     1     -34.215   4.444   5.486  1.00 20.00     0.044 C 
HETATM    3  C3  UNL     1     -34.326   5.825   4.854  1.00 20.00     0.087 C 
HETATM    4 CL4  UNL     1     -34.075   7.082   6.095  1.00 20.00    -0.107 Cl
HETATM    5 BR5  UNL     1     -32.911   6.009   3.508  1.00 20.00    -0.069 Br
ENDROOT
TORSDOF 0
