REMARK  3 active torsions:
REMARK  status: ('A' for Active; 'I' for Inactive)
REMARK    1  A    between atoms: C5_5  and  C7_7 
REMARK    2  A    between atoms: C5_5  and  C8_8 
REMARK    3  A    between atoms: C6_6  and  C8_8 
ROOT
HETATM    1  C3  UNL     1     -34.232   5.466   6.266  1.00 20.00     0.016 C 
HETATM    2  C4  UNL     1     -35.563   6.227   4.290  1.00 20.00     0.016 C 
HETATM    3  C8  UNL     1     -34.199   5.650   4.735  1.00 20.00    -0.035 C 
ENDROOT
BRANCH   3   4
HETATM    4  C5  UNL     1     -33.112   6.707   4.354  1.00 20.00     0.013 C 
BRANCH   4   5
HETATM    5  C7  UNL     1     -33.529   8.196   4.421  1.00 20.00    -0.022 C 
HETATM    6  C1  UNL     1     -33.970   8.596   5.833  1.00 20.00     0.009 C 
HETATM    7  C2  UNL     1     -32.361   9.092   3.996  1.00 20.00     0.009 C 
ENDBRANCH   4   5
ENDBRANCH   3   4
BRANCH   3   8
HETATM    8  C6  UNL     1     -33.925   4.305   4.024  1.00 20.00     0.123 C 
HETATM    9 CL9  UNL     1     -33.879   4.411   2.243  1.00 20.00    -0.130 Cl
ENDBRANCH   3   8
TORSDOF 3
