REMARK  3 active torsions:
REMARK  status: ('A' for Active; 'I' for Inactive)
REMARK    1  A    between atoms: C1_1  and  C3_3 
REMARK    2  A    between atoms: C1_1  and  O4_4 
REMARK    3  A    between atoms: C2_2  and  O4_4 
ROOT
HETATM    1  C1  UNL     1     -33.950   6.403   5.453  1.00 20.00     0.291 C 
ENDROOT
BRANCH   1   2
HETATM    2  C3  UNL     1     -34.164   5.570   4.215  1.00 20.00     0.408 C 
HETATM    3  F7  UNL     1     -35.257   5.992   3.542  1.00 20.00    -0.169 F 
HETATM    4  F8  UNL     1     -34.349   4.270   4.527  1.00 20.00    -0.169 F 
HETATM    5  F9  UNL     1     -33.108   5.655   3.379  1.00 20.00    -0.169 F 
ENDBRANCH   1   2
BRANCH   1   6
HETATM    6  O4  UNL     1     -33.778   7.760   5.074  1.00 20.00    -0.324 OA
BRANCH   6   7
HETATM    7  C2  UNL     1     -32.466   8.033   4.602  1.00 20.00     0.500 C 
HETATM    8  F5  UNL     1     -32.362   7.646   3.308  1.00 20.00    -0.185 F 
HETATM    9  F6  UNL     1     -32.233   9.366   4.659  1.00 20.00    -0.185 F 
ENDBRANCH   6   7
ENDBRANCH   1   6
TORSDOF 3
