REMARK  0 active torsions:
REMARK  status: ('A' for Active; 'I' for Inactive)
ROOT
HETATM    1  C1  UNL     1     -35.219   5.945   4.503  1.00 20.00     0.009 A 
HETATM    2  C2  UNL     1     -33.884   5.376   4.116  1.00 20.00     0.009 A 
HETATM    3  C3  UNL     1     -34.089   5.933   5.505  1.00 20.00    -0.048 A 
HETATM    4  C4  UNL     1     -33.432   7.244   5.844  1.00 20.00     0.015 C 
HETATM    5  C5  UNL     1     -34.171   4.961   6.650  1.00 20.00     0.015 C 
ENDROOT
TORSDOF 0
