REMARK  3 active torsions:
REMARK  status: ('A' for Active; 'I' for Inactive)
REMARK    1  A    between atoms: C6_6  and  C9_9 
REMARK    2  A    between atoms: C7_7  and  C8_8 
REMARK    3  A    between atoms: C7_7  and  C9_9 
ROOT
HETATM    1  C4  UNL     1     -34.399   8.385   3.539  1.00 20.00     0.015 C 
HETATM    2  C5  UNL     1     -32.103   9.005   4.265  1.00 20.00     0.015 C 
HETATM    3  C9  UNL     1     -33.050   7.810   4.009  1.00 20.00    -0.048 C 
ENDROOT
BRANCH   3   4
HETATM    4  C6  UNL     1     -32.480   6.931   2.860  1.00 20.00     0.004 C 
HETATM    5  C1  UNL     1     -32.225   7.644   1.538  1.00 20.00     0.006 C 
ENDBRANCH   3   4
BRANCH   3   6
HETATM    6  C7  UNL     1     -33.205   7.036   5.354  1.00 20.00     0.012 C 
BRANCH   6   7
HETATM    7  C8  UNL     1     -34.506   6.222   5.552  1.00 20.00    -0.022 C 
HETATM    8  C2  UNL     1     -34.629   5.155   4.457  1.00 20.00     0.009 C 
HETATM    9  C3  UNL     1     -34.543   5.526   6.917  1.00 20.00     0.009 C 
ENDBRANCH   6   7
ENDBRANCH   3   6
TORSDOF 3
