REMARK  2 active torsions:
REMARK  status: ('A' for Active; 'I' for Inactive)
REMARK    1  A    between atoms: C2_2  and  C3_3 
REMARK    2  A    between atoms: C3_3  and  O4_4 
ROOT
HETATM    1  C3  UNL     1     -34.648   6.308   4.579  1.00 20.00     0.398 C 
HETATM    2  F6  UNL     1     -35.916   6.083   4.156  1.00 20.00    -0.171 F 
HETATM    3  F7  UNL     1     -34.621   6.101   5.920  1.00 20.00    -0.171 F 
ENDROOT
BRANCH   1   4
HETATM    4  C2  UNL     1     -34.236   7.734   4.290  1.00 20.00     0.367 C 
HETATM    5  F5  UNL     1     -33.992   8.363   5.470  1.00 20.00    -0.223 F 
HETATM    6 CL8  UNL     1     -32.764   7.801   3.297  1.00 20.00    -0.080 Cl
ENDBRANCH   1   4
BRANCH   1   7
HETATM    7  O4  UNL     1     -33.764   5.383   3.957  1.00 20.00    -0.328 OA
HETATM    8  C1  UNL     1     -34.122   4.031   4.208  1.00 20.00     0.208 C 
ENDBRANCH   1   7
TORSDOF 2
