REMARK  2 active torsions:
REMARK  status: ('A' for Active; 'I' for Inactive)
REMARK    1  A    between atoms: C1_1  and  C4_4 
REMARK    2  A    between atoms: C5_5  and  C8_8 
ROOT
HETATM    1  C2  UNL     1     -33.661   7.959   4.154  1.00 20.00     0.020 C 
HETATM    2  C3  UNL     1     -32.935   6.337   2.978  1.00 20.00     0.020 C 
HETATM    3  C4  UNL     1     -33.235   6.508   4.487  1.00 20.00     0.087 C 
HETATM    4  C5  UNL     1     -32.732   7.873   2.916  1.00 20.00    -0.010 C 
ENDROOT
BRANCH   3   5
HETATM    5  C1  UNL     1     -34.306   5.634   5.031  1.00 20.00     0.177 C 
HETATM    6  O9  UNL     1     -34.306   4.448   4.598  1.00 20.00    -0.648 OA
HETATM    7  O10 UNL     1     -35.079   6.194   5.857  1.00 20.00    -0.648 OA
ENDBRANCH   3   5
BRANCH   4   8
HETATM    8  C8  UNL     1     -33.209   8.571   1.660  1.00 20.00    -0.019 C 
HETATM    9  C6  UNL     1     -33.434  10.064   1.912  1.00 20.00     0.010 C 
HETATM   10  C7  UNL     1     -32.214   8.375   0.512  1.00 20.00     0.010 C 
ENDBRANCH   4   8
TORSDOF 2
