REMARK  2 active torsions:
REMARK  status: ('A' for Active; 'I' for Inactive)
REMARK    1  A    between atoms: C1_1  and  C2_2 
REMARK    2  A    between atoms: C1_1  and  C3_3 
ROOT
HETATM    1  C1  UNL     1     -33.519   6.632   5.452  1.00 20.00     0.234 C 
ENDROOT
BRANCH   1   2
HETATM    2  C2  UNL     1     -33.253   7.857   4.606  1.00 20.00     0.396 C 
HETATM    3  F4  UNL     1     -32.496   7.558   3.529  1.00 20.00    -0.171 F 
HETATM    4  F5  UNL     1     -34.414   8.383   4.157  1.00 20.00    -0.171 F 
HETATM    5  F6  UNL     1     -32.616   8.816   5.311  1.00 20.00    -0.171 F 
ENDBRANCH   1   2
BRANCH   1   6
HETATM    6  C3  UNL     1     -34.283   5.563   4.701  1.00 20.00     0.396 C 
HETATM    7  F7  UNL     1     -34.527   4.504   5.505  1.00 20.00    -0.171 F 
HETATM    8  F8  UNL     1     -33.586   5.115   3.636  1.00 20.00    -0.171 F 
HETATM    9  F9  UNL     1     -35.472   6.024   4.260  1.00 20.00    -0.171 F 
ENDBRANCH   1   6
TORSDOF 2
