REMARK  0 active torsions:
REMARK  status: ('A' for Active; 'I' for Inactive)
ROOT
HETATM    1  C1  UNL     1     -34.282   5.628   5.835  1.00 20.00    -0.007 C 
HETATM    2  C2  UNL     1     -33.489   6.890   5.584  1.00 20.00     0.056 C 
HETATM    3  C3  UNL     1     -35.792   5.933   3.984  1.00 20.00     0.011 C 
HETATM    4  C4  UNL     1     -35.019   7.224   3.631  1.00 20.00     0.011 C 
HETATM    5  C5  UNL     1     -34.686   4.999   4.514  1.00 20.00     0.034 C 
HETATM    6  C6  UNL     1     -33.552   6.882   4.025  1.00 20.00    -0.032 C 
HETATM    7  C7  UNL     1     -33.448   5.367   3.654  1.00 20.00    -0.032 C 
HETATM    8  C8  UNL     1     -32.533   7.812   3.396  1.00 20.00     0.016 C 
HETATM    9  C9  UNL     1     -33.617   5.047   2.155  1.00 20.00     0.016 C 
HETATM   10  C10 UNL     1     -32.153   4.660   4.104  1.00 20.00     0.016 C 
HETATM   11  S11 UNL     1     -34.668   5.035   7.338  1.00 20.00    -0.089 SA
ENDROOT
TORSDOF 0
