REMARK  0 active torsions:
REMARK  status: ('A' for Active; 'I' for Inactive)
ROOT
HETATM    1  C1  UNL     1     -34.139   7.177   5.471  1.00 20.00    -0.089 C 
HETATM    2  C2  UNL     1     -32.577   7.402   3.060  1.00 20.00    -0.089 C 
HETATM    3  C3  UNL     1     -34.360   6.894   6.763  1.00 20.00     0.014 C 
HETATM    4  C4  UNL     1     -32.356   7.685   1.768  1.00 20.00     0.014 C 
HETATM    5  C5  UNL     1     -33.679   8.537   5.005  1.00 20.00     0.037 C 
HETATM    6  C6  UNL     1     -34.308   6.153   4.375  1.00 20.00     0.037 C 
HETATM    7  C7  UNL     1     -32.407   8.425   4.156  1.00 20.00     0.037 C 
HETATM    8  C8  UNL     1     -33.037   6.041   3.526  1.00 20.00     0.037 C 
ENDROOT
TORSDOF 0
