REMARK  0 active torsions:
REMARK  status: ('A' for Active; 'I' for Inactive)
ROOT
HETATM    1  C1  UNL     1     -34.567   4.852   6.030  1.00 20.00     0.051 C 
HETATM    2  C2  UNL     1     -33.576   5.133   3.736  1.00 20.00     0.051 C 
HETATM    3  C3  UNL     1     -33.808   7.121   5.257  1.00 20.00     0.051 C 
HETATM    4  C4  UNL     1     -34.405   5.784   4.835  1.00 20.00     0.092 C 
HETATM    5  F5  UNL     1     -35.649   6.027   4.327  1.00 20.00    -0.244 F 
ENDROOT
TORSDOF 0
