REMARK  3 active torsions:
REMARK  status: ('A' for Active; 'I' for Inactive)
REMARK    1  A    between atoms: C1_1  and  C5_5 
REMARK    2  A    between atoms: C1_1  and  O8_8 
REMARK    3  A    between atoms: C6_6  and  O8_8 
ROOT
HETATM    1  O8  UNL     1     -32.909   6.083   4.833  1.00 20.00    -0.310 OA
ENDROOT
BRANCH   1   2
HETATM    2  C1  UNL     1     -32.820   7.148   3.977  1.00 20.00     0.273 C 
HETATM    3  O7  UNL     1     -32.971   8.321   4.287  1.00 20.00    -0.264 OA
BRANCH   2   4
HETATM    4  C5  UNL     1     -32.506   6.630   2.600  1.00 20.00     0.225 C 
HETATM    5 CL9  UNL     1     -32.408   7.974   1.450  1.00 20.00    -0.120 Cl
ENDBRANCH   2   4
ENDBRANCH   1   2
BRANCH   1   6
HETATM    6  C6  UNL     1     -34.167   5.920   5.489  1.00 20.00     0.060 C 
HETATM    7  C2  UNL     1     -35.249   5.726   4.427  1.00 20.00     0.045 C 
HETATM    8  C3  UNL     1     -34.064   4.686   6.383  1.00 20.00     0.045 C 
HETATM    9  C4  UNL     1     -34.443   7.168   6.327  1.00 20.00     0.045 C 
ENDBRANCH   1   6
TORSDOF 3
