REMARK  1 active torsions:
REMARK  status: ('A' for Active; 'I' for Inactive)
REMARK    1  A    between atoms: C5_5  and  O10_10 
ROOT
HETATM    1  C1  UNL     1     -33.947   5.774   4.344  1.00 20.00     0.007 C 
HETATM    2  C2  UNL     1     -32.998   6.176   3.481  1.00 20.00    -0.084 C 
HETATM    3  C3  UNL     1     -32.260   7.485   3.650  1.00 20.00     0.042 C 
HETATM    4  C4  UNL     1     -33.398   7.715   5.885  1.00 20.00     0.045 C 
HETATM    5  C5  UNL     1     -34.356   6.563   5.554  1.00 20.00     0.142 C 
HETATM    6  C6  UNL     1     -32.931   8.481   4.631  1.00 20.00    -0.042 C 
HETATM    7  C7  UNL     1     -32.600   5.343   2.298  1.00 20.00     0.043 C 
HETATM    8  C8  UNL     1     -34.118   9.191   3.948  1.00 20.00     0.015 C 
HETATM    9  C9  UNL     1     -31.907   9.555   5.042  1.00 20.00     0.015 C 
ENDROOT
BRANCH   5  10
HETATM   10  O10 UNL     1     -34.441   5.695   6.682  1.00 20.00    -0.392 OA
HETATM   11  H26 UNL     1     -34.706   6.246   7.435  1.00 20.00     0.210 HD
ENDBRANCH   5  10
TORSDOF 1
