REMARK  3 active torsions:
REMARK  status: ('A' for Active; 'I' for Inactive)
REMARK    1  A    between atoms: C1_1  and  C2_2 
REMARK    2  A    between atoms: C4_4  and  C6_6 
REMARK    3  A    between atoms: C6_6  and  O7_7 
ROOT
HETATM    1  C2  UNL     1     -32.999   7.217   4.202  1.00 20.00    -0.002 C 
HETATM    2  C4  UNL     1     -34.221   7.106   4.743  1.00 20.00    -0.001 C 
ENDROOT
BRANCH   1   3
HETATM    3  C1  UNL     1     -32.606   8.321   3.356  1.00 20.00    -0.005 C 
HETATM    4  C3  UNL     1     -33.414   8.860   2.431  1.00 20.00    -0.031 C 
HETATM    5  C5  UNL     1     -33.020  10.001   1.551  1.00 20.00     0.036 C 
ENDBRANCH   1   3
BRANCH   2   6
HETATM    6  C6  UNL     1     -34.635   5.969   5.622  1.00 20.00     0.191 C 
BRANCH   6   7
HETATM    7  O7  UNL     1     -35.756   5.306   5.053  1.00 20.00    -0.397 OA
HETATM    8  H17 UNL     1     -35.987   4.580   5.655  1.00 20.00     0.209 HD
ENDBRANCH   6   7
ENDBRANCH   2   6
TORSDOF 3
