REMARK  2 active torsions:
REMARK  status: ('A' for Active; 'I' for Inactive)
REMARK    1  A    between atoms: C1_1  and  C5_5 
REMARK    2  A    between atoms: C1_1  and  C6_6 
ROOT
HETATM    1  C1  UNL     1     -33.019   7.434   4.089  1.00 20.00     0.167 C 
HETATM    2  O7  UNL     1     -31.984   8.057   4.348  1.00 20.00    -0.294 OA
ENDROOT
BRANCH   1   3
HETATM    3  C5  UNL     1     -33.231   6.834   2.713  1.00 20.00     0.248 C 
HETATM    4 CL8  UNL     1     -32.587   5.185   2.725  1.00 20.00    -0.100 Cl
HETATM    5 CL9  UNL     1     -32.385   7.847   1.533  1.00 20.00    -0.100 Cl
ENDBRANCH   1   3
BRANCH   1   6
HETATM    6  C6  UNL     1     -34.124   7.246   5.149  1.00 20.00     0.012 C 
HETATM    7  C2  UNL     1     -35.285   6.435   4.544  1.00 20.00     0.022 C 
HETATM    8  C3  UNL     1     -33.566   6.473   6.352  1.00 20.00     0.022 C 
HETATM    9  C4  UNL     1     -34.662   8.613   5.589  1.00 20.00     0.022 C 
ENDBRANCH   1   6
TORSDOF 2
