REMARK  1 active torsions:
REMARK  status: ('A' for Active; 'I' for Inactive)
REMARK    1  A    between atoms: C4_4  and  C7_7 
ROOT
HETATM    1  C1  UNL     1     -33.922   3.996   4.392  1.00 20.00     0.135 A 
HETATM    2  C2  UNL     1     -34.419   4.711   5.460  1.00 20.00     0.136 A 
HETATM    3  C3  UNL     1     -33.477   5.951   3.292  1.00 20.00     0.143 A 
HETATM    4  C4  UNL     1     -33.975   6.665   4.359  1.00 20.00     0.055 A 
HETATM    5  N8  UNL     1     -33.442   4.604   3.289  1.00 20.00    -0.270 NA
HETATM    6  N9  UNL     1     -34.455   6.058   5.463  1.00 20.00    -0.262 NA
ENDROOT
BRANCH   4   7
HETATM    7  C7  UNL     1     -33.999   8.182   4.327  1.00 20.00     0.031 C 
HETATM    8  C5  UNL     1     -32.888   8.744   3.437  1.00 20.00     0.016 C 
HETATM    9  C6  UNL     1     -33.922   8.777   5.735  1.00 20.00     0.016 C 
ENDBRANCH   4   7
TORSDOF 1
