REMARK  3 active torsions:
REMARK  status: ('A' for Active; 'I' for Inactive)
REMARK    1  A    between atoms: C3_3  and  C5_5 
REMARK    2  A    between atoms: C4_4  and  C6_6 
REMARK    3  A    between atoms: C5_5  and  C6_6 
ROOT
HETATM    1  C6  UNL     1     -34.416   6.338   5.548  1.00 20.00     0.082 C 
HETATM    2 CL7  UNL     1     -34.234   4.960   6.681  1.00 20.00    -0.125 Cl
ENDROOT
BRANCH   1   3
HETATM    3  C4  UNL     1     -34.615   5.827   4.113  1.00 20.00     0.016 C 
HETATM    4  C2  UNL     1     -33.426   5.042   3.574  1.00 20.00     0.006 C 
ENDBRANCH   1   3
BRANCH   1   5
HETATM    5  C5  UNL     1     -33.188   7.259   5.629  1.00 20.00     0.020 C 
BRANCH   5   6
HETATM    6  C3  UNL     1     -33.298   8.503   4.741  1.00 20.00    -0.003 C 
HETATM    7  C1  UNL     1     -32.097   9.420   4.922  1.00 20.00     0.005 C 
ENDBRANCH   5   6
ENDBRANCH   1   5
TORSDOF 3
