REMARK  0 active torsions:
REMARK  status: ('A' for Active; 'I' for Inactive)
ROOT
HETATM    1  C1  UNL     1     -33.503   6.599   3.753  1.00 20.00    -0.011 C 
HETATM    2  C2  UNL     1     -34.095   5.472   4.532  1.00 20.00     0.155 C 
HETATM    3  C3  UNL     1     -32.692   6.302   2.729  1.00 20.00    -0.078 C 
HETATM    4  C4  UNL     1     -33.834   7.994   4.186  1.00 20.00     0.042 C 
HETATM    5  C5  UNL     1     -34.258   5.683   6.023  1.00 20.00     0.083 C 
HETATM    6  C6  UNL     1     -33.798   8.141   5.705  1.00 20.00     0.005 C 
HETATM    7  C7  UNL     1     -34.693   7.101   6.370  1.00 20.00     0.008 C 
HETATM    8  C8  UNL     1     -32.050   7.368   1.889  1.00 20.00     0.043 C 
HETATM    9  C9  UNL     1     -32.371   4.885   2.354  1.00 20.00     0.043 C 
HETATM   10  O10 UNL     1     -34.367   4.396   4.005  1.00 20.00    -0.293 OA
ENDROOT
TORSDOF 0
