REMARK  5 active torsions:
REMARK  status: ('A' for Active; 'I' for Inactive)
REMARK    1  A    between atoms: C1_1  and  C5_5 
REMARK    2  A    between atoms: C1_1  and  C9_9 
REMARK    3  A    between atoms: C5_5  and  C6_6 
REMARK    4  A    between atoms: C7_7  and  C9_9 
REMARK    5  A    between atoms: C8_8  and  C9_9 
ROOT
HETATM    1  C1  UNL     1     -33.365   5.899   3.364  1.00 20.00     0.131 C 
HETATM    2  O10 UNL     1     -33.412   4.669   3.398  1.00 20.00    -0.298 OA
ENDROOT
BRANCH   1   3
HETATM    3  C5  UNL     1     -32.515   6.656   2.353  1.00 20.00     0.078 C 
BRANCH   3   4
HETATM    4  C6  UNL     1     -33.313   7.613   1.472  1.00 20.00     0.003 C 
HETATM    5  C2  UNL     1     -32.429   8.405   0.518  1.00 20.00     0.005 C 
ENDBRANCH   3   4
ENDBRANCH   1   3
BRANCH   1   6
HETATM    6  C9  UNL     1     -34.187   6.754   4.329  1.00 20.00     0.054 C 
BRANCH   6   7
HETATM    7  C7  UNL     1     -33.253   7.667   5.140  1.00 20.00     0.007 C 
HETATM    8  C3  UNL     1     -34.004   8.568   6.112  1.00 20.00     0.006 C 
ENDBRANCH   6   7
BRANCH   6   9
HETATM    9  C8  UNL     1     -35.006   5.852   5.267  1.00 20.00     0.007 C 
HETATM   10  C4  UNL     1     -34.134   4.942   6.121  1.00 20.00     0.006 C 
ENDBRANCH   6   9
ENDBRANCH   1   6
TORSDOF 5
