REMARK  2 active torsions:
REMARK  status: ('A' for Active; 'I' for Inactive)
REMARK    1  A    between atoms: C1_1  and  C3_3 
REMARK    2  A    between atoms: C3_3  and  C4_4 
ROOT
HETATM    1  C1  UNL     1     -33.655   7.341   6.064  1.00 20.00    -0.088 C 
HETATM    2  C2  UNL     1     -33.082   8.282   5.589  1.00 20.00     0.004 C 
HETATM    3 CL5  UNL     1     -32.244   9.656   4.892  1.00 20.00    -0.023 Cl
ENDROOT
BRANCH   1   4
HETATM    4  C3  UNL     1     -34.359   6.189   6.647  1.00 20.00     0.110 C 
BRANCH   4   5
HETATM    5  C4  UNL     1     -34.295   4.960   5.750  1.00 20.00     0.126 C 
HETATM    6 CL6  UNL     1     -35.066   5.257   4.171  1.00 20.00    -0.130 Cl
ENDBRANCH   4   5
ENDBRANCH   1   4
TORSDOF 2
