REMARK  3 active torsions:
REMARK  status: ('A' for Active; 'I' for Inactive)
REMARK    1  A    between atoms: C2_2  and  C3_3 
REMARK    2  A    between atoms: C3_3  and  C5_5 
REMARK    3  A    between atoms: C4_4  and  C5_5 
ROOT
HETATM    1  C5  UNL     1     -34.552   6.629   5.877  1.00 20.00     0.096 C 
HETATM    2 CL7  UNL     1     -34.230   5.100   6.764  1.00 20.00    -0.124 Cl
ENDROOT
BRANCH   1   3
HETATM    3  C3  UNL     1     -33.254   7.443   5.736  1.00 20.00     0.021 C 
BRANCH   3   4
HETATM    4  C2  UNL     1     -33.461   8.804   5.063  1.00 20.00    -0.003 C 
HETATM    5  C1  UNL     1     -32.157   9.584   4.979  1.00 20.00     0.005 C 
ENDBRANCH   3   4
ENDBRANCH   1   3
BRANCH   1   6
HETATM    6  C4  UNL     1     -35.178   6.265   4.529  1.00 20.00     0.134 C 
HETATM    7 CL6  UNL     1     -34.066   5.313   3.513  1.00 20.00    -0.129 Cl
ENDBRANCH   1   6
TORSDOF 3
