REMARK  2 active torsions:
REMARK  status: ('A' for Active; 'I' for Inactive)
REMARK    1  A    between atoms: C1_1  and  C2_2 
REMARK    2  A    between atoms: C1_1  and  C3_3 
ROOT
HETATM    1  C1  UNL     1     -34.006   5.903   4.377  1.00 20.00     0.173 C 
HETATM    2  O4  UNL     1     -34.438   4.774   4.615  1.00 20.00    -0.294 OA
ENDROOT
BRANCH   1   3
HETATM    3  C2  UNL     1     -33.016   6.185   3.266  1.00 20.00     0.195 C 
HETATM    4 CL5  UNL     1     -32.627   4.703   2.380  1.00 20.00    -0.122 Cl
ENDBRANCH   1   3
BRANCH   1   5
HETATM    5  C3  UNL     1     -34.406   7.098   5.214  1.00 20.00     0.248 C 
HETATM    6 CL6  UNL     1     -33.552   8.510   4.582  1.00 20.00    -0.100 Cl
HETATM    7 CL7  UNL     1     -33.987   6.790   6.905  1.00 20.00    -0.100 Cl
ENDBRANCH   1   5
TORSDOF 2
