REMARK  0 active torsions:
REMARK  status: ('A' for Active; 'I' for Inactive)
ROOT
HETATM    1  C1  UNL     1     -33.980   5.145   6.416  1.00 20.00     0.196 C 
HETATM    2  C2  UNL     1     -34.809   5.218   5.162  1.00 20.00     0.196 C 
HETATM    3  C3  UNL     1     -33.542   7.077   5.336  1.00 20.00     0.337 C 
HETATM    4  O4  UNL     1     -33.613   6.504   6.645  1.00 20.00    -0.365 OA
HETATM    5  O5  UNL     1     -34.127   6.193   4.376  1.00 20.00    -0.365 OA
ENDROOT
TORSDOF 0
