REMARK  2 active torsions:
REMARK  status: ('A' for Active; 'I' for Inactive)
REMARK    1  A    between atoms: C5_5  and  C7_7 
REMARK    2  A    between atoms: C7_7  and  C8_8 
ROOT
HETATM    1  C1  UNL     1     -34.994   5.252   6.278  1.00 20.00    -0.030 C 
HETATM    2  C2  UNL     1     -34.533   6.506   6.328  1.00 20.00    -0.026 C 
HETATM    3  C3  UNL     1     -34.784   4.637   4.936  1.00 20.00     0.027 C 
HETATM    4  C4  UNL     1     -33.797   5.600   4.274  1.00 20.00     0.012 C 
HETATM    5  C5  UNL     1     -33.945   6.935   5.020  1.00 20.00     0.008 C 
ENDROOT
BRANCH   5   6
HETATM    6  C7  UNL     1     -32.617   7.662   5.170  1.00 20.00     0.008 C 
BRANCH   6   7
HETATM    7  C8  UNL     1     -32.274   8.465   3.918  1.00 20.00    -0.004 C 
HETATM    8  C6  UNL     1     -32.139   7.564   2.700  1.00 20.00     0.005 C 
ENDBRANCH   6   7
ENDBRANCH   5   6
TORSDOF 2
