REMARK  2 active torsions:
REMARK  status: ('A' for Active; 'I' for Inactive)
REMARK    1  A    between atoms: C1_1  and  C2_2 
REMARK    2  A    between atoms: C1_1  and  C3_3 
ROOT
HETATM    1  C1  UNL     1     -33.689   6.719   5.336  1.00 20.00     0.153 C 
ENDROOT
BRANCH   1   2
HETATM    2  C2  UNL     1     -33.370   7.885   4.399  1.00 20.00     0.186 C 
HETATM    3 CL7  UNL     1     -32.337   7.392   3.035  1.00 20.00    -0.108 Cl
HETATM    4 CL8  UNL     1     -32.545   9.182   5.307  1.00 20.00    -0.108 Cl
ENDBRANCH   1   2
BRANCH   1   5
HETATM    5  C3  UNL     1     -34.431   5.576   4.671  1.00 20.00     0.390 C 
HETATM    6  F4  UNL     1     -35.625   5.982   4.189  1.00 20.00    -0.171 F 
HETATM    7  F5  UNL     1     -33.731   5.035   3.653  1.00 20.00    -0.171 F 
HETATM    8  F6  UNL     1     -34.668   4.590   5.566  1.00 20.00    -0.171 F 
ENDBRANCH   1   5
TORSDOF 2
