REMARK  3 active torsions:
REMARK  status: ('A' for Active; 'I' for Inactive)
REMARK    1  A    between atoms: C2_2  and  C7_7 
REMARK    2  A    between atoms: C5_5  and  C6_6 
REMARK    3  A    between atoms: C6_6  and  C7_7 
ROOT
HETATM    1  C4  UNL     1     -33.238   5.393   2.800  1.00 20.00     0.012 C 
HETATM    2  C7  UNL     1     -33.130   6.427   3.921  1.00 20.00     0.012 C 
ENDROOT
BRANCH   2   3
HETATM    3  C2  UNL     1     -34.385   6.372   4.796  1.00 20.00     0.149 A 
HETATM    4  C1  UNL     1     -34.346   5.777   6.176  1.00 20.00     0.200 A 
HETATM    5  O8  UNL     1     -34.873   5.051   5.054  1.00 20.00    -0.381 OA
ENDBRANCH   2   3
BRANCH   2   6
HETATM    6  C6  UNL     1     -32.930   7.857   3.385  1.00 20.00     0.006 C 
BRANCH   6   7
HETATM    7  C5  UNL     1     -32.231   8.788   4.378  1.00 20.00    -0.004 C 
HETATM    8  C3  UNL     1     -33.061   8.978   5.639  1.00 20.00     0.005 C 
ENDBRANCH   6   7
ENDBRANCH   2   6
TORSDOF 3
