REMARK  1 active torsions:
REMARK  status: ('A' for Active; 'I' for Inactive)
REMARK    1  A    between atoms: C4_4  and  C5_5 
ROOT
HETATM    1  C1  UNL     1     -34.555   5.493   6.500  1.00 20.00     0.015 C 
HETATM    2  C2  UNL     1     -35.861   5.945   4.419  1.00 20.00     0.015 C 
HETATM    3  C3  UNL     1     -34.018   4.240   4.406  1.00 20.00     0.015 C 
HETATM    4  C5  UNL     1     -34.465   5.602   4.965  1.00 20.00    -0.039 C 
ENDROOT
BRANCH   4   5
HETATM    5  C4  UNL     1     -33.442   6.710   4.625  1.00 20.00     0.122 C 
HETATM    6 CL6  UNL     1     -33.876   8.319   5.256  1.00 20.00    -0.130 Cl
ENDBRANCH   4   5
TORSDOF 1
