REMARK  0 active torsions:
REMARK  status: ('A' for Active; 'I' for Inactive)
ROOT
HETATM    1  C1  UNL     1     -33.534   6.967   5.075  1.00 20.00    -0.013 A 
HETATM    2  C2  UNL     1     -34.062   6.020   4.287  1.00 20.00    -0.070 A 
HETATM    3  C3  UNL     1     -32.569   7.702   4.235  1.00 20.00     0.160 A 
HETATM    4  C4  UNL     1     -33.519   5.996   2.875  1.00 20.00     0.022 A 
HETATM    5  C5  UNL     1     -32.522   7.168   2.827  1.00 20.00     0.064 A 
HETATM    6  C6  UNL     1     -33.773   7.328   6.492  1.00 20.00     0.052 C 
HETATM    7  C7  UNL     1     -35.128   5.044   4.669  1.00 20.00     0.044 C 
HETATM    8  C8  UNL     1     -32.830   4.674   2.539  1.00 20.00     0.015 C 
HETATM    9  C9  UNL     1     -32.929   8.246   1.833  1.00 20.00     0.019 C 
HETATM   10  O10 UNL     1     -31.901   8.642   4.645  1.00 20.00    -0.292 OA
ENDROOT
TORSDOF 0
