REMARK  3 active torsions:
REMARK  status: ('A' for Active; 'I' for Inactive)
REMARK    1  A    between atoms: C2_2  and  C6_6 
REMARK    2  A    between atoms: C6_6  and  O9_9 
REMARK    3  A    between atoms: C7_7  and  O9_9 
ROOT
HETATM    1  O9  UNL     1     -33.731   6.542   4.693  1.00 20.00    -0.379 OA
ENDROOT
BRANCH   1   2
HETATM    2  C6  UNL     1     -34.283   7.695   5.308  1.00 20.00     0.202 C 
BRANCH   2   3
HETATM    3  C2  UNL     1     -33.375   8.877   5.045  1.00 20.00     0.169 A 
HETATM    4  C1  UNL     1     -32.710   9.066   3.710  1.00 20.00     0.202 A 
HETATM    5  O8  UNL     1     -31.999   8.536   4.841  1.00 20.00    -0.379 OA
ENDBRANCH   2   3
ENDBRANCH   1   2
BRANCH   1   6
HETATM    6  C7  UNL     1     -34.553   5.394   4.911  1.00 20.00     0.050 C 
HETATM    7  C3  UNL     1     -35.934   5.665   4.316  1.00 20.00     0.045 C 
HETATM    8  C4  UNL     1     -33.887   4.212   4.210  1.00 20.00     0.045 C 
HETATM    9  C5  UNL     1     -34.647   5.143   6.416  1.00 20.00     0.045 C 
ENDBRANCH   1   6
TORSDOF 3
