REMARK  1 active torsions:
REMARK  status: ('A' for Active; 'I' for Inactive)
REMARK    1  A    between atoms: C2_2  and  C3_3 
ROOT
HETATM    1  C1  UNL     1     -34.619   4.952   5.363  1.00 20.00     0.023 C 
HETATM    2  C2  UNL     1     -34.084   6.181   5.388  1.00 20.00    -0.009 C 
HETATM    3  C4  UNL     1     -34.222   7.074   6.587  1.00 20.00     0.052 C 
ENDROOT
BRANCH   2   4
HETATM    4  C3  UNL     1     -33.315   6.739   4.216  1.00 20.00     0.247 C 
HETATM    5  O5  UNL     1     -32.856   7.878   4.320  1.00 20.00    -0.274 OA
HETATM    6 CL6  UNL     1     -33.102   5.773   2.768  1.00 20.00    -0.039 Cl
ENDBRANCH   2   4
TORSDOF 1
