REMARK  2 active torsions:
REMARK  status: ('A' for Active; 'I' for Inactive)
REMARK    1  A    between atoms: C1_1  and  C3_3 
REMARK    2  A    between atoms: C2_2  and  C5_5 
ROOT
HETATM    1  C1  UNL     1     -32.747   6.300   3.388  1.00 20.00     0.003 C 
HETATM    2  C2  UNL     1     -33.871   6.531   4.080  1.00 20.00     0.049 C 
ENDROOT
BRANCH   1   3
HETATM    3  C3  UNL     1     -32.230   7.232   2.409  1.00 20.00    -0.004 C 
HETATM    4  C4  UNL     1     -33.012   7.906   1.553  1.00 20.00    -0.031 C 
HETATM    5  C6  UNL     1     -32.490   8.869   0.538  1.00 20.00     0.036 C 
ENDBRANCH   1   3
BRANCH   2   6
HETATM    6  C5  UNL     1     -34.423   5.589   5.093  1.00 20.00     0.145 C 
HETATM    7  C7  UNL     1     -34.595   6.039   6.521  1.00 20.00     0.096 C 
HETATM    8  O8  UNL     1     -34.732   4.450   4.743  1.00 20.00    -0.294 OA
ENDBRANCH   2   6
TORSDOF 2
