REMARK  0 active torsions:
REMARK  status: ('A' for Active; 'I' for Inactive)
ROOT
HETATM    1  C1  UNL     1     -33.266   7.054   2.734  1.00 20.00     0.053 A 
HETATM    2  C2  UNL     1     -33.354   6.384   3.884  1.00 20.00    -0.072 A 
HETATM    3  C3  UNL     1     -32.996   8.448   3.113  1.00 20.00     0.150 A 
HETATM    4  C4  UNL     1     -33.692   4.939   4.061  1.00 20.00     0.034 C 
HETATM    5  C5  UNL     1     -32.948   8.629   4.605  1.00 20.00     0.092 A 
HETATM    6  C6  UNL     1     -34.865   4.790   5.033  1.00 20.00     0.004 C 
HETATM    7  C7  UNL     1     -34.648   5.575   6.333  1.00 20.00     0.001 C 
HETATM    8  C8  UNL     1     -34.348   7.053   6.061  1.00 20.00     0.009 C 
HETATM    9  C9  UNL     1     -33.146   7.206   5.125  1.00 20.00     0.022 A 
HETATM   10  O10 UNL     1     -32.842   9.343   2.295  1.00 20.00    -0.293 OA
ENDROOT
TORSDOF 0
