REMARK  2 active torsions:
REMARK  status: ('A' for Active; 'I' for Inactive)
REMARK    1  A    between atoms: C1_1  and  C2_2 
REMARK    2  A    between atoms: C2_2  and  C3_3 
ROOT
HETATM    1  C2  UNL     1     -33.299   6.703   4.561  1.00 20.00     0.203 C 
HETATM    2 CL8  UNL     1     -32.889   5.813   3.061  1.00 20.00    -0.115 Cl
ENDROOT
BRANCH   1   3
HETATM    3  C1  UNL     1     -33.625   8.163   4.252  1.00 20.00     0.143 C 
HETATM    4 CL7  UNL     1     -32.273   8.988   3.433  1.00 20.00    -0.129 Cl
ENDBRANCH   1   3
BRANCH   1   5
HETATM    5  C3  UNL     1     -34.469   6.011   5.238  1.00 20.00     0.405 C 
HETATM    6  F4  UNL     1     -34.775   6.583   6.422  1.00 20.00    -0.169 F 
HETATM    7  F5  UNL     1     -35.573   6.064   4.460  1.00 20.00    -0.169 F 
HETATM    8  F6  UNL     1     -34.202   4.706   5.464  1.00 20.00    -0.169 F 
ENDBRANCH   1   5
TORSDOF 2
