REMARK  0 active torsions:
REMARK  status: ('A' for Active; 'I' for Inactive)
ROOT
HETATM    1  C1  UNL     1     -34.179   6.596   4.908  1.00 20.00     0.117 C 
HETATM    2  C2  UNL     1     -32.297   7.353   2.936  1.00 20.00     0.117 C 
HETATM    3  C3  UNL     1     -34.329   5.435   5.881  1.00 20.00     0.033 C 
HETATM    4  C4  UNL     1     -32.345   7.655   1.444  1.00 20.00     0.033 C 
HETATM    5  S5  UNL     1     -33.465   5.989   3.327  1.00 20.00    -0.137 SA
HETATM    6  S6  UNL     1     -33.133   7.884   5.635  1.00 20.00    -0.081 SA
HETATM    7  S7  UNL     1     -32.702   8.841   3.884  1.00 20.00    -0.081 SA
ENDROOT
TORSDOF 0
