REMARK  2 active torsions:
REMARK  status: ('A' for Active; 'I' for Inactive)
REMARK    1  A    between atoms: C1_1  and  C3_3 
REMARK    2  A    between atoms: C2_2  and  C3_3 
ROOT
HETATM    1  C3  UNL     1     -33.664   6.736   4.346  1.00 20.00     0.187 C 
HETATM    2 BR7  UNL     1     -32.155   7.577   3.423  1.00 20.00    -0.077 Br
ENDROOT
BRANCH   1   3
HETATM    3  C1  UNL     1     -33.718   5.302   3.815  1.00 20.00     0.190 C 
HETATM    4  O4  UNL     1     -34.278   4.472   4.588  1.00 20.00    -0.647 OA
HETATM    5  O5  UNL     1     -33.190   5.105   2.685  1.00 20.00    -0.647 OA
ENDBRANCH   1   3
BRANCH   1   6
HETATM    6  C2  UNL     1     -33.487   6.906   5.842  1.00 20.00     0.248 C 
HETATM    7  F6  UNL     1     -34.678   6.750   6.480  1.00 20.00    -0.254 F 
ENDBRANCH   1   6
TORSDOF 2
