REMARK  0 active torsions:
REMARK  status: ('A' for Active; 'I' for Inactive)
ROOT
HETATM    1  C1  UNL     1     -32.752   7.148   2.968  1.00 20.00     0.003 C 
HETATM    2  C2  UNL     1     -32.965   5.839   2.792  1.00 20.00    -0.025 C 
HETATM    3  C3  UNL     1     -33.064   7.815   4.223  1.00 20.00    -0.059 C 
HETATM    4  C4  UNL     1     -33.877   7.223   5.133  1.00 20.00    -0.070 C 
HETATM    5  C5  UNL     1     -33.559   5.002   3.880  1.00 20.00     0.040 C 
HETATM    6  C6  UNL     1     -34.447   5.808   4.876  1.00 20.00    -0.021 C 
HETATM    7  C7  UNL     1     -32.425   9.169   4.366  1.00 20.00     0.048 C 
HETATM    8  C8  UNL     1     -34.318   7.908   6.404  1.00 20.00     0.044 C 
HETATM    9  C9  UNL     1     -35.866   5.956   4.281  1.00 20.00     0.020 C 
HETATM   10  C10 UNL     1     -34.546   4.969   6.169  1.00 20.00     0.020 C 
ENDROOT
TORSDOF 0
