REMARK  3 active torsions:
REMARK  status: ('A' for Active; 'I' for Inactive)
REMARK    1  A    between atoms: C2_2  and  C7_7 
REMARK    2  A    between atoms: C5_5  and  C6_6 
REMARK    3  A    between atoms: C6_6  and  C7_7 
ROOT
HETATM    1  C4  UNL     1     -33.395   5.386   2.757  1.00 20.00     0.012 C 
HETATM    2  C7  UNL     1     -33.477   6.061   4.127  1.00 20.00     0.012 C 
ENDROOT
BRANCH   2   3
HETATM    3  C2  UNL     1     -33.480   7.582   3.953  1.00 20.00     0.149 A 
HETATM    4  C1  UNL     1     -32.274   8.408   4.302  1.00 20.00     0.200 A 
HETATM    5  O8  UNL     1     -32.590   8.068   2.943  1.00 20.00    -0.381 OA
ENDBRANCH   2   3
BRANCH   2   6
HETATM    6  C6  UNL     1     -34.720   5.625   4.924  1.00 20.00     0.006 C 
BRANCH   6   7
HETATM    7  C5  UNL     1     -34.600   5.881   6.428  1.00 20.00    -0.004 C 
HETATM    8  C3  UNL     1     -34.327   7.349   6.720  1.00 20.00     0.005 C 
ENDBRANCH   6   7
ENDBRANCH   2   6
TORSDOF 3
