REMARK  2 active torsions:
REMARK  status: ('A' for Active; 'I' for Inactive)
REMARK    1  A    between atoms: C6_6  and  C7_7 
REMARK    2  A    between atoms: C7_7  and  O8_8 
ROOT
HETATM    1  C1  UNL     1     -31.984   7.240   3.227  1.00 20.00     0.015 C 
HETATM    2  C2  UNL     1     -32.685   7.079   4.188  1.00 20.00    -0.079 C 
HETATM    3  C5  UNL     1     -34.156   8.230   5.782  1.00 20.00     0.061 C 
HETATM    4  C7  UNL     1     -33.543   6.885   5.374  1.00 20.00     0.119 C 
ENDROOT
BRANCH   4   5
HETATM    5  C6  UNL     1     -34.629   5.793   5.142  1.00 20.00     0.024 C 
HETATM    6  C3  UNL     1     -35.608   6.121   4.008  1.00 20.00     0.014 C 
HETATM    7  C4  UNL     1     -34.026   4.398   4.911  1.00 20.00     0.014 C 
ENDBRANCH   4   5
BRANCH   4   8
HETATM    8  O8  UNL     1     -32.706   6.467   6.459  1.00 20.00    -0.378 OA
HETATM    9  H20 UNL     1     -32.063   7.178   6.592  1.00 20.00     0.211 HD
ENDBRANCH   4   8
TORSDOF 2
