REMARK  3 active torsions:
REMARK  status: ('A' for Active; 'I' for Inactive)
REMARK    1  A    between atoms: C1_1  and  C5_5 
REMARK    2  A    between atoms: C2_2  and  C6_6 
REMARK    3  A    between atoms: C6_6  and  C7_7 
ROOT
HETATM    1  C1  UNL     1     -33.348   6.837   5.174  1.00 20.00     0.150 A 
HETATM    2  C2  UNL     1     -32.392   7.483   4.201  1.00 20.00     0.151 A 
HETATM    3  O8  UNL     1     -33.418   8.235   4.863  1.00 20.00    -0.376 OA
ENDROOT
BRANCH   2   4
HETATM    4  C6  UNL     1     -32.547   7.385   2.692  1.00 20.00     0.034 C 
BRANCH   4   5
HETATM    5  C7  UNL     1     -32.287   8.729   2.014  1.00 20.00    -0.002 C 
HETATM    6  C4  UNL     1     -32.415   8.624   0.503  1.00 20.00     0.005 C 
ENDBRANCH   4   5
ENDBRANCH   2   4
BRANCH   1   7
HETATM    7  C5  UNL     1     -34.531   6.044   4.749  1.00 20.00     0.030 C 
HETATM    8  C3  UNL     1     -34.195   4.612   4.412  1.00 20.00     0.007 C 
ENDBRANCH   1   7
TORSDOF 3
