REMARK  2 active torsions:
REMARK  status: ('A' for Active; 'I' for Inactive)
REMARK    1  A    between atoms: C2_2  and  C3_3 
REMARK    2  A    between atoms: C2_2  and  C4_4 
ROOT
HETATM    1  C1  UNL     1     -33.309   7.147   6.410  1.00 20.00     0.016 C 
HETATM    2  C2  UNL     1     -34.002   7.163   5.260  1.00 20.00    -0.062 C 
ENDROOT
BRANCH   2   3
HETATM    3  C3  UNL     1     -34.883   6.008   4.872  1.00 20.00     0.149 C 
HETATM    4 CL5  UNL     1     -33.937   4.508   4.747  1.00 20.00    -0.126 Cl
ENDBRANCH   2   3
BRANCH   2   5
HETATM    5  C4  UNL     1     -33.918   8.337   4.324  1.00 20.00     0.149 C 
HETATM    6 CL6  UNL     1     -32.322   9.114   4.429  1.00 20.00    -0.126 Cl
ENDBRANCH   2   5
TORSDOF 2
