REMARK  5 active torsions:
REMARK  status: ('A' for Active; 'I' for Inactive)
REMARK    1  A    between atoms: C3_3  and  C7_7 
REMARK    2  A    between atoms: C4_4  and  C8_8 
REMARK    3  A    between atoms: C7_7  and  C9_9 
REMARK    4  A    between atoms: C8_8  and  C10_10 
REMARK    5  A    between atoms: C9_9  and  C10_10 
ROOT
HETATM    1  C1  UNL     1     -32.784   8.684  -0.241  1.00 20.00    -0.111 C 
HETATM    2  C3  UNL     1     -32.878   8.936   0.929  1.00 20.00    -0.107 C 
HETATM    3  C5  UNL     1     -32.668   8.375  -1.665  1.00 20.00     0.112 C 
ENDROOT
BRANCH   2   4
HETATM    4  C7  UNL     1     -32.994   9.245   2.361  1.00 20.00     0.094 C 
BRANCH   4   5
HETATM    5  C9  UNL     1     -32.001   8.447   3.208  1.00 20.00     0.013 C 
BRANCH   5   6
HETATM    6  C10 UNL     1     -32.057   8.819   4.697  1.00 20.00     0.013 C 
BRANCH   6   7
HETATM    7  C8  UNL     1     -33.435   8.575   5.316  1.00 20.00     0.094 C 
BRANCH   7   8
HETATM    8  C4  UNL     1     -33.839   7.164   5.236  1.00 20.00    -0.107 C 
HETATM    9  C2  UNL     1     -34.170   6.012   5.170  1.00 20.00    -0.111 C 
HETATM   10  C6  UNL     1     -34.570   4.608   5.090  1.00 20.00     0.112 C 
ENDBRANCH   7   8
ENDBRANCH   6   7
ENDBRANCH   5   6
ENDBRANCH   4   5
ENDBRANCH   2   4
TORSDOF 5
