REMARK  0 active torsions:
REMARK  status: ('A' for Active; 'I' for Inactive)
ROOT
HETATM    1  C1  UNL     1     -34.976   5.858   5.733  1.00 20.00     0.050 C 
HETATM    2  C2  UNL     1     -33.839   6.352   6.612  1.00 20.00     0.171 C 
HETATM    3  C3  UNL     1     -34.626   6.438   4.378  1.00 20.00     0.128 C 
HETATM    4  C4  UNL     1     -34.065   7.791   4.799  1.00 20.00     0.235 C 
HETATM    5  O5  UNL     1     -33.357   7.575   6.030  1.00 20.00    -0.369 OA
HETATM    6 CL6  UNL     1     -33.422   5.385   3.574  1.00 20.00    -0.121 Cl
HETATM    7 CL7  UNL     1     -33.033   8.594   3.610  1.00 20.00    -0.094 Cl
ENDROOT
TORSDOF 0
