REMARK  0 active torsions:
REMARK  status: ('A' for Active; 'I' for Inactive)
ROOT
HETATM    1  C1  UNL     1     -34.699   5.755   6.599  1.00 20.00     0.000 C 
HETATM    2  C2  UNL     1     -34.564   4.884   5.356  1.00 20.00     0.000 C 
HETATM    3  C3  UNL     1     -33.557   6.758   6.739  1.00 20.00     0.004 C 
HETATM    4  C4  UNL     1     -35.120   5.486   4.071  1.00 20.00     0.004 C 
HETATM    5  C5  UNL     1     -33.633   7.965   5.805  1.00 20.00     0.049 C 
HETATM    6  C6  UNL     1     -35.014   7.001   3.882  1.00 20.00     0.049 C 
HETATM    7  C7  UNL     1     -32.132   7.207   2.621  1.00 20.00     0.180 C 
HETATM    8  C8  UNL     1     -32.029   8.719   2.565  1.00 20.00     0.103 C 
HETATM    9  C9  UNL     1     -33.687   7.656   4.301  1.00 20.00     0.108 C 
HETATM   10  O10 UNL     1     -32.565   6.840   3.935  1.00 20.00    -0.369 OA
HETATM   11  S11 UNL     1     -33.528   9.254   3.402  1.00 20.00    -0.129 SA
ENDROOT
TORSDOF 0
