REMARK  0 active torsions:
REMARK  status: ('A' for Active; 'I' for Inactive)
ROOT
HETATM    1  C1  UNL     1     -32.467   9.096   4.465  1.00 20.00     0.002 C 
HETATM    2  C2  UNL     1     -33.953   9.300   4.164  1.00 20.00     0.002 C 
HETATM    3  C3  UNL     1     -32.219   7.589   4.390  1.00 20.00     0.032 C 
HETATM    4  C4  UNL     1     -34.535   7.905   3.926  1.00 20.00     0.032 C 
HETATM    5  C5  UNL     1     -34.560   4.519   5.374  1.00 20.00     0.086 C 
HETATM    6  C6  UNL     1     -33.971   5.106   6.639  1.00 20.00     0.086 C 
HETATM    7  C7  UNL     1     -33.585   6.951   4.655  1.00 20.00     0.056 C 
HETATM    8  S8  UNL     1     -33.679   5.260   3.980  1.00 20.00    -0.147 SA
HETATM    9  S9  UNL     1     -33.959   6.907   6.455  1.00 20.00    -0.147 SA
ENDROOT
TORSDOF 0
