REMARK  2 active torsions:
REMARK  status: ('A' for Active; 'I' for Inactive)
REMARK    1  A    between atoms: C7_7  and  O9_9 
REMARK    2  A    between atoms: C8_8  and  O9_9 
ROOT
HETATM    1  O9  UNL     1     -33.294   6.406   4.261  1.00 20.00    -0.371 OA
ENDROOT
BRANCH   1   2
HETATM    2  C7  UNL     1     -34.233   5.655   5.033  1.00 20.00     0.051 C 
HETATM    3  C1  UNL     1     -35.640   6.151   4.704  1.00 20.00     0.045 C 
HETATM    4  C2  UNL     1     -34.076   4.186   4.646  1.00 20.00     0.045 C 
HETATM    5  C3  UNL     1     -33.916   5.857   6.514  1.00 20.00     0.045 C 
ENDBRANCH   1   2
BRANCH   1   6
HETATM    6  C8  UNL     1     -33.378   7.791   4.555  1.00 20.00     0.051 C 
HETATM    7  C4  UNL     1     -33.825   7.955   6.007  1.00 20.00     0.045 C 
HETATM    8  C5  UNL     1     -31.987   8.389   4.350  1.00 20.00     0.045 C 
HETATM    9  C6  UNL     1     -34.384   8.431   3.600  1.00 20.00     0.045 C 
ENDBRANCH   1   6
TORSDOF 2
