REMARK  1 active torsions:
REMARK  status: ('A' for Active; 'I' for Inactive)
REMARK    1  A    between atoms: C4_4  and  C8_8 
ROOT
HETATM    1  C1  UNL     1     -34.068   4.692   4.580  1.00 20.00    -0.007 C 
HETATM    2  C2  UNL     1     -34.119   5.696   5.467  1.00 20.00     0.009 C 
HETATM    3  C5  UNL     1     -33.484   4.850   3.208  1.00 20.00     0.029 C 
HETATM    4  C6  UNL     1     -33.632   7.087   5.177  1.00 20.00     0.061 C 
HETATM    5  C7  UNL     1     -32.683   6.144   3.034  1.00 20.00     0.014 C 
HETATM    6  C8  UNL     1     -33.405   7.339   3.674  1.00 20.00     0.035 C 
HETATM    7 CL9  UNL     1     -34.786   5.444   7.041  1.00 20.00    -0.089 Cl
ENDROOT
BRANCH   6   8
HETATM    8  C4  UNL     1     -32.644   8.612   3.455  1.00 20.00     0.007 C 
HETATM    9  C3  UNL     1     -32.325   9.105   2.253  1.00 20.00     0.032 C 
HETATM   10 CL10 UNL     1     -32.176   9.453   4.892  1.00 20.00    -0.089 Cl
ENDBRANCH   6   8
TORSDOF 1
