REMARK  2 active torsions:
REMARK  status: ('A' for Active; 'I' for Inactive)
REMARK    1  A    between atoms: C1_1  and  C2_2 
REMARK    2  A    between atoms: C1_1  and  C3_3 
ROOT
HETATM    1  C1  UNL     1     -33.672   6.571   4.389  1.00 20.00     0.148 C 
HETATM    2 CL4  UNL     1     -33.728   5.009   3.478  1.00 20.00    -0.119 Cl
ENDROOT
BRANCH   1   3
HETATM    3  C2  UNL     1     -32.391   7.340   4.003  1.00 20.00     0.199 C 
HETATM    4 CL5  UNL     1     -32.277   7.582   2.229  1.00 20.00    -0.106 Cl
HETATM    5 CL6  UNL     1     -32.323   8.957   4.767  1.00 20.00    -0.106 Cl
ENDBRANCH   1   3
BRANCH   1   6
HETATM    6  C3  UNL     1     -33.832   6.312   5.904  1.00 20.00     0.199 C 
HETATM    7 CL7  UNL     1     -34.949   4.970   6.272  1.00 20.00    -0.106 Cl
HETATM    8 CL8  UNL     1     -34.363   7.783   6.775  1.00 20.00    -0.106 Cl
ENDBRANCH   1   6
TORSDOF 2
