REMARK  0 active torsions:
REMARK  status: ('A' for Active; 'I' for Inactive)
ROOT
HETATM    1  C1  UNL     1     -33.188   5.840   3.496  1.00 20.00     0.132 C 
HETATM    2  C2  UNL     1     -33.729   7.470   5.590  1.00 20.00     0.064 C 
HETATM    3  C3  UNL     1     -33.151   8.098   4.331  1.00 20.00     0.128 C 
HETATM    4  C4  UNL     1     -34.732   6.370   5.219  1.00 20.00     0.051 C 
HETATM    5  C5  UNL     1     -32.539   4.931   2.502  1.00 20.00     0.099 C 
HETATM    6  C6  UNL     1     -32.015   9.058   4.657  1.00 20.00     0.040 C 
HETATM    7  C7  UNL     1     -36.015   6.934   4.595  1.00 20.00     0.040 C 
HETATM    8  C8  UNL     1     -35.099   5.570   6.476  1.00 20.00     0.040 C 
HETATM    9  N9  UNL     1     -34.133   5.431   4.265  1.00 20.00    -0.261 NA
HETATM   10  O10 UNL     1     -32.630   7.078   3.459  1.00 20.00    -0.333 OA
ENDROOT
TORSDOF 0
