REMARK  4 active torsions:
REMARK  status: ('A' for Active; 'I' for Inactive)
REMARK    1  A    between atoms: C5_5  and  O8_8 
REMARK    2  A    between atoms: C6_6  and  O9_9 
REMARK    3  A    between atoms: C7_7  and  O8_8 
REMARK    4  A    between atoms: C7_7  and  O9_9 
ROOT
HETATM    1  C1  UNL     1     -32.960   8.519  -0.267  1.00 20.00     0.014 C 
HETATM    2  C2  UNL     1     -32.340   8.335   0.744  1.00 20.00    -0.091 C 
HETATM    3  C5  UNL     1     -31.581   8.112   1.975  1.00 20.00     0.263 C 
ENDROOT
BRANCH   3   4
HETATM    4  O8  UNL     1     -32.430   7.607   2.998  1.00 20.00    -0.350 OA
BRANCH   4   5
HETATM    5  C7  UNL     1     -33.202   8.627   3.636  1.00 20.00     0.256 C 
HETATM    6  C4  UNL     1     -32.337   9.346   4.663  1.00 20.00     0.070 C 
BRANCH   5   7
HETATM    7  O9  UNL     1     -34.310   8.064   4.351  1.00 20.00    -0.362 OA
BRANCH   7   8
HETATM    8  C6  UNL     1     -33.968   6.850   5.006  1.00 20.00     0.166 C 
HETATM    9  C3  UNL     1     -35.186   6.322   5.734  1.00 20.00     0.033 C 
ENDBRANCH   7   8
ENDBRANCH   5   7
ENDBRANCH   4   5
ENDBRANCH   3   4
TORSDOF 4
