REMARK  2 active torsions:
REMARK  status: ('A' for Active; 'I' for Inactive)
REMARK    1  A    between atoms: C5_5  and  C7_7 
REMARK    2  A    between atoms: C6_6  and  O8_8 
ROOT
HETATM    1  C1  UNL     1     -33.196   4.938   2.895  1.00 20.00     0.003 C 
HETATM    2  C2  UNL     1     -32.491   6.266   3.164  1.00 20.00     0.014 C 
HETATM    3  C3  UNL     1     -33.777   4.342   4.172  1.00 20.00     0.032 C 
HETATM    4  C4  UNL     1     -33.993   6.660   5.157  1.00 20.00     0.045 C 
HETATM    5  C5  UNL     1     -33.414   7.267   3.873  1.00 20.00     0.096 C 
HETATM    6  C6  UNL     1     -34.698   5.332   4.884  1.00 20.00     0.118 C 
ENDROOT
BRANCH   5   7
HETATM    7  C7  UNL     1     -32.670   8.566   4.177  1.00 20.00     0.391 C 
HETATM    8  F9  UNL     1     -33.498   9.444   4.764  1.00 20.00    -0.171 F 
HETATM    9  F10 UNL     1     -31.640   8.322   5.001  1.00 20.00    -0.171 F 
HETATM   10  F11 UNL     1     -32.200   9.103   3.041  1.00 20.00    -0.171 F 
ENDBRANCH   5   7
BRANCH   6  11
HETATM   11  O8  UNL     1     -35.146   4.767   6.112  1.00 20.00    -0.396 OA
HETATM   12  H22 UNL     1     -35.624   3.954   5.886  1.00 20.00     0.210 HD
ENDBRANCH   6  11
TORSDOF 2
