REMARK  3 active torsions:
REMARK  status: ('A' for Active; 'I' for Inactive)
REMARK    1  A    between atoms: C7_7  and  C8_8 
REMARK    2  A    between atoms: C7_7  and  C9_9 
REMARK    3  A    between atoms: C9_9  and  S10_10 
ROOT
HETATM    1  C7  UNL     1     -34.064   8.131   4.329  1.00 20.00     0.028 C 
ENDROOT
BRANCH   1   2
HETATM    2  C8  UNL     1     -32.780   8.893   3.866  1.00 20.00    -0.050 C 
HETATM    3  C1  UNL     1     -33.048   9.999   2.838  1.00 20.00     0.014 C 
HETATM    4  C2  UNL     1     -32.175   9.563   5.125  1.00 20.00     0.014 C 
HETATM    5  C3  UNL     1     -31.708   7.934   3.314  1.00 20.00     0.014 C 
ENDBRANCH   1   2
BRANCH   1   6
HETATM    6  C9  UNL     1     -34.043   6.681   4.895  1.00 20.00     0.001 C 
HETATM    7  C4  UNL     1     -35.469   6.333   5.374  1.00 20.00     0.026 C 
HETATM    8  C5  UNL     1     -33.078   6.467   6.063  1.00 20.00     0.026 C 
BRANCH   6   9
HETATM    9  S10 UNL     1     -33.639   5.448   3.588  1.00 20.00    -0.164 SA
HETATM   10  C6  UNL     1     -33.799   3.966   4.603  1.00 20.00     0.090 C 
ENDBRANCH   6   9
ENDBRANCH   1   6
TORSDOF 3
