REMARK  1 active torsions:
REMARK  status: ('A' for Active; 'I' for Inactive)
REMARK    1  A    between atoms: C1_1  and  C3_3 
ROOT
HETATM    1  C2  UNL     1     -34.899   6.635   4.749  1.00 20.00     0.067 A 
HETATM    2  C3  UNL     1     -33.499   6.949   5.237  1.00 20.00     0.083 A 
HETATM    3  C4  UNL     1     -33.783   5.673   4.445  1.00 20.00     0.132 A 
HETATM    4  C5  UNL     1     -33.257   6.871   6.726  1.00 20.00     0.030 C 
HETATM    5 CL8  UNL     1     -33.271   5.541   2.757  1.00 20.00    -0.100 Cl
HETATM    6 CL9  UNL     1     -33.802   4.107   5.258  1.00 20.00    -0.100 Cl
ENDROOT
BRANCH   2   7
HETATM    7  C1  UNL     1     -32.799   8.024   4.538  1.00 20.00     0.184 C 
HETATM    8  O6  UNL     1     -32.114   7.662   3.542  1.00 20.00    -0.647 OA
HETATM    9  O7  UNL     1     -32.975   9.175   5.027  1.00 20.00    -0.647 OA
ENDBRANCH   2   7
TORSDOF 1
