REMARK  0 active torsions:
REMARK  status: ('A' for Active; 'I' for Inactive)
ROOT
HETATM    1  C1  UNL     1     -34.931   6.343   4.913  1.00 20.00     0.127 C 
HETATM    2  C2  UNL     1     -34.554   6.579   6.356  1.00 20.00     0.078 C 
HETATM    3  C3  UNL     1     -34.699   7.495   3.958  1.00 20.00     0.087 C 
HETATM    4  C4  UNL     1     -33.134   7.115   6.453  1.00 20.00     0.008 C 
HETATM    5  C5  UNL     1     -32.233   8.201   1.221  1.00 20.00     0.000 C 
HETATM    6  C6  UNL     1     -33.253   9.201   1.751  1.00 20.00     0.001 C 
HETATM    7  C7  UNL     1     -32.331   6.860   1.939  1.00 20.00     0.001 C 
HETATM    8  C8  UNL     1     -32.917   8.320   5.537  1.00 20.00     0.010 C 
HETATM    9  C9  UNL     1     -33.138   9.368   3.265  1.00 20.00     0.010 C 
HETATM   10  C10 UNL     1     -32.237   7.017   3.457  1.00 20.00     0.010 C 
HETATM   11  C11 UNL     1     -33.252   8.033   4.047  1.00 20.00    -0.034 C 
HETATM   12  O12 UNL     1     -35.483   5.305   4.552  1.00 20.00    -0.298 OA
ENDROOT
TORSDOF 0
