REMARK  2 active torsions:
REMARK  status: ('A' for Active; 'I' for Inactive)
REMARK    1  A    between atoms: C6_6  and  C7_7 
REMARK    2  A    between atoms: C6_6  and  C8_8 
ROOT
HETATM    1  C1  UNL     1     -33.574   5.414   3.642  1.00 20.00     0.068 C 
HETATM    2  C4  UNL     1     -35.575   6.306   4.716  1.00 20.00     0.031 C 
HETATM    3  C5  UNL     1     -34.321   4.422   5.773  1.00 20.00     0.031 C 
HETATM    4  C8  UNL     1     -34.169   5.718   4.964  1.00 20.00     0.042 C 
HETATM    5  N9  UNL     1     -33.117   5.177   2.602  1.00 20.00    -0.196 NA
ENDROOT
BRANCH   4   6
HETATM    6  C6  UNL     1     -33.326   6.783   5.720  1.00 20.00     0.027 C 
BRANCH   6   7
HETATM    7  C7  UNL     1     -33.523   8.275   5.357  1.00 20.00    -0.021 C 
HETATM    8  C2  UNL     1     -33.186   8.481   3.874  1.00 20.00     0.009 C 
HETATM    9  C3  UNL     1     -32.682   9.233   6.199  1.00 20.00     0.009 C 
ENDBRANCH   6   7
ENDBRANCH   4   6
TORSDOF 2
