REMARK  0 active torsions:
REMARK  status: ('A' for Active; 'I' for Inactive)
ROOT
HETATM    1  C1  UNL     1     -32.400   7.800   2.348  1.00 20.00    -0.077 C 
HETATM    2  C2  UNL     1     -32.835   6.877   3.218  1.00 20.00    -0.077 C 
HETATM    3  C3  UNL     1     -32.347   9.267   2.685  1.00 20.00     0.034 C 
HETATM    4  C4  UNL     1     -31.950   7.448   0.954  1.00 20.00     0.034 C 
HETATM    5  C5  UNL     1     -32.888   5.410   2.881  1.00 20.00     0.034 C 
HETATM    6  C6  UNL     1     -33.329   7.234   4.596  1.00 20.00     0.034 C 
HETATM    7  C7  UNL     1     -33.097  10.091   1.638  1.00 20.00     0.004 C 
HETATM    8  C8  UNL     1     -32.702   8.281  -0.084  1.00 20.00     0.004 C 
HETATM    9  C9  UNL     1     -34.288   4.846   3.130  1.00 20.00     0.004 C 
HETATM   10  C10 UNL     1     -34.727   6.662   4.836  1.00 20.00     0.004 C 
HETATM   11  C11 UNL     1     -32.619   9.778   0.219  1.00 20.00     0.001 C 
HETATM   12  C12 UNL     1     -34.785   5.162   4.541  1.00 20.00     0.001 C 
ENDROOT
TORSDOF 0
