REMARK  1 active torsions:
REMARK  status: ('A' for Active; 'I' for Inactive)
REMARK    1  A    between atoms: C6_6  and  C8_8 
ROOT
HETATM    1  C1  UNL     1     -34.950   5.779   6.505  1.00 20.00     0.000 C 
HETATM    2  C2  UNL     1     -35.166   5.445   5.033  1.00 20.00     0.002 C 
HETATM    3  C3  UNL     1     -34.525   7.231   6.701  1.00 20.00     0.002 C 
HETATM    4  C4  UNL     1     -33.935   5.787   4.190  1.00 20.00     0.026 C 
HETATM    5  C5  UNL     1     -33.293   7.577   5.863  1.00 20.00     0.026 C 
HETATM    6  C6  UNL     1     -33.457   7.241   4.369  1.00 20.00     0.037 C 
HETATM    7 CL9  UNL     1     -34.666   8.361   3.634  1.00 20.00    -0.119 Cl
ENDROOT
BRANCH   6   8
HETATM    8  C8  UNL     1     -32.130   7.453   3.632  1.00 20.00     0.021 C 
HETATM    9  C7  UNL     1     -32.267   7.187   2.171  1.00 20.00     0.007 C 
ENDBRANCH   6   8
TORSDOF 1
