REMARK  1 active torsions:
REMARK  status: ('A' for Active; 'I' for Inactive)
REMARK    1  A    between atoms: C1_1  and  C7_7 
ROOT
HETATM    1  C2  UNL     1     -34.617   4.850   5.913  1.00 20.00     0.000 C 
HETATM    2  C3  UNL     1     -34.486   6.048   6.846  1.00 20.00     0.001 C 
HETATM    3  C4  UNL     1     -34.909   5.285   4.482  1.00 20.00     0.001 C 
HETATM    4  C5  UNL     1     -33.431   7.038   6.351  1.00 20.00     0.018 C 
HETATM    5  C6  UNL     1     -33.859   6.267   3.963  1.00 20.00     0.018 C 
HETATM    6  C7  UNL     1     -33.651   7.463   4.897  1.00 20.00     0.032 C 
HETATM    7  C8  UNL     1     -34.859   8.394   4.813  1.00 20.00     0.025 C 
ENDROOT
BRANCH   6   8
HETATM    8  C1  UNL     1     -32.508   8.353   4.405  1.00 20.00     0.227 C 
HETATM    9  O9  UNL     1     -32.245   9.422   4.946  1.00 20.00    -0.279 OA
HETATM   10 CL10 UNL     1     -31.683   7.663   3.040  1.00 20.00    -0.043 Cl
ENDBRANCH   6   8
TORSDOF 1
