REMARK  3 active torsions:
REMARK  status: ('A' for Active; 'I' for Inactive)
REMARK    1  A    between atoms: C5_5  and  C8_8 
REMARK    2  A    between atoms: C6_6  and  O10_10 
REMARK    3  A    between atoms: C8_8  and  C9_9 
ROOT
HETATM    1  C1  UNL     1     -33.742   5.378   3.016  1.00 20.00     0.007 C 
HETATM    2  C2  UNL     1     -33.071   7.379   4.410  1.00 20.00     0.007 C 
HETATM    3  C3  UNL     1     -34.343   4.720   4.255  1.00 20.00     0.032 C 
HETATM    4  C4  UNL     1     -33.674   6.715   5.645  1.00 20.00     0.032 C 
HETATM    5  C5  UNL     1     -32.603   6.339   3.382  1.00 20.00    -0.014 C 
HETATM    6  C6  UNL     1     -34.804   5.758   5.276  1.00 20.00     0.118 C 
ENDROOT
BRANCH   5   7
HETATM    7  C8  UNL     1     -32.055   7.026   2.132  1.00 20.00     0.004 C 
BRANCH   7   8
HETATM    8  C9  UNL     1     -33.148   7.799   1.402  1.00 20.00    -0.004 C 
HETATM    9  C7  UNL     1     -32.597   8.503   0.173  1.00 20.00     0.005 C 
ENDBRANCH   7   8
ENDBRANCH   5   7
BRANCH   6  10
HETATM   10  O10 UNL     1     -35.247   5.101   6.459  1.00 20.00    -0.396 OA
HETATM   11  H28 UNL     1     -35.983   4.525   6.198  1.00 20.00     0.210 HD
ENDBRANCH   6  10
TORSDOF 3
