REMARK  1 active torsions:
REMARK  status: ('A' for Active; 'I' for Inactive)
REMARK    1  A    between atoms: C3_3  and  C5_5 
ROOT
HETATM    1  C1  UNL     1     -34.176   7.031   5.358  1.00 20.00     0.065 A 
HETATM    2  C2  UNL     1     -34.509   4.738   4.532  1.00 20.00     0.069 A 
HETATM    3  C3  UNL     1     -33.358   6.742   4.288  1.00 20.00     0.026 A 
HETATM    4  C4  UNL     1     -33.550   5.414   3.810  1.00 20.00     0.031 A 
HETATM    5  S7  UNL     1     -35.172   5.703   5.781  1.00 20.00    -0.111 SA
HETATM    6 BR8  UNL     1     -32.597   4.680   2.357  1.00 20.00    -0.050 Br
ENDROOT
BRANCH   3   7
HETATM    7  C5  UNL     1     -32.436   7.718   3.763  1.00 20.00     0.271 C 
HETATM    8  O6  UNL     1     -32.786   8.818   3.306  1.00 20.00    -0.301 OA
ENDBRANCH   3   7
TORSDOF 1
