REMARK  2 active torsions:
REMARK  status: ('A' for Active; 'I' for Inactive)
REMARK    1  A    between atoms: C3_3  and  C4_4 
REMARK    2  A    between atoms: C4_4  and  C5_5 
ROOT
HETATM    1  C1  UNL     1     -33.616   5.038   3.156  1.00 20.00     0.012 C 
HETATM    2  C2  UNL     1     -34.076   4.862   4.251  1.00 20.00    -0.117 C 
HETATM    3  C3  UNL     1     -34.643   4.644   5.589  1.00 20.00     0.094 C 
ENDROOT
BRANCH   3   4
HETATM    4  C4  UNL     1     -33.943   5.483   6.662  1.00 20.00     0.027 C 
BRANCH   4   5
HETATM    5  C5  UNL     1     -34.048   6.996   6.473  1.00 20.00     0.115 C 
HETATM    6 CL6  UNL     1     -33.363   7.527   4.920  1.00 20.00    -0.130 Cl
ENDBRANCH   4   5
ENDBRANCH   3   4
TORSDOF 2
