REMARK  2 active torsions:
REMARK  status: ('A' for Active; 'I' for Inactive)
REMARK    1  A    between atoms: C1_1  and  C5_5 
REMARK    2  A    between atoms: C5_5  and  C6_6 
ROOT
HETATM    1  C5  UNL     1     -34.140   7.687   4.374  1.00 20.00     0.104 C 
ENDROOT
BRANCH   1   2
HETATM    2  C1  UNL     1     -33.879   6.538   5.335  1.00 20.00     0.219 C 
HETATM    3  O7  UNL     1     -33.425   6.732   6.460  1.00 20.00    -0.280 OA
HETATM    4 CL8  UNL     1     -34.293   4.985   4.667  1.00 20.00    -0.044 Cl
ENDBRANCH   1   2
BRANCH   1   5
HETATM    5  C6  UNL     1     -32.884   8.490   3.962  1.00 20.00    -0.044 C 
HETATM    6  C2  UNL     1     -32.205   9.130   5.184  1.00 20.00     0.015 C 
HETATM    7  C3  UNL     1     -31.889   7.515   3.305  1.00 20.00     0.015 C 
HETATM    8  C4  UNL     1     -33.231   9.587   2.942  1.00 20.00     0.015 C 
ENDBRANCH   1   5
TORSDOF 2
