REMARK  2 active torsions:
REMARK  status: ('A' for Active; 'I' for Inactive)
REMARK    1  A    between atoms: C1_1  and  C2_2 
REMARK    2  A    between atoms: C1_1  and  C3_3 
ROOT
HETATM    1  C1  UNL     1     -33.831   6.981   4.795  1.00 20.00     0.245 C 
HETATM    2  O4  UNL     1     -34.293   7.521   5.799  1.00 20.00    -0.287 OA
ENDROOT
BRANCH   1   3
HETATM    3  C2  UNL     1     -32.697   7.560   3.980  1.00 20.00     0.202 C 
HETATM    4 CL8  UNL     1     -32.138   9.085   4.681  1.00 20.00    -0.122 Cl
ENDBRANCH   1   3
BRANCH   1   5
HETATM    5  C3  UNL     1     -34.386   5.673   4.306  1.00 20.00     0.452 C 
HETATM    6  F5  UNL     1     -33.747   5.240   3.190  1.00 20.00    -0.163 F 
HETATM    7  F6  UNL     1     -35.703   5.769   3.997  1.00 20.00    -0.163 F 
HETATM    8  F7  UNL     1     -34.270   4.688   5.233  1.00 20.00    -0.163 F 
ENDBRANCH   1   5
TORSDOF 2
