REMARK  4 active torsions:
REMARK  status: ('A' for Active; 'I' for Inactive)
REMARK    1  A    between atoms: C1_1  and  C4_4 
REMARK    2  A    between atoms: C2_2  and  C8_8 
REMARK    3  A    between atoms: C8_8  and  C9_9 
REMARK    4  A    between atoms: C8_8  and  O10_10 
ROOT
HETATM    1  C8  UNL     1     -31.702   7.803   4.033  1.00 20.00     0.200 C 
ENDROOT
BRANCH   1   2
HETATM    2  C2  UNL     1     -32.846   6.992   4.475  1.00 20.00    -0.069 C 
HETATM    3  C1  UNL     1     -33.781   6.328   4.834  1.00 20.00    -0.070 C 
BRANCH   3   4
HETATM    4  C4  UNL     1     -34.892   5.540   5.260  1.00 20.00    -0.018 C 
HETATM    5  C3  UNL     1     -36.020   5.552   4.534  1.00 20.00     0.028 C 
HETATM    6  C5  UNL     1     -34.764   4.721   6.510  1.00 20.00     0.057 C 
ENDBRANCH   3   4
ENDBRANCH   1   2
BRANCH   1   7
HETATM    7  C9  UNL     1     -31.970   8.574   2.723  1.00 20.00     0.018 C 
HETATM    8  C6  UNL     1     -33.097   9.606   2.851  1.00 20.00     0.013 C 
HETATM    9  C7  UNL     1     -32.241   7.633   1.547  1.00 20.00     0.013 C 
ENDBRANCH   1   7
BRANCH   1  10
HETATM   10  O10 UNL     1     -31.363   8.719   5.072  1.00 20.00    -0.383 OA
HETATM   11  H24 UNL     1     -31.136   8.184   5.848  1.00 20.00     0.211 HD
ENDBRANCH   1  10
TORSDOF 4
