REMARK  1 active torsions:
REMARK  status: ('A' for Active; 'I' for Inactive)
REMARK    1  A    between atoms: C2_2  and  C7_7 
ROOT
HETATM    1  C1  UNL     1     -32.949   7.937   4.932  1.00 20.00    -0.110 C 
HETATM    2  C2  UNL     1     -33.610   6.936   4.861  1.00 20.00    -0.098 C 
HETATM    3  C3  UNL     1     -32.145   9.155   5.017  1.00 20.00     0.112 C 
ENDROOT
BRANCH   2   4
HETATM    4  C7  UNL     1     -34.424   5.703   4.774  1.00 20.00     0.013 C 
HETATM    5  C4  UNL     1     -33.732   4.701   3.839  1.00 20.00     0.028 C 
HETATM    6  C5  UNL     1     -35.813   6.047   4.220  1.00 20.00     0.028 C 
HETATM    7  C6  UNL     1     -34.566   5.086   6.172  1.00 20.00     0.028 C 
ENDBRANCH   2   4
TORSDOF 1
