REMARK  0 active torsions:
REMARK  status: ('A' for Active; 'I' for Inactive)
ROOT
HETATM    1  C1  UNL     1     -33.542   6.434   3.838  1.00 20.00     0.134 C 
HETATM    2  C2  UNL     1     -33.445   7.286   6.086  1.00 20.00     0.134 C 
HETATM    3  C3  UNL     1     -34.590   5.425   4.296  1.00 20.00     0.183 C 
HETATM    4  C4  UNL     1     -34.496   6.258   6.492  1.00 20.00     0.183 C 
HETATM    5  N5  UNL     1     -33.605   7.639   4.671  1.00 20.00    -0.224 NA
HETATM    6  O6  UNL     1     -34.394   5.093   5.671  1.00 20.00    -0.389 OA
HETATM    7 CL7  UNL     1     -32.434   8.859   4.158  1.00 20.00    -0.022 Cl
ENDROOT
TORSDOF 0
