REMARK  4 active torsions:
REMARK  status: ('A' for Active; 'I' for Inactive)
REMARK    1  A    between atoms: C1_1  and  C5_5 
REMARK    2  A    between atoms: C1_1  and  C8_8 
REMARK    3  A    between atoms: C6_6  and  C8_8 
REMARK    4  A    between atoms: C7_7  and  C8_8 
ROOT
HETATM    1  C8  UNL     1     -34.230   6.502   4.127  1.00 20.00     0.054 C 
ENDROOT
BRANCH   1   2
HETATM    2  C1  UNL     1     -33.246   7.639   4.422  1.00 20.00     0.130 C 
HETATM    3  O9  UNL     1     -32.773   7.812   5.545  1.00 20.00    -0.298 OA
BRANCH   2   4
HETATM    4  C5  UNL     1     -32.869   8.524   3.243  1.00 20.00     0.074 C 
HETATM    5  C2  UNL     1     -33.217   9.984   3.475  1.00 20.00     0.013 C 
ENDBRANCH   2   4
ENDBRANCH   1   2
BRANCH   1   6
HETATM    6  C6  UNL     1     -35.137   6.200   5.332  1.00 20.00     0.007 C 
HETATM    7  C3  UNL     1     -34.351   5.715   6.544  1.00 20.00     0.006 C 
ENDBRANCH   1   6
BRANCH   1   8
HETATM    8  C7  UNL     1     -33.470   5.258   3.633  1.00 20.00     0.007 C 
HETATM    9  C4  UNL     1     -32.585   5.486   2.414  1.00 20.00     0.006 C 
ENDBRANCH   1   8
TORSDOF 4
