REMARK  3 active torsions:
REMARK  status: ('A' for Active; 'I' for Inactive)
REMARK    1  A    between atoms: C2_2  and  C3_3 
REMARK    2  A    between atoms: C2_2  and  C4_4 
REMARK    3  A    between atoms: C3_3  and  O5_5 
ROOT
HETATM    1  C2  UNL     1     -32.861   6.111   4.427  1.00 20.00     0.379 C 
HETATM    2  F6  UNL     1     -32.582   6.241   3.099  1.00 20.00    -0.231 F 
ENDROOT
BRANCH   1   3
HETATM    3  C3  UNL     1     -33.042   7.503   5.002  1.00 20.00     0.393 C 
HETATM    4  F7  UNL     1     -33.257   7.410   6.339  1.00 20.00    -0.172 F 
HETATM    5  F8  UNL     1     -34.127   8.099   4.452  1.00 20.00    -0.172 F 
BRANCH   3   6
HETATM    6  O5  UNL     1     -31.894   8.309   4.776  1.00 20.00    -0.329 OA
HETATM    7  C1  UNL     1     -32.033   9.621   5.304  1.00 20.00     0.208 C 
ENDBRANCH   3   6
ENDBRANCH   1   3
BRANCH   1   8
HETATM    8  C4  UNL     1     -34.080   5.227   4.559  1.00 20.00     0.426 C 
HETATM    9  F9  UNL     1     -34.359   5.001   5.862  1.00 20.00    -0.168 F 
HETATM   10  F10 UNL     1     -33.890   4.027   3.972  1.00 20.00    -0.168 F 
HETATM   11  F11 UNL     1     -35.167   5.797   3.998  1.00 20.00    -0.168 F 
ENDBRANCH   1   8
TORSDOF 3
