REMARK  2 active torsions:
REMARK  status: ('A' for Active; 'I' for Inactive)
REMARK    1  A    between atoms: C1_1  and  C5_5 
REMARK    2  A    between atoms: C4_4  and  C5_5 
ROOT
HETATM    1  C1  UNL     1     -32.800   7.979   4.092  1.00 20.00     0.164 C 
HETATM    2  C2  UNL     1     -32.688   7.219   2.998  1.00 20.00     0.301 C 
HETATM    3  F7  UNL     1     -32.605   9.311   3.957  1.00 20.00    -0.205 F 
HETATM    4  F8  UNL     1     -32.394   7.795   1.813  1.00 20.00    -0.170 F 
HETATM    5  F9  UNL     1     -32.867   5.883   3.065  1.00 20.00    -0.170 F 
ENDROOT
BRANCH   1   6
HETATM    6  C5  UNL     1     -33.116   7.453   5.461  1.00 20.00     0.110 C 
BRANCH   6   7
HETATM    7  C4  UNL     1     -34.458   6.796   5.576  1.00 20.00     0.151 A 
HETATM    8  C3  UNL     1     -34.821   5.972   6.779  1.00 20.00     0.200 A 
HETATM    9  O6  UNL     1     -34.426   5.365   5.538  1.00 20.00    -0.381 OA
ENDBRANCH   6   7
ENDBRANCH   1   6
TORSDOF 2
