REMARK  0 active torsions:
REMARK  status: ('A' for Active; 'I' for Inactive)
ROOT
HETATM    1  C1  UNL     1     -33.056   4.724   2.234  1.00 20.00     0.014 C 
HETATM    2  C2  UNL     1     -33.532   5.341   3.148  1.00 20.00    -0.091 C 
HETATM    3  C3  UNL     1     -34.616   7.259   6.839  1.00 20.00     0.000 C 
HETATM    4  C4  UNL     1     -33.687   8.031   5.901  1.00 20.00     0.003 C 
HETATM    5  C5  UNL     1     -34.333   5.765   6.822  1.00 20.00     0.003 C 
HETATM    6  C6  UNL     1     -33.150   7.196   4.734  1.00 20.00     0.039 C 
HETATM    7  C7  UNL     1     -34.481   5.147   5.427  1.00 20.00     0.039 C 
HETATM    8  C8  UNL     1     -34.116   6.098   4.269  1.00 20.00     0.099 C 
HETATM    9 CL9  UNL     1     -35.609   6.860   3.604  1.00 20.00    -0.105 Cl
ENDROOT
TORSDOF 0
