REMARK  3 active torsions:
REMARK  status: ('A' for Active; 'I' for Inactive)
REMARK    1  A    between atoms: C2_2  and  O5_5 
REMARK    2  A    between atoms: C3_3  and  C4_4 
REMARK    3  A    between atoms: C3_3  and  O5_5 
ROOT
HETATM    1  C3  UNL     1     -33.817   7.634   4.886  1.00 20.00     0.454 C 
HETATM    2  F6  UNL     1     -32.614   7.606   5.508  1.00 20.00    -0.166 F 
HETATM    3  F7  UNL     1     -34.593   8.545   5.520  1.00 20.00    -0.166 F 
ENDROOT
BRANCH   1   4
HETATM    4  C4  UNL     1     -34.459   6.278   4.957  1.00 20.00     0.484 C 
HETATM    5  F8  UNL     1     -33.694   5.351   4.344  1.00 20.00    -0.163 F 
HETATM    6  F9  UNL     1     -34.634   5.889   6.238  1.00 20.00    -0.163 F 
HETATM    7  F10 UNL     1     -35.668   6.280   4.356  1.00 20.00    -0.163 F 
ENDBRANCH   1   4
BRANCH   1   8
HETATM    8  O5  UNL     1     -33.638   8.029   3.532  1.00 20.00    -0.319 OA
BRANCH   8   9
HETATM    9  C2  UNL     1     -32.495   7.430   2.936  1.00 20.00     0.170 C 
HETATM   10  C1  UNL     1     -32.382   7.903   1.502  1.00 20.00     0.033 C 
ENDBRANCH   8   9
ENDBRANCH   1   8
TORSDOF 3
