REMARK  0 active torsions:
REMARK  status: ('A' for Active; 'I' for Inactive)
REMARK       I    between atoms: C2_2  and  N4_4 
ROOT
HETATM    1  C1  UNL     1     -33.009   7.947   5.511  1.00 20.00     0.166 C 
HETATM    2  C2  UNL     1     -34.263   6.153   5.584  1.00 20.00     0.240 C 
HETATM    3  C3  UNL     1     -34.877   5.183   6.542  1.00 20.00     0.119 C 
HETATM    4  N4  UNL     1     -33.525   7.144   6.196  1.00 20.00    -0.200 NA
HETATM    5  O5  UNL     1     -34.456   5.999   4.382  1.00 20.00    -0.272 OA
HETATM    6  S6  UNL     1     -32.296   9.053   4.614  1.00 20.00    -0.055 SA
ENDROOT
TORSDOF 0
