REMARK  2 active torsions:
REMARK  status: ('A' for Active; 'I' for Inactive)
REMARK    1  A    between atoms: C3_3  and  C7_7 
REMARK    2  A    between atoms: C7_7  and  C8_8 
ROOT
HETATM    1  C1  UNL     1     -33.394   7.909   4.278  1.00 20.00     0.263 C 
HETATM    2  C2  UNL     1     -33.309   6.205   2.674  1.00 20.00     0.046 C 
HETATM    3  C3  UNL     1     -33.569   6.416   4.153  1.00 20.00     0.088 C 
HETATM    4  C4  UNL     1     -32.276   7.272   2.383  1.00 20.00     0.128 C 
HETATM    5  C5  UNL     1     -32.258   7.708   0.931  1.00 20.00     0.040 C 
HETATM    6  O9  UNL     1     -33.810   8.609   5.188  1.00 20.00    -0.265 OA
HETATM    7  O10 UNL     1     -32.661   8.374   3.218  1.00 20.00    -0.316 OA
ENDROOT
BRANCH   3   8
HETATM    8  C7  UNL     1     -34.947   5.947   4.580  1.00 20.00     0.014 C 
BRANCH   8   9
HETATM    9  C8  UNL     1     -35.047   5.805   6.099  1.00 20.00    -0.004 C 
HETATM   10  C6  UNL     1     -34.061   4.778   6.632  1.00 20.00     0.005 C 
ENDBRANCH   8   9
ENDBRANCH   3   8
TORSDOF 2
