REMARK  2 active torsions:
REMARK  status: ('A' for Active; 'I' for Inactive)
REMARK    1  A    between atoms: C1_1  and  C2_2 
REMARK    2  A    between atoms: C1_1  and  C3_3 
ROOT
HETATM    1  C1  UNL     1     -33.375   6.728   5.425  1.00 20.00     0.341 C 
HETATM    2  F4  UNL     1     -33.986   7.259   6.522  1.00 20.00    -0.234 F 
ENDROOT
BRANCH   1   3
HETATM    3  C2  UNL     1     -33.095   7.853   4.454  1.00 20.00     0.395 C 
HETATM    4  F5  UNL     1     -32.476   7.354   3.355  1.00 20.00    -0.211 F 
HETATM    5  F6  UNL     1     -32.244   8.749   5.010  1.00 20.00    -0.211 F 
ENDBRANCH   1   3
BRANCH   1   6
HETATM    6  C3  UNL     1     -34.283   5.668   4.851  1.00 20.00     0.423 C 
HETATM    7  F7  UNL     1     -34.567   4.730   5.782  1.00 20.00    -0.168 F 
HETATM    8  F8  UNL     1     -33.701   5.042   3.806  1.00 20.00    -0.168 F 
HETATM    9  F9  UNL     1     -35.450   6.192   4.424  1.00 20.00    -0.168 F 
ENDBRANCH   1   6
TORSDOF 2
