REMARK  1 active torsions:
REMARK  status: ('A' for Active; 'I' for Inactive)
REMARK    1  A    between atoms: C1_1  and  C3_3 
ROOT
HETATM    1  C2  UNL     1     -32.565   6.167   5.518  1.00 20.00     0.110 C 
HETATM    2  C3  UNL     1     -33.163   6.884   4.274  1.00 20.00     0.110 C 
HETATM    3  C4  UNL     1     -33.955   6.204   6.183  1.00 20.00     0.310 C 
HETATM    4  C5  UNL     1     -34.568   6.410   4.775  1.00 20.00     0.323 C 
HETATM    5  C6  UNL     1     -32.984   8.404   4.309  1.00 20.00     0.031 C 
HETATM    6  F8  UNL     1     -34.154   7.220   7.053  1.00 20.00    -0.200 F 
HETATM    7  F9  UNL     1     -34.328   5.070   6.818  1.00 20.00    -0.200 F 
HETATM    8  F10 UNL     1     -35.039   5.280   4.195  1.00 20.00    -0.198 F 
HETATM    9  F11 UNL     1     -35.563   7.322   4.702  1.00 20.00    -0.198 F 
ENDROOT
BRANCH   2  10
HETATM   10  C1  UNL     1     -32.722   6.309   2.899  1.00 20.00     0.233 C 
HETATM   11  O7  UNL     1     -32.126   6.995   2.073  1.00 20.00    -0.279 OA
HETATM   12 CL12 UNL     1     -33.172   4.641   2.712  1.00 20.00    -0.043 Cl
ENDBRANCH   2  10
TORSDOF 1
