REMARK  2 active torsions:
REMARK  status: ('A' for Active; 'I' for Inactive)
REMARK    1  A    between atoms: C1_1  and  C3_3 
REMARK    2  A    between atoms: C2_2  and  C3_3 
ROOT
HETATM    1  C3  UNL     1     -33.860   7.062   5.514  1.00 20.00     0.358 C 
HETATM    2  F8  UNL     1     -32.735   6.420   5.916  1.00 20.00    -0.194 F 
HETATM    3  F9  UNL     1     -34.398   7.644   6.615  1.00 20.00    -0.194 F 
ENDROOT
BRANCH   1   4
HETATM    4  C1  UNL     1     -33.488   8.137   4.522  1.00 20.00     0.430 C 
HETATM    5  F4  UNL     1     -32.604   8.991   5.097  1.00 20.00    -0.208 F 
HETATM    6  F5  UNL     1     -32.863   7.589   3.452  1.00 20.00    -0.208 F 
ENDBRANCH   1   4
BRANCH   1   7
HETATM    7  C2  UNL     1     -34.834   6.050   4.962  1.00 20.00     0.430 C 
HETATM    8  F6  UNL     1     -34.276   5.432   3.890  1.00 20.00    -0.208 F 
HETATM    9  F7  UNL     1     -35.080   5.089   5.884  1.00 20.00    -0.208 F 
ENDBRANCH   1   7
TORSDOF 2
