REMARK  2 active torsions:
REMARK  status: ('A' for Active; 'I' for Inactive)
REMARK    1  A    between atoms: C2_2  and  C3_3 
REMARK    2  A    between atoms: C3_3  and  O9_9 
ROOT
HETATM    1  C1  UNL     1     -33.728   5.523   4.220  1.00 20.00    -0.013 C 
HETATM    2  C2  UNL     1     -33.668   6.669   4.909  1.00 20.00     0.013 C 
HETATM    3  C4  UNL     1     -34.404   4.446   5.001  1.00 20.00     0.028 C 
HETATM    4  C5  UNL     1     -34.295   6.539   6.260  1.00 20.00     0.045 C 
HETATM    5  C6  UNL     1     -34.443   5.025   6.415  1.00 20.00     0.009 C 
ENDROOT
BRANCH   2   6
HETATM    6  C3  UNL     1     -33.105   7.900   4.452  1.00 20.00     0.288 C 
HETATM    7  O8  UNL     1     -33.070   8.932   5.119  1.00 20.00    -0.260 OA
BRANCH   6   8
HETATM    8  O9  UNL     1     -32.627   7.734   3.188  1.00 20.00    -0.323 OA
HETATM    9  C7  UNL     1     -32.028   8.888   2.589  1.00 20.00     0.213 C 
ENDBRANCH   6   8
ENDBRANCH   2   6
TORSDOF 2
