REMARK  1 active torsions:
REMARK  status: ('A' for Active; 'I' for Inactive)
REMARK    1  A    between atoms: C1_1  and  C6_6 
ROOT
HETATM    1  C2  UNL     1     -34.684   4.857   5.922  1.00 20.00     0.005 C 
HETATM    2  C3  UNL     1     -34.154   4.831   4.479  1.00 20.00     0.006 C 
HETATM    3  C4  UNL     1     -33.611   7.093   6.303  1.00 20.00     0.020 C 
HETATM    4  C5  UNL     1     -35.425   6.812   4.787  1.00 20.00     0.010 C 
HETATM    5  C6  UNL     1     -33.036   7.027   4.878  1.00 20.00     0.091 C 
HETATM    6  C7  UNL     1     -34.955   6.353   6.165  1.00 20.00    -0.013 C 
HETATM    7  C8  UNL     1     -34.155   6.319   4.086  1.00 20.00     0.000 C 
ENDROOT
BRANCH   5   8
HETATM    8  C1  UNL     1     -32.801   8.411   4.303  1.00 20.00     0.177 C 
HETATM    9  O9  UNL     1     -32.451   9.290   5.139  1.00 20.00    -0.648 OA
HETATM   10  O10 UNL     1     -32.986   8.506   3.057  1.00 20.00    -0.648 OA
ENDBRANCH   5   8
TORSDOF 1
