REMARK  1 active torsions:
REMARK  status: ('A' for Active; 'I' for Inactive)
REMARK    1  A    between atoms: C2_2  and  C3_3 
ROOT
HETATM    1  C1  UNL     1     -34.153   6.621   6.056  1.00 20.00     0.101 A 
HETATM    2  C2  UNL     1     -33.562   7.187   4.944  1.00 20.00     0.118 A 
HETATM    3  N4  UNL     1     -33.447   6.355   3.841  1.00 20.00    -0.166 NA
HETATM    4  N5  UNL     1     -33.942   5.153   4.086  1.00 20.00    -0.037 NA
HETATM    5  S7  UNL     1     -34.550   5.004   5.640  1.00 20.00    -0.008 SA
ENDROOT
BRANCH   2   6
HETATM    6  C3  UNL     1     -33.085   8.539   4.889  1.00 20.00     0.292 C 
HETATM    7  O6  UNL     1     -32.553   9.045   3.884  1.00 20.00    -0.300 OA
ENDBRANCH   2   6
TORSDOF 1
