REMARK  2 active torsions:
REMARK  status: ('A' for Active; 'I' for Inactive)
REMARK    1  A    between atoms: C2_2  and  C3_3 
REMARK    2  A    between atoms: C3_3  and  C4_4 
ROOT
HETATM    1  C1  UNL     1     -32.874   7.944   3.517  1.00 20.00     0.059 C 
HETATM    2  C2  UNL     1     -33.528   8.033   4.830  1.00 20.00     0.132 C 
HETATM    3  N5  UNL     1     -32.359   7.875   2.480  1.00 20.00    -0.197 NA
ENDROOT
BRANCH   2   4
HETATM    4  C3  UNL     1     -33.541   6.676   5.530  1.00 20.00     0.131 C 
BRANCH   4   5
HETATM    5  C4  UNL     1     -34.254   5.623   4.708  1.00 20.00     0.388 C 
HETATM    6  F6  UNL     1     -35.550   5.945   4.512  1.00 20.00    -0.171 F 
HETATM    7  F7  UNL     1     -33.674   5.468   3.499  1.00 20.00    -0.171 F 
HETATM    8  F8  UNL     1     -34.218   4.427   5.336  1.00 20.00    -0.171 F 
ENDBRANCH   4   5
ENDBRANCH   2   4
TORSDOF 2
