REMARK  1 active torsions:
REMARK  status: ('A' for Active; 'I' for Inactive)
REMARK    1  A    between atoms: C1_1  and  C5_5 
ROOT
HETATM    1  C2  UNL     1     -34.650   6.182   6.215  1.00 20.00     0.040 C 
HETATM    2  C3  UNL     1     -34.229   4.730   6.123  1.00 20.00     0.168 C 
HETATM    3  C4  UNL     1     -34.740   5.455   3.964  1.00 20.00     0.179 C 
HETATM    4  C5  UNL     1     -34.462   6.681   4.806  1.00 20.00     0.073 C 
HETATM    5  O7  UNL     1     -34.498   4.301   4.784  1.00 20.00    -0.390 OA
ENDROOT
BRANCH   4   6
HETATM    6  C1  UNL     1     -33.020   7.119   4.615  1.00 20.00     0.237 C 
HETATM    7  O6  UNL     1     -32.699   8.242   4.240  1.00 20.00    -0.306 OA
ENDBRANCH   4   6
TORSDOF 1
