REMARK  2 active torsions:
REMARK  status: ('A' for Active; 'I' for Inactive)
REMARK    1  A    between atoms: C5_5  and  C6_6 
REMARK    2  A    between atoms: C6_6  and  N7_7 
ROOT
HETATM    1  C1  UNL     1     -32.331   7.715   1.758  1.00 20.00     0.158 C 
HETATM    2  N7  UNL     1     -32.070   7.147   2.750  1.00 20.00    -0.270 NA
HETATM    3  S8  UNL     1     -32.653   8.483   0.400  1.00 20.00    -0.055 SA
ENDROOT
BRANCH   2   4
HETATM    4  C6  UNL     1     -33.199   6.973   3.673  1.00 20.00     0.109 C 
HETATM    5  C4  UNL     1     -33.464   5.479   3.824  1.00 20.00     0.035 C 
BRANCH   4   6
HETATM    6  C5  UNL     1     -32.907   7.681   5.013  1.00 20.00     0.002 C 
HETATM    7  C2  UNL     1     -34.091   7.541   5.977  1.00 20.00     0.011 C 
HETATM    8  C3  UNL     1     -32.534   9.158   4.863  1.00 20.00     0.011 C 
ENDBRANCH   4   6
ENDBRANCH   2   4
TORSDOF 2
