REMARK  0 active torsions:
REMARK  status: ('A' for Active; 'I' for Inactive)
ROOT
HETATM    1  C1  UNL     1     -33.714   4.173   4.144  1.00 20.00    -0.025 C 
HETATM    2  C2  UNL     1     -34.352   4.746   5.177  1.00 20.00    -0.025 C 
HETATM    3  C3  UNL     1     -32.284   7.396   2.625  1.00 20.00    -0.024 A 
HETATM    4  C4  UNL     1     -32.724   8.564   3.100  1.00 20.00    -0.025 A 
HETATM    5  C5  UNL     1     -34.921   5.943   3.293  1.00 20.00     0.018 C 
HETATM    6  C6  UNL     1     -33.585   5.222   3.061  1.00 20.00     0.016 C 
HETATM    7  C7  UNL     1     -34.647   6.178   4.783  1.00 20.00     0.014 C 
HETATM    8  C8  UNL     1     -32.550   6.262   3.559  1.00 20.00     0.021 A 
HETATM    9  C9  UNL     1     -33.397   8.440   4.434  1.00 20.00     0.009 A 
HETATM   10  C10 UNL     1     -33.289   6.936   4.769  1.00 20.00     0.009 A 
HETATM   11  C11 UNL     1     -32.704   9.305   5.482  1.00 20.00     0.014 C 
ENDROOT
TORSDOF 0
