REMARK  4 active torsions:
REMARK  status: ('A' for Active; 'I' for Inactive)
REMARK    1  A    between atoms: C3_3  and  C6_6 
REMARK    2  A    between atoms: C5_5  and  C7_7 
REMARK    3  A    between atoms: C6_6  and  C8_8 
REMARK    4  A    between atoms: C7_7  and  C8_8 
ROOT
HETATM    1  C1  UNL     1     -34.377   5.820   5.724  1.00 20.00     0.059 C 
HETATM    2  C5  UNL     1     -33.588   6.890   6.349  1.00 20.00     0.124 C 
HETATM    3  N9  UNL     1     -34.999   4.974   5.230  1.00 20.00    -0.197 NA
ENDROOT
BRANCH   2   4
HETATM    4  C7  UNL     1     -34.091   8.281   5.961  1.00 20.00     0.014 C 
BRANCH   4   5
HETATM    5  C8  UNL     1     -34.045   8.528   4.448  1.00 20.00     0.005 C 
BRANCH   5   6
HETATM    6  C6  UNL     1     -32.645   8.335   3.849  1.00 20.00     0.033 C 
BRANCH   6   7
HETATM    7  C3  UNL     1     -32.576   8.485   2.347  1.00 20.00    -0.093 C 
HETATM    8  C2  UNL     1     -32.130   7.491   1.563  1.00 20.00     0.014 C 
HETATM    9  C4  UNL     1     -33.063   9.781   1.765  1.00 20.00     0.042 C 
ENDBRANCH   6   7
ENDBRANCH   5   6
ENDBRANCH   4   5
ENDBRANCH   2   4
TORSDOF 4
