REMARK  1 active torsions:
REMARK  status: ('A' for Active; 'I' for Inactive)
REMARK    1  A    between atoms: C1_1  and  C6_6 
ROOT
HETATM    1  C2  UNL     1     -32.571   5.518   2.974  1.00 20.00     0.002 C 
HETATM    2  C3  UNL     1     -32.182   6.990   3.060  1.00 20.00     0.012 C 
HETATM    3  C4  UNL     1     -32.933   4.948   4.346  1.00 20.00     0.009 C 
HETATM    4  C5  UNL     1     -33.624   7.255   5.122  1.00 20.00     0.021 C 
HETATM    5  C6  UNL     1     -33.264   7.824   3.745  1.00 20.00     0.055 C 
HETATM    6  C7  UNL     1     -34.022   5.761   5.081  1.00 20.00    -0.047 C 
HETATM    7  C9  UNL     1     -34.148   5.237   6.525  1.00 20.00     0.015 C 
HETATM    8  C10 UNL     1     -35.389   5.583   4.393  1.00 20.00     0.015 C 
ENDROOT
BRANCH   5   9
HETATM    9  C1  UNL     1     -32.776   9.233   3.893  1.00 20.00     0.127 C 
HETATM   10  C8  UNL     1     -33.043  10.166   2.744  1.00 20.00     0.091 C 
HETATM   11  O11 UNL     1     -32.187   9.608   4.906  1.00 20.00    -0.298 OA
ENDBRANCH   5   9
TORSDOF 1
