REMARK  1 active torsions:
REMARK  status: ('A' for Active; 'I' for Inactive)
REMARK    1  A    between atoms: C4_4  and  N7_7 
ROOT
HETATM    1  C1  UNL     1     -34.234   6.833   6.075  1.00 20.00     0.163 C 
HETATM    2  N7  UNL     1     -33.772   7.759   5.497  1.00 20.00    -0.231 NA
HETATM    3  S9  UNL     1     -34.859   5.596   6.862  1.00 20.00    -0.055 SA
ENDROOT
BRANCH   2   4
HETATM    4  C4  UNL     1     -33.227   7.436   4.265  1.00 20.00     0.094 A 
HETATM    5  C2  UNL     1     -33.172   6.166   3.659  1.00 20.00     0.171 A 
HETATM    6  N6  UNL     1     -32.579   6.191   2.463  1.00 20.00    -0.183 NA
HETATM    7  N8  UNL     1     -32.255   7.486   2.309  1.00 20.00    -0.283 N 
HETATM    8  C3  UNL     1     -32.621   8.274   3.361  1.00 20.00     0.145 A 
HETATM    9  C5  UNL     1     -31.582   7.919   1.109  1.00 20.00     0.179 C 
ENDBRANCH   2   4
TORSDOF 1
