REMARK  2 active torsions:
REMARK  status: ('A' for Active; 'I' for Inactive)
REMARK    1  A    between atoms: C1_1  and  C4_4 
REMARK    2  A    between atoms: C3_3  and  C4_4 
ROOT
HETATM    1  C4  UNL     1     -33.758   7.411   5.057  1.00 20.00     0.359 C 
HETATM    2  F8  UNL     1     -34.838   8.189   4.777  1.00 20.00    -0.191 F 
HETATM    3  F9  UNL     1     -33.551   7.518   6.397  1.00 20.00    -0.191 F 
ENDROOT
BRANCH   1   4
HETATM    4  C1  UNL     1     -34.017   5.975   4.662  1.00 20.00     0.200 C 
HETATM    5  C2  UNL     1     -34.649   5.076   5.692  1.00 20.00     0.098 C 
HETATM    6  O5  UNL     1     -33.693   5.549   3.554  1.00 20.00    -0.292 OA
ENDBRANCH   1   4
BRANCH   1   7
HETATM    7  C3  UNL     1     -32.558   7.972   4.332  1.00 20.00     0.432 C 
HETATM    8  F6  UNL     1     -32.786   7.979   2.996  1.00 20.00    -0.207 F 
HETATM    9  F7  UNL     1     -32.377   9.265   4.703  1.00 20.00    -0.207 F 
ENDBRANCH   1   7
TORSDOF 2
