REMARK  3 active torsions:
REMARK  status: ('A' for Active; 'I' for Inactive)
REMARK    1  A    between atoms: C1_1  and  C7_7 
REMARK    2  A    between atoms: C5_5  and  C6_6 
REMARK    3  A    between atoms: C6_6  and  C7_7 
ROOT
HETATM    1  C3  UNL     1     -35.098   5.269   6.580  1.00 20.00     0.024 C 
HETATM    2  C4  UNL     1     -35.886   6.556   4.606  1.00 20.00     0.024 C 
HETATM    3  C7  UNL     1     -34.646   5.898   5.248  1.00 20.00     0.029 C 
ENDROOT
BRANCH   3   4
HETATM    4  C1  UNL     1     -34.123   4.783   4.313  1.00 20.00     0.226 C 
HETATM    5  O8  UNL     1     -34.104   3.603   4.657  1.00 20.00    -0.279 OA
HETATM    6 CL9  UNL     1     -33.568   5.348   2.754  1.00 20.00    -0.043 Cl
ENDBRANCH   3   4
BRANCH   3   7
HETATM    7  C6  UNL     1     -33.560   6.968   5.532  1.00 20.00     0.017 C 
BRANCH   7   8
HETATM    8  C5  UNL     1     -33.419   8.048   4.452  1.00 20.00    -0.003 C 
HETATM    9  C2  UNL     1     -32.395   9.099   4.854  1.00 20.00     0.005 C 
ENDBRANCH   7   8
ENDBRANCH   3   7
TORSDOF 3
