REMARK  0 active torsions:
REMARK  status: ('A' for Active; 'I' for Inactive)
ROOT
HETATM    1  C1  UNL     1     -34.366   8.191   4.358  1.00 20.00     0.048 C 
HETATM    2  C2  UNL     1     -33.358   6.109   3.880  1.00 20.00     0.177 C 
HETATM    3  C3  UNL     1     -34.479   6.710   4.717  1.00 20.00    -0.023 C 
HETATM    4  C4  UNL     1     -32.893   8.388   3.964  1.00 20.00     0.054 C 
HETATM    5  C5  UNL     1     -35.843   6.126   4.349  1.00 20.00     0.017 C 
HETATM    6  C6  UNL     1     -34.219   6.481   6.214  1.00 20.00     0.017 C 
HETATM    7  C7  UNL     1     -32.117   9.213   4.990  1.00 20.00     0.045 C 
HETATM    8  C8  UNL     1     -32.765   9.032   2.582  1.00 20.00     0.045 C 
HETATM    9  O9  UNL     1     -32.300   7.075   3.901  1.00 20.00    -0.380 OA
ENDROOT
TORSDOF 0
