REMARK  2 active torsions:
REMARK  status: ('A' for Active; 'I' for Inactive)
REMARK    1  A    between atoms: C1_1  and  C2_2 
REMARK    2  A    between atoms: C1_1  and  C3_3 
ROOT
HETATM    1  C3  UNL     1     -34.073   5.418   4.472  1.00 20.00     0.390 C 
HETATM    2  F5  UNL     1     -33.966   4.103   4.766  1.00 20.00    -0.171 F 
HETATM    3  F6  UNL     1     -35.292   5.618   3.928  1.00 20.00    -0.171 F 
HETATM    4  F7  UNL     1     -33.146   5.704   3.534  1.00 20.00    -0.171 F 
ENDROOT
BRANCH   1   5
HETATM    5  C1  UNL     1     -33.881   6.257   5.717  1.00 20.00     0.148 C 
BRANCH   5   6
HETATM    6  C2  UNL     1     -34.016   7.742   5.434  1.00 20.00     0.230 C 
HETATM    7  F4  UNL     1     -33.080   8.113   4.520  1.00 20.00    -0.255 F 
ENDBRANCH   5   6
ENDBRANCH   1   5
TORSDOF 2
