REMARK  1 active torsions:
REMARK  status: ('A' for Active; 'I' for Inactive)
REMARK    1  A    between atoms: C3_3  and  C4_4 
ROOT
HETATM    1  C1  UNL     1     -33.562   8.758   5.024  1.00 20.00     0.197 C 
HETATM    2  C2  UNL     1     -32.895   8.436   3.715  1.00 20.00     0.197 C 
HETATM    3  C3  UNL     1     -33.177   6.529   4.888  1.00 20.00     0.369 C 
HETATM    4  O5  UNL     1     -33.295   7.607   5.826  1.00 20.00    -0.351 OA
HETATM    5  O6  UNL     1     -33.161   7.044   3.550  1.00 20.00    -0.351 OA
ENDROOT
BRANCH   3   6
HETATM    6  C4  UNL     1     -34.346   5.575   5.046  1.00 20.00     0.437 C 
HETATM    7  F7  UNL     1     -34.377   5.074   6.294  1.00 20.00    -0.166 F 
HETATM    8  F8  UNL     1     -35.507   6.212   4.813  1.00 20.00    -0.166 F 
HETATM    9  F9  UNL     1     -34.239   4.553   4.179  1.00 20.00    -0.166 F 
ENDBRANCH   3   6
TORSDOF 1
