REMARK  0 active torsions:
REMARK  status: ('A' for Active; 'I' for Inactive)
ROOT
HETATM    1  C1  UNL     1     -33.279   5.990   3.568  1.00 20.00     0.135 C 
HETATM    2  C2  UNL     1     -32.574   7.072   2.791  1.00 20.00     0.088 C 
HETATM    3  C3  UNL     1     -34.268   8.054   4.229  1.00 20.00     0.025 C 
HETATM    4  C4  UNL     1     -34.360   6.536   4.486  1.00 20.00     0.014 C 
HETATM    5  C5  UNL     1     -32.885   8.337   3.602  1.00 20.00    -0.040 C 
HETATM    6  C6  UNL     1     -35.725   5.991   4.061  1.00 20.00     0.023 C 
HETATM    7  C7  UNL     1     -34.077   6.160   5.940  1.00 20.00     0.023 C 
HETATM    8  C8  UNL     1     -32.950   9.570   2.690  1.00 20.00     0.015 C 
HETATM    9  C9  UNL     1     -31.806   8.581   4.669  1.00 20.00     0.015 C 
HETATM   10  O10 UNL     1     -33.029   4.797   3.434  1.00 20.00    -0.297 OA
ENDROOT
TORSDOF 0
