REMARK  3 active torsions:
REMARK  status: ('A' for Active; 'I' for Inactive)
REMARK    1  A    between atoms: C3_3  and  C5_5 
REMARK    2  A    between atoms: C4_4  and  C6_6 
REMARK    3  A    between atoms: C5_5  and  C6_6 
ROOT
HETATM    1  C1  UNL     1     -32.309   7.712   3.062  1.00 20.00     0.059 C 
HETATM    2  C4  UNL     1     -32.585   7.712   4.505  1.00 20.00     0.124 C 
HETATM    3  N7  UNL     1     -32.089   7.712   1.922  1.00 20.00    -0.197 NA
ENDROOT
BRANCH   2   4
HETATM    4  C6  UNL     1     -34.078   7.573   4.808  1.00 20.00     0.020 C 
BRANCH   4   5
HETATM    5  C5  UNL     1     -34.695   6.312   4.187  1.00 20.00     0.051 C 
BRANCH   5   6
HETATM    6  C3  UNL     1     -34.093   5.051   4.740  1.00 20.00     0.002 C 
HETATM    7  C2  UNL     1     -33.509   4.108   3.991  1.00 20.00     0.032 C 
HETATM    8 CL8  UNL     1     -34.136   4.881   6.463  1.00 20.00    -0.090 Cl
ENDBRANCH   5   6
ENDBRANCH   4   5
ENDBRANCH   2   4
TORSDOF 3
