REMARK  0 active torsions:
REMARK  status: ('A' for Active; 'I' for Inactive)
ROOT
HETATM    1  C1  UNL     1     -35.226   5.788   6.460  1.00 20.00     0.009 C 
HETATM    2  C2  UNL     1     -34.801   4.984   4.122  1.00 20.00     0.009 C 
HETATM    3  C3  UNL     1     -33.031   4.719   5.880  1.00 20.00     0.009 C 
HETATM    4  C4  UNL     1     -34.909   7.443   4.603  1.00 20.00     0.048 C 
HETATM    5  C5  UNL     1     -33.140   7.177   6.360  1.00 20.00     0.048 C 
HETATM    6  C6  UNL     1     -32.716   6.374   4.023  1.00 20.00     0.048 C 
HETATM    7  C7  UNL     1     -35.493   6.068   4.970  1.00 20.00    -0.011 C 
HETATM    8  C8  UNL     1     -33.711   5.800   6.739  1.00 20.00    -0.011 C 
HETATM    9  C9  UNL     1     -33.284   4.991   4.386  1.00 20.00    -0.011 C 
HETATM   10  C10 UNL     1     -33.399   7.453   4.873  1.00 20.00     0.104 C 
HETATM   11  F11 UNL     1     -32.893   8.668   4.547  1.00 20.00    -0.243 F 
ENDROOT
TORSDOF 0
