REMARK  1 active torsions:
REMARK  status: ('A' for Active; 'I' for Inactive)
REMARK    1  A    between atoms: C2_2  and  C7_7 
ROOT
HETATM    1  C1  UNL     1     -34.015   4.924   4.245  1.00 20.00     0.127 C 
HETATM    2  C3  UNL     1     -33.261   5.353   3.007  1.00 20.00     0.079 C 
HETATM    3  C4  UNL     1     -34.848   5.985   4.930  1.00 20.00     0.079 C 
HETATM    4  C5  UNL     1     -32.476   6.630   3.271  1.00 20.00     0.019 C 
HETATM    5  C6  UNL     1     -34.028   7.248   5.155  1.00 20.00     0.019 C 
HETATM    6  C7  UNL     1     -33.364   7.727   3.862  1.00 20.00     0.048 C 
HETATM    7  O8  UNL     1     -34.035   3.751   4.614  1.00 20.00    -0.298 OA
ENDROOT
BRANCH   6   8
HETATM    8  C2  UNL     1     -32.533   8.942   4.136  1.00 20.00     0.235 C 
HETATM    9  O9  UNL     1     -32.416   9.445   5.249  1.00 20.00    -0.306 OA
ENDBRANCH   6   8
TORSDOF 1
