REMARK  0 active torsions:
REMARK  status: ('A' for Active; 'I' for Inactive)
ROOT
HETATM    1  C1  UNL     1     -32.483   7.250   2.871  1.00 20.00     0.000 C 
HETATM    2  C2  UNL     1     -32.988   5.921   3.432  1.00 20.00     0.001 C 
HETATM    3  C3  UNL     1     -32.143   8.236   3.990  1.00 20.00     0.001 C 
HETATM    4  C4  UNL     1     -34.176   6.126   4.372  1.00 20.00     0.009 C 
HETATM    5  C5  UNL     1     -33.328   8.445   4.931  1.00 20.00     0.009 C 
HETATM    6  C6  UNL     1     -33.266   6.600   6.760  1.00 20.00     0.010 A 
HETATM    7  C7  UNL     1     -34.672   7.126   6.710  1.00 20.00     0.010 A 
HETATM    8  C8  UNL     1     -33.830   7.120   5.456  1.00 20.00    -0.040 A 
ENDROOT
TORSDOF 0
