REMARK  2 active torsions:
REMARK  status: ('A' for Active; 'I' for Inactive)
REMARK    1  A    between atoms: C2_2  and  C3_3 
REMARK    2  A    between atoms: C4_4  and  C5_5 
ROOT
HETATM    1  C3  UNL     1     -33.287   7.317   5.458  1.00 20.00    -0.001 C 
HETATM    2  C4  UNL     1     -32.995   6.869   4.228  1.00 20.00    -0.000 C 
ENDROOT
BRANCH   2   3
HETATM    3  C5  UNL     1     -32.650   7.746   3.131  1.00 20.00    -0.004 C 
HETATM    4  C6  UNL     1     -32.358   7.301   1.900  1.00 20.00    -0.031 C 
HETATM    5  C7  UNL     1     -32.000   8.196   0.759  1.00 20.00     0.036 C 
ENDBRANCH   2   3
BRANCH   1   6
HETATM    6  C2  UNL     1     -33.632   6.440   6.554  1.00 20.00    -0.010 C 
HETATM    7  C1  UNL     1     -34.412   5.363   6.416  1.00 20.00     0.011 C 
ENDBRANCH   1   6
TORSDOF 2
