REMARK  2 active torsions:
REMARK  status: ('A' for Active; 'I' for Inactive)
REMARK    1  A    between atoms: C1_1  and  C2_2 
REMARK    2  A    between atoms: C1_1  and  C3_3 
ROOT
HETATM    1  C3  UNL     1     -34.272   5.958   4.941  1.00 20.00     0.256 C 
HETATM    2  F4  UNL     1     -33.532   5.478   3.901  1.00 20.00    -0.207 F 
HETATM    3 CL5  UNL     1     -35.945   6.175   4.370  1.00 20.00    -0.066 Cl
HETATM    4 CL6  UNL     1     -34.235   4.746   6.246  1.00 20.00    -0.066 Cl
ENDROOT
BRANCH   1   5
HETATM    5  C1  UNL     1     -33.647   7.285   5.381  1.00 20.00     0.089 C 
BRANCH   5   6
HETATM    6  C2  UNL     1     -33.601   8.370   4.314  1.00 20.00     0.090 C 
HETATM    7 BR7  UNL     1     -32.486   7.772   2.827  1.00 20.00    -0.096 Br
ENDBRANCH   5   6
ENDBRANCH   1   5
TORSDOF 2
