REMARK  1 active torsions:
REMARK  status: ('A' for Active; 'I' for Inactive)
REMARK    1  A    between atoms: C1_1  and  C4_4 
ROOT
HETATM    1  C3  UNL     1     -32.389   7.762   2.632  1.00 20.00    -0.024 C 
HETATM    2  C4  UNL     1     -32.904   6.646   3.187  1.00 20.00    -0.066 C 
HETATM    3  C6  UNL     1     -31.756   7.931   1.287  1.00 20.00     0.036 C 
HETATM    4  C7  UNL     1     -32.927   5.300   2.510  1.00 20.00     0.048 C 
ENDROOT
BRANCH   2   5
HETATM    5  C1  UNL     1     -33.478   6.736   4.532  1.00 20.00     0.002 C 
HETATM    6  C2  UNL     1     -34.032   5.738   5.239  1.00 20.00    -0.030 C 
HETATM    7  C5  UNL     1     -34.598   5.914   6.611  1.00 20.00     0.036 C 
ENDBRANCH   2   5
TORSDOF 1
