REMARK  0 active torsions:
REMARK  status: ('A' for Active; 'I' for Inactive)
ROOT
HETATM    1  C1  UNL     1     -32.477   8.261   2.919  1.00 20.00     0.031 A 
HETATM    2  C2  UNL     1     -32.938   5.962   2.277  1.00 20.00     0.043 A 
HETATM    3  C3  UNL     1     -33.438   6.748   4.496  1.00 20.00     0.033 A 
HETATM    4  C4  UNL     1     -32.969   8.021   4.202  1.00 20.00    -0.045 A 
HETATM    5  C5  UNL     1     -33.427   5.725   3.555  1.00 20.00     0.017 A 
HETATM    6  C6  UNL     1     -32.461   7.238   1.962  1.00 20.00     0.035 A 
HETATM    7  C7  UNL     1     -33.986   6.324   5.788  1.00 20.00     0.171 A 
HETATM    8  C8  UNL     1     -34.417   4.876   5.813  1.00 20.00     0.163 A 
HETATM    9  C9  UNL     1     -32.966   9.135   5.192  1.00 20.00     0.049 C 
HETATM   10  O10 UNL     1     -34.086   7.067   6.753  1.00 20.00    -0.291 OA
HETATM   11  S11 UNL     1     -34.072   4.198   4.162  1.00 20.00    -0.121 SA
HETATM   12 CL12 UNL     1     -31.850   7.554   0.382  1.00 20.00    -0.084 Cl
ENDROOT
TORSDOF 0
