REMARK  1 active torsions:
REMARK  status: ('A' for Active; 'I' for Inactive)
REMARK    1  A    between atoms: C1_1  and  C6_6 
ROOT
HETATM    1  C2  UNL     1     -33.935   5.773   6.566  1.00 20.00     0.005 C 
HETATM    2  C3  UNL     1     -34.154   7.262   6.261  1.00 20.00     0.006 C 
HETATM    3  C4  UNL     1     -33.046   5.398   4.256  1.00 20.00     0.016 C 
HETATM    4  C5  UNL     1     -35.326   5.986   4.644  1.00 20.00     0.010 C 
HETATM    5  C6  UNL     1     -33.259   6.880   3.907  1.00 20.00     0.051 C 
HETATM    6  C7  UNL     1     -34.216   5.100   5.213  1.00 20.00    -0.013 C 
HETATM    7  C8  UNL     1     -34.488   7.263   4.757  1.00 20.00    -0.003 C 
ENDROOT
BRANCH   5   8
HETATM    8  C1  UNL     1     -32.056   7.730   4.170  1.00 20.00     0.236 C 
HETATM    9  O9  UNL     1     -32.121   8.911   4.495  1.00 20.00    -0.306 OA
ENDBRANCH   5   8
TORSDOF 1
