REMARK  2 active torsions:
REMARK  status: ('A' for Active; 'I' for Inactive)
REMARK    1  A    between atoms: C3_3  and  O6_6 
REMARK    2  A    between atoms: C4_4  and  O6_6 
ROOT
HETATM    1  C1  UNL     1     -34.741   5.767   5.975  1.00 20.00     0.014 C 
HETATM    2  C2  UNL     1     -33.883   6.557   5.692  1.00 20.00    -0.091 C 
HETATM    3  C4  UNL     1     -32.836   7.519   5.348  1.00 20.00     0.272 C 
ENDROOT
BRANCH   3   4
HETATM    4  O6  UNL     1     -33.010   7.992   4.019  1.00 20.00    -0.297 OA
BRANCH   4   5
HETATM    5  C3  UNL     1     -32.973   7.045   3.022  1.00 20.00     0.358 C 
HETATM    6  O5  UNL     1     -33.330   5.883   3.193  1.00 20.00    -0.245 OA
HETATM    7 CL7  UNL     1     -32.371   7.676   1.512  1.00 20.00    -0.012 Cl
ENDBRANCH   4   5
ENDBRANCH   3   4
TORSDOF 2
