REMARK  2 active torsions:
REMARK  status: ('A' for Active; 'I' for Inactive)
REMARK    1  A    between atoms: C7_7  and  O9_9 
REMARK    2  A    between atoms: C8_8  and  O9_9 
ROOT
HETATM    1  C1  UNL     1     -32.661   9.261   1.894  1.00 20.00     0.015 C 
HETATM    2  C2  UNL     1     -32.719   8.779   2.992  1.00 20.00    -0.086 C 
HETATM    3  C3  UNL     1     -32.528   9.231   5.409  1.00 20.00     0.053 C 
HETATM    4  C7  UNL     1     -32.786   8.186   4.333  1.00 20.00     0.196 C 
ENDROOT
BRANCH   4   5
HETATM    5  O9  UNL     1     -34.074   7.624   4.529  1.00 20.00    -0.364 OA
BRANCH   5   6
HETATM    6  C8  UNL     1     -33.995   6.218   4.768  1.00 20.00     0.051 C 
HETATM    7  C4  UNL     1     -33.153   5.985   6.021  1.00 20.00     0.045 C 
HETATM    8  C5  UNL     1     -35.418   5.706   4.974  1.00 20.00     0.045 C 
HETATM    9  C6  UNL     1     -33.355   5.554   3.550  1.00 20.00     0.045 C 
ENDBRANCH   5   6
ENDBRANCH   4   5
TORSDOF 2
