REMARK  0 active torsions:
REMARK  status: ('A' for Active; 'I' for Inactive)
ROOT
HETATM    1  C1  UNL     1     -34.478   4.832   4.560  1.00 20.00    -0.003 A 
HETATM    2  C2  UNL     1     -34.494   5.269   5.942  1.00 20.00    -0.003 A 
HETATM    3  C3  UNL     1     -33.990   5.838   3.809  1.00 20.00    -0.013 A 
HETATM    4  C4  UNL     1     -34.016   6.527   5.989  1.00 20.00    -0.013 A 
HETATM    5  C5  UNL     1     -33.870   8.405   4.198  1.00 20.00     0.019 A 
HETATM    6  C6  UNL     1     -32.472   7.867   4.385  1.00 20.00     0.019 A 
HETATM    7  C7  UNL     1     -33.656   6.997   4.645  1.00 20.00    -0.005 A 
ENDROOT
TORSDOF 0
