REMARK  2 active torsions:
REMARK  status: ('A' for Active; 'I' for Inactive)
REMARK    1  A    between atoms: C2_2  and  C6_6 
REMARK    2  A    between atoms: C2_2  and  O9_9 
ROOT
HETATM    1  C1  UNL     1     -33.523   5.052   3.403  1.00 20.00     0.079 C 
HETATM    2  C3  UNL     1     -34.225   4.479   5.682  1.00 20.00     0.042 C 
HETATM    3  C4  UNL     1     -35.796   5.655   4.100  1.00 20.00     0.042 C 
HETATM    4  C6  UNL     1     -34.337   5.512   4.553  1.00 20.00     0.129 C 
HETATM    5  N7  UNL     1     -32.887   4.690   2.503  1.00 20.00    -0.196 NA
ENDROOT
BRANCH   4   6
HETATM    6  C2  UNL     1     -33.817   6.866   5.044  1.00 20.00     0.280 C 
HETATM    7  O8  UNL     1     -34.291   7.496   5.983  1.00 20.00    -0.263 OA
BRANCH   6   8
HETATM    8  O9  UNL     1     -32.752   7.272   4.287  1.00 20.00    -0.325 OA
HETATM    9  C5  UNL     1     -32.177   8.531   4.650  1.00 20.00     0.213 C 
ENDBRANCH   6   8
ENDBRANCH   4   6
TORSDOF 2
