REMARK  1 active torsions:
REMARK  status: ('A' for Active; 'I' for Inactive)
REMARK    1  A    between atoms: C2_2  and  C3_3 
ROOT
HETATM    1  C1  UNL     1     -32.779   8.029   4.296  1.00 20.00    -0.019 C 
HETATM    2  C2  UNL     1     -33.522   7.088   4.908  1.00 20.00    -0.004 C 
HETATM    3  C4  UNL     1     -32.337   9.346   4.854  1.00 20.00     0.036 C 
HETATM    4  C5  UNL     1     -34.088   7.207   6.297  1.00 20.00     0.053 C 
ENDROOT
BRANCH   2   5
HETATM    5  C3  UNL     1     -33.854   5.788   4.200  1.00 20.00     0.247 C 
HETATM    6  O6  UNL     1     -34.538   4.962   4.806  1.00 20.00    -0.274 OA
HETATM    7 CL7  UNL     1     -33.284   5.496   2.565  1.00 20.00    -0.039 Cl
ENDBRANCH   2   5
TORSDOF 1
