REMARK  3 active torsions:
REMARK  status: ('A' for Active; 'I' for Inactive)
REMARK    1  A    between atoms: C3_3  and  C4_4 
REMARK    2  A    between atoms: C4_4  and  O10_10 
REMARK    3  A    between atoms: C7_7  and  O10_10 
ROOT
HETATM    1  C1  UNL     1     -33.056   9.285   2.171  1.00 20.00     0.105 C 
HETATM    2  C2  UNL     1     -32.416   9.295   4.481  1.00 20.00     0.042 C 
HETATM    3  C3  UNL     1     -32.806   8.607   3.399  1.00 20.00     0.110 C 
HETATM    4  N8  UNL     1     -33.261   9.837   1.171  1.00 20.00    -0.191 NA
ENDROOT
BRANCH   3   5
HETATM    5  C4  UNL     1     -32.966   7.133   3.535  1.00 20.00     0.303 C 
HETATM    6  O9  UNL     1     -32.345   6.305   2.883  1.00 20.00    -0.258 OA
BRANCH   5   7
HETATM    7  O10 UNL     1     -33.900   6.861   4.488  1.00 20.00    -0.312 OA
BRANCH   7   8
HETATM    8  C7  UNL     1     -34.641   5.650   4.302  1.00 20.00     0.124 C 
HETATM    9  C5  UNL     1     -34.390   4.724   5.482  1.00 20.00     0.040 C 
HETATM   10  C6  UNL     1     -36.117   5.985   4.149  1.00 20.00     0.040 C 
ENDBRANCH   7   8
ENDBRANCH   5   7
ENDBRANCH   3   5
TORSDOF 3
