REMARK  0 active torsions:
REMARK  status: ('A' for Active; 'I' for Inactive)
ROOT
HETATM    1  C1  UNL     1     -32.883   6.351   3.624  1.00 20.00     0.027 A 
HETATM    2  C2  UNL     1     -33.391   7.725   3.978  1.00 20.00     0.027 A 
HETATM    3  C3  UNL     1     -34.006   6.503   4.631  1.00 20.00     0.120 A 
HETATM    4  C4  UNL     1     -33.097   5.812   2.251  1.00 20.00     0.014 C 
HETATM    5  C5  UNL     1     -32.509   8.675   4.714  1.00 20.00     0.014 C 
HETATM    6 CL6  UNL     1     -35.660   6.087   4.181  1.00 20.00    -0.101 Cl
HETATM    7 CL7  UNL     1     -33.645   6.122   6.314  1.00 20.00    -0.101 Cl
ENDROOT
TORSDOF 0
