REMARK  5 active torsions:
REMARK  status: ('A' for Active; 'I' for Inactive)
REMARK    1  A    between atoms: C1_1  and  C6_6 
REMARK    2  A    between atoms: C2_2  and  C7_7 
REMARK    3  A    between atoms: C2_2  and  C8_8 
REMARK    4  A    between atoms: C7_7  and  C9_9 
REMARK    5  A    between atoms: C8_8  and  C10_10 
ROOT
HETATM    1  C1  UNL     1     -33.611   6.457   3.617  1.00 20.00    -0.024 C 
HETATM    2  C2  UNL     1     -32.680   7.403   3.380  1.00 20.00    -0.084 C 
ENDROOT
BRANCH   2   3
HETATM    3  C7  UNL     1     -32.443   7.891   1.964  1.00 20.00     0.033 C 
BRANCH   3   4
HETATM    4  C9  UNL     1     -33.373   9.046   1.584  1.00 20.00    -0.000 C 
HETATM    5  C4  UNL     1     -33.101   9.534   0.170  1.00 20.00     0.005 C 
ENDBRANCH   3   4
ENDBRANCH   2   3
BRANCH   2   6
HETATM    6  C8  UNL     1     -31.827   8.036   4.457  1.00 20.00     0.033 C 
BRANCH   6   7
HETATM    7  C10 UNL     1     -32.461   9.313   5.014  1.00 20.00    -0.000 C 
HETATM    8  C5  UNL     1     -33.835   9.037   5.605  1.00 20.00     0.005 C 
ENDBRANCH   6   7
ENDBRANCH   2   6
BRANCH   1   9
HETATM    9  C6  UNL     1     -33.955   5.828   4.936  1.00 20.00     0.023 C 
HETATM   10  C3  UNL     1     -35.065   4.800   4.785  1.00 20.00     0.009 C 
ENDBRANCH   1   9
TORSDOF 5
