REMARK  3 active torsions:
REMARK  status: ('A' for Active; 'I' for Inactive)
REMARK    1  A    between atoms: C5_5  and  C6_6 
REMARK    2  A    between atoms: C5_5  and  N8_8 
REMARK    3  A    between atoms: C6_6  and  N9_9 
ROOT
HETATM    1  C1  UNL     1     -32.395   7.817   2.062  1.00 20.00     0.157 C 
HETATM    2  N8  UNL     1     -32.204   7.448   3.160  1.00 20.00    -0.274 NA
HETATM    3  S10 UNL     1     -32.640   8.292   0.562  1.00 20.00    -0.055 SA
ENDROOT
BRANCH   2   4
HETATM    4  C5  UNL     1     -32.679   8.356   4.207  1.00 20.00     0.172 C 
BRANCH   4   5
HETATM    5  C6  UNL     1     -34.120   8.021   4.572  1.00 20.00     0.172 C 
BRANCH   5   6
HETATM    6  N9  UNL     1     -34.277   6.673   5.109  1.00 20.00    -0.280 N 
HETATM    7  C4  UNL     1     -34.414   6.336   6.423  1.00 20.00     0.113 A 
HETATM    8  C2  UNL     1     -34.531   4.968   6.450  1.00 20.00     0.040 A 
HETATM    9  C3  UNL     1     -34.450   4.581   5.099  1.00 20.00     0.140 A 
HETATM   10  N7  UNL     1     -34.294   5.620   4.274  1.00 20.00    -0.185 NA
ENDBRANCH   5   6
ENDBRANCH   4   5
ENDBRANCH   2   4
TORSDOF 3
