REMARK  0 active torsions:
REMARK  status: ('A' for Active; 'I' for Inactive)
ROOT
HETATM    1  C1  UNL     1     -32.835   7.479   3.831  1.00 20.00     0.071 C 
HETATM    2  C2  UNL     1     -33.940   5.347   6.863  1.00 20.00    -0.000 C 
HETATM    3  C3  UNL     1     -34.346   4.555   5.864  1.00 20.00    -0.000 C 
HETATM    4  C4  UNL     1     -34.008   6.784   6.934  1.00 20.00    -0.002 C 
HETATM    5  C5  UNL     1     -34.947   4.946   4.616  1.00 20.00    -0.002 C 
HETATM    6  C6  UNL     1     -34.070   7.652   5.915  1.00 20.00    -0.004 C 
HETATM    7  C7  UNL     1     -34.848   6.129   3.994  1.00 20.00    -0.004 C 
HETATM    8  C8  UNL     1     -34.172   7.397   4.437  1.00 20.00     0.138 C 
HETATM    9  N9  UNL     1     -31.780   7.543   3.352  1.00 20.00    -0.196 NA
ENDROOT
TORSDOF 0
