REMARK  2 active torsions:
REMARK  status: ('A' for Active; 'I' for Inactive)
REMARK    1  A    between atoms: C1_1  and  C4_4 
REMARK    2  A    between atoms: C3_3  and  C4_4 
ROOT
HETATM    1  C4  UNL     1     -34.117   5.893   4.566  1.00 20.00     0.359 C 
HETATM    2  F10 UNL     1     -34.294   4.584   4.238  1.00 20.00    -0.192 F 
HETATM    3  F11 UNL     1     -35.346   6.471   4.477  1.00 20.00    -0.192 F 
ENDROOT
BRANCH   1   4
HETATM    4  C1  UNL     1     -33.128   6.520   3.634  1.00 20.00     0.238 C 
HETATM    5  C2  UNL     1     -32.732   7.797   3.675  1.00 20.00     0.307 C 
HETATM    6  F6  UNL     1     -31.833   8.272   2.789  1.00 20.00    -0.170 F 
HETATM    7  F7  UNL     1     -33.243   8.622   4.613  1.00 20.00    -0.170 F 
HETATM    8  F5  UNL     1     -32.604   5.736   2.662  1.00 20.00    -0.198 F 
ENDBRANCH   1   4
BRANCH   1   9
HETATM    9  C3  UNL     1     -33.661   5.963   6.008  1.00 20.00     0.432 C 
HETATM   10  F8  UNL     1     -33.555   7.256   6.403  1.00 20.00    -0.207 F 
HETATM   11  F9  UNL     1     -34.604   5.392   6.800  1.00 20.00    -0.207 F 
ENDBRANCH   1   9
TORSDOF 2
