REMARK  1 active torsions:
REMARK  status: ('A' for Active; 'I' for Inactive)
REMARK    1  A    between atoms: C4_4  and  C7_7 
ROOT
HETATM    1  C1  UNL     1     -32.469   8.979   0.686  1.00 20.00     0.063 C 
HETATM    2  C7  UNL     1     -31.660   8.543   1.834  1.00 20.00     0.165 C 
HETATM    3  N8  UNL     1     -33.107   9.322  -0.221  1.00 20.00    -0.197 NA
ENDROOT
BRANCH   2   4
HETATM    4  C4  UNL     1     -32.458   7.663   2.736  1.00 20.00    -0.006 A 
HETATM    5  C3  UNL     1     -32.692   6.347   2.371  1.00 20.00     0.128 A 
HETATM    6  N9  UNL     1     -33.402   5.471   3.116  1.00 20.00    -0.248 NA
HETATM    7  C6  UNL     1     -33.900   5.939   4.282  1.00 20.00     0.127 A 
HETATM    8  C2  UNL     1     -33.723   7.236   4.736  1.00 20.00     0.068 A 
HETATM    9 CL11 UNL     1     -34.794   4.794   5.195  1.00 20.00    -0.062 Cl
HETATM   10  C5  UNL     1     -32.986   8.109   3.942  1.00 20.00     0.045 A 
HETATM   11 CL10 UNL     1     -32.750   9.729   4.483  1.00 20.00    -0.084 Cl
ENDBRANCH   2   4
TORSDOF 1
