REMARK  1 active torsions:
REMARK  status: ('A' for Active; 'I' for Inactive)
REMARK    1  A    between atoms: C5_5  and  C10_10 
ROOT
HETATM    1  C1  UNL     1     -33.005   7.969   5.176  1.00 20.00     0.011 C 
HETATM    2  C2  UNL     1     -33.088   6.146   3.422  1.00 20.00     0.011 C 
HETATM    3  C3  UNL     1     -33.778   7.125   6.194  1.00 20.00     0.079 C 
HETATM    4  C4  UNL     1     -33.339   5.207   4.605  1.00 20.00     0.079 C 
HETATM    5  C5  UNL     1     -33.374   7.626   3.730  1.00 20.00    -0.007 C 
HETATM    6  C6  UNL     1     -34.284   5.807   5.626  1.00 20.00     0.243 C 
HETATM    7  F11 UNL     1     -34.490   4.929   6.638  1.00 20.00    -0.206 F 
HETATM    8  F12 UNL     1     -35.496   6.004   5.042  1.00 20.00    -0.206 F 
ENDROOT
BRANCH   5   9
HETATM    9  C10 UNL     1     -32.643   8.535   2.743  1.00 20.00    -0.048 C 
HETATM   10  C7  UNL     1     -32.990  10.005   3.034  1.00 20.00     0.015 C 
HETATM   11  C8  UNL     1     -33.067   8.190   1.306  1.00 20.00     0.015 C 
HETATM   12  C9  UNL     1     -31.124   8.338   2.883  1.00 20.00     0.015 C 
ENDBRANCH   5   9
TORSDOF 1
