REMARK  2 active torsions:
REMARK  status: ('A' for Active; 'I' for Inactive)
REMARK    1  A    between atoms: C1_1  and  C3_3 
REMARK    2  A    between atoms: C2_2  and  C3_3 
ROOT
HETATM    1  C3  UNL     1     -33.540   6.511   5.412  1.00 20.00     0.139 C 
HETATM    2 CL6  UNL     1     -34.655   6.328   6.800  1.00 20.00    -0.120 Cl
ENDROOT
BRANCH   1   3
HETATM    3  C1  UNL     1     -33.951   5.561   4.299  1.00 20.00     0.244 C 
HETATM    4  F4  UNL     1     -33.090   5.674   3.253  1.00 20.00    -0.254 F 
ENDBRANCH   1   3
BRANCH   1   5
HETATM    5  C2  UNL     1     -33.543   7.960   4.950  1.00 20.00     0.244 C 
HETATM    6  F5  UNL     1     -32.666   8.102   3.919  1.00 20.00    -0.254 F 
ENDBRANCH   1   5
TORSDOF 2
