REMARK  0 active torsions:
REMARK  status: ('A' for Active; 'I' for Inactive)
ROOT
HETATM    1  C1  UNL     1     -32.868   7.140   3.309  1.00 20.00     0.131 C 
HETATM    2  C2  UNL     1     -33.465   5.757   3.416  1.00 20.00     0.087 C 
HETATM    3  C3  UNL     1     -34.031   7.079   5.357  1.00 20.00     0.021 C 
HETATM    4  C4  UNL     1     -33.373   8.070   4.391  1.00 20.00     0.052 C 
HETATM    5  C5  UNL     1     -34.572   5.942   4.469  1.00 20.00    -0.041 C 
HETATM    6  C6  UNL     1     -32.264   8.876   5.039  1.00 20.00     0.018 C 
HETATM    7  C7  UNL     1     -35.901   6.338   3.803  1.00 20.00     0.015 C 
HETATM    8  C8  UNL     1     -34.782   4.663   5.284  1.00 20.00     0.015 C 
HETATM    9  O9  UNL     1     -32.065   7.463   2.441  1.00 20.00    -0.298 OA
ENDROOT
TORSDOF 0
