REMARK  2 active torsions:
REMARK  status: ('A' for Active; 'I' for Inactive)
REMARK    1  A    between atoms: C5_5  and  C7_7 
REMARK    2  A    between atoms: C6_6  and  O10_10 
ROOT
HETATM    1  C1  UNL     1     -32.658   5.960   2.520  1.00 20.00     0.006 A 
HETATM    2  C2  UNL     1     -32.846   8.128   3.784  1.00 20.00     0.006 A 
HETATM    3  C3  UNL     1     -33.565   5.402   3.336  1.00 20.00    -0.008 A 
HETATM    4  C4  UNL     1     -33.754   7.575   4.603  1.00 20.00    -0.008 A 
HETATM    5  C6  UNL     1     -32.199   7.383   2.652  1.00 20.00     0.163 A 
HETATM    6  C7  UNL     1     -34.237   6.156   4.454  1.00 20.00     0.044 A 
HETATM    7  C8  UNL     1     -35.757   6.120   4.290  1.00 20.00     0.031 C 
ENDROOT
BRANCH   6   8
HETATM    8  C5  UNL     1     -33.833   5.452   5.721  1.00 20.00     0.248 C 
HETATM    9  O9  UNL     1     -34.634   4.940   6.495  1.00 20.00    -0.305 OA
ENDBRANCH   6   8
BRANCH   5  10
HETATM   10  O10 UNL     1     -32.477   8.054   1.426  1.00 20.00    -0.388 OA
HETATM   11  H20 UNL     1     -31.985   7.584   0.736  1.00 20.00     0.210 HD
ENDBRANCH   5  10
TORSDOF 2
