REMARK  3 active torsions:
REMARK  status: ('A' for Active; 'I' for Inactive)
REMARK    1  A    between atoms: C4_4  and  C6_6 
REMARK    2  A    between atoms: C5_5  and  C6_6 
REMARK    3  A    between atoms: C6_6  and  N7_7 
ROOT
HETATM    1  C1  UNL     1     -33.127   7.990   3.788  1.00 20.00     0.158 C 
HETATM    2  N7  UNL     1     -33.265   7.155   4.600  1.00 20.00    -0.270 NA
HETATM    3  S8  UNL     1     -32.913   9.138   2.706  1.00 20.00    -0.055 SA
ENDROOT
BRANCH   2   4
HETATM    4  C6  UNL     1     -34.320   6.176   4.299  1.00 20.00     0.109 C 
BRANCH   4   5
HETATM    5  C4  UNL     1     -34.912   5.674   5.621  1.00 20.00     0.023 C 
HETATM    6  C2  UNL     1     -33.878   4.983   6.500  1.00 20.00     0.007 C 
ENDBRANCH   4   5
BRANCH   4   7
HETATM    7  C5  UNL     1     -33.703   5.021   3.502  1.00 20.00     0.023 C 
HETATM    8  C3  UNL     1     -33.080   5.477   2.215  1.00 20.00     0.007 C 
ENDBRANCH   4   7
ENDBRANCH   2   4
TORSDOF 3
