REMARK  4 active torsions:
REMARK  status: ('A' for Active; 'I' for Inactive)
REMARK    1  A    between atoms: C1_1  and  C6_6 
REMARK    2  A    between atoms: C6_6  and  C8_8 
REMARK    3  A    between atoms: C7_7  and  C8_8 
REMARK    4  A    between atoms: C7_7  and  C9_9 
ROOT
HETATM    1  C2  UNL     1     -33.938   8.145   6.774  1.00 20.00     0.010 C 
HETATM    2  C8  UNL     1     -33.984   7.954   5.252  1.00 20.00    -0.010 C 
ENDROOT
BRANCH   2   3
HETATM    3  C6  UNL     1     -34.932   6.775   4.946  1.00 20.00     0.100 C 
BRANCH   3   4
HETATM    4  C1  UNL     1     -34.450   5.448   5.511  1.00 20.00     0.219 C 
HETATM    5  O10 UNL     1     -34.249   5.266   6.708  1.00 20.00    -0.280 OA
HETATM    6 CL11 UNL     1     -34.179   4.272   4.254  1.00 20.00    -0.044 Cl
ENDBRANCH   3   4
ENDBRANCH   2   3
BRANCH   2   7
HETATM    7  C7  UNL     1     -32.569   7.682   4.679  1.00 20.00     0.013 C 
BRANCH   7   8
HETATM    8  C9  UNL     1     -32.379   7.843   3.142  1.00 20.00    -0.051 C 
HETATM    9  C3  UNL     1     -30.896   8.182   2.880  1.00 20.00     0.014 C 
HETATM   10  C4  UNL     1     -33.240   8.969   2.557  1.00 20.00     0.014 C 
HETATM   11  C5  UNL     1     -32.705   6.529   2.409  1.00 20.00     0.014 C 
ENDBRANCH   7   8
ENDBRANCH   2   7
TORSDOF 4
