REMARK  1 active torsions:
REMARK  status: ('A' for Active; 'I' for Inactive)
REMARK    1  A    between atoms: C1_1  and  C6_6 
ROOT
HETATM    1  C2  UNL     1     -33.962   5.818   4.084  1.00 20.00     0.038 C 
HETATM    2  C3  UNL     1     -33.477   7.021   6.229  1.00 20.00     0.038 C 
HETATM    3  C4  UNL     1     -34.766   4.818   4.907  1.00 20.00     0.168 C 
HETATM    4  C5  UNL     1     -34.308   5.956   6.935  1.00 20.00     0.168 C 
HETATM    5  C6  UNL     1     -33.928   7.172   4.781  1.00 20.00     0.051 C 
HETATM    6  O8  UNL     1     -34.242   4.715   6.231  1.00 20.00    -0.391 OA
ENDROOT
BRANCH   5   7
HETATM    7  C1  UNL     1     -32.925   8.052   4.061  1.00 20.00     0.235 C 
HETATM    8  O7  UNL     1     -31.935   8.533   4.603  1.00 20.00    -0.306 OA
ENDBRANCH   5   7
TORSDOF 1
