REMARK  6 active torsions:
REMARK  status: ('A' for Active; 'I' for Inactive)
REMARK    1  A    between atoms: C2_2  and  C3_3 
REMARK    2  A    between atoms: C3_3  and  C4_4 
REMARK    3  A    between atoms: C4_4  and  C5_5 
REMARK    4  A    between atoms: C5_5  and  C6_6 
REMARK    5  A    between atoms: C6_6  and  C7_7 
REMARK    6  A    between atoms: C7_7  and  C8_8 
ROOT
HETATM    1  C4  UNL     1     -33.713   7.882   5.697  1.00 20.00     0.005 C 
ENDROOT
BRANCH   1   2
HETATM    2  C3  UNL     1     -34.817   6.874   5.349  1.00 20.00     0.050 C 
BRANCH   2   3
HETATM    3  C2  UNL     1     -34.423   5.434   5.521  1.00 20.00     0.002 C 
HETATM    4  C1  UNL     1     -34.066   4.888   6.690  1.00 20.00     0.032 C 
HETATM    5 CL9  UNL     1     -34.392   4.476   4.079  1.00 20.00    -0.090 Cl
ENDBRANCH   2   3
ENDBRANCH   1   2
BRANCH   1   6
HETATM    6  C5  UNL     1     -32.485   7.768   4.789  1.00 20.00     0.000 C 
BRANCH   6   7
HETATM    7  C6  UNL     1     -32.858   7.986   3.321  1.00 20.00     0.001 C 
BRANCH   7   8
HETATM    8  C7  UNL     1     -31.628   7.906   2.416  1.00 20.00     0.015 C 
BRANCH   8   9
HETATM    9  C8  UNL     1     -32.011   8.089   0.953  1.00 20.00     0.114 C 
HETATM   10 CL10 UNL     1     -32.794   9.667   0.710  1.00 20.00    -0.130 Cl
ENDBRANCH   8   9
ENDBRANCH   7   8
ENDBRANCH   6   7
ENDBRANCH   1   6
TORSDOF 6
