REMARK  1 active torsions:
REMARK  status: ('A' for Active; 'I' for Inactive)
REMARK    1  A    between atoms: C4_4  and  C5_5 
ROOT
HETATM    1  C1  UNL     1     -32.981   7.715   4.654  1.00 20.00     0.059 C 
HETATM    2  C5  UNL     1     -33.371   7.057   5.905  1.00 20.00     0.128 C 
HETATM    3  N6  UNL     1     -32.669   8.237   3.665  1.00 20.00    -0.197 NA
ENDROOT
BRANCH   2   4
HETATM    4  C4  UNL     1     -34.521   6.179   5.555  1.00 20.00    -0.002 A 
HETATM    5  C2  UNL     1     -34.285   4.761   5.113  1.00 20.00     0.006 A 
HETATM    6  C3  UNL     1     -34.903   5.037   6.455  1.00 20.00     0.006 A 
ENDBRANCH   2   4
TORSDOF 1
