REMARK  0 active torsions:
REMARK  status: ('A' for Active; 'I' for Inactive)
ROOT
HETATM    1  C1  UNL     1     -34.489   5.293   5.956  1.00 20.00     0.072 C 
HETATM    2  C2  UNL     1     -34.582   6.593   6.740  1.00 20.00     0.173 C 
HETATM    3  C3  UNL     1     -33.237   6.938   4.871  1.00 20.00     0.255 C 
HETATM    4  C4  UNL     1     -34.184   5.782   4.550  1.00 20.00     0.154 C 
HETATM    5  O5  UNL     1     -33.740   7.548   6.073  1.00 20.00    -0.367 OA
HETATM    6 CL6  UNL     1     -33.037   8.143   3.591  1.00 20.00    -0.092 Cl
HETATM    7 CL7  UNL     1     -33.414   4.529   3.560  1.00 20.00    -0.098 Cl
HETATM    8 CL8  UNL     1     -35.705   6.314   3.762  1.00 20.00    -0.098 Cl
ENDROOT
TORSDOF 0
