REMARK  1 active torsions:
REMARK  status: ('A' for Active; 'I' for Inactive)
REMARK    1  A    between atoms: C2_2  and  C4_4 
ROOT
HETATM    1  C4  UNL     1     -34.228   5.823   4.781  1.00 20.00     0.407 C 
HETATM    2  F5  UNL     1     -34.415   5.028   5.865  1.00 20.00    -0.167 F 
HETATM    3  F6  UNL     1     -35.459   6.211   4.363  1.00 20.00    -0.167 F 
HETATM    4  F7  UNL     1     -33.711   5.037   3.803  1.00 20.00    -0.167 F 
ENDROOT
BRANCH   1   5
HETATM    5  C2  UNL     1     -33.373   6.996   5.111  1.00 20.00     0.084 C 
HETATM    6  C1  UNL     1     -33.022   7.948   4.235  1.00 20.00    -0.026 C 
HETATM    7  C3  UNL     1     -32.163   9.119   4.582  1.00 20.00     0.036 C 
ENDBRANCH   1   5
TORSDOF 1
