REMARK  2 active torsions:
REMARK  status: ('A' for Active; 'I' for Inactive)
REMARK    1  A    between atoms: C7_7  and  C10_10 
REMARK    2  A    between atoms: C8_8  and  C9_9 
ROOT
HETATM    1  C1  UNL     1     -32.757   6.585   2.418  1.00 20.00    -0.019 A 
HETATM    2  C3  UNL     1     -32.394   7.798   1.987  1.00 20.00    -0.087 A 
HETATM    3  C5  UNL     1     -32.049   8.729   3.107  1.00 20.00     0.039 A 
HETATM    4  C8  UNL     1     -32.705   6.467   3.905  1.00 20.00     0.021 A 
HETATM    5  C10 UNL     1     -32.246   7.890   4.378  1.00 20.00     0.005 A 
HETATM    6  C11 UNL     1     -32.326   8.251   0.572  1.00 20.00     0.043 C 
ENDROOT
BRANCH   4   7
HETATM    7  C9  UNL     1     -34.078   6.302   4.605  1.00 20.00     0.022 C 
HETATM    8  C4  UNL     1     -33.808   6.217   6.095  1.00 20.00    -0.082 C 
HETATM    9  C2  UNL     1     -33.420   7.438   6.500  1.00 20.00    -0.019 C 
HETATM   10  C12 UNL     1     -33.922   4.963   6.871  1.00 20.00     0.043 C 
HETATM   11  C7  UNL     1     -33.428   8.336   5.282  1.00 20.00     0.014 C 
HETATM   12  C6  UNL     1     -34.643   7.730   4.569  1.00 20.00     0.018 C 
ENDBRANCH   4   7
TORSDOF 2
