REMARK  1 active torsions:
REMARK  status: ('A' for Active; 'I' for Inactive)
REMARK    1  A    between atoms: C1_1  and  C4_4 
ROOT
HETATM    1  C1  UNL     1     -33.534   6.975   6.064  1.00 20.00    -0.080 C 
HETATM    2  C2  UNL     1     -33.114   7.991   5.581  1.00 20.00    -0.106 C 
HETATM    3  C5  UNL     1     -32.602   9.228   4.993  1.00 20.00     0.112 C 
ENDROOT
BRANCH   1   4
HETATM    4  C4  UNL     1     -34.029   5.776   6.641  1.00 20.00     0.054 C 
HETATM    5  C3  UNL     1     -34.634   4.837   5.907  1.00 20.00     0.020 C 
ENDBRANCH   1   4
TORSDOF 1
