REMARK  3 active torsions:
REMARK  status: ('A' for Active; 'I' for Inactive)
REMARK    1  A    between atoms: C4_4  and  C5_5 
REMARK    2  A    between atoms: C4_4  and  C6_6 
REMARK    3  A    between atoms: C5_5  and  N7_7 
ROOT
HETATM    1  C1  UNL     1     -32.146   7.483   1.869  1.00 20.00     0.157 C 
HETATM    2  N7  UNL     1     -32.468   6.897   2.835  1.00 20.00    -0.276 NA
HETATM    3  S8  UNL     1     -31.701   8.254   0.549  1.00 20.00    -0.055 SA
ENDROOT
BRANCH   2   4
HETATM    4  C5  UNL     1     -33.060   7.722   3.889  1.00 20.00     0.151 C 
BRANCH   4   5
HETATM    5  C4  UNL     1     -33.360   6.863   5.115  1.00 20.00     0.026 C 
BRANCH   5   6
HETATM    6  C6  UNL     1     -34.381   5.732   4.883  1.00 20.00    -0.021 C 
HETATM    7  C2  UNL     1     -33.860   4.781   3.802  1.00 20.00     0.009 C 
HETATM    8  C3  UNL     1     -34.681   4.945   6.160  1.00 20.00     0.009 C 
ENDBRANCH   5   6
ENDBRANCH   4   5
ENDBRANCH   2   4
TORSDOF 3
