REMARK  0 active torsions:
REMARK  status: ('A' for Active; 'I' for Inactive)
ROOT
HETATM    1  C1  UNL     1     -33.716   8.085   4.144  1.00 20.00     0.018 A 
HETATM    2  C2  UNL     1     -33.007   7.240   5.173  1.00 20.00     0.018 A 
HETATM    3  C3  UNL     1     -33.637   6.583   3.961  1.00 20.00     0.083 A 
HETATM    4  C4  UNL     1     -32.938   9.053   3.318  1.00 20.00     0.012 C 
HETATM    5  C5  UNL     1     -33.568   7.126   6.550  1.00 20.00     0.012 C 
HETATM    6 BR6  UNL     1     -35.260   5.584   4.119  1.00 20.00    -0.072 Br
HETATM    7 BR7  UNL     1     -32.466   5.813   2.661  1.00 20.00    -0.072 Br
ENDROOT
TORSDOF 0
