REMARK  0 active torsions:
REMARK  status: ('A' for Active; 'I' for Inactive)
ROOT
HETATM    1  C1  UNL     1     -33.054   7.800   5.154  1.00 20.00     0.064 C 
HETATM    2  C2  UNL     1     -33.770   4.336   4.343  1.00 20.00     0.005 C 
HETATM    3  C3  UNL     1     -34.249   5.561   3.552  1.00 20.00     0.006 C 
HETATM    4  C4  UNL     1     -33.625   5.712   6.427  1.00 20.00     0.024 C 
HETATM    5  C5  UNL     1     -35.718   5.223   5.383  1.00 20.00     0.010 C 
HETATM    6  C6  UNL     1     -34.134   6.962   5.683  1.00 20.00     0.097 C 
HETATM    7  C7  UNL     1     -34.384   4.563   5.733  1.00 20.00    -0.013 C 
HETATM    8  C8  UNL     1     -35.054   6.359   4.598  1.00 20.00     0.003 C 
HETATM    9  N9  UNL     1     -32.200   8.463   4.734  1.00 20.00    -0.197 NA
ENDROOT
TORSDOF 0
