REMARK  0 active torsions:
REMARK  status: ('A' for Active; 'I' for Inactive)
ROOT
HETATM    1  C1  UNL     1     -34.919   6.332   6.420  1.00 20.00     0.009 C 
HETATM    2  C2  UNL     1     -32.955   7.805   5.911  1.00 20.00     0.012 C 
HETATM    3  C3  UNL     1     -35.082   8.059   4.605  1.00 20.00     0.012 C 
HETATM    4  C4  UNL     1     -32.880   5.367   5.322  1.00 20.00     0.051 C 
HETATM    5  C5  UNL     1     -35.007   5.620   4.018  1.00 20.00     0.051 C 
HETATM    6  C6  UNL     1     -33.382   6.393   6.353  1.00 20.00    -0.010 C 
HETATM    7  C7  UNL     1     -35.524   6.648   5.039  1.00 20.00    -0.010 C 
HETATM    8  C8  UNL     1     -33.547   8.130   4.525  1.00 20.00     0.024 C 
HETATM    9  C9  UNL     1     -33.052   7.093   3.506  1.00 20.00     0.213 C 
HETATM   10  C10 UNL     1     -33.475   5.688   3.945  1.00 20.00     0.135 C 
HETATM   11  F11 UNL     1     -31.693   7.150   3.439  1.00 20.00    -0.246 F 
HETATM   12  F12 UNL     1     -33.032   4.782   3.039  1.00 20.00    -0.240 F 
ENDROOT
TORSDOF 0
