REMARK  1 active torsions:
REMARK  status: ('A' for Active; 'I' for Inactive)
REMARK    1  A    between atoms: C8_8  and  C12_12 
ROOT
HETATM    1  C1  UNL     1     -33.808   6.734   6.794  1.00 20.00    -0.023 C 
HETATM    2  C2  UNL     1     -33.610   7.619   5.798  1.00 20.00    -0.081 C 
HETATM    3  C3  UNL     1     -34.513   5.418   6.596  1.00 20.00     0.034 C 
HETATM    4  C4  UNL     1     -35.290   6.361   4.422  1.00 20.00     0.018 C 
HETATM    5  C5  UNL     1     -33.471   4.614   4.423  1.00 20.00     0.173 C 
HETATM    6  C6  UNL     1     -34.122   7.357   4.383  1.00 20.00     0.043 C 
HETATM    7  C7  UNL     1     -34.767   5.097   5.110  1.00 20.00     0.014 C 
HETATM    8  C8  UNL     1     -32.985   6.770   3.506  1.00 20.00     0.133 C 
HETATM    9  C9  UNL     1     -32.888   8.916   6.022  1.00 20.00     0.043 C 
HETATM   10  O13 UNL     1     -33.181   5.369   3.247  1.00 20.00    -0.384 OA
ENDROOT
BRANCH   8  11
HETATM   11  C12 UNL     1     -32.935   7.457   2.145  1.00 20.00     0.007 C 
HETATM   12  C10 UNL     1     -32.246   8.815   2.256  1.00 20.00     0.012 C 
HETATM   13  C11 UNL     1     -32.221   6.574   1.125  1.00 20.00     0.012 C 
ENDBRANCH   8  11
TORSDOF 1
