REMARK  5 active torsions:
REMARK  status: ('A' for Active; 'I' for Inactive)
REMARK    1  A    between atoms: C1_1  and  C2_2 
REMARK    2  A    between atoms: C1_1  and  C3_3 
REMARK    3  A    between atoms: C2_2  and  C7_7 
REMARK    4  A    between atoms: C7_7  and  C8_8 
REMARK    5  A    between atoms: C8_8  and  O9_9 
ROOT
HETATM    1  C2  UNL     1     -33.956   6.763   6.162  1.00 20.00     0.070 C 
ENDROOT
BRANCH   1   2
HETATM    2  C1  UNL     1     -33.279   7.395   5.246  1.00 20.00    -0.166 C 
BRANCH   2   3
HETATM    3  C3  UNL     1     -32.602   8.034   4.331  1.00 20.00     0.022 C 
HETATM    4  C4  UNL     1     -31.867   7.321   3.233  1.00 20.00     0.029 C 
HETATM    5  C5  UNL     1     -32.507   9.533   4.304  1.00 20.00     0.029 C 
ENDBRANCH   2   3
ENDBRANCH   1   2
BRANCH   1   6
HETATM    6  C7  UNL     1     -34.094   5.269   6.248  1.00 20.00     0.048 C 
BRANCH   6   7
HETATM    7  C8  UNL     1     -34.798   4.693   5.016  1.00 20.00     0.115 C 
HETATM    8  C6  UNL     1     -33.846   4.608   3.830  1.00 20.00     0.039 C 
BRANCH   7   9
HETATM    9  O9  UNL     1     -35.884   5.548   4.664  1.00 20.00    -0.396 OA
HETATM   10  H23 UNL     1     -36.313   5.145   3.894  1.00 20.00     0.210 HD
ENDBRANCH   7   9
ENDBRANCH   6   7
ENDBRANCH   1   6
TORSDOF 5
