REMARK  1 active torsions:
REMARK  status: ('A' for Active; 'I' for Inactive)
REMARK    1  A    between atoms: C1_1  and  C3_3 
ROOT
HETATM    1  C1  UNL     1     -33.035   6.935   3.918  1.00 20.00     0.038 A 
HETATM    2  C2  UNL     1     -33.171   8.420   4.049  1.00 20.00     0.160 A 
HETATM    3  C4  UNL     1     -33.689   8.735   5.439  1.00 20.00     0.090 A 
HETATM    4  C5  UNL     1     -33.408   6.275   5.178  1.00 20.00     0.039 A 
HETATM    5  C6  UNL     1     -33.814   7.393   6.128  1.00 20.00     0.011 A 
HETATM    6  C7  UNL     1     -34.816   6.319   5.737  1.00 20.00    -0.035 A 
HETATM    7  C9  UNL     1     -35.984   6.656   4.843  1.00 20.00     0.016 C 
HETATM    8  C10 UNL     1     -35.159   5.293   6.790  1.00 20.00     0.016 C 
HETATM    9  O12 UNL     1     -32.916   9.242   3.185  1.00 20.00    -0.293 OA
ENDROOT
BRANCH   1  10
HETATM   10  C3  UNL     1     -32.632   6.382   2.771  1.00 20.00     0.155 C 
HETATM   11  C8  UNL     1     -32.315   7.306   1.605  1.00 20.00     0.096 C 
HETATM   12  O11 UNL     1     -32.453   5.168   2.452  1.00 20.00    -0.293 OA
ENDBRANCH   1  10
TORSDOF 1
