REMARK  2 active torsions:
REMARK  status: ('A' for Active; 'I' for Inactive)
REMARK    1  A    between atoms: C7_7  and  C8_8 
REMARK    2  A    between atoms: C9_9  and  C10_10 
ROOT
HETATM    1  C1  UNL     1     -32.368   6.799   2.489  1.00 20.00     0.047 C 
HETATM    2  C2  UNL     1     -33.092   5.659   2.529  1.00 20.00    -0.017 C 
HETATM    3  C5  UNL     1     -32.670   7.499   3.784  1.00 20.00     0.154 C 
HETATM    4  C7  UNL     1     -33.614   5.438   3.907  1.00 20.00     0.028 C 
HETATM    5  C10 UNL     1     -33.944   6.905   4.277  1.00 20.00     0.075 C 
HETATM    6  O11 UNL     1     -32.047   8.432   4.253  1.00 20.00    -0.293 OA
ENDROOT
BRANCH   5   7
HETATM    7  C9  UNL     1     -34.745   6.757   5.560  1.00 20.00     0.021 C 
HETATM    8  C4  UNL     1     -34.171   5.779   6.560  1.00 20.00    -0.025 C 
HETATM    9  C3  UNL     1     -34.266   4.544   6.030  1.00 20.00    -0.025 C 
HETATM   10  C8  UNL     1     -34.787   4.702   4.602  1.00 20.00     0.017 C 
HETATM   11  C6  UNL     1     -35.811   5.795   4.949  1.00 20.00     0.018 C 
ENDBRANCH   5   7
TORSDOF 2
