REMARK  0 active torsions:
REMARK  status: ('A' for Active; 'I' for Inactive)
ROOT
HETATM    1  C1  UNL     1     -33.370   7.262   4.500  1.00 20.00     0.260 C 
HETATM    2  C2  UNL     1     -34.326   7.426   5.653  1.00 20.00     0.137 C 
HETATM    3  C3  UNL     1     -34.120   6.355   6.710  1.00 20.00     0.177 C 
HETATM    4  C4  UNL     1     -34.524   5.156   3.996  1.00 20.00     0.205 C 
HETATM    5  C5  UNL     1     -34.324   4.429   5.314  1.00 20.00     0.194 C 
HETATM    6  O6  UNL     1     -32.534   8.120   4.227  1.00 20.00    -0.265 OA
HETATM    7  O7  UNL     1     -33.477   6.124   3.773  1.00 20.00    -0.319 OA
HETATM    8  O8  UNL     1     -34.856   5.174   6.407  1.00 20.00    -0.389 OA
ENDROOT
TORSDOF 0
