REMARK  0 active torsions:
REMARK  status: ('A' for Active; 'I' for Inactive)
ROOT
HETATM    1  C1  UNL     1     -33.638   7.177   5.049  1.00 20.00     0.201 C 
HETATM    2  C2  UNL     1     -35.056   5.241   4.307  1.00 20.00     0.099 C 
HETATM    3  C3  UNL     1     -34.722   6.192   5.461  1.00 20.00     0.074 C 
HETATM    4  C4  UNL     1     -34.294   5.459   6.731  1.00 20.00     0.020 C 
HETATM    5  O5  UNL     1     -33.389   8.212   5.654  1.00 20.00    -0.284 OA
HETATM    6  S6  UNL     1     -32.711   6.681   3.634  1.00 20.00    -0.019 SA
HETATM    7  S7  UNL     1     -33.501   4.802   3.511  1.00 20.00    -0.089 SA
ENDROOT
TORSDOF 0
