REMARK  3 active torsions:
REMARK  status: ('A' for Active; 'I' for Inactive)
REMARK    1  A    between atoms: C1_1  and  C7_7 
REMARK    2  A    between atoms: C1_1  and  O9_9 
REMARK    3  A    between atoms: C5_5  and  C7_7 
ROOT
HETATM    1  C2  UNL     1     -31.989   7.584   3.523  1.00 20.00     0.011 A 
HETATM    2  C3  UNL     1     -32.711   8.865   3.090  1.00 20.00     0.011 A 
HETATM    3  C4  UNL     1     -32.208   9.134   5.738  1.00 20.00     0.015 A 
HETATM    4  C5  UNL     1     -33.530   8.362   5.624  1.00 20.00     0.005 A 
HETATM    5  C6  UNL     1     -32.610   8.478   4.495  1.00 20.00    -0.036 A 
ENDROOT
BRANCH   4   6
HETATM    6  C7  UNL     1     -33.697   7.063   6.332  1.00 20.00     0.115 C 
BRANCH   6   7
HETATM    7  C1  UNL     1     -34.746   6.168   5.694  1.00 20.00     0.139 C 
HETATM    8  O8  UNL     1     -35.375   6.434   4.680  1.00 20.00    -0.650 OA
BRANCH   7   9
HETATM    9  O9  UNL     1     -34.902   5.019   6.399  1.00 20.00    -0.776 OA
HETATM   10  H19 UNL     1     -35.577   4.431   5.996  1.00 20.00     0.167 HD
ENDBRANCH   7   9
ENDBRANCH   6   7
ENDBRANCH   4   6
TORSDOF 3
