REMARK  0 active torsions:
REMARK  status: ('A' for Active; 'I' for Inactive)
ROOT
HETATM    1  C1  UNL     1     -33.331   6.845   6.483  1.00 20.00     0.016 C 
HETATM    2  C2  UNL     1     -33.687   8.009   5.559  1.00 20.00     0.016 C 
HETATM    3  C3  UNL     1     -34.291   5.716   6.128  1.00 20.00     0.140 C 
HETATM    4  C4  UNL     1     -33.760   7.424   4.153  1.00 20.00     0.140 C 
HETATM    5  O5  UNL     1     -35.900   5.885   4.048  1.00 20.00    -0.228 OA
HETATM    6  O6  UNL     1     -33.615   4.826   3.738  1.00 20.00    -0.228 OA
HETATM    7  S7  UNL     1     -34.487   5.804   4.354  1.00 20.00     0.144 S 
ENDROOT
TORSDOF 0
