REMARK  2 active torsions:
REMARK  status: ('A' for Active; 'I' for Inactive)
REMARK    1  A    between atoms: C1_1  and  C3_3 
REMARK    2  A    between atoms: C3_3  and  O6_6 
ROOT
HETATM    1  C1  UNL     1     -33.673   7.667   5.418  1.00 20.00     0.156 C 
HETATM    2  C2  UNL     1     -32.803   8.021   4.469  1.00 20.00     0.273 C 
HETATM    3  F7  UNL     1     -32.165   9.207   4.570  1.00 20.00    -0.173 F 
HETATM    4  F8  UNL     1     -32.548   7.221   3.412  1.00 20.00    -0.173 F 
ENDROOT
BRANCH   1   5
HETATM    5  C3  UNL     1     -34.397   6.379   5.354  1.00 20.00     0.287 C 
HETATM    6  O5  UNL     1     -35.148   6.031   4.457  1.00 20.00    -0.260 OA
BRANCH   5   7
HETATM    7  O6  UNL     1     -34.070   5.669   6.468  1.00 20.00    -0.323 OA
HETATM    8  C4  UNL     1     -34.683   4.381   6.578  1.00 20.00     0.213 C 
ENDBRANCH   5   7
ENDBRANCH   1   5
TORSDOF 2
