REMARK  3 active torsions:
REMARK  status: ('A' for Active; 'I' for Inactive)
REMARK    1  A    between atoms: C1_1  and  C3_3 
REMARK    2  A    between atoms: C1_1  and  O6_6 
REMARK    3  A    between atoms: C3_3  and  C4_4 
ROOT
HETATM    1  C1  UNL     1     -34.077   5.003   4.831  1.00 20.00     0.259 C 
HETATM    2  O5  UNL     1     -33.542   3.985   5.249  1.00 20.00    -0.265 OA
ENDROOT
BRANCH   1   3
HETATM    3  C3  UNL     1     -35.071   5.847   5.599  1.00 20.00     0.122 C 
BRANCH   3   4
HETATM    4  C4  UNL     1     -34.374   6.919   6.444  1.00 20.00     0.096 C 
HETATM    5  S7  UNL     1     -33.477   8.071   5.338  1.00 20.00    -0.097 SA
ENDBRANCH   3   4
ENDBRANCH   1   3
BRANCH   1   6
HETATM    6  O6  UNL     1     -33.878   5.565   3.601  1.00 20.00    -0.326 OA
HETATM    7  C2  UNL     1     -32.955   4.876   2.751  1.00 20.00     0.213 C 
ENDBRANCH   1   6
TORSDOF 3
