REMARK  0 active torsions:
REMARK  status: ('A' for Active; 'I' for Inactive)
ROOT
HETATM    1  C1  UNL     1     -34.052   5.202   6.718  1.00 20.00     0.020 C 
HETATM    2  C2  UNL     1     -34.619   4.704   5.391  1.00 20.00     0.075 C 
HETATM    3  C3  UNL     1     -34.184   6.707   6.937  1.00 20.00     0.075 C 
HETATM    4  C4  UNL     1     -33.956   7.108   4.220  1.00 20.00     0.147 C 
HETATM    5  S5  UNL     1     -33.711   5.338   3.950  1.00 20.00    -0.159 SA
HETATM    6  S6  UNL     1     -33.202   7.683   5.760  1.00 20.00    -0.159 SA
ENDROOT
TORSDOF 0
