REMARK  0 active torsions:
REMARK  status: ('A' for Active; 'I' for Inactive)
ROOT
HETATM    1  C1  UNL     1     -32.929   8.861   4.123  1.00 20.00     0.008 C 
HETATM    2  C2  UNL     1     -33.296   8.126   5.308  1.00 20.00     0.028 C 
HETATM    3  C3  UNL     1     -32.237   6.967   2.680  1.00 20.00     0.034 C 
HETATM    4  C4  UNL     1     -32.464   8.372   2.963  1.00 20.00    -0.060 C 
HETATM    5  C5  UNL     1     -33.773   6.878   5.380  1.00 20.00     0.085 C 
HETATM    6  C6  UNL     1     -32.880   5.909   3.192  1.00 20.00     0.086 C 
HETATM    7  C7  UNL     1     -33.937   5.939   4.238  1.00 20.00     0.215 C 
HETATM    8  C8  UNL     1     -32.094   9.302   1.837  1.00 20.00     0.048 C 
HETATM    9  O9  UNL     1     -34.871   5.141   4.211  1.00 20.00    -0.285 OA
HETATM   10 CL10 UNL     1     -34.284   6.253   6.916  1.00 20.00    -0.080 Cl
HETATM   11 CL11 UNL     1     -32.504   4.322   2.593  1.00 20.00    -0.080 Cl
ENDROOT
TORSDOF 0
