REMARK  1 active torsions:
REMARK  status: ('A' for Active; 'I' for Inactive)
REMARK    1  A    between atoms: C3_3  and  C8_8 
ROOT
HETATM    1  C1  UNL     1     -33.799   4.797   5.083  1.00 20.00    -0.026 C 
HETATM    2  C2  UNL     1     -33.606   5.177   3.811  1.00 20.00    -0.025 C 
HETATM    3  C4  UNL     1     -35.689   5.957   4.429  1.00 20.00     0.017 C 
HETATM    4  C5  UNL     1     -34.165   7.119   5.842  1.00 20.00     0.021 C 
HETATM    5  C6  UNL     1     -34.826   5.732   5.675  1.00 20.00     0.009 C 
HETATM    6  C7  UNL     1     -34.497   6.374   3.559  1.00 20.00     0.019 C 
HETATM    7  C8  UNL     1     -33.973   7.584   4.369  1.00 20.00     0.063 C 
ENDROOT
BRANCH   7   8
HETATM    8  C3  UNL     1     -32.556   7.947   4.048  1.00 20.00     0.128 C 
HETATM    9  C9  UNL     1     -31.952   9.078   4.835  1.00 20.00     0.091 C 
HETATM   10  O10 UNL     1     -31.916   7.347   3.185  1.00 20.00    -0.298 OA
ENDBRANCH   7   8
TORSDOF 1
