REMARK  2 active torsions:
REMARK  status: ('A' for Active; 'I' for Inactive)
REMARK    1  A    between atoms: C1_1  and  C2_2 
REMARK    2  A    between atoms: C1_1  and  C3_3 
ROOT
HETATM    1  C1  UNL     1     -33.536   6.936   5.201  1.00 20.00     0.374 C 
HETATM    2  O4  UNL     1     -34.141   8.050   5.574  1.00 20.00    -0.216 OA
ENDROOT
BRANCH   1   3
HETATM    3  C2  UNL     1     -32.984   7.145   3.785  1.00 20.00     0.424 C 
HETATM    4  F5  UNL     1     -32.521   5.977   3.279  1.00 20.00    -0.168 F 
HETATM    5  F6  UNL     1     -33.915   7.614   2.925  1.00 20.00    -0.168 F 
HETATM    6  F7  UNL     1     -31.944   8.011   3.782  1.00 20.00    -0.168 F 
ENDBRANCH   1   3
BRANCH   1   7
HETATM    7  C3  UNL     1     -34.574   5.806   5.204  1.00 20.00     0.424 C 
HETATM    8  F8  UNL     1     -34.972   5.503   6.462  1.00 20.00    -0.168 F 
HETATM    9  F9  UNL     1     -34.047   4.675   4.677  1.00 20.00    -0.168 F 
HETATM   10  F10 UNL     1     -35.677   6.108   4.484  1.00 20.00    -0.168 F 
ENDBRANCH   1   7
TORSDOF 2
