REMARK  0 active torsions:
REMARK  status: ('A' for Active; 'I' for Inactive)
ROOT
HETATM    1  C1  UNL     1     -34.561   6.159   6.450  1.00 20.00     0.149 C 
HETATM    2  C2  UNL     1     -34.557   5.419   3.788  1.00 20.00     0.149 C 
HETATM    3  C3  UNL     1     -33.356   7.782   4.567  1.00 20.00     0.149 C 
HETATM    4  S4  UNL     1     -34.438   4.665   5.432  1.00 20.00    -0.149 SA
HETATM    5  S5  UNL     1     -33.124   7.251   6.284  1.00 20.00    -0.149 SA
HETATM    6  S6  UNL     1     -33.119   6.440   3.372  1.00 20.00    -0.149 SA
ENDROOT
TORSDOF 0
