REMARK  2 active torsions:
REMARK  status: ('A' for Active; 'I' for Inactive)
REMARK    1  A    between atoms: C1_1  and  O10_10 
REMARK    2  A    between atoms: C8_8  and  O10_10 
ROOT
HETATM    1  C2  UNL     1     -33.893   3.991   4.474  1.00 20.00     0.005 C 
HETATM    2  C3  UNL     1     -33.328   5.034   3.498  1.00 20.00     0.007 C 
HETATM    3  C4  UNL     1     -35.347   5.874   4.432  1.00 20.00     0.012 C 
HETATM    4  C5  UNL     1     -33.899   5.695   6.313  1.00 20.00     0.037 C 
HETATM    5  C6  UNL     1     -34.789   4.832   5.400  1.00 20.00    -0.012 C 
HETATM    6  C7  UNL     1     -33.958   6.346   3.993  1.00 20.00     0.015 C 
HETATM    7  C8  UNL     1     -33.310   6.727   5.338  1.00 20.00     0.135 C 
ENDROOT
BRANCH   7   8
HETATM    8  O10 UNL     1     -33.705   8.035   5.728  1.00 20.00    -0.323 OA
BRANCH   8   9
HETATM    9  C1  UNL     1     -32.856   9.040   5.373  1.00 20.00     0.398 C 
HETATM   10  O9  UNL     1     -31.804   8.937   4.761  1.00 20.00    -0.276 OA
ENDBRANCH   8   9
ENDBRANCH   7   8
TORSDOF 2
