REMARK  0 active torsions:
REMARK  status: ('A' for Active; 'I' for Inactive)
ROOT
HETATM    1  C1  UNL     1     -33.729   5.578   3.668  1.00 20.00     0.270 A 
HETATM    2  C2  UNL     1     -34.823   5.825   4.748  1.00 20.00     0.072 A 
HETATM    3  C3  UNL     1     -33.951   7.108   5.033  1.00 20.00     0.079 A 
HETATM    4  C4  UNL     1     -34.860   4.738   5.823  1.00 20.00     0.029 C 
HETATM    5  C5  UNL     1     -36.216   6.031   4.154  1.00 20.00     0.029 C 
HETATM    6  C6  UNL     1     -33.197   7.174   6.361  1.00 20.00     0.047 C 
HETATM    7  C7  UNL     1     -34.557   8.468   4.689  1.00 20.00     0.047 C 
HETATM    8  O8  UNL     1     -33.483   4.746   2.824  1.00 20.00    -0.264 OA
HETATM    9  O9  UNL     1     -33.029   6.703   3.970  1.00 20.00    -0.309 OA
ENDROOT
TORSDOF 0
