REMARK  3 active torsions:
REMARK  status: ('A' for Active; 'I' for Inactive)
REMARK    1  A    between atoms: C1_1  and  C3_3 
REMARK    2  A    between atoms: C1_1  and  O4_4 
REMARK    3  A    between atoms: C2_2  and  O4_4 
ROOT
HETATM    1  C1  UNL     1     -33.400   7.059   5.001  1.00 20.00     0.330 C 
HETATM    2 CL10 UNL     1     -34.131   8.173   6.186  1.00 20.00    -0.086 Cl
ENDROOT
BRANCH   1   3
HETATM    3  C3  UNL     1     -34.249   5.811   4.886  1.00 20.00     0.427 C 
HETATM    4  F7  UNL     1     -34.371   5.174   6.069  1.00 20.00    -0.167 F 
HETATM    5  F8  UNL     1     -33.699   4.943   4.007  1.00 20.00    -0.167 F 
HETATM    6  F9  UNL     1     -35.490   6.102   4.439  1.00 20.00    -0.167 F 
ENDBRANCH   1   3
BRANCH   1   7
HETATM    7  O4  UNL     1     -33.353   7.683   3.720  1.00 20.00    -0.302 OA
BRANCH   7   8
HETATM    8  C2  UNL     1     -32.265   7.238   2.928  1.00 20.00     0.501 C 
HETATM    9  F5  UNL     1     -32.417   5.905   2.735  1.00 20.00    -0.184 F 
HETATM   10  F6  UNL     1     -32.344   7.825   1.709  1.00 20.00    -0.184 F 
ENDBRANCH   7   8
ENDBRANCH   1   7
TORSDOF 3
