REMARK  0 active torsions:
REMARK  status: ('A' for Active; 'I' for Inactive)
ROOT
HETATM    1  C1  UNL     1     -34.099   5.033   3.660  1.00 20.00     0.127 C 
HETATM    2  C2  UNL     1     -33.233   5.744   2.643  1.00 20.00     0.078 C 
HETATM    3  C3  UNL     1     -35.319   5.768   4.170  1.00 20.00     0.078 C 
HETATM    4  C4  UNL     1     -32.358   6.841   3.245  1.00 20.00     0.007 C 
HETATM    5  C5  UNL     1     -35.156   6.240   5.608  1.00 20.00     0.007 C 
HETATM    6  C6  UNL     1     -33.143   8.056   3.750  1.00 20.00     0.000 C 
HETATM    7  C7  UNL     1     -33.795   6.828   5.983  1.00 20.00     0.000 C 
HETATM    8  C8  UNL     1     -33.384   8.111   5.262  1.00 20.00     0.000 C 
HETATM    9  O9  UNL     1     -33.808   3.912   4.077  1.00 20.00    -0.298 OA
ENDROOT
TORSDOF 0
