REMARK  0 active torsions:
REMARK  status: ('A' for Active; 'I' for Inactive)
ROOT
HETATM    1  C1  UNL     1     -34.091   6.955   5.814  1.00 20.00     0.090 A 
HETATM    2  C2  UNL     1     -34.651   4.730   5.077  1.00 20.00     0.167 A 
HETATM    3  C3  UNL     1     -33.724   6.639   4.522  1.00 20.00     0.109 A 
HETATM    4  N4  UNL     1     -34.043   5.364   4.098  1.00 20.00    -0.246 NA
HETATM    5  S5  UNL     1     -34.871   5.608   6.535  1.00 20.00    -0.092 SA
HETATM    6 BR6  UNL     1     -32.833   7.851   3.369  1.00 20.00    -0.029 Br
ENDROOT
TORSDOF 0
