REMARK  1 active torsions:
REMARK  status: ('A' for Active; 'I' for Inactive)
REMARK    1  A    between atoms: C4_4  and  C7_7 
ROOT
HETATM    1  C1  UNL     1     -32.758   9.134   4.267  1.00 20.00     0.015 A 
HETATM    2  C2  UNL     1     -33.151   8.521   5.456  1.00 20.00     0.008 A 
HETATM    3  C3  UNL     1     -33.402   7.160   3.040  1.00 20.00     0.022 A 
HETATM    4  C4  UNL     1     -32.881   8.453   3.059  1.00 20.00     0.002 A 
HETATM    5  C5  UNL     1     -33.668   7.217   5.451  1.00 20.00    -0.052 A 
HETATM    6  C6  UNL     1     -33.812   6.536   4.228  1.00 20.00    -0.051 A 
HETATM    7  C8  UNL     1     -34.114   6.601   6.753  1.00 20.00     0.039 C 
HETATM    8  C9  UNL     1     -34.340   5.124   4.169  1.00 20.00     0.039 C 
HETATM    9  C10 UNL     1     -34.292   5.086   6.674  1.00 20.00     0.005 C 
HETATM   10  C11 UNL     1     -35.090   4.708   5.433  1.00 20.00     0.005 C 
ENDROOT
BRANCH   4  11
HETATM   11  C7  UNL     1     -32.465   9.088   1.819  1.00 20.00     0.269 C 
HETATM   12  O12 UNL     1     -32.549   8.536   0.718  1.00 20.00    -0.301 OA
ENDBRANCH   4  11
TORSDOF 1
