REMARK  0 active torsions:
REMARK  status: ('A' for Active; 'I' for Inactive)
ROOT
HETATM    1  C1  UNL     1     -33.432   6.079   3.711  1.00 20.00     0.056 C 
HETATM    2  C2  UNL     1     -33.323   7.909   4.945  1.00 20.00     0.264 C 
HETATM    3  C3  UNL     1     -33.053   5.249   2.732  1.00 20.00     0.047 C 
HETATM    4  C4  UNL     1     -33.917   6.861   5.836  1.00 20.00     0.127 C 
HETATM    5  C5  UNL     1     -34.316   5.751   4.878  1.00 20.00     0.010 C 
HETATM    6  C6  UNL     1     -34.059   4.376   5.506  1.00 20.00     0.022 C 
HETATM    7  C7  UNL     1     -35.794   5.875   4.477  1.00 20.00     0.022 C 
HETATM    8  O8  UNL     1     -33.115   9.067   5.281  1.00 20.00    -0.265 OA
HETATM    9  O9  UNL     1     -32.980   7.398   3.726  1.00 20.00    -0.283 OA
ENDROOT
TORSDOF 0
