REMARK  0 active torsions:
REMARK  status: ('A' for Active; 'I' for Inactive)
ROOT
HETATM    1  C1  UNL     1     -33.423   6.036   3.781  1.00 20.00     0.142 C 
HETATM    2  C2  UNL     1     -33.627   8.196   5.767  1.00 20.00     0.002 C 
HETATM    3  C3  UNL     1     -33.845   6.751   6.192  1.00 20.00     0.016 C 
HETATM    4  C4  UNL     1     -32.559   8.259   4.685  1.00 20.00     0.016 C 
HETATM    5  C5  UNL     1     -34.288   5.832   5.041  1.00 20.00     0.014 C 
HETATM    6  C6  UNL     1     -32.911   7.447   3.427  1.00 20.00     0.014 C 
HETATM    7  C7  UNL     1     -34.133   4.372   5.515  1.00 20.00     0.023 C 
HETATM    8  C8  UNL     1     -35.765   6.057   4.684  1.00 20.00     0.023 C 
HETATM    9  C9  UNL     1     -33.964   8.170   2.573  1.00 20.00     0.023 C 
HETATM   10  C10 UNL     1     -31.628   7.309   2.580  1.00 20.00     0.023 C 
HETATM   11  O11 UNL     1     -33.225   5.093   3.006  1.00 20.00    -0.296 OA
ENDROOT
TORSDOF 0
