REMARK  3 active torsions:
REMARK  status: ('A' for Active; 'I' for Inactive)
REMARK    1  A    between atoms: C4_4  and  C5_5 
REMARK    2  A    between atoms: C5_5  and  C6_6 
REMARK    3  A    between atoms: C6_6  and  N7_7 
ROOT
HETATM    1  C1  UNL     1     -32.203   7.316   2.649  1.00 20.00     0.158 C 
HETATM    2  N7  UNL     1     -32.113   6.990   3.773  1.00 20.00    -0.271 NA
HETATM    3  S8  UNL     1     -32.303   7.735   1.116  1.00 20.00    -0.055 SA
ENDROOT
BRANCH   2   4
HETATM    4  C6  UNL     1     -32.941   7.763   4.705  1.00 20.00     0.105 C 
HETATM    5  C3  UNL     1     -32.133   8.972   5.158  1.00 20.00     0.034 C 
BRANCH   4   6
HETATM    6  C5  UNL     1     -33.328   6.877   5.894  1.00 20.00     0.026 C 
BRANCH   6   7
HETATM    7  C4  UNL     1     -34.496   5.942   5.570  1.00 20.00    -0.002 C 
HETATM    8  C2  UNL     1     -34.169   5.030   4.398  1.00 20.00     0.005 C 
ENDBRANCH   6   7
ENDBRANCH   4   6
ENDBRANCH   2   4
TORSDOF 3
