REMARK  0 active torsions:
REMARK  status: ('A' for Active; 'I' for Inactive)
ROOT
HETATM    1  C1  UNL     1     -33.624   7.335   5.206  1.00 20.00     0.086 C 
HETATM    2  C2  UNL     1     -34.311   6.085   4.892  1.00 20.00     0.235 C 
HETATM    3  N3  UNL     1     -33.082   8.330   5.454  1.00 20.00    -0.195 NA
HETATM    4 BR4  UNL     1     -34.348   4.919   6.452  1.00 20.00    -0.063 Br
HETATM    5 BR5  UNL     1     -33.478   5.216   3.360  1.00 20.00    -0.063 Br
ENDROOT
TORSDOF 0
