REMARK  2 active torsions:
REMARK  status: ('A' for Active; 'I' for Inactive)
REMARK    1  A    between atoms: P5_5  and  P6_6 
REMARK    2  A    between atoms: P5_5  and  S8_8 
ROOT
HETATM    1  C1  UNL     1     -33.211   5.793   2.514  1.00 20.00     0.061 C 
HETATM    2  P5  UNL     1     -32.778   6.623   4.086  1.00 20.00    -0.021 P 
ENDROOT
BRANCH   2   3
HETATM    3  P6  UNL     1     -34.400   6.055   5.381  1.00 20.00    -0.027 P 
HETATM    4  C2  UNL     1     -34.120   4.394   5.999  1.00 20.00     0.060 C 
HETATM    5  C3  UNL     1     -34.226   7.062   6.862  1.00 20.00     0.060 C 
HETATM    6  S7  UNL     1     -36.096   6.306   4.457  1.00 20.00    -0.092 SA
ENDBRANCH   2   3
BRANCH   2   7
HETATM    7  S8  UNL     1     -33.245   8.636   3.668  1.00 20.00    -0.137 SA
HETATM    8  C4  UNL     1     -32.334   9.629   4.869  1.00 20.00     0.095 C 
ENDBRANCH   2   7
TORSDOF 2
