REMARK  1 active torsions:
REMARK  status: ('A' for Active; 'I' for Inactive)
REMARK    1  A    between atoms: C2_2  and  C4_4 
ROOT
HETATM    1  C1  UNL     1     -33.856   8.391   4.740  1.00 20.00     0.207 A 
HETATM    2  C2  UNL     1     -33.821   7.023   5.377  1.00 20.00     0.091 A 
HETATM    3  C3  UNL     1     -33.202   6.853   6.726  1.00 20.00     0.049 C 
HETATM    4  O5  UNL     1     -32.889   7.403   4.356  1.00 20.00    -0.374 OA
ENDROOT
BRANCH   2   5
HETATM    5  C4  UNL     1     -34.801   5.982   4.940  1.00 20.00     0.154 C 
HETATM    6 CL6  UNL     1     -34.231   4.345   5.360  1.00 20.00    -0.127 Cl
ENDBRANCH   2   5
TORSDOF 1
