REMARK  0 active torsions:
REMARK  status: ('A' for Active; 'I' for Inactive)
ROOT
HETATM    1  C1  UNL     1     -34.133   4.470   5.231  1.00 20.00    -0.024 C 
HETATM    2  C2  UNL     1     -34.117   5.264   6.310  1.00 20.00    -0.024 C 
HETATM    3  C3  UNL     1     -32.793   6.996   4.186  1.00 20.00     0.164 C 
HETATM    4  C4  UNL     1     -35.548   6.255   4.772  1.00 20.00     0.021 C 
HETATM    5  C5  UNL     1     -34.664   5.238   4.045  1.00 20.00     0.034 C 
HETATM    6  C6  UNL     1     -34.636   6.631   5.942  1.00 20.00     0.034 C 
HETATM    7  C7  UNL     1     -33.507   5.945   3.326  1.00 20.00     0.161 C 
HETATM    8  C8  UNL     1     -33.474   7.512   5.460  1.00 20.00     0.161 C 
HETATM    9  O9  UNL     1     -31.711   7.467   3.824  1.00 20.00    -0.295 OA
HETATM   10 CL10 UNL     1     -34.085   6.793   1.866  1.00 20.00    -0.116 Cl
HETATM   11 CL11 UNL     1     -34.036   9.167   5.098  1.00 20.00    -0.116 Cl
ENDROOT
TORSDOF 0
