REMARK  1 active torsions:
REMARK  status: ('A' for Active; 'I' for Inactive)
REMARK    1  A    between atoms: C1_1  and  C3_3 
ROOT
HETATM    1  C2  UNL     1     -35.637   6.271   4.495  1.00 20.00     0.065 A 
HETATM    2  C3  UNL     1     -34.459   7.036   5.064  1.00 20.00     0.070 A 
HETATM    3  C4  UNL     1     -34.287   5.609   4.542  1.00 20.00     0.130 A 
HETATM    4  C5  UNL     1     -34.468   7.290   6.554  1.00 20.00     0.028 C 
HETATM    5 CL8  UNL     1     -33.473   5.327   2.998  1.00 20.00    -0.100 Cl
HETATM    6 CL9  UNL     1     -34.065   4.268   5.667  1.00 20.00    -0.100 Cl
ENDROOT
BRANCH   2   7
HETATM    7  C1  UNL     1     -33.918   8.144   4.237  1.00 20.00     0.230 C 
HETATM    8  O6  UNL     1     -34.400   8.429   3.145  1.00 20.00    -0.279 OA
HETATM    9 CL7  UNL     1     -32.574   8.935   5.003  1.00 20.00    -0.043 Cl
ENDBRANCH   2   7
TORSDOF 1
