REMARK  1 active torsions:
REMARK  status: ('A' for Active; 'I' for Inactive)
REMARK    1  A    between atoms: C2_2  and  O3_3 
ROOT
HETATM    1  C2  UNL     1     -33.746   6.311   5.364  1.00 20.00     0.314 C 
HETATM    2 CL4  UNL     1     -34.086   7.998   5.813  1.00 20.00    -0.078 Cl
HETATM    3 CL5  UNL     1     -34.705   5.215   6.378  1.00 20.00    -0.078 Cl
ENDROOT
BRANCH   1   4
HETATM    4  O3  UNL     1     -34.090   6.134   3.995  1.00 20.00    -0.362 OA
HETATM    5  C1  UNL     1     -33.430   5.022   3.404  1.00 20.00     0.204 C 
ENDBRANCH   1   4
TORSDOF 1
