REMARK  3 active torsions:
REMARK  status: ('A' for Active; 'I' for Inactive)
REMARK    1  A    between atoms: C7_7  and  C8_8 
REMARK    2  A    between atoms: C7_7  and  N9_9 
REMARK    3  A    between atoms: C8_8  and  N10_10 
ROOT
HETATM    1  C1  UNL     1     -32.857   8.846  -0.510  1.00 20.00     0.157 C 
HETATM    2  N9  UNL     1     -32.153   8.428   0.331  1.00 20.00    -0.274 NA
HETATM    3  S11 UNL     1     -33.788   9.418  -1.669  1.00 20.00    -0.055 SA
ENDROOT
BRANCH   2   4
HETATM    4  C7  UNL     1     -32.839   8.000   1.553  1.00 20.00     0.178 C 
BRANCH   4   5
HETATM    5  C8  UNL     1     -31.825   7.484   2.556  1.00 20.00     0.256 C 
BRANCH   5   6
HETATM    6  N10 UNL     1     -32.534   7.012   3.795  1.00 20.00    -0.070 N 
HETATM    7  C5  UNL     1     -33.355   8.115   4.421  1.00 20.00     0.235 C 
HETATM    8  C3  UNL     1     -33.949   7.622   5.732  1.00 20.00     0.028 C 
HETATM    9  C2  UNL     1     -34.765   6.348   5.539  1.00 20.00     0.003 C 
HETATM   10  C4  UNL     1     -33.946   5.268   4.839  1.00 20.00     0.028 C 
HETATM   11  C6  UNL     1     -33.352   5.770   3.531  1.00 20.00     0.235 C 
HETATM   12  H26 UNL     1     -31.800   6.757   4.470  1.00 20.00     0.279 HD
ENDBRANCH   5   6
ENDBRANCH   4   5
ENDBRANCH   2   4
TORSDOF 3
