REMARK  0 active torsions:
REMARK  status: ('A' for Active; 'I' for Inactive)
ROOT
HETATM    1  C1  UNL     1     -33.030   8.685   5.184  1.00 20.00     0.009 A 
HETATM    2  C2  UNL     1     -32.518   8.835   3.895  1.00 20.00     0.019 A 
HETATM    3  C3  UNL     1     -33.216   6.588   3.352  1.00 20.00     0.034 A 
HETATM    4  C4  UNL     1     -33.729   6.435   4.646  1.00 20.00     0.017 A 
HETATM    5  C5  UNL     1     -33.652   7.489   5.569  1.00 20.00    -0.044 A 
HETATM    6  C6  UNL     1     -32.613   7.789   2.980  1.00 20.00     0.011 A 
HETATM    7  C7  UNL     1     -34.348   5.142   5.038  1.00 20.00     0.160 C 
HETATM    8  C8  UNL     1     -34.177   7.345   6.972  1.00 20.00     0.040 C 
HETATM    9  C9  UNL     1     -34.868   4.997   6.451  1.00 20.00     0.084 C 
HETATM   10  C10 UNL     1     -35.311   6.330   7.032  1.00 20.00     0.012 C 
HETATM   11  O11 UNL     1     -34.385   4.204   4.247  1.00 20.00    -0.292 OA
HETATM   12 BR12 UNL     1     -31.916   7.995   1.235  1.00 20.00    -0.051 Br
ENDROOT
TORSDOF 0
