REMARK  1 active torsions:
REMARK  status: ('A' for Active; 'I' for Inactive)
REMARK    1  A    between atoms: C3_3  and  C6_6 
ROOT
HETATM    1  C1  UNL     1     -33.159   7.837   4.423  1.00 20.00     0.272 C 
HETATM    2  C2  UNL     1     -32.877   6.249   2.725  1.00 20.00     0.055 C 
HETATM    3  C3  UNL     1     -33.034   6.346   4.230  1.00 20.00     0.195 C 
HETATM    4  C4  UNL     1     -32.119   7.519   2.408  1.00 20.00     0.129 C 
HETATM    5  C5  UNL     1     -32.329   8.003   0.985  1.00 20.00     0.040 C 
HETATM    6  O7  UNL     1     -33.622   8.400   5.403  1.00 20.00    -0.265 OA
HETATM    7  O8  UNL     1     -32.641   8.484   3.332  1.00 20.00    -0.316 OA
ENDROOT
BRANCH   3   8
HETATM    8  C6  UNL     1     -34.238   5.583   4.747  1.00 20.00     0.400 C 
HETATM    9  F9  UNL     1     -34.390   5.781   6.068  1.00 20.00    -0.170 F 
HETATM   10  F10 UNL     1     -35.358   5.992   4.123  1.00 20.00    -0.170 F 
HETATM   11  F11 UNL     1     -34.087   4.264   4.529  1.00 20.00    -0.170 F 
ENDBRANCH   3   8
TORSDOF 1
