REMARK  2 active torsions:
REMARK  status: ('A' for Active; 'I' for Inactive)
REMARK    1  A    between atoms: C1_1  and  C3_3 
REMARK    2  A    between atoms: C2_2  and  C8_8 
ROOT
HETATM    1  C1  UNL     1     -33.694   6.476   4.645  1.00 20.00     0.052 C 
HETATM    2  C2  UNL     1     -32.906   6.491   3.552  1.00 20.00    -0.077 C 
HETATM    3  C4  UNL     1     -32.644   5.293   2.675  1.00 20.00     0.044 C 
ENDROOT
BRANCH   2   4
HETATM    4  C8  UNL     1     -32.229   7.800   3.148  1.00 20.00     0.006 C 
HETATM    5  C6  UNL     1     -32.590   8.221   1.722  1.00 20.00     0.014 C 
HETATM    6  C7  UNL     1     -32.528   8.927   4.140  1.00 20.00     0.014 C 
ENDBRANCH   2   4
BRANCH   1   7
HETATM    7  C3  UNL     1     -34.431   5.288   5.163  1.00 20.00     0.145 C 
HETATM    8  C5  UNL     1     -34.658   5.238   6.650  1.00 20.00     0.096 C 
HETATM    9  O9  UNL     1     -34.795   4.371   4.432  1.00 20.00    -0.294 OA
ENDBRANCH   1   7
TORSDOF 2
