REMARK  1 active torsions:
REMARK  status: ('A' for Active; 'I' for Inactive)
REMARK    1  A    between atoms: C7_7  and  C11_11 
ROOT
HETATM    1  C1  UNL     1     -32.849   6.053   2.751  1.00 20.00    -0.018 C 
HETATM    2  C2  UNL     1     -33.543   6.305   4.049  1.00 20.00     0.159 C 
HETATM    3  C3  UNL     1     -32.815   4.794   2.296  1.00 20.00     0.023 C 
HETATM    4  C4  UNL     1     -31.456   8.111   3.068  1.00 20.00     0.010 C 
HETATM    5  C5  UNL     1     -32.324   8.502   4.264  1.00 20.00     0.013 C 
HETATM    6  C6  UNL     1     -32.202   7.223   2.060  1.00 20.00     0.017 C 
HETATM    7  C7  UNL     1     -32.850   7.270   5.006  1.00 20.00     0.063 C 
HETATM    8  C8  UNL     1     -33.244   8.016   1.264  1.00 20.00     0.015 C 
HETATM    9  O12 UNL     1     -34.577   5.707   4.338  1.00 20.00    -0.292 OA
ENDROOT
BRANCH   7  10
HETATM   10  C11 UNL     1     -33.781   7.691   6.141  1.00 20.00    -0.011 C 
HETATM   11  C9  UNL     1     -35.005   8.420   5.589  1.00 20.00     0.010 C 
HETATM   12  C10 UNL     1     -34.206   6.478   6.966  1.00 20.00     0.010 C 
ENDBRANCH   7  10
TORSDOF 1
