REMARK  1 active torsions:
REMARK  status: ('A' for Active; 'I' for Inactive)
REMARK    1  A    between atoms: C1_1  and  C2_2 
ROOT
HETATM    1  C2  UNL     1     -34.334   5.871   4.808  1.00 20.00     0.391 C 
HETATM    2  F4  UNL     1     -34.199   4.765   5.586  1.00 20.00    -0.178 F 
HETATM    3  F5  UNL     1     -35.607   5.853   4.333  1.00 20.00    -0.178 F 
HETATM    4 CL6  UNL     1     -33.195   5.779   3.458  1.00 20.00    -0.039 Cl
ENDROOT
BRANCH   1   5
HETATM    5  C1  UNL     1     -34.029   7.116   5.580  1.00 20.00     0.282 C 
HETATM    6  O3  UNL     1     -34.211   7.244   6.783  1.00 20.00    -0.277 OA
HETATM    7 BR7  UNL     1     -33.253   8.604   4.676  1.00 20.00    -0.001 Br
ENDBRANCH   1   5
TORSDOF 1
