REMARK  1 active torsions:
REMARK  status: ('A' for Active; 'I' for Inactive)
REMARK    1  A    between atoms: C5_5  and  C8_8 
ROOT
HETATM    1  C1  UNL     1     -32.083   6.882   2.953  1.00 20.00     0.010 C 
HETATM    2  C2  UNL     1     -33.332   6.041   3.221  1.00 20.00     0.035 C 
HETATM    3  C3  UNL     1     -32.905   8.859   4.308  1.00 20.00     0.041 C 
HETATM    4  C5  UNL     1     -32.361   8.394   2.949  1.00 20.00     0.019 C 
HETATM    5  C6  UNL     1     -34.170   6.564   4.340  1.00 20.00     0.151 A 
HETATM    6  C7  UNL     1     -33.984   7.969   4.845  1.00 20.00     0.151 A 
HETATM    7  O10 UNL     1     -33.477   6.826   5.561  1.00 20.00    -0.375 OA
ENDROOT
BRANCH   4   8
HETATM    8  C8  UNL     1     -33.267   8.804   1.813  1.00 20.00     0.149 A 
HETATM    9  C4  UNL     1     -32.707   9.049   0.453  1.00 20.00     0.200 A 
HETATM   10  O9  UNL     1     -33.034  10.126   1.345  1.00 20.00    -0.381 OA
ENDBRANCH   4   8
TORSDOF 1
