REMARK  1 active torsions:
REMARK  status: ('A' for Active; 'I' for Inactive)
REMARK    1  A    between atoms: C1_1  and  C6_6 
ROOT
HETATM    1  C2  UNL     1     -34.379   4.490   5.238  1.00 20.00     0.005 C 
HETATM    2  C3  UNL     1     -34.347   5.565   6.336  1.00 20.00     0.006 C 
HETATM    3  C4  UNL     1     -33.136   6.010   3.676  1.00 20.00     0.017 C 
HETATM    4  C5  UNL     1     -35.354   6.489   4.394  1.00 20.00     0.010 C 
HETATM    5  C6  UNL     1     -33.056   7.054   4.802  1.00 20.00     0.059 C 
HETATM    6  C7  UNL     1     -34.485   5.317   3.944  1.00 20.00    -0.013 C 
HETATM    7  C8  UNL     1     -34.405   6.877   5.532  1.00 20.00    -0.003 C 
ENDROOT
BRANCH   5   8
HETATM    8  C1  UNL     1     -32.898   8.441   4.258  1.00 20.00     0.127 C 
HETATM    9  C9  UNL     1     -32.186   9.435   5.135  1.00 20.00     0.091 C 
HETATM   10  O10 UNL     1     -33.326   8.751   3.148  1.00 20.00    -0.298 OA
ENDBRANCH   5   8
TORSDOF 1
