REMARK  2 active torsions:
REMARK  status: ('A' for Active; 'I' for Inactive)
REMARK    1  A    between atoms: C3_3  and  C7_7 
REMARK    2  A    between atoms: C4_4  and  C8_8 
ROOT
HETATM    1  C5  UNL     1     -32.357   5.891   2.752  1.00 20.00     0.014 C 
HETATM    2  C6  UNL     1     -33.682   5.579   3.446  1.00 20.00     0.037 C 
HETATM    3  C7  UNL     1     -32.104   7.403   2.658  1.00 20.00     0.036 C 
HETATM    4  C8  UNL     1     -33.786   6.330   4.774  1.00 20.00     0.144 C 
HETATM    5  C9  UNL     1     -32.308   8.050   4.044  1.00 20.00     0.126 C 
HETATM    6  C10 UNL     1     -32.160   9.568   4.036  1.00 20.00     0.040 C 
HETATM    7  O11 UNL     1     -33.603   7.734   4.570  1.00 20.00    -0.377 OA
ENDROOT
BRANCH   3   8
HETATM    8  C3  UNL     1     -32.968   8.006   1.586  1.00 20.00    -0.030 C 
HETATM    9  C1  UNL     1     -32.491   8.609   0.492  1.00 20.00     0.007 C 
ENDBRANCH   3   8
BRANCH   4  10
HETATM   10  C4  UNL     1     -35.126   6.123   5.399  1.00 20.00    -0.005 C 
HETATM   11  C2  UNL     1     -35.312   5.588   6.610  1.00 20.00     0.009 C 
ENDBRANCH   4  10
TORSDOF 2
