REMARK  1 active torsions:
REMARK  status: ('A' for Active; 'I' for Inactive)
REMARK    1  A    between atoms: C2_2  and  C5_5 
ROOT
HETATM    1  C3  UNL     1     -33.235   5.394   3.053  1.00 20.00     0.039 C 
HETATM    2  C4  UNL     1     -33.918   4.724   4.221  1.00 20.00     0.040 C 
HETATM    3  C5  UNL     1     -32.790   6.711   3.668  1.00 20.00     0.151 C 
HETATM    4  C6  UNL     1     -34.593   5.897   4.930  1.00 20.00     0.054 C 
HETATM    5  C9  UNL     1     -34.669   5.684   6.439  1.00 20.00     0.045 C 
HETATM    6  C10 UNL     1     -35.987   6.185   4.366  1.00 20.00     0.045 C 
HETATM    7  O11 UNL     1     -33.766   7.050   4.669  1.00 20.00    -0.371 OA
ENDROOT
BRANCH   3   8
HETATM    8  C2  UNL     1     -32.679   7.825   2.688  1.00 20.00    -0.059 C 
HETATM    9  C1  UNL     1     -32.287   7.601   1.419  1.00 20.00    -0.026 C 
HETATM   10  C7  UNL     1     -32.128   8.589   0.335  1.00 20.00     0.036 C 
HETATM   11  C8  UNL     1     -33.033   9.183   3.225  1.00 20.00     0.046 C 
ENDBRANCH   3   8
TORSDOF 1
