REMARK  0 active torsions:
REMARK  status: ('A' for Active; 'I' for Inactive)
ROOT
HETATM    1  C1  UNL     1     -32.913   6.297   3.159  1.00 20.00     0.025 C 
HETATM    2  C2  UNL     1     -33.292   6.676   4.557  1.00 20.00     0.081 C 
HETATM    3  C3  UNL     1     -34.254   5.535   4.877  1.00 20.00     0.029 C 
HETATM    4  C4  UNL     1     -32.167   7.242   2.279  1.00 20.00     0.067 C 
HETATM    5  C5  UNL     1     -34.029   4.964   6.274  1.00 20.00     0.034 C 
HETATM    6  C6  UNL     1     -35.716   5.957   4.693  1.00 20.00     0.034 C 
HETATM    7  N7  UNL     1     -33.266   5.109   2.787  1.00 20.00    -0.210 NA
HETATM    8  N8  UNL     1     -33.871   4.547   3.860  1.00 20.00    -0.208 NA
HETATM    9  H20 UNL     1     -33.257   3.832   4.248  1.00 20.00     0.149 HD
ENDROOT
TORSDOF 0
