REMARK  1 active torsions:
REMARK  status: ('A' for Active; 'I' for Inactive)
REMARK    1  A    between atoms: C3_3  and  C6_6 
ROOT
HETATM    1  C1  UNL     1     -34.349   6.564   5.998  1.00 20.00    -0.024 C 
HETATM    2  C2  UNL     1     -34.285   5.721   4.955  1.00 20.00    -0.087 C 
HETATM    3  C4  UNL     1     -33.674   7.902   6.028  1.00 20.00     0.032 C 
HETATM    4  C5  UNL     1     -33.537   6.068   3.694  1.00 20.00     0.045 C 
HETATM    5  C6  UNL     1     -33.138   7.549   3.587  1.00 20.00     0.055 C 
HETATM    6  C7  UNL     1     -32.611   8.085   4.930  1.00 20.00    -0.004 C 
HETATM    7  C8  UNL     1     -34.951   4.377   4.980  1.00 20.00     0.043 C 
HETATM    8  C9  UNL     1     -32.203   9.559   4.851  1.00 20.00     0.011 C 
ENDROOT
BRANCH   5   9
HETATM    9  C3  UNL     1     -32.104   7.670   2.506  1.00 20.00     0.236 C 
HETATM   10  O10 UNL     1     -32.271   8.323   1.481  1.00 20.00    -0.306 OA
ENDBRANCH   5   9
TORSDOF 1
