REMARK  2 active torsions:
REMARK  status: ('A' for Active; 'I' for Inactive)
REMARK    1  A    between atoms: C3_3  and  C7_7 
REMARK    2  A    between atoms: C4_4  and  C8_8 
ROOT
HETATM    1  C5  UNL     1     -32.585   8.718   4.100  1.00 20.00     0.014 C 
HETATM    2  C6  UNL     1     -32.811   8.141   5.491  1.00 20.00     0.037 C 
HETATM    3  C7  UNL     1     -32.311   7.604   3.071  1.00 20.00     0.036 C 
HETATM    4  C8  UNL     1     -33.975   7.140   5.464  1.00 20.00     0.144 C 
HETATM    5  C9  UNL     1     -32.769   6.224   3.597  1.00 20.00     0.126 C 
HETATM    6  C10 UNL     1     -32.908   5.150   2.522  1.00 20.00     0.040 C 
HETATM    7  O11 UNL     1     -34.023   6.346   4.272  1.00 20.00    -0.377 OA
ENDROOT
BRANCH   3   8
HETATM    8  C3  UNL     1     -32.918   7.985   1.752  1.00 20.00    -0.030 C 
HETATM    9  C1  UNL     1     -32.210   8.211   0.640  1.00 20.00     0.007 C 
ENDBRANCH   3   8
BRANCH   4  10
HETATM   10  C4  UNL     1     -33.966   6.237   6.656  1.00 20.00    -0.005 C 
HETATM   11  C2  UNL     1     -33.899   4.903   6.584  1.00 20.00     0.009 C 
ENDBRANCH   4  10
TORSDOF 2
