REMARK  1 active torsions:
REMARK  status: ('A' for Active; 'I' for Inactive)
REMARK    1  A    between atoms: C3_3  and  C7_7 
ROOT
HETATM    1  C1  UNL     1     -32.875   8.406   3.018  1.00 20.00    -0.019 C 
HETATM    2  C2  UNL     1     -32.396   7.502   2.145  1.00 20.00    -0.087 C 
HETATM    3  C4  UNL     1     -32.584   6.021   2.347  1.00 20.00     0.034 C 
HETATM    4  C5  UNL     1     -33.653   5.686   3.387  1.00 20.00     0.016 C 
HETATM    5  C6  UNL     1     -33.603   8.052   4.294  1.00 20.00     0.015 C 
HETATM    6  C7  UNL     1     -33.497   6.551   4.637  1.00 20.00     0.054 C 
HETATM    7  C8  UNL     1     -31.646   7.910   0.912  1.00 20.00     0.043 C 
HETATM    8  C9  UNL     1     -33.066   8.905   5.450  1.00 20.00     0.015 C 
ENDROOT
BRANCH   6   9
HETATM    9  C3  UNL     1     -34.560   6.159   5.621  1.00 20.00     0.236 C 
HETATM   10  O10 UNL     1     -34.318   5.686   6.726  1.00 20.00    -0.306 OA
ENDBRANCH   6   9
TORSDOF 1
