REMARK  1 active torsions:
REMARK  status: ('A' for Active; 'I' for Inactive)
REMARK    1  A    between atoms: C1_1  and  C5_5 
ROOT
HETATM    1  C2  UNL     1     -35.118   6.182   2.878  1.00 20.00     0.006 C 
HETATM    2  C3  UNL     1     -35.868   5.937   4.194  1.00 20.00     0.006 C 
HETATM    3  C4  UNL     1     -34.099   4.392   4.052  1.00 20.00     0.011 C 
HETATM    4  C5  UNL     1     -32.880   6.419   4.110  1.00 20.00     0.067 C 
HETATM    5  C6  UNL     1     -33.730   5.566   3.140  1.00 20.00    -0.002 C 
HETATM    6  C7  UNL     1     -34.789   5.296   5.085  1.00 20.00    -0.006 C 
HETATM    7  C8  UNL     1     -33.662   6.320   5.456  1.00 20.00    -0.033 C 
HETATM    8  C10 UNL     1     -32.753   5.731   6.555  1.00 20.00     0.016 C 
HETATM    9  C11 UNL     1     -34.213   7.652   5.990  1.00 20.00     0.016 C 
ENDROOT
BRANCH   4  10
HETATM   10  C1  UNL     1     -32.604   7.796   3.585  1.00 20.00     0.128 C 
HETATM   11  C9  UNL     1     -32.573   7.956   2.089  1.00 20.00     0.091 C 
HETATM   12  O12 UNL     1     -32.415   8.748   4.340  1.00 20.00    -0.298 OA
ENDBRANCH   4  10
TORSDOF 1
