REMARK  2 active torsions:
REMARK  status: ('A' for Active; 'I' for Inactive)
REMARK    1  A    between atoms: C6_6  and  C8_8 
REMARK    2  A    between atoms: C8_8  and  O9_9 
ROOT
HETATM    1  C1  UNL     1     -32.074   8.389   4.531  1.00 20.00    -0.030 C 
HETATM    2  C2  UNL     1     -33.079   8.533   5.403  1.00 20.00    -0.030 C 
HETATM    3  C3  UNL     1     -31.949   7.210   3.615  1.00 20.00     0.031 C 
HETATM    4  C4  UNL     1     -34.166   7.516   5.574  1.00 20.00     0.034 C 
HETATM    5  C5  UNL     1     -33.236   6.365   3.516  1.00 20.00    -0.009 C 
HETATM    6  C6  UNL     1     -33.846   6.154   4.922  1.00 20.00     0.016 C 
HETATM    7  C7  UNL     1     -32.930   5.054   2.787  1.00 20.00     0.011 C 
ENDROOT
BRANCH   6   8
HETATM    8  C8  UNL     1     -35.107   5.286   4.910  1.00 20.00     0.169 C 
BRANCH   8   9
HETATM    9  O9  UNL     1     -35.524   5.087   6.247  1.00 20.00    -0.400 OA
HETATM   10  H23 UNL     1     -36.325   4.535   6.219  1.00 20.00     0.209 HD
ENDBRANCH   8   9
ENDBRANCH   6   8
TORSDOF 2
