REMARK  1 active torsions:
REMARK  status: ('A' for Active; 'I' for Inactive)
REMARK    1  A    between atoms: C3_3  and  C7_7 
ROOT
HETATM    1  C1  UNL     1     -33.858   6.864   4.644  1.00 20.00    -0.019 C 
HETATM    2  C2  UNL     1     -33.786   5.574   4.270  1.00 20.00    -0.087 C 
HETATM    3  C4  UNL     1     -33.048   5.144   3.030  1.00 20.00     0.034 C 
HETATM    4  C5  UNL     1     -32.742   6.302   2.080  1.00 20.00     0.016 C 
HETATM    5  C6  UNL     1     -33.188   8.000   3.909  1.00 20.00     0.015 C 
HETATM    6  C7  UNL     1     -32.189   7.507   2.841  1.00 20.00     0.054 C 
HETATM    7  C8  UNL     1     -34.439   4.481   5.063  1.00 20.00     0.043 C 
HETATM    8  C9  UNL     1     -32.489   8.925   4.912  1.00 20.00     0.015 C 
ENDROOT
BRANCH   6   9
HETATM    9  C3  UNL     1     -31.898   8.606   1.862  1.00 20.00     0.236 C 
HETATM   10  O10 UNL     1     -32.759   9.141   1.170  1.00 20.00    -0.306 OA
ENDBRANCH   6   9
TORSDOF 1
