REMARK  2 active torsions:
REMARK  status: ('A' for Active; 'I' for Inactive)
REMARK    1  A    between atoms: C6_6  and  C8_8 
REMARK    2  A    between atoms: C8_8  and  O9_9 
ROOT
HETATM    1  C1  UNL     1     -32.163   7.792   3.293  1.00 20.00    -0.030 C 
HETATM    2  C2  UNL     1     -32.556   6.541   3.017  1.00 20.00    -0.030 C 
HETATM    3  C3  UNL     1     -32.623   8.549   4.504  1.00 20.00     0.031 C 
HETATM    4  C4  UNL     1     -33.476   5.754   3.902  1.00 20.00     0.034 C 
HETATM    5  C5  UNL     1     -33.852   7.926   5.201  1.00 20.00    -0.009 C 
HETATM    6  C6  UNL     1     -33.671   6.391   5.292  1.00 20.00     0.016 C 
HETATM    7  C7  UNL     1     -35.148   8.350   4.497  1.00 20.00     0.011 C 
ENDROOT
BRANCH   6   8
HETATM    8  C8  UNL     1     -34.802   5.696   6.049  1.00 20.00     0.169 C 
BRANCH   8   9
HETATM    9  O9  UNL     1     -35.852   5.429   5.139  1.00 20.00    -0.400 OA
HETATM   10  H23 UNL     1     -36.560   4.988   5.640  1.00 20.00     0.209 HD
ENDBRANCH   8   9
ENDBRANCH   6   8
TORSDOF 2
