REMARK  1 active torsions:
REMARK  status: ('A' for Active; 'I' for Inactive)
REMARK    1  A    between atoms: C1_1  and  C3_3 
ROOT
HETATM    1  C1  UNL     1     -34.306   6.552   6.263  1.00 20.00     0.037 C 
HETATM    2  C2  UNL     1     -34.688   5.299   5.990  1.00 20.00    -0.028 C 
HETATM    3  C4  UNL     1     -34.658   4.712   4.617  1.00 20.00     0.036 C 
ENDROOT
BRANCH   1   4
HETATM    4  C3  UNL     1     -33.828   7.414   5.165  1.00 20.00     0.258 C 
HETATM    5  O5  UNL     1     -33.002   8.300   5.349  1.00 20.00    -0.302 OA
ENDBRANCH   1   4
TORSDOF 1
