REMARK  1 active torsions:
REMARK  status: ('A' for Active; 'I' for Inactive)
REMARK    1  A    between atoms: C3_3  and  C7_7 
ROOT
HETATM    1  C1  UNL     1     -32.263   7.358   4.155  1.00 20.00    -0.020 C 
HETATM    2  C2  UNL     1     -32.749   8.306   4.974  1.00 20.00    -0.086 C 
HETATM    3  C4  UNL     1     -34.088   8.172   5.660  1.00 20.00     0.045 C 
HETATM    4  C5  UNL     1     -34.483   6.135   4.202  1.00 20.00     0.020 C 
HETATM    5  C6  UNL     1     -32.996   6.088   3.807  1.00 20.00     0.005 C 
HETATM    6  C7  UNL     1     -34.709   6.773   5.572  1.00 20.00     0.051 C 
HETATM    7  C8  UNL     1     -31.986   9.565   5.266  1.00 20.00     0.043 C 
HETATM    8  C9  UNL     1     -32.862   5.776   2.315  1.00 20.00     0.014 C 
ENDROOT
BRANCH   6   9
HETATM    9  C3  UNL     1     -34.181   5.878   6.657  1.00 20.00     0.236 C 
HETATM   10  O10 UNL     1     -34.104   4.659   6.550  1.00 20.00    -0.306 OA
ENDBRANCH   6   9
TORSDOF 1
