REMARK  2 active torsions:
REMARK  status: ('A' for Active; 'I' for Inactive)
REMARK    1  A    between atoms: C1_1  and  S11_11 
REMARK    2  A    between atoms: C8_8  and  S11_11 
ROOT
HETATM    1  C2  UNL     1     -33.388   5.103   6.593  1.00 20.00     0.005 C 
HETATM    2  C3  UNL     1     -33.507   6.604   6.296  1.00 20.00     0.006 C 
HETATM    3  C4  UNL     1     -35.381   5.510   5.357  1.00 20.00     0.010 C 
HETATM    4  C5  UNL     1     -33.547   4.560   4.154  1.00 20.00     0.020 C 
HETATM    5  C6  UNL     1     -34.276   4.466   5.510  1.00 20.00    -0.013 C 
HETATM    6  C7  UNL     1     -34.395   6.641   5.038  1.00 20.00     0.000 C 
HETATM    7  C8  UNL     1     -33.689   6.053   3.794  1.00 20.00     0.059 C 
ENDROOT
BRANCH   7   8
HETATM    8  S11 UNL     1     -32.115   6.834   3.346  1.00 20.00    -0.088 SA
BRANCH   8   9
HETATM    9  C1  UNL     1     -32.525   8.529   3.593  1.00 20.00     0.182 C 
HETATM   10  C9  UNL     1     -33.083   9.195   2.366  1.00 20.00     0.104 C 
HETATM   11  O10 UNL     1     -32.374   9.113   4.659  1.00 20.00    -0.286 OA
ENDBRANCH   8   9
ENDBRANCH   7   8
TORSDOF 2
