REMARK  2 active torsions:
REMARK  status: ('A' for Active; 'I' for Inactive)
REMARK    1  A    between atoms: C1_1  and  C10_10 
REMARK    2  A    between atoms: C8_8  and  C10_10 
ROOT
HETATM    1  C2  UNL     1     -34.314   4.872   6.698  1.00 20.00     0.005 C 
HETATM    2  C3  UNL     1     -34.149   6.385   6.903  1.00 20.00     0.005 C 
HETATM    3  C4  UNL     1     -35.563   6.025   5.033  1.00 20.00     0.009 C 
HETATM    4  C5  UNL     1     -33.499   5.072   4.335  1.00 20.00     0.010 C 
HETATM    5  C6  UNL     1     -34.721   4.765   5.219  1.00 20.00    -0.014 C 
HETATM    6  C7  UNL     1     -34.444   6.956   5.503  1.00 20.00    -0.010 C 
HETATM    7  C8  UNL     1     -33.269   6.581   4.568  1.00 20.00    -0.003 C 
ENDROOT
BRANCH   7   8
HETATM    8  C10 UNL     1     -33.271   7.374   3.266  1.00 20.00     0.082 C 
BRANCH   8   9
HETATM    9  C1  UNL     1     -32.629   8.738   3.420  1.00 20.00     0.123 C 
HETATM   10  C9  UNL     1     -32.572   9.582   2.173  1.00 20.00     0.091 C 
HETATM   11  O11 UNL     1     -32.176   9.150   4.486  1.00 20.00    -0.298 OA
ENDBRANCH   8   9
ENDBRANCH   7   8
TORSDOF 2
