REMARK  0 active torsions:
REMARK  status: ('A' for Active; 'I' for Inactive)
ROOT
HETATM    1  C1  UNL     1     -34.685   4.867   6.049  1.00 20.00     0.000 C 
HETATM    2  C2  UNL     1     -34.242   6.049   6.915  1.00 20.00     0.003 C 
HETATM    3  C3  UNL     1     -33.914   4.817   4.728  1.00 20.00     0.003 C 
HETATM    4  C4  UNL     1     -34.359   7.372   6.159  1.00 20.00     0.040 C 
HETATM    5  C5  UNL     1     -34.029   6.135   3.962  1.00 20.00     0.040 C 
HETATM    6  C6  UNL     1     -32.298   7.959   4.665  1.00 20.00     0.207 A 
HETATM    7  C7  UNL     1     -33.635   7.280   4.848  1.00 20.00     0.082 A 
HETATM    8  O8  UNL     1     -33.513   8.532   4.160  1.00 20.00    -0.375 OA
ENDROOT
TORSDOF 0
