REMARK  1 active torsions:
REMARK  status: ('A' for Active; 'I' for Inactive)
REMARK    1  A    between atoms: C3_3  and  C6_6 
ROOT
HETATM    1  C1  UNL     1     -33.676   4.890   3.433  1.00 20.00    -0.030 C 
HETATM    2  C2  UNL     1     -34.309   4.415   4.513  1.00 20.00    -0.030 C 
HETATM    3  C4  UNL     1     -33.150   6.289   3.340  1.00 20.00     0.038 C 
HETATM    4  C5  UNL     1     -34.580   5.242   5.732  1.00 20.00     0.031 C 
HETATM    5  C6  UNL     1     -33.125   7.031   4.686  1.00 20.00     0.054 C 
HETATM    6  C7  UNL     1     -34.401   6.757   5.504  1.00 20.00    -0.004 C 
HETATM    7  C8  UNL     1     -34.395   7.480   6.854  1.00 20.00     0.011 C 
ENDROOT
BRANCH   5   8
HETATM    8  C3  UNL     1     -32.963   8.495   4.401  1.00 20.00     0.236 C 
HETATM    9  O9  UNL     1     -31.997   9.154   4.770  1.00 20.00    -0.306 OA
ENDBRANCH   5   8
TORSDOF 1
