REMARK  1 active torsions:
REMARK  status: ('A' for Active; 'I' for Inactive)
REMARK    1  A    between atoms: C2_2  and  C3_3 
ROOT
HETATM    1  C1  UNL     1     -33.559   6.931   4.570  1.00 20.00    -0.061 C 
HETATM    2  C2  UNL     1     -32.845   8.061   4.520  1.00 20.00     0.088 C 
HETATM    3  C4  UNL     1     -33.546   5.016   3.012  1.00 20.00     0.009 C 
HETATM    4  C5  UNL     1     -33.896   4.060   4.167  1.00 20.00     0.006 C 
HETATM    5  C6  UNL     1     -35.529   5.758   4.098  1.00 20.00     0.014 C 
HETATM    6  C7  UNL     1     -34.289   6.307   3.396  1.00 20.00     0.016 C 
HETATM    7  C8  UNL     1     -34.713   4.957   5.125  1.00 20.00    -0.002 C 
HETATM    8  C9  UNL     1     -33.832   6.064   5.795  1.00 20.00    -0.020 C 
HETATM    9  C10 UNL     1     -34.629   6.824   6.872  1.00 20.00     0.020 C 
HETATM   10  C11 UNL     1     -32.547   5.518   6.434  1.00 20.00     0.020 C 
ENDROOT
BRANCH   2  11
HETATM   11  C3  UNL     1     -32.689   8.863   3.222  1.00 20.00     0.198 C 
HETATM   12  O12 UNL     1     -32.144   8.216   2.280  1.00 20.00    -0.644 OA
HETATM   13  O13 UNL     1     -33.108  10.054   3.230  1.00 20.00    -0.644 OA
ENDBRANCH   2  11
TORSDOF 1
