REMARK  3 active torsions:
REMARK  status: ('A' for Active; 'I' for Inactive)
REMARK    1  A    between atoms: C3_3  and  C8_8 
REMARK    2  A    between atoms: C4_4  and  C10_10 
REMARK    3  A    between atoms: C10_10  and  O11_11 
ROOT
HETATM    1  C1  UNL     1     -34.473   5.693   6.646  1.00 20.00    -0.031 C 
HETATM    2  C2  UNL     1     -33.700   6.778   6.793  1.00 20.00    -0.030 C 
HETATM    3  C5  UNL     1     -34.972   5.217   5.314  1.00 20.00     0.027 C 
HETATM    4  C6  UNL     1     -33.223   7.610   5.639  1.00 20.00     0.035 C 
HETATM    5  C7  UNL     1     -34.799   6.256   4.203  1.00 20.00     0.012 C 
HETATM    6  C8  UNL     1     -33.431   6.924   4.288  1.00 20.00     0.011 C 
ENDROOT
BRANCH   6   7
HETATM    7  C3  UNL     1     -33.365   7.987   3.208  1.00 20.00    -0.023 C 
HETATM    8  C4  UNL     1     -32.461   7.990   2.217  1.00 20.00     0.000 C 
BRANCH   8   9
HETATM    9  C10 UNL     1     -32.399   9.043   1.150  1.00 20.00     0.136 C 
HETATM   10  C9  UNL     1     -32.646   8.446  -0.229  1.00 20.00     0.043 C 
BRANCH   9  11
HETATM   11  O11 UNL     1     -33.408  10.010   1.428  1.00 20.00    -0.392 OA
HETATM   12  H27 UNL     1     -33.349  10.679   0.728  1.00 20.00     0.210 HD
ENDBRANCH   9  11
ENDBRANCH   8   9
ENDBRANCH   6   7
TORSDOF 3
