REMARK  2 active torsions:
REMARK  status: ('A' for Active; 'I' for Inactive)
REMARK    1  A    between atoms: C1_1  and  S6_6 
REMARK    2  A    between atoms: N4_4  and  O5_5 
ROOT
HETATM    1  C1  UNL     1     -33.828   5.677   4.251  1.00 20.00     0.093 C 
HETATM    2  C2  UNL     1     -33.229   5.517   2.876  1.00 20.00     0.081 C 
HETATM    3  N4  UNL     1     -34.661   4.846   4.794  1.00 20.00    -0.134 NA
ENDROOT
BRANCH   1   4
HETATM    4  S6  UNL     1     -33.299   7.115   5.120  1.00 20.00    -0.117 SA
HETATM    5  C3  UNL     1     -33.846   8.436   4.017  1.00 20.00     0.097 C 
ENDBRANCH   1   4
BRANCH   3   6
HETATM    6  O5  UNL     1     -35.032   5.273   6.071  1.00 20.00    -0.266 OA
HETATM    7  H13 UNL     1     -35.643   4.567   6.343  1.00 20.00     0.247 HD
ENDBRANCH   3   6
TORSDOF 2
