REMARK  0 active torsions:
REMARK  status: ('A' for Active; 'I' for Inactive)
ROOT
HETATM    1  C1  UNL     1     -33.077   7.887   3.471  1.00 20.00     0.086 C 
HETATM    2  C2  UNL     1     -34.256   5.100   6.557  1.00 20.00     0.005 C 
HETATM    3  C3  UNL     1     -32.757   5.394   6.403  1.00 20.00     0.008 C 
HETATM    4  C4  UNL     1     -33.921   7.448   6.369  1.00 20.00     0.012 C 
HETATM    5  C5  UNL     1     -34.774   6.328   4.432  1.00 20.00     0.046 C 
HETATM    6  C6  UNL     1     -34.916   6.359   5.971  1.00 20.00    -0.011 C 
HETATM    7  C7  UNL     1     -32.742   6.752   5.671  1.00 20.00     0.024 C 
HETATM    8  C8  UNL     1     -33.274   6.632   4.217  1.00 20.00     0.129 C 
HETATM    9  N9  UNL     1     -32.922   8.876   2.884  1.00 20.00    -0.195 NA
HETATM   10 CL10 UNL     1     -32.464   5.364   3.264  1.00 20.00    -0.102 Cl
ENDROOT
TORSDOF 0
