REMARK  1 active torsions:
REMARK  status: ('A' for Active; 'I' for Inactive)
REMARK    1  A    between atoms: C8_8  and  C9_9 
ROOT
HETATM    1  C1  UNL     1     -32.123   8.570   4.673  1.00 20.00     0.059 C 
HETATM    2  C9  UNL     1     -32.182   7.207   4.158  1.00 20.00     0.129 C 
HETATM    3  N10 UNL     1     -32.049   9.654   5.080  1.00 20.00    -0.197 NA
ENDROOT
BRANCH   2   4
HETATM    4  C8  UNL     1     -33.665   6.875   4.132  1.00 20.00     0.003 C 
HETATM    5  C5  UNL     1     -33.970   5.454   3.615  1.00 20.00     0.010 C 
HETATM    6  C6  UNL     1     -34.886   4.877   4.712  1.00 20.00    -0.014 C 
HETATM    7  C2  UNL     1     -34.031   4.562   5.951  1.00 20.00     0.005 C 
HETATM    8  C4  UNL     1     -35.658   6.114   5.170  1.00 20.00     0.009 C 
HETATM    9  C3  UNL     1     -33.714   5.955   6.514  1.00 20.00     0.005 C 
HETATM   10  C7  UNL     1     -34.385   6.898   5.501  1.00 20.00    -0.009 C 
ENDBRANCH   2   4
TORSDOF 1
