REMARK  1 active torsions:
REMARK  status: ('A' for Active; 'I' for Inactive)
REMARK    1  A    between atoms: C2_2  and  C3_3 
ROOT
HETATM    1  C3  UNL     1     -34.275   5.799   4.700  1.00 20.00     0.216 C 
HETATM    2 CL5  UNL     1     -34.815   5.420   6.373  1.00 20.00    -0.081 Cl
HETATM    3 CL6  UNL     1     -35.712   6.324   3.755  1.00 20.00    -0.081 Cl
HETATM    4 CL7  UNL     1     -33.644   4.286   3.961  1.00 20.00    -0.081 Cl
ENDROOT
BRANCH   1   5
HETATM    5  C2  UNL     1     -33.232   6.858   4.709  1.00 20.00     0.199 A 
HETATM    6  C1  UNL     1     -33.121   7.851   3.586  1.00 20.00     0.204 A 
HETATM    7  O4  UNL     1     -33.739   8.191   4.838  1.00 20.00    -0.377 OA
ENDBRANCH   1   5
TORSDOF 1
