REMARK  1 active torsions:
REMARK  status: ('A' for Active; 'I' for Inactive)
REMARK    1  A    between atoms: C8_8  and  O10_10 
ROOT
HETATM    1  C1  UNL     1     -34.953   4.815   4.570  1.00 20.00     0.005 C 
HETATM    2  C2  UNL     1     -32.708   5.249   3.548  1.00 20.00     0.005 C 
HETATM    3  C3  UNL     1     -35.345   6.273   4.297  1.00 20.00     0.008 C 
HETATM    4  C4  UNL     1     -33.116   6.707   3.294  1.00 20.00     0.008 C 
HETATM    5  C5  UNL     1     -33.042   5.552   6.012  1.00 20.00     0.042 C 
HETATM    6  C6  UNL     1     -33.433   4.700   4.788  1.00 20.00    -0.012 C 
HETATM    7  C7  UNL     1     -34.102   7.177   4.387  1.00 20.00     0.019 C 
HETATM    8  C8  UNL     1     -33.428   7.032   5.779  1.00 20.00     0.058 C 
HETATM    9  C9  UNL     1     -34.302   7.561   6.920  1.00 20.00     0.046 C 
ENDROOT
BRANCH   8  10
HETATM   10  O10 UNL     1     -32.223   7.808   5.795  1.00 20.00    -0.390 OA
HETATM   11  H26 UNL     1     -31.828   7.672   6.668  1.00 20.00     0.210 HD
ENDBRANCH   8  10
TORSDOF 1
