REMARK  0 active torsions:
REMARK  status: ('A' for Active; 'I' for Inactive)
ROOT
HETATM    1  C1  UNL     1     -32.863   4.815   2.839  1.00 20.00     0.018 C 
HETATM    2  C2  UNL     1     -33.352   7.902   4.779  1.00 20.00     0.018 C 
HETATM    3  C3  UNL     1     -33.003   4.676   4.358  1.00 20.00     0.022 C 
HETATM    4  C4  UNL     1     -31.973   7.646   4.166  1.00 20.00     0.022 C 
HETATM    5  C5  UNL     1     -33.044   6.223   2.251  1.00 20.00     0.066 C 
HETATM    6  C6  UNL     1     -34.441   6.860   4.482  1.00 20.00     0.066 C 
HETATM    7  C7  UNL     1     -34.198   5.419   4.967  1.00 20.00     0.096 C 
HETATM    8  C8  UNL     1     -31.967   7.236   2.687  1.00 20.00     0.096 C 
HETATM    9  S9  UNL     1     -34.711   6.810   2.686  1.00 20.00    -0.156 SA
HETATM   10 CL10 UNL     1     -34.063   5.375   6.757  1.00 20.00    -0.124 Cl
HETATM   11 CL11 UNL     1     -32.086   8.724   1.668  1.00 20.00    -0.124 Cl
ENDROOT
TORSDOF 0
