REMARK  1 active torsions:
REMARK  status: ('A' for Active; 'I' for Inactive)
REMARK    1  A    between atoms: C2_2  and  C3_3 
ROOT
HETATM    1  C1  UNL     1     -33.833   7.132   6.173  1.00 20.00    -0.012 C 
HETATM    2  C2  UNL     1     -33.435   7.250   4.900  1.00 20.00    -0.001 C 
HETATM    3  C4  UNL     1     -34.625   5.937   6.616  1.00 20.00     0.054 C 
HETATM    4  C5  UNL     1     -33.774   6.236   3.852  1.00 20.00     0.209 C 
HETATM    5  C6  UNL     1     -34.574   4.818   5.578  1.00 20.00     0.171 C 
HETATM    6  O8  UNL     1     -34.822   5.353   4.277  1.00 20.00    -0.386 OA
ENDROOT
BRANCH   2   7
HETATM    7  C3  UNL     1     -32.657   8.431   4.522  1.00 20.00     0.267 C 
HETATM    8  O7  UNL     1     -32.360   9.310   5.322  1.00 20.00    -0.302 OA
ENDBRANCH   2   7
TORSDOF 1
