REMARK  2 active torsions:
REMARK  status: ('A' for Active; 'I' for Inactive)
REMARK    1  A    between atoms: C8_8  and  C9_9 
REMARK    2  A    between atoms: C8_8  and  O10_10 
ROOT
HETATM    1  C1  UNL     1     -32.288   9.230   1.568  1.00 20.00     0.012 C 
HETATM    2  C2  UNL     1     -32.910   8.984   2.565  1.00 20.00    -0.115 C 
HETATM    3  C9  UNL     1     -33.679   8.692   3.776  1.00 20.00     0.130 C 
ENDROOT
BRANCH   3   4
HETATM    4  C8  UNL     1     -32.899   7.760   4.709  1.00 20.00     0.068 C 
HETATM    5  C6  UNL     1     -32.577   6.420   4.027  1.00 20.00     0.038 C 
HETATM    6  C4  UNL     1     -33.800   5.521   3.870  1.00 20.00     0.003 C 
HETATM    7  C3  UNL     1     -34.517   5.309   5.200  1.00 20.00     0.000 C 
HETATM    8  C5  UNL     1     -34.873   6.631   5.875  1.00 20.00     0.003 C 
HETATM    9  C7  UNL     1     -33.648   7.529   6.032  1.00 20.00     0.038 C 
BRANCH   4  10
HETATM   10  O10 UNL     1     -31.666   8.427   4.999  1.00 20.00    -0.389 OA
HETATM   11  H24 UNL     1     -31.171   7.838   5.587  1.00 20.00     0.210 HD
ENDBRANCH   4  10
ENDBRANCH   3   4
TORSDOF 2
