REMARK  0 active torsions:
REMARK  status: ('A' for Active; 'I' for Inactive)
ROOT
HETATM    1  C1  UNL     1     -34.116   7.172   6.354  1.00 20.00     0.066 C 
HETATM    2  C2  UNL     1     -34.049   6.149   4.046  1.00 20.00     0.066 C 
HETATM    3  C3  UNL     1     -34.102   5.748   6.901  1.00 20.00     0.170 C 
HETATM    4  C4  UNL     1     -34.038   4.787   4.734  1.00 20.00     0.170 C 
HETATM    5  C5  UNL     1     -32.139   7.790   4.756  1.00 20.00     0.207 A 
HETATM    6  C6  UNL     1     -33.499   7.176   4.988  1.00 20.00     0.086 A 
HETATM    7  O7  UNL     1     -34.738   4.852   5.983  1.00 20.00    -0.391 OA
HETATM    8  O8  UNL     1     -33.349   8.481   4.414  1.00 20.00    -0.375 OA
ENDROOT
TORSDOF 0
