REMARK  0 active torsions:
REMARK  status: ('A' for Active; 'I' for Inactive)
ROOT
HETATM    1  C1  UNL     1     -33.631   6.936   5.206  1.00 20.00     0.223 C 
HETATM    2  C2  UNL     1     -34.118   5.726   5.240  1.00 20.00    -0.033 C 
HETATM    3  C3  UNL     1     -34.044   4.799   4.062  1.00 20.00     0.047 C 
HETATM    4  C4  UNL     1     -34.790   5.167   6.461  1.00 20.00     0.047 C 
HETATM    5  O5  UNL     1     -33.192   8.027   5.176  1.00 20.00    -0.284 OA
ENDROOT
TORSDOF 0
