REMARK  2 active torsions:
REMARK  status: ('A' for Active; 'I' for Inactive)
REMARK    1  A    between atoms: C1_1  and  C2_2 
REMARK    2  A    between atoms: C2_2  and  C3_3 
ROOT
HETATM    1  C2  UNL     1     -34.037   6.123   4.654  1.00 20.00     0.428 C 
HETATM    2  F6  UNL     1     -33.718   5.069   5.451  1.00 20.00    -0.184 F 
HETATM    3  F7  UNL     1     -35.370   6.032   4.407  1.00 20.00    -0.184 F 
ENDROOT
BRANCH   1   4
HETATM    4  C1  UNL     1     -33.249   6.078   3.381  1.00 20.00     0.379 C 
HETATM    5  O4  UNL     1     -33.271   5.164   2.572  1.00 20.00    -0.253 OA
HETATM    6  F5  UNL     1     -32.485   7.140   3.088  1.00 20.00    -0.157 F 
ENDBRANCH   1   4
BRANCH   1   7
HETATM    7  C3  UNL     1     -33.764   7.399   5.406  1.00 20.00     0.465 C 
HETATM    8  F8  UNL     1     -34.104   8.473   4.661  1.00 20.00    -0.165 F 
HETATM    9  F9  UNL     1     -32.456   7.516   5.719  1.00 20.00    -0.165 F 
HETATM   10  F10 UNL     1     -34.473   7.455   6.554  1.00 20.00    -0.165 F 
ENDBRANCH   1   7
TORSDOF 2
