REMARK  2 active torsions:
REMARK  status: ('A' for Active; 'I' for Inactive)
REMARK    1  A    between atoms: C4_4  and  C7_7 
REMARK    2  A    between atoms: C8_8  and  O11_11 
ROOT
HETATM    1  C1  UNL     1     -32.631   6.241   2.724  1.00 20.00    -0.019 C 
HETATM    2  C2  UNL     1     -33.675   5.675   3.347  1.00 20.00     0.007 C 
HETATM    3  C5  UNL     1     -32.744   8.198   4.307  1.00 20.00     0.016 C 
HETATM    4  C6  UNL     1     -34.242   7.902   4.420  1.00 20.00     0.042 C 
HETATM    5  C7  UNL     1     -32.149   7.641   2.999  1.00 20.00     0.036 C 
HETATM    6  C8  UNL     1     -34.521   6.386   4.372  1.00 20.00     0.072 C 
HETATM    7  C10 UNL     1     -36.009   6.133   4.112  1.00 20.00     0.050 C 
ENDROOT
BRANCH   5   8
HETATM    8  C4  UNL     1     -32.437   8.540   1.831  1.00 20.00    -0.085 C 
HETATM    9  C3  UNL     1     -33.175   9.653   1.957  1.00 20.00     0.014 C 
HETATM   10  C9  UNL     1     -31.852   8.122   0.515  1.00 20.00     0.043 C 
ENDBRANCH   5   8
BRANCH   6  11
HETATM   11  O11 UNL     1     -34.194   5.814   5.642  1.00 20.00    -0.386 OA
HETATM   12  H27 UNL     1     -34.408   4.872   5.577  1.00 20.00     0.211 HD
ENDBRANCH   6  11
TORSDOF 2
