REMARK  2 active torsions:
REMARK  status: ('A' for Active; 'I' for Inactive)
REMARK    1  A    between atoms: C3_3  and  C5_5 
REMARK    2  A    between atoms: C4_4  and  C10_10 
ROOT
HETATM    1  C1  UNL     1     -35.682   5.816   4.518  1.00 20.00    -0.026 C 
HETATM    2  C2  UNL     1     -34.754   5.601   3.574  1.00 20.00    -0.025 C 
HETATM    3  C6  UNL     1     -33.814   4.971   5.587  1.00 20.00     0.017 C 
HETATM    4  C7  UNL     1     -34.193   7.312   5.802  1.00 20.00     0.017 C 
HETATM    5  C8  UNL     1     -34.954   5.966   5.832  1.00 20.00     0.009 C 
HETATM    6  C9  UNL     1     -33.404   5.618   4.258  1.00 20.00     0.016 C 
HETATM    7  C10 UNL     1     -33.089   7.056   4.736  1.00 20.00     0.017 C 
ENDROOT
BRANCH   7   8
HETATM    8  C4  UNL     1     -33.034   8.081   3.651  1.00 20.00    -0.015 C 
HETATM    9  C3  UNL     1     -32.634   7.813   2.400  1.00 20.00     0.081 C 
BRANCH   9  10
HETATM   10  C5  UNL     1     -32.592   8.896   1.313  1.00 20.00     0.198 C 
HETATM   11  O11 UNL     1     -32.965  10.040   1.711  1.00 20.00    -0.645 OA
HETATM   12  O12 UNL     1     -32.201   8.543   0.165  1.00 20.00    -0.645 OA
ENDBRANCH   9  10
ENDBRANCH   7   8
TORSDOF 2
