REMARK  1 active torsions:
REMARK  status: ('A' for Active; 'I' for Inactive)
REMARK    1  A    between atoms: C1_1  and  C6_6 
ROOT
HETATM    1  C2  UNL     1     -32.355   6.146   3.491  1.00 20.00     0.002 C 
HETATM    2  C3  UNL     1     -33.813   5.700   3.553  1.00 20.00     0.012 C 
HETATM    3  C4  UNL     1     -32.226   7.580   2.985  1.00 20.00     0.009 C 
HETATM    4  C5  UNL     1     -34.507   8.127   3.952  1.00 20.00     0.021 C 
HETATM    5  C6  UNL     1     -34.706   6.657   4.340  1.00 20.00     0.055 C 
HETATM    6  C7  UNL     1     -33.037   8.596   3.816  1.00 20.00    -0.047 C 
HETATM    7  C9  UNL     1     -32.387   8.809   5.197  1.00 20.00     0.015 C 
HETATM    8  C10 UNL     1     -33.022   9.957   3.088  1.00 20.00     0.015 C 
ENDROOT
BRANCH   5   9
HETATM    9  C1  UNL     1     -34.566   6.456   5.821  1.00 20.00     0.127 C 
HETATM   10  C8  UNL     1     -34.827   5.069   6.343  1.00 20.00     0.091 C 
HETATM   11  O11 UNL     1     -34.252   7.379   6.571  1.00 20.00    -0.298 OA
ENDBRANCH   5   9
TORSDOF 1
