REMARK  0 active torsions:
REMARK  status: ('A' for Active; 'I' for Inactive)
ROOT
HETATM    1  C1  UNL     1     -33.714   5.742   3.526  1.00 20.00     0.229 C 
HETATM    2  C2  UNL     1     -34.777   5.013   4.322  1.00 20.00     0.104 C 
HETATM    3  C3  UNL     1     -34.273   4.594   5.699  1.00 20.00     0.009 C 
HETATM    4  C4  UNL     1     -34.402   5.689   6.756  1.00 20.00     0.002 C 
HETATM    5  C5  UNL     1     -33.552   6.931   6.491  1.00 20.00     0.021 C 
HETATM    6  C6  UNL     1     -33.907   7.639   5.187  1.00 20.00     0.140 C 
HETATM    7  N7  UNL     1     -33.324   6.977   4.023  1.00 20.00    -0.284 N 
HETATM    8  O8  UNL     1     -33.250   5.223   2.508  1.00 20.00    -0.273 OA
HETATM    9 BR9  UNL     1     -31.913   7.903   3.136  1.00 20.00     0.052 Br
ENDROOT
TORSDOF 0
