REMARK  1 active torsions:
REMARK  status: ('A' for Active; 'I' for Inactive)
REMARK    1  A    between atoms: N5_5  and  N6_6 
ROOT
HETATM    1  C1  UNL     1     -33.295   8.145   4.894  1.00 20.00     0.101 C 
HETATM    2  C2  UNL     1     -32.199   9.164   4.934  1.00 20.00     0.058 C 
HETATM    3  N5  UNL     1     -33.260   7.114   5.672  1.00 20.00    -0.217 NA
ENDROOT
BRANCH   3   4
HETATM    4  N6  UNL     1     -34.328   6.292   5.498  1.00 20.00    -0.217 NA
HETATM    5  C3  UNL     1     -34.713   5.568   6.712  1.00 20.00     0.138 C 
HETATM    6  C4  UNL     1     -34.202   5.333   4.393  1.00 20.00     0.138 C 
ENDBRANCH   3   4
TORSDOF 1
