REMARK  3 active torsions:
REMARK  status: ('A' for Active; 'I' for Inactive)
REMARK    1  A    between atoms: C2_2  and  O8_8 
REMARK    2  A    between atoms: C4_4  and  C6_6 
REMARK    3  A    between atoms: C6_6  and  O8_8 
ROOT
HETATM    1  C6  UNL     1     -34.436   6.215   6.449  1.00 20.00     0.208 C 
ENDROOT
BRANCH   1   2
HETATM    2  C4  UNL     1     -33.516   7.401   6.255  1.00 20.00     0.169 A 
HETATM    3  C3  UNL     1     -33.900   8.547   5.361  1.00 20.00     0.202 A 
HETATM    4  O7  UNL     1     -32.981   7.529   4.934  1.00 20.00    -0.379 OA
ENDBRANCH   1   2
BRANCH   1   5
HETATM    5  O8  UNL     1     -35.037   5.892   5.212  1.00 20.00    -0.361 OA
BRANCH   5   6
HETATM    6  C2  UNL     1     -34.215   5.176   4.388  1.00 20.00     0.130 C 
HETATM    7  C1  UNL     1     -33.841   5.606   3.180  1.00 20.00    -0.007 C 
HETATM    8  C5  UNL     1     -32.945   4.837   2.267  1.00 20.00     0.038 C 
ENDBRANCH   5   6
ENDBRANCH   1   5
TORSDOF 3
