REMARK  1 active torsions:
REMARK  status: ('A' for Active; 'I' for Inactive)
REMARK    1  A    between atoms: C1_1  and  S5_5 
ROOT
HETATM    1  C1  UNL     1     -33.751   5.944   3.961  1.00 20.00     0.041 C 
HETATM    2  C2  UNL     1     -33.296   4.919   2.955  1.00 20.00     0.069 C 
HETATM    3  S4  UNL     1     -33.263   7.542   3.857  1.00 20.00    -0.078 SA
ENDROOT
BRANCH   1   4
HETATM    4  S5  UNL     1     -34.796   5.361   5.251  1.00 20.00    -0.128 SA
HETATM    5  C3  UNL     1     -33.781   5.777   6.687  1.00 20.00     0.096 C 
ENDBRANCH   1   4
TORSDOF 1
