REMARK  1 active torsions:
REMARK  status: ('A' for Active; 'I' for Inactive)
REMARK    1  A    between atoms: C1_1  and  C3_3 
ROOT
HETATM    1  C1  UNL     1     -34.229   6.673   6.190  1.00 20.00     0.181 A 
HETATM    2  C2  UNL     1     -34.746   5.413   5.552  1.00 20.00     0.247 A 
HETATM    3  O4  UNL     1     -33.908   5.378   6.714  1.00 20.00    -0.358 OA
HETATM    4 CL5  UNL     1     -34.122   4.823   4.038  1.00 20.00    -0.092 Cl
ENDROOT
BRANCH   1   5
HETATM    5  C3  UNL     1     -33.057   7.432   5.677  1.00 20.00     0.150 C 
HETATM    6 CL6  UNL     1     -33.504   8.453   4.281  1.00 20.00    -0.128 Cl
ENDBRANCH   1   5
TORSDOF 1
