REMARK  3 active torsions:
REMARK  status: ('A' for Active; 'I' for Inactive)
REMARK    1  A    between atoms: C1_1  and  C2_2 
REMARK    2  A    between atoms: C1_1  and  C3_3 
REMARK    3  A    between atoms: C2_2  and  S8_8 
ROOT
HETATM    1  C1  UNL     1     -33.170   6.397   3.880  1.00 20.00     0.241 C 
HETATM    2  O4  UNL     1     -33.156   5.815   2.796  1.00 20.00    -0.287 OA
ENDROOT
BRANCH   1   3
HETATM    3  C2  UNL     1     -32.178   7.470   4.276  1.00 20.00     0.158 C 
BRANCH   3   4
HETATM    4  S8  UNL     1     -32.739   9.120   3.798  1.00 20.00    -0.174 SA
HETATM    5  H11 UNL     1     -31.677   9.784   4.276  1.00 20.00     0.102 HD
ENDBRANCH   3   4
ENDBRANCH   1   3
BRANCH   1   6
HETATM    6  C3  UNL     1     -34.213   6.062   4.910  1.00 20.00     0.451 C 
HETATM    7  F5  UNL     1     -34.067   6.805   6.035  1.00 20.00    -0.163 F 
HETATM    8  F6  UNL     1     -35.468   6.286   4.447  1.00 20.00    -0.163 F 
HETATM    9  F7  UNL     1     -34.160   4.760   5.289  1.00 20.00    -0.163 F 
ENDBRANCH   1   6
TORSDOF 3
