REMARK  3 active torsions:
REMARK  status: ('A' for Active; 'I' for Inactive)
REMARK    1  A    between atoms: C1_1  and  C7_7 
REMARK    2  A    between atoms: C8_8  and  C10_10 
REMARK    3  A    between atoms: C9_9  and  C11_11 
ROOT
HETATM    1  C2  UNL     1     -32.246   8.574   4.547  1.00 20.00     0.012 C 
HETATM    2  C3  UNL     1     -32.795   7.923   5.861  1.00 20.00     0.006 C 
HETATM    3  C7  UNL     1     -32.933   7.822   3.352  1.00 20.00     0.052 C 
HETATM    4  C10 UNL     1     -34.029   7.260   5.318  1.00 20.00    -0.005 C 
HETATM    5  C11 UNL     1     -33.448   6.595   4.066  1.00 20.00     0.004 C 
ENDROOT
BRANCH   3   6
HETATM    6  C1  UNL     1     -31.941   7.485   2.288  1.00 20.00     0.236 C 
HETATM    7  O12 UNL     1     -31.319   8.329   1.651  1.00 20.00    -0.306 OA
ENDBRANCH   3   6
BRANCH   5   8
HETATM    8  C9  UNL     1     -34.555   5.593   3.700  1.00 20.00    -0.009 C 
HETATM    9  C5  UNL     1     -34.193   4.310   4.492  1.00 20.00     0.005 C 
HETATM   10  C4  UNL     1     -34.302   4.787   5.964  1.00 20.00     0.005 C 
HETATM   11  C8  UNL     1     -34.959   6.177   5.848  1.00 20.00    -0.010 C 
HETATM   12  C6  UNL     1     -35.777   6.010   4.540  1.00 20.00     0.010 C 
ENDBRANCH   5   8
TORSDOF 3
