REMARK  2 active torsions:
REMARK  status: ('A' for Active; 'I' for Inactive)
REMARK    1  A    between atoms: C5_5  and  C6_6 
REMARK    2  A    between atoms: C6_6  and  O7_7 
ROOT
HETATM    1  C1  UNL     1     -33.501   8.844   5.221  1.00 20.00    -0.004 A 
HETATM    2  C2  UNL     1     -32.865   8.440   3.995  1.00 20.00    -0.004 A 
HETATM    3  C3  UNL     1     -33.898   7.759   5.901  1.00 20.00    -0.016 A 
HETATM    4  C4  UNL     1     -32.865   7.103   3.908  1.00 20.00    -0.016 A 
HETATM    5  C5  UNL     1     -33.530   6.517   5.128  1.00 20.00     0.054 A 
ENDROOT
BRANCH   5   6
HETATM    6  C6  UNL     1     -34.749   5.676   4.773  1.00 20.00     0.176 C 
BRANCH   6   7
HETATM    7  O7  UNL     1     -35.113   4.906   5.905  1.00 20.00    -0.400 OA
HETATM    8  H15 UNL     1     -35.891   4.380   5.653  1.00 20.00     0.209 HD
ENDBRANCH   6   7
ENDBRANCH   5   6
TORSDOF 2
