REMARK  1 active torsions:
REMARK  status: ('A' for Active; 'I' for Inactive)
REMARK    1  A    between atoms: C1_1  and  C3_3 
ROOT
HETATM    1  C1  UNL     1     -34.424   6.614   5.486  1.00 20.00     0.181 A 
HETATM    2  C2  UNL     1     -33.141   7.325   5.807  1.00 20.00     0.247 A 
HETATM    3  O4  UNL     1     -34.199   7.216   6.767  1.00 20.00    -0.358 OA
HETATM    4 CL5  UNL     1     -32.808   8.879   5.093  1.00 20.00    -0.092 Cl
ENDROOT
BRANCH   1   5
HETATM    5  C3  UNL     1     -34.503   5.130   5.509  1.00 20.00     0.150 C 
HETATM    6 CL6  UNL     1     -33.846   4.420   4.006  1.00 20.00    -0.128 Cl
ENDBRANCH   1   5
TORSDOF 1
