REMARK  2 active torsions:
REMARK  status: ('A' for Active; 'I' for Inactive)
REMARK    1  A    between atoms: C2_2  and  C6_6 
REMARK    2  A    between atoms: C6_6  and  O7_7 
ROOT
HETATM    1  C4  UNL     1     -33.996   4.106   4.411  1.00 20.00     0.050 C 
HETATM    2  C5  UNL     1     -34.330   5.226   6.639  1.00 20.00     0.050 C 
HETATM    3  C6  UNL     1     -34.425   5.392   5.121  1.00 20.00     0.068 C 
ENDROOT
BRANCH   3   4
HETATM    4  C2  UNL     1     -33.546   6.541   4.675  1.00 20.00     0.005 C 
HETATM    5  C1  UNL     1     -33.951   7.666   4.067  1.00 20.00    -0.032 C 
HETATM    6  C3  UNL     1     -33.026   8.763   3.651  1.00 20.00     0.036 C 
ENDBRANCH   3   4
BRANCH   3   7
HETATM    7  O7  UNL     1     -35.792   5.644   4.789  1.00 20.00    -0.387 OA
HETATM    8  H19 UNL     1     -36.294   4.876   5.100  1.00 20.00     0.211 HD
ENDBRANCH   3   7
TORSDOF 2
