REMARK  0 active torsions:
REMARK  status: ('A' for Active; 'I' for Inactive)
ROOT
HETATM    1  C1  UNL     1     -34.516   4.913   6.118  1.00 20.00    -0.025 A 
HETATM    2  C2  UNL     1     -34.032   6.051   6.644  1.00 20.00     0.003 A 
HETATM    3  C3  UNL     1     -34.978   5.163   4.702  1.00 20.00     0.061 A 
HETATM    4  C4  UNL     1     -34.069   7.183   5.706  1.00 20.00     0.173 A 
HETATM    5  C5  UNL     1     -34.775   6.643   4.477  1.00 20.00     0.158 A 
HETATM    6  O6  UNL     1     -33.434   7.128   4.418  1.00 20.00    -0.371 OA
ENDROOT
TORSDOF 0
