REMARK  0 active torsions:
REMARK  status: ('A' for Active; 'I' for Inactive)
ROOT
HETATM    1  C1  UNL     1     -33.725   5.260   3.711  1.00 20.00     0.029 C 
HETATM    2  C2  UNL     1     -34.710   5.995   4.618  1.00 20.00     0.044 C 
HETATM    3  C3  UNL     1     -32.891   6.254   2.908  1.00 20.00     0.167 C 
HETATM    4  C4  UNL     1     -33.085   7.944   4.567  1.00 20.00     0.207 C 
HETATM    5  C5  UNL     1     -34.553   7.571   6.684  1.00 20.00     0.209 A 
HETATM    6  C6  UNL     1     -33.996   7.073   5.373  1.00 20.00     0.103 A 
HETATM    7  O7  UNL     1     -32.194   7.142   3.785  1.00 20.00    -0.388 OA
HETATM    8  O8  UNL     1     -33.450   6.652   6.630  1.00 20.00    -0.373 OA
ENDROOT
TORSDOF 0
