REMARK  0 active torsions:
REMARK  status: ('A' for Active; 'I' for Inactive)
ROOT
HETATM    1  C1  UNL     1     -33.035   7.535   4.690  1.00 20.00     0.127 C 
HETATM    2  C2  UNL     1     -33.950   7.874   5.852  1.00 20.00     0.082 C 
HETATM    3  C3  UNL     1     -33.521   6.505   3.687  1.00 20.00     0.082 C 
HETATM    4  C4  UNL     1     -33.896   5.495   6.731  1.00 20.00     0.005 C 
HETATM    5  C5  UNL     1     -33.641   4.686   5.452  1.00 20.00     0.005 C 
HETATM    6  C6  UNL     1     -35.542   6.094   5.104  1.00 20.00     0.010 C 
HETATM    7  C7  UNL     1     -34.787   6.669   6.299  1.00 20.00    -0.007 C 
HETATM    8  C8  UNL     1     -34.398   5.431   4.342  1.00 20.00    -0.007 C 
HETATM    9  O9  UNL     1     -31.984   8.151   4.508  1.00 20.00    -0.298 OA
ENDROOT
TORSDOF 0
