REMARK  1 active torsions:
REMARK  status: ('A' for Active; 'I' for Inactive)
REMARK    1  A    between atoms: C9_9  and  O11_11 
ROOT
HETATM    1  C1  UNL     1     -31.619   7.900   3.961  1.00 20.00    -0.025 C 
HETATM    2  C2  UNL     1     -32.195   8.319   5.104  1.00 20.00    -0.025 C 
HETATM    3  C3  UNL     1     -33.225   4.686   3.626  1.00 20.00    -0.022 C 
HETATM    4  C4  UNL     1     -34.055   4.247   4.602  1.00 20.00     0.001 C 
HETATM    5  C5  UNL     1     -33.821   8.406   3.537  1.00 20.00     0.018 C 
HETATM    6  C6  UNL     1     -32.716   7.420   3.041  1.00 20.00     0.017 C 
HETATM    7  C7  UNL     1     -33.686   7.995   5.011  1.00 20.00     0.016 C 
HETATM    8  C8  UNL     1     -33.444   6.146   3.499  1.00 20.00     0.023 C 
HETATM    9  C9  UNL     1     -34.714   5.405   5.360  1.00 20.00     0.146 C 
HETATM   10  C10 UNL     1     -33.683   6.454   5.004  1.00 20.00     0.034 C 
ENDROOT
BRANCH   9  11
HETATM   11  O11 UNL     1     -36.004   5.676   4.855  1.00 20.00    -0.391 OA
HETATM   12  H23 UNL     1     -36.534   4.867   4.965  1.00 20.00     0.210 HD
ENDBRANCH   9  11
TORSDOF 1
