REMARK  0 active torsions:
REMARK  status: ('A' for Active; 'I' for Inactive)
ROOT
HETATM    1  C1  UNL     1     -32.853   8.636   5.110  1.00 20.00     0.064 C 
HETATM    2  C2  UNL     1     -33.638   6.844   6.620  1.00 20.00     0.022 C 
HETATM    3  C3  UNL     1     -34.679   5.742   6.823  1.00 20.00     0.036 C 
HETATM    4  C4  UNL     1     -33.442   6.446   4.137  1.00 20.00     0.053 C 
HETATM    5  C5  UNL     1     -33.758   7.480   5.228  1.00 20.00     0.095 C 
HETATM    6  C6  UNL     1     -34.721   4.780   5.679  1.00 20.00     0.151 A 
HETATM    7  C7  UNL     1     -34.143   5.141   4.336  1.00 20.00     0.152 A 
HETATM    8  N8  UNL     1     -32.140   9.547   5.017  1.00 20.00    -0.197 NA
HETATM    9  O9  UNL     1     -35.548   5.225   4.585  1.00 20.00    -0.375 OA
ENDROOT
TORSDOF 0
