REMARK  2 active torsions:
REMARK  status: ('A' for Active; 'I' for Inactive)
REMARK    1  A    between atoms: C2_2  and  C5_5 
REMARK    2  A    between atoms: C3_3  and  C5_5 
ROOT
HETATM    1  C5  UNL     1     -34.617   6.803   6.323  1.00 20.00     0.123 C 
ENDROOT
BRANCH   1   2
HETATM    2  C2  UNL     1     -33.400   7.608   5.983  1.00 20.00    -0.022 C 
HETATM    3  C1  UNL     1     -33.291   8.367   4.883  1.00 20.00    -0.034 C 
HETATM    4  C4  UNL     1     -32.077   9.166   4.541  1.00 20.00     0.036 C 
ENDBRANCH   1   2
BRANCH   1   5
HETATM    5  C3  UNL     1     -34.922   5.792   5.229  1.00 20.00     0.222 C 
HETATM    6  O6  UNL     1     -35.611   6.046   4.246  1.00 20.00    -0.280 OA
HETATM    7 CL7  UNL     1     -34.147   4.262   5.546  1.00 20.00    -0.043 Cl
ENDBRANCH   1   5
TORSDOF 2
