REMARK  0 active torsions:
REMARK  status: ('A' for Active; 'I' for Inactive)
ROOT
HETATM    1  C1  UNL     1     -33.582   6.190   3.356  1.00 20.00     0.374 C 
HETATM    2  C2  UNL     1     -34.333   5.537   4.520  1.00 20.00     0.398 C 
HETATM    3  C3  UNL     1     -33.290   7.303   4.368  1.00 20.00     0.398 C 
HETATM    4  O4  UNL     1     -33.731   6.460   5.462  1.00 20.00    -0.252 OA
HETATM    5  F5  UNL     1     -32.506   5.515   2.898  1.00 20.00    -0.231 F 
HETATM    6  F6  UNL     1     -34.026   4.249   4.783  1.00 20.00    -0.172 F 
HETATM    7  F7  UNL     1     -35.680   5.633   4.490  1.00 20.00    -0.172 F 
HETATM    8  F8  UNL     1     -34.030   8.427   4.249  1.00 20.00    -0.172 F 
HETATM    9  F9  UNL     1     -31.999   7.680   4.486  1.00 20.00    -0.172 F 
ENDROOT
TORSDOF 0
