REMARK  0 active torsions:
REMARK  status: ('A' for Active; 'I' for Inactive)
ROOT
HETATM    1  C1  UNL     1     -35.253   5.921   4.623  1.00 20.00     0.178 C 
HETATM    2  C2  UNL     1     -34.664   4.713   5.328  1.00 20.00     0.102 C 
HETATM    3  C3  UNL     1     -33.830   7.067   6.038  1.00 20.00     0.241 C 
HETATM    4  O4  UNL     1     -34.292   6.982   4.687  1.00 20.00    -0.381 OA
HETATM    5  S5  UNL     1     -33.912   5.433   6.797  1.00 20.00    -0.141 SA
ENDROOT
TORSDOF 0
