REMARK  3 active torsions:
REMARK  status: ('A' for Active; 'I' for Inactive)
REMARK    1  A    between atoms: C1_1  and  C2_2 
REMARK    2  A    between atoms: C3_3  and  C8_8 
REMARK    3  A    between atoms: C8_8  and  C9_9 
ROOT
HETATM    1  C1  UNL     1     -32.992   8.433   3.285  1.00 20.00     0.043 C 
HETATM    2  C3  UNL     1     -33.364   7.917   4.471  1.00 20.00    -0.080 C 
HETATM    3  C4  UNL     1     -34.041   8.710   5.555  1.00 20.00     0.043 C 
ENDROOT
BRANCH   2   4
HETATM    4  C8  UNL     1     -33.177   6.431   4.733  1.00 20.00     0.042 C 
BRANCH   4   5
HETATM    5  C9  UNL     1     -34.457   5.583   4.986  1.00 20.00    -0.048 C 
HETATM    6  C5  UNL     1     -34.766   5.478   6.489  1.00 20.00     0.015 C 
HETATM    7  C6  UNL     1     -35.683   6.160   4.259  1.00 20.00     0.015 C 
HETATM    8  C7  UNL     1     -34.201   4.162   4.441  1.00 20.00     0.015 C 
ENDBRANCH   4   5
ENDBRANCH   2   4
BRANCH   1   9
HETATM    9  C2  UNL     1     -32.326   7.655   2.218  1.00 20.00     0.259 C 
HETATM   10  O10 UNL     1     -32.483   7.923   1.032  1.00 20.00    -0.302 OA
ENDBRANCH   1   9
TORSDOF 3
