REMARK  5 active torsions:
REMARK  status: ('A' for Active; 'I' for Inactive)
REMARK    1  A    between atoms: C1_1  and  C4_4 
REMARK    2  A    between atoms: C2_2  and  C7_7 
REMARK    3  A    between atoms: C7_7  and  C9_9 
REMARK    4  A    between atoms: C8_8  and  C9_9 
REMARK    5  A    between atoms: C9_9  and  O10_10 
ROOT
HETATM    1  C7  UNL     1     -32.810   6.988   4.324  1.00 20.00     0.126 C 
ENDROOT
BRANCH   1   2
HETATM    2  C2  UNL     1     -32.553   7.461   2.954  1.00 20.00    -0.099 C 
HETATM    3  C1  UNL     1     -32.343   7.848   1.836  1.00 20.00    -0.072 C 
BRANCH   3   4
HETATM    4  C4  UNL     1     -32.093   8.301   0.507  1.00 20.00    -0.018 C 
HETATM    5  C3  UNL     1     -32.904   9.221  -0.036  1.00 20.00     0.028 C 
HETATM    6  C5  UNL     1     -30.927   7.732  -0.247  1.00 20.00     0.057 C 
ENDBRANCH   3   4
ENDBRANCH   1   2
BRANCH   1   7
HETATM    7  C9  UNL     1     -34.185   6.328   4.483  1.00 20.00     0.129 C 
BRANCH   7   8
HETATM    8  C8  UNL     1     -34.661   6.257   5.939  1.00 20.00     0.028 C 
HETATM    9  C6  UNL     1     -33.700   5.465   6.817  1.00 20.00     0.007 C 
ENDBRANCH   7   8
BRANCH   7  10
HETATM   10  O10 UNL     1     -34.159   5.013   3.929  1.00 20.00    -0.395 OA
HETATM   11  H24 UNL     1     -33.933   5.115   2.991  1.00 20.00     0.210 HD
ENDBRANCH   7  10
ENDBRANCH   1   7
TORSDOF 5
