REMARK  4 active torsions:
REMARK  status: ('A' for Active; 'I' for Inactive)
REMARK    1  A    between atoms: C5_5  and  C7_7 
REMARK    2  A    between atoms: C5_5  and  C8_8 
REMARK    3  A    between atoms: C6_6  and  C7_7 
REMARK    4  A    between atoms: C6_6  and  S9_9 
ROOT
HETATM    1  C5  UNL     1     -33.495   6.888   4.508  1.00 20.00     0.013 C 
ENDROOT
BRANCH   1   2
HETATM    2  C7  UNL     1     -33.299   7.337   3.038  1.00 20.00    -0.009 C 
HETATM    3  C1  UNL     1     -32.385   6.420   2.225  1.00 20.00     0.011 C 
BRANCH   2   4
HETATM    4  C6  UNL     1     -32.824   8.808   2.958  1.00 20.00     0.075 C 
BRANCH   4   5
HETATM    5  S9  UNL     1     -32.837   9.553   1.296  1.00 20.00    -0.182 SA
HETATM    6  H27 UNL     1     -32.379  10.751   1.680  1.00 20.00     0.101 HD
ENDBRANCH   4   5
ENDBRANCH   2   4
ENDBRANCH   1   2
BRANCH   1   7
HETATM    7  C8  UNL     1     -34.485   5.727   4.826  1.00 20.00    -0.051 C 
HETATM    8  C2  UNL     1     -35.923   6.058   4.399  1.00 20.00     0.014 C 
HETATM    9  C3  UNL     1     -34.046   4.402   4.180  1.00 20.00     0.014 C 
HETATM   10  C4  UNL     1     -34.474   5.513   6.358  1.00 20.00     0.014 C 
ENDBRANCH   1   7
TORSDOF 4
