REMARK  1 active torsions:
REMARK  status: ('A' for Active; 'I' for Inactive)
REMARK    1  A    between atoms: C2_2  and  C4_4 
ROOT
HETATM    1  C3  UNL     1     -34.683   4.997   6.310  1.00 20.00     0.204 A 
HETATM    2  C4  UNL     1     -34.853   5.112   4.835  1.00 20.00     0.167 A 
HETATM    3  O5  UNL     1     -34.423   6.218   5.609  1.00 20.00    -0.377 OA
ENDROOT
BRANCH   2   4
HETATM    4  C2  UNL     1     -33.898   4.356   3.973  1.00 20.00    -0.003 C 
HETATM    5  C1  UNL     1     -33.175   4.909   2.993  1.00 20.00     0.009 C 
ENDBRANCH   2   4
TORSDOF 1
