REMARK  1 active torsions:
REMARK  status: ('A' for Active; 'I' for Inactive)
REMARK    1  A    between atoms: C3_3  and  C8_8 
ROOT
HETATM    1  C1  UNL     1     -34.320   6.480   6.399  1.00 20.00     0.048 A 
HETATM    2  C2  UNL     1     -34.771   5.147   6.422  1.00 20.00     0.141 A 
HETATM    3  C3  UNL     1     -33.875   6.670   5.114  1.00 20.00     0.039 A 
HETATM    4  C7  UNL     1     -33.770   5.182   3.092  1.00 20.00     0.179 C 
HETATM    5  N9  UNL     1     -34.625   4.533   5.245  1.00 20.00    -0.185 NA
HETATM    6  N10 UNL     1     -34.078   5.485   4.470  1.00 20.00    -0.278 N 
ENDROOT
BRANCH   3   7
HETATM    7  C8  UNL     1     -33.261   7.902   4.430  1.00 20.00    -0.007 C 
HETATM    8  C4  UNL     1     -33.173   9.068   5.439  1.00 20.00     0.021 C 
HETATM    9  C5  UNL     1     -34.145   8.329   3.237  1.00 20.00     0.021 C 
HETATM   10  C6  UNL     1     -31.836   7.667   3.879  1.00 20.00     0.021 C 
ENDBRANCH   3   7
TORSDOF 1
