REMARK  2 active torsions:
REMARK  status: ('A' for Active; 'I' for Inactive)
REMARK    1  A    between atoms: C4_4  and  C5_5 
REMARK    2  A    between atoms: C4_4  and  N6_6 
ROOT
HETATM    1  C1  UNL     1     -34.648   4.807   6.065  1.00 20.00     0.016 C 
HETATM    2  C2  UNL     1     -33.518   5.116   3.855  1.00 20.00     0.016 C 
HETATM    3  C3  UNL     1     -35.840   5.981   4.193  1.00 20.00     0.016 C 
HETATM    4  C5  UNL     1     -34.478   5.762   4.871  1.00 20.00    -0.036 C 
ENDROOT
BRANCH   4   5
HETATM    5  C4  UNL     1     -33.873   7.106   5.328  1.00 20.00     0.154 C 
BRANCH   5   6
HETATM    6  N6  UNL     1     -33.720   8.028   4.198  1.00 20.00    -0.063 NA
HETATM    7  O7  UNL     1     -32.547   8.399   4.037  1.00 20.00    -0.101 OA
ENDBRANCH   5   6
ENDBRANCH   4   5
TORSDOF 2
