REMARK  3 active torsions:
REMARK  status: ('A' for Active; 'I' for Inactive)
REMARK    1  A    between atoms: C3_3  and  C9_9 
REMARK    2  A    between atoms: C8_8  and  C10_10 
REMARK    3  A    between atoms: C9_9  and  C10_10 
ROOT
HETATM    1  C1  UNL     1     -33.455   4.271   5.768  1.00 20.00    -0.026 C 
HETATM    2  C2  UNL     1     -34.069   5.014   6.701  1.00 20.00    -0.025 C 
HETATM    3  C4  UNL     1     -35.479   4.935   4.874  1.00 20.00     0.017 C 
HETATM    4  C5  UNL     1     -33.540   6.087   4.100  1.00 20.00     0.013 C 
HETATM    5  C6  UNL     1     -34.038   4.662   4.431  1.00 20.00     0.009 C 
HETATM    6  C7  UNL     1     -35.056   5.906   5.984  1.00 20.00     0.012 C 
HETATM    7  C8  UNL     1     -34.294   6.967   5.146  1.00 20.00    -0.006 C 
ENDROOT
BRANCH   7   8
HETATM    8  C10 UNL     1     -33.377   7.883   5.943  1.00 20.00     0.012 C 
BRANCH   8   9
HETATM    9  C9  UNL     1     -32.979   9.112   5.135  1.00 20.00     0.070 C 
BRANCH   9  10
HETATM   10  C3  UNL     1     -32.271   8.755   3.849  1.00 20.00     0.231 C 
HETATM   11  O11 UNL     1     -32.648   9.083   2.730  1.00 20.00    -0.307 OA
ENDBRANCH   9  10
ENDBRANCH   8   9
ENDBRANCH   7   8
TORSDOF 3
