REMARK  3 active torsions:
REMARK  status: ('A' for Active; 'I' for Inactive)
REMARK    1  A    between atoms: C3_3  and  C9_9 
REMARK    2  A    between atoms: C8_8  and  C10_10 
REMARK    3  A    between atoms: C9_9  and  C10_10 
ROOT
HETATM    1  C1  UNL     1     -34.229   4.554   5.760  1.00 20.00    -0.026 C 
HETATM    2  C2  UNL     1     -33.938   5.804   6.150  1.00 20.00    -0.025 C 
HETATM    3  C4  UNL     1     -35.651   5.969   4.612  1.00 20.00     0.017 C 
HETATM    4  C5  UNL     1     -33.831   5.079   3.373  1.00 20.00     0.013 C 
HETATM    5  C6  UNL     1     -34.896   4.653   4.408  1.00 20.00     0.009 C 
HETATM    6  C7  UNL     1     -34.397   6.735   5.049  1.00 20.00     0.012 C 
HETATM    7  C8  UNL     1     -33.444   6.517   3.844  1.00 20.00    -0.006 C 
ENDROOT
BRANCH   7   8
HETATM    8  C10 UNL     1     -33.627   7.556   2.744  1.00 20.00     0.012 C 
BRANCH   8   9
HETATM    9  C9  UNL     1     -32.439   7.573   1.793  1.00 20.00     0.070 C 
BRANCH   9  10
HETATM   10  C3  UNL     1     -32.582   8.614   0.709  1.00 20.00     0.231 C 
HETATM   11  O11 UNL     1     -31.773   8.798  -0.194  1.00 20.00    -0.307 OA
ENDBRANCH   9  10
ENDBRANCH   8   9
ENDBRANCH   7   8
TORSDOF 3
