REMARK  2 active torsions:
REMARK  status: ('A' for Active; 'I' for Inactive)
REMARK    1  A    between atoms: C6_6  and  O8_8 
REMARK    2  A    between atoms: N7_7  and  O8_8 
ROOT
HETATM    1  C1  UNL     1     -32.842   4.735   2.276  1.00 20.00     0.014 C 
HETATM    2  C2  UNL     1     -32.601   5.907   2.375  1.00 20.00    -0.089 C 
HETATM    3  C6  UNL     1     -32.305   7.335   2.493  1.00 20.00     0.296 C 
ENDROOT
BRANCH   3   4
HETATM    4  O8  UNL     1     -33.175   7.947   3.432  1.00 20.00    -0.244 OA
BRANCH   4   5
HETATM    5  N7  UNL     1     -32.691   7.675   4.718  1.00 20.00    -0.143 NA
HETATM    6  C3  UNL     1     -33.568   7.024   5.418  1.00 20.00     0.032 C 
HETATM    7  C4  UNL     1     -33.354   6.579   6.844  1.00 20.00     0.067 C 
HETATM    8  C5  UNL     1     -34.890   6.691   4.776  1.00 20.00     0.067 C 
ENDBRANCH   4   5
ENDBRANCH   3   4
TORSDOF 2
