REMARK  4 active torsions:
REMARK  status: ('A' for Active; 'I' for Inactive)
REMARK    1  A    between atoms: C1_1  and  C6_6 
REMARK    2  A    between atoms: C2_2  and  C8_8 
REMARK    3  A    between atoms: C8_8  and  C10_10 
REMARK    4  A    between atoms: C9_9  and  C10_10 
ROOT
HETATM    1  C1  UNL     1     -33.379   7.629   3.770  1.00 20.00    -0.074 C 
HETATM    2  C2  UNL     1     -32.581   8.221   3.096  1.00 20.00    -0.104 C 
ENDROOT
BRANCH   1   3
HETATM    3  C6  UNL     1     -34.352   6.908   4.591  1.00 20.00     0.200 C 
HETATM    4  C4  UNL     1     -34.168   5.400   4.520  1.00 20.00     0.047 C 
HETATM    5  C3  UNL     1     -34.671   4.958   5.872  1.00 20.00     0.030 C 
HETATM    6  C5  UNL     1     -34.174   6.074   6.765  1.00 20.00     0.169 C 
HETATM    7  O11 UNL     1     -34.202   7.272   5.976  1.00 20.00    -0.374 OA
ENDBRANCH   1   3
BRANCH   2   8
HETATM    8  C8  UNL     1     -31.603   8.947   2.273  1.00 20.00     0.094 C 
BRANCH   8   9
HETATM    9  C10 UNL     1     -31.322   8.203   0.968  1.00 20.00     0.012 C 
BRANCH   9  10
HETATM   10  C9  UNL     1     -32.587   8.070   0.120  1.00 20.00    -0.004 C 
HETATM   11  C7  UNL     1     -33.182   9.429  -0.211  1.00 20.00     0.005 C 
ENDBRANCH   9  10
ENDBRANCH   8   9
ENDBRANCH   2   8
TORSDOF 4
