REMARK  0 active torsions:
REMARK  status: ('A' for Active; 'I' for Inactive)
ROOT
HETATM    1  C1  UNL     1     -33.277   6.155   3.089  1.00 20.00     0.145 C 
HETATM    2  C2  UNL     1     -33.809   6.765   5.477  1.00 20.00     0.061 C 
HETATM    3  C3  UNL     1     -32.896   8.572   3.695  1.00 20.00     0.061 C 
HETATM    4  C4  UNL     1     -34.358   6.174   4.174  1.00 20.00     0.103 C 
HETATM    5  C5  UNL     1     -32.253   7.293   3.149  1.00 20.00     0.103 C 
HETATM    6  C6  UNL     1     -35.036   4.809   4.290  1.00 20.00     0.024 C 
HETATM    7  C7  UNL     1     -31.513   7.430   1.818  1.00 20.00     0.024 C 
HETATM    8  O8  UNL     1     -33.234   5.281   2.224  1.00 20.00    -0.296 OA
HETATM    9  S9  UNL     1     -33.549   5.899   6.890  1.00 20.00    -0.076 SA
HETATM   10  S10 UNL     1     -33.185   9.960   2.799  1.00 20.00    -0.076 SA
HETATM   11  S11 UNL     1     -33.393   8.487   5.395  1.00 20.00    -0.074 SA
ENDROOT
TORSDOF 0
