REMARK  3 active torsions:
REMARK  status: ('A' for Active; 'I' for Inactive)
REMARK    1  A    between atoms: C1_1  and  C3_3 
REMARK    2  A    between atoms: C2_2  and  C7_7 
REMARK    3  A    between atoms: C7_7  and  C8_8 
ROOT
HETATM    1  C1  UNL     1     -32.584   8.698   2.018  1.00 20.00     0.045 C 
HETATM    2  C2  UNL     1     -32.466   7.563   2.722  1.00 20.00    -0.023 C 
ENDROOT
BRANCH   2   3
HETATM    3  C7  UNL     1     -32.459   7.521   4.225  1.00 20.00     0.031 C 
BRANCH   3   4
HETATM    4  C8  UNL     1     -33.854   7.272   4.827  1.00 20.00    -0.019 C 
HETATM    5  C5  UNL     1     -34.404   5.932   4.333  1.00 20.00     0.010 C 
HETATM    6  C6  UNL     1     -33.833   7.290   6.358  1.00 20.00     0.010 C 
ENDBRANCH   3   4
ENDBRANCH   2   3
BRANCH   1   7
HETATM    7  C3  UNL     1     -32.580   8.672   0.530  1.00 20.00     0.145 C 
HETATM    8  C4  UNL     1     -31.788   7.572  -0.126  1.00 20.00     0.096 C 
HETATM    9  O9  UNL     1     -33.172   9.515  -0.141  1.00 20.00    -0.294 OA
ENDBRANCH   1   7
TORSDOF 3
