REMARK  2 active torsions:
REMARK  status: ('A' for Active; 'I' for Inactive)
REMARK    1  A    between atoms: C6_6  and  C8_8 
REMARK    2  A    between atoms: C7_7  and  C8_8 
ROOT
HETATM    1  C1  UNL     1     -32.649   7.448   2.030  1.00 20.00     0.075 C 
HETATM    2  C8  UNL     1     -33.321   7.854   3.287  1.00 20.00     0.186 C 
HETATM    3  N9  UNL     1     -32.129   7.114   1.048  1.00 20.00    -0.196 NA
ENDROOT
BRANCH   2   4
HETATM    4  C6  UNL     1     -33.757   6.686   4.104  1.00 20.00    -0.031 A 
HETATM    5  C2  UNL     1     -34.419   6.885   5.311  1.00 20.00     0.028 A 
HETATM    6  C4  UNL     1     -34.804   5.767   6.032  1.00 20.00     0.116 A 
HETATM    7  N10 UNL     1     -34.575   4.495   5.636  1.00 20.00    -0.273 NA
HETATM    8  C5  UNL     1     -33.929   4.340   4.458  1.00 20.00     0.116 A 
HETATM    9  C3  UNL     1     -33.503   5.392   3.663  1.00 20.00     0.028 A 
ENDBRANCH   2   4
BRANCH   2  10
HETATM   10  C7  UNL     1     -32.444   8.810   4.090  1.00 20.00     0.255 C 
HETATM   11  O11 UNL     1     -32.505   8.980   5.304  1.00 20.00    -0.305 OA
ENDBRANCH   2  10
TORSDOF 2
