REMARK  1 active torsions:
REMARK  status: ('A' for Active; 'I' for Inactive)
REMARK    1  A    between atoms: C1_1  and  S12_12 
ROOT
HETATM    1  C1  UNL     1     -32.519   7.961   2.636  1.00 20.00     0.066 C 
HETATM    2  C2  UNL     1     -32.036   6.784   3.417  1.00 20.00     0.074 C 
HETATM    3  C3  UNL     1     -34.383   8.182   5.283  1.00 20.00     0.042 A 
HETATM    4  C4  UNL     1     -32.559   7.047   4.820  1.00 20.00     0.029 A 
HETATM    5  C5  UNL     1     -34.025   6.672   5.241  1.00 20.00    -0.039 A 
HETATM    6  C6  UNL     1     -32.982   8.538   4.747  1.00 20.00     0.056 A 
HETATM    7  C7  UNL     1     -34.075   6.011   6.621  1.00 20.00     0.015 C 
HETATM    8  C8  UNL     1     -34.862   5.886   4.233  1.00 20.00     0.015 C 
HETATM    9  C9  UNL     1     -32.173   9.533   5.553  1.00 20.00     0.041 C 
HETATM   10  N11 UNL     1     -33.042   8.923   3.323  1.00 20.00    -0.276 NA
ENDROOT
BRANCH   1  11
HETATM   11  S12 UNL     1     -32.353   7.984   0.915  1.00 20.00    -0.119 SA
HETATM   12  C10 UNL     1     -33.089   9.597   0.561  1.00 20.00     0.097 C 
ENDBRANCH   1  11
TORSDOF 1
