REMARK  4 active torsions:
REMARK  status: ('A' for Active; 'I' for Inactive)
REMARK    1  A    between atoms: C2_2  and  C6_6 
REMARK    2  A    between atoms: C2_2  and  C7_7 
REMARK    3  A    between atoms: C6_6  and  C8_8 
REMARK    4  A    between atoms: C7_7  and  O10_10 
ROOT
HETATM    1  C1  UNL     1     -33.296   6.439   6.674  1.00 20.00     0.209 A 
HETATM    2  C2  UNL     1     -33.877   6.354   5.283  1.00 20.00     0.104 A 
HETATM    3  O9  UNL     1     -34.713   6.402   6.448  1.00 20.00    -0.373 OA
ENDROOT
BRANCH   2   4
HETATM    4  C6  UNL     1     -33.952   7.610   4.423  1.00 20.00     0.051 C 
BRANCH   4   5
HETATM    5  C8  UNL     1     -32.665   7.965   3.635  1.00 20.00    -0.049 C 
HETATM    6  C3  UNL     1     -31.538   8.235   4.650  1.00 20.00     0.014 C 
HETATM    7  C4  UNL     1     -32.867   9.229   2.783  1.00 20.00     0.014 C 
HETATM    8  C5  UNL     1     -32.233   6.804   2.724  1.00 20.00     0.014 C 
ENDBRANCH   4   5
ENDBRANCH   2   4
BRANCH   2   9
HETATM    9  C7  UNL     1     -33.905   5.039   4.575  1.00 20.00     0.204 C 
BRANCH   9  10
HETATM   10  O10 UNL     1     -34.998   4.258   5.052  1.00 20.00    -0.398 OA
HETATM   11  H26 UNL     1     -34.972   3.420   4.565  1.00 20.00     0.209 HD
ENDBRANCH   9  10
ENDBRANCH   2   9
TORSDOF 4
