REMARK  1 active torsions:
REMARK  status: ('A' for Active; 'I' for Inactive)
REMARK    1  A    between atoms: C3_3  and  C7_7 
ROOT
HETATM    1  C1  UNL     1     -32.553   7.677   2.970  1.00 20.00    -0.082 C 
HETATM    2  C2  UNL     1     -32.714   7.928   4.289  1.00 20.00    -0.081 C 
HETATM    3  C4  UNL     1     -32.900   6.335   2.360  1.00 20.00     0.035 C 
HETATM    4  C5  UNL     1     -33.304   6.901   5.237  1.00 20.00     0.050 C 
HETATM    5  C6  UNL     1     -33.178   5.228   3.376  1.00 20.00     0.021 C 
HETATM    6  C7  UNL     1     -34.024   5.721   4.557  1.00 20.00     0.013 C 
HETATM    7  C8  UNL     1     -32.040   8.673   1.963  1.00 20.00     0.043 C 
HETATM    8  C9  UNL     1     -32.322   9.212   4.973  1.00 20.00     0.043 C 
HETATM    9  C10 UNL     1     -35.442   6.109   4.114  1.00 20.00     0.023 C 
ENDROOT
BRANCH   6  10
HETATM   10  C3  UNL     1     -34.147   4.608   5.567  1.00 20.00     0.240 C 
HETATM   11  O11 UNL     1     -34.747   4.724   6.630  1.00 20.00    -0.306 OA
ENDBRANCH   6  10
TORSDOF 1
