REMARK  0 active torsions:
REMARK  status: ('A' for Active; 'I' for Inactive)
ROOT
HETATM    1  C1  UNL     1     -34.466   4.555   5.340  1.00 20.00     0.028 C 
HETATM    2  C2  UNL     1     -34.600   5.448   6.573  1.00 20.00     0.017 C 
HETATM    3  C3  UNL     1     -34.449   5.380   4.058  1.00 20.00     0.188 C 
HETATM    4  C4  UNL     1     -33.528   6.528   6.596  1.00 20.00     0.140 C 
HETATM    5  O5  UNL     1     -32.436   8.453   5.080  1.00 20.00    -0.229 OA
HETATM    6  O6  UNL     1     -33.401   6.348   4.103  1.00 20.00    -0.296 OA
HETATM    7  S7  UNL     1     -33.656   7.581   5.114  1.00 20.00     0.152 S 
ENDROOT
TORSDOF 0
