REMARK  1 active torsions:
REMARK  status: ('A' for Active; 'I' for Inactive)
REMARK    1  A    between atoms: C7_7  and  C11_11 
ROOT
HETATM    1  C1  UNL     1     -32.447   8.170   1.385  1.00 20.00     0.127 C 
HETATM    2  C2  UNL     1     -33.250   9.140   2.221  1.00 20.00     0.078 C 
HETATM    3  C3  UNL     1     -32.032   6.841   1.971  1.00 20.00     0.079 C 
HETATM    4  C4  UNL     1     -32.902   9.126   3.704  1.00 20.00     0.008 C 
HETATM    5  C5  UNL     1     -33.115   6.163   2.803  1.00 20.00     0.013 C 
HETATM    6  C6  UNL     1     -33.646   8.041   4.481  1.00 20.00     0.006 C 
HETATM    7  C7  UNL     1     -33.120   6.613   4.273  1.00 20.00    -0.007 C 
HETATM    8  O12 UNL     1     -32.135   8.463   0.228  1.00 20.00    -0.298 OA
ENDROOT
BRANCH   7   9
HETATM    9  C11 UNL     1     -33.964   5.641   5.106  1.00 20.00    -0.048 C 
HETATM   10  C8  UNL     1     -33.922   6.059   6.583  1.00 20.00     0.015 C 
HETATM   11  C9  UNL     1     -33.401   4.219   4.962  1.00 20.00     0.015 C 
HETATM   12  C10 UNL     1     -35.417   5.667   4.609  1.00 20.00     0.015 C 
ENDBRANCH   7   9
TORSDOF 1
