REMARK  0 active torsions:
REMARK  status: ('A' for Active; 'I' for Inactive)
ROOT
HETATM    1  C1  UNL     1     -34.550   5.971   5.876  1.00 20.00     0.009 A 
HETATM    2  C2  UNL     1     -34.090   7.222   5.970  1.00 20.00     0.074 A 
HETATM    3  C3  UNL     1     -34.259   5.162   4.726  1.00 20.00     0.043 A 
HETATM    4  C4  UNL     1     -33.518   5.660   3.727  1.00 20.00     0.108 A 
HETATM    5  C5  UNL     1     -33.263   7.801   4.870  1.00 20.00     0.248 A 
HETATM    6  C6  UNL     1     -32.209   7.455   2.653  1.00 20.00     0.160 C 
HETATM    7  N7  UNL     1     -33.012   6.959   3.770  1.00 20.00    -0.309 N 
HETATM    8  O8  UNL     1     -32.859   8.957   4.991  1.00 20.00    -0.268 OA
HETATM    9 CL9  UNL     1     -33.173   4.680   2.349  1.00 20.00    -0.064 Cl
ENDROOT
TORSDOF 0
