REMARK  1 active torsions:
REMARK  status: ('A' for Active; 'I' for Inactive)
REMARK    1  A    between atoms: C6_6  and  C10_10 
ROOT
HETATM    1  C1  UNL     1     -32.270   6.896   2.684  1.00 20.00     0.052 C 
HETATM    2  C2  UNL     1     -32.663   8.043   3.259  1.00 20.00    -0.080 C 
HETATM    3  C3  UNL     1     -33.131   5.690   2.738  1.00 20.00     0.149 C 
HETATM    4  C4  UNL     1     -33.954   8.174   4.028  1.00 20.00     0.039 C 
HETATM    5  C5  UNL     1     -34.498   5.802   3.378  1.00 20.00     0.088 C 
HETATM    6  C6  UNL     1     -34.525   6.832   4.507  1.00 20.00     0.000 C 
HETATM    7  C7  UNL     1     -31.831   9.289   3.161  1.00 20.00     0.043 C 
HETATM    8  O11 UNL     1     -32.749   4.645   2.213  1.00 20.00    -0.293 OA
ENDROOT
BRANCH   6   9
HETATM    9  C10 UNL     1     -33.788   6.316   5.750  1.00 20.00    -0.018 C 
HETATM   10  C8  UNL     1     -33.882   7.330   6.889  1.00 20.00     0.010 C 
HETATM   11  C9  UNL     1     -34.350   4.965   6.186  1.00 20.00     0.010 C 
ENDBRANCH   6   9
TORSDOF 1
