REMARK  2 active torsions:
REMARK  status: ('A' for Active; 'I' for Inactive)
REMARK    1  A    between atoms: C3_3  and  C7_7 
REMARK    2  A    between atoms: C7_7  and  C8_8 
ROOT
HETATM    1  C1  UNL     1     -32.497   8.914   5.257  1.00 20.00     0.088 C 
HETATM    2  C2  UNL     1     -33.635   8.063   5.278  1.00 20.00     0.096 C 
HETATM    3  C3  UNL     1     -33.906   7.139   4.337  1.00 20.00    -0.073 C 
HETATM    4  C4  UNL     1     -32.970   6.959   3.169  1.00 20.00     0.044 C 
HETATM    5  N9  UNL     1     -31.569   9.611   5.248  1.00 20.00    -0.192 NA
ENDROOT
BRANCH   3   6
HETATM    6  C7  UNL     1     -35.098   6.200   4.369  1.00 20.00     0.038 C 
BRANCH   6   7
HETATM    7  C8  UNL     1     -34.828   4.844   5.053  1.00 20.00    -0.019 C 
HETATM    8  C5  UNL     1     -34.404   5.006   6.514  1.00 20.00     0.010 C 
HETATM    9  C6  UNL     1     -33.747   4.080   4.283  1.00 20.00     0.010 C 
ENDBRANCH   6   7
ENDBRANCH   3   6
TORSDOF 2
