REMARK  6 active torsions:
REMARK  status: ('A' for Active; 'I' for Inactive)
REMARK    1  A    between atoms: C1_1  and  C5_5 
REMARK    2  A    between atoms: C1_1  and  C8_8 
REMARK    3  A    between atoms: C6_6  and  O10_10 
REMARK    4  A    between atoms: C7_7  and  O11_11 
REMARK    5  A    between atoms: C8_8  and  O10_10 
REMARK    6  A    between atoms: C8_8  and  O11_11 
ROOT
HETATM    1  C8  UNL     1     -33.067   6.609   3.667  1.00 20.00     0.329 C 
ENDROOT
BRANCH   1   2
HETATM    2  C1  UNL     1     -34.415   5.977   3.992  1.00 20.00     0.181 C 
HETATM    3  O9  UNL     1     -35.409   6.177   3.294  1.00 20.00    -0.293 OA
BRANCH   2   4
HETATM    4  C5  UNL     1     -34.463   5.099   5.234  1.00 20.00     0.079 C 
HETATM    5  C2  UNL     1     -34.786   5.885   6.492  1.00 20.00     0.013 C 
ENDBRANCH   2   4
ENDBRANCH   1   2
BRANCH   1   6
HETATM    6  O10 UNL     1     -33.289   7.318   2.449  1.00 20.00    -0.355 OA
BRANCH   6   7
HETATM    7  C6  UNL     1     -32.076   7.588   1.758  1.00 20.00     0.167 C 
HETATM    8  C3  UNL     1     -32.392   8.340   0.482  1.00 20.00     0.033 C 
ENDBRANCH   6   7
ENDBRANCH   1   6
BRANCH   1   9
HETATM    9  O11 UNL     1     -32.677   7.483   4.717  1.00 20.00    -0.355 OA
BRANCH   9  10
HETATM   10  C7  UNL     1     -33.609   8.537   4.925  1.00 20.00     0.167 C 
HETATM   11  C4  UNL     1     -33.116   9.414   6.056  1.00 20.00     0.033 C 
ENDBRANCH   9  10
ENDBRANCH   1   9
TORSDOF 6
