REMARK  0 active torsions:
REMARK  status: ('A' for Active; 'I' for Inactive)
ROOT
HETATM    1  C1  UNL     1     -33.838   7.104   4.946  1.00 20.00     0.084 C 
HETATM    2  C2  UNL     1     -33.726   4.815   4.037  1.00 20.00     0.048 C 
HETATM    3  C3  UNL     1     -35.937   5.985   4.297  1.00 20.00     0.048 C 
HETATM    4  C4  UNL     1     -34.532   5.808   4.872  1.00 20.00     0.118 C 
HETATM    5  N5  UNL     1     -33.290   8.126   5.000  1.00 20.00    -0.195 NA
HETATM    6 CL6  UNL     1     -34.665   5.185   6.548  1.00 20.00    -0.104 Cl
ENDROOT
TORSDOF 0
