REMARK  0 active torsions:
REMARK  status: ('A' for Active; 'I' for Inactive)
ROOT
HETATM    1  C1  UNL     1     -33.010   7.278   5.064  1.00 20.00     0.062 C 
HETATM    2  C2  UNL     1     -34.105   5.292   6.124  1.00 20.00     0.113 C 
HETATM    3  C3  UNL     1     -34.271   5.437   4.604  1.00 20.00     0.056 C 
HETATM    4  C4  UNL     1     -32.119   8.459   4.879  1.00 20.00     0.078 C 
HETATM    5  C5  UNL     1     -33.917   4.121   3.904  1.00 20.00     0.041 C 
HETATM    6  C6  UNL     1     -35.700   5.848   4.219  1.00 20.00     0.041 C 
HETATM    7  N7  UNL     1     -33.337   6.477   4.105  1.00 20.00    -0.277 NA
HETATM    8  S8  UNL     1     -33.605   6.940   6.666  1.00 20.00    -0.113 SA
ENDROOT
TORSDOF 0
