REMARK  0 active torsions:
REMARK  status: ('A' for Active; 'I' for Inactive)
ROOT
HETATM    1  C1  UNL     1     -33.629   6.963   4.997  1.00 20.00     0.149 C 
HETATM    2  C2  UNL     1     -33.022   7.581   3.752  1.00 20.00     0.080 C 
HETATM    3  C3  UNL     1     -32.273   6.545   2.930  1.00 20.00     0.007 C 
HETATM    4  C4  UNL     1     -33.147   5.337   2.616  1.00 20.00     0.003 C 
HETATM    5  C5  UNL     1     -33.657   4.690   3.905  1.00 20.00     0.033 C 
HETATM    6  C6  UNL     1     -34.414   5.661   4.824  1.00 20.00     0.093 C 
HETATM    7  C7  UNL     1     -34.692   4.996   6.174  1.00 20.00     0.041 C 
HETATM    8  O8  UNL     1     -33.558   7.548   6.079  1.00 20.00    -0.296 OA
HETATM    9 CL9  UNL     1     -35.986   6.127   4.094  1.00 20.00    -0.111 Cl
ENDROOT
TORSDOF 0
