REMARK  0 active torsions:
REMARK  status: ('A' for Active; 'I' for Inactive)
ROOT
HETATM    1  C1  UNL     1     -32.891   7.113   3.410  1.00 20.00     0.061 C 
HETATM    2  C2  UNL     1     -33.432   7.281   5.844  1.00 20.00     0.107 C 
HETATM    3  C3  UNL     1     -34.153   6.196   5.047  1.00 20.00     0.114 C 
HETATM    4  C4  UNL     1     -32.159   7.303   2.126  1.00 20.00     0.078 C 
HETATM    5  C5  UNL     1     -34.158   4.866   5.787  1.00 20.00     0.035 C 
HETATM    6  N6  UNL     1     -33.480   6.010   3.740  1.00 20.00    -0.282 NA
HETATM    7  S7  UNL     1     -32.907   8.428   4.555  1.00 20.00    -0.113 SA
ENDROOT
TORSDOF 0
