REMARK  0 active torsions:
REMARK  status: ('A' for Active; 'I' for Inactive)
ROOT
HETATM    1  C1  UNL     1     -33.729   5.649   4.483  1.00 20.00     0.021 A 
HETATM    2  C2  UNL     1     -32.954   5.753   3.387  1.00 20.00     0.004 A 
HETATM    3  C3  UNL     1     -32.952   7.850   4.797  1.00 20.00     0.145 A 
HETATM    4  C4  UNL     1     -34.535   4.453   4.888  1.00 20.00     0.069 C 
HETATM    5  C5  UNL     1     -32.689   4.752   2.314  1.00 20.00     0.058 C 
HETATM    6  C6  UNL     1     -34.535   6.855   6.506  1.00 20.00     0.157 C 
HETATM    7  N7  UNL     1     -33.742   6.801   5.279  1.00 20.00    -0.340 N 
HETATM    8  S8  UNL     1     -32.697   9.369   5.439  1.00 20.00    -0.052 SA
HETATM    9  S9  UNL     1     -32.188   7.318   3.290  1.00 20.00    -0.063 SA
ENDROOT
TORSDOF 0
