REMARK  3 active torsions:
REMARK  status: ('A' for Active; 'I' for Inactive)
REMARK    1  A    between atoms: C3_3  and  C9_9 
REMARK    2  A    between atoms: C8_8  and  O11_11 
REMARK    3  A    between atoms: N10_10  and  O11_11 
ROOT
HETATM    1  C1  UNL     1     -32.706   8.547  -0.010  1.00 20.00     0.014 C 
HETATM    2  C2  UNL     1     -32.826   8.835   1.149  1.00 20.00    -0.089 C 
HETATM    3  C8  UNL     1     -32.974   9.189   2.561  1.00 20.00     0.296 C 
ENDROOT
BRANCH   3   4
HETATM    4  O11 UNL     1     -32.326   8.232   3.384  1.00 20.00    -0.244 OA
BRANCH   4   5
HETATM    5  N10 UNL     1     -33.169   7.121   3.507  1.00 20.00    -0.142 NA
HETATM    6  C3  UNL     1     -33.489   6.899   4.749  1.00 20.00     0.043 C 
HETATM    7  C4  UNL     1     -32.980   7.771   5.882  1.00 20.00     0.069 C 
BRANCH   6   8
HETATM    8  C9  UNL     1     -34.413   5.705   5.083  1.00 20.00    -0.009 C 
HETATM    9  C5  UNL     1     -34.640   5.645   6.600  1.00 20.00     0.021 C 
HETATM   10  C6  UNL     1     -33.766   4.405   4.584  1.00 20.00     0.021 C 
HETATM   11  C7  UNL     1     -35.784   5.855   4.396  1.00 20.00     0.021 C 
ENDBRANCH   6   8
ENDBRANCH   4   5
ENDBRANCH   3   4
TORSDOF 3
