REMARK  1 active torsions:
REMARK  status: ('A' for Active; 'I' for Inactive)
REMARK    1  A    between atoms: C1_1  and  C7_7 
ROOT
HETATM    1  C2  UNL     1     -34.107   4.959   5.902  1.00 20.00     0.001 C 
HETATM    2  C3  UNL     1     -32.236   6.906   2.962  1.00 20.00     0.016 C 
HETATM    3  C4  UNL     1     -34.470   4.405   4.531  1.00 20.00     0.005 C 
HETATM    4  C5  UNL     1     -34.534   6.418   5.812  1.00 20.00     0.006 C 
HETATM    5  C6  UNL     1     -32.681   5.455   3.029  1.00 20.00     0.006 C 
HETATM    6  C7  UNL     1     -32.807   7.495   4.246  1.00 20.00     0.091 C 
HETATM    7  C8  UNL     1     -34.113   5.530   3.563  1.00 20.00    -0.010 C 
HETATM    8  C9  UNL     1     -34.188   6.839   4.381  1.00 20.00     0.004 C 
ENDROOT
BRANCH   6   9
HETATM    9  C1  UNL     1     -32.909   8.983   4.142  1.00 20.00     0.177 C 
HETATM   10  O10 UNL     1     -33.628   9.410   3.197  1.00 20.00    -0.648 OA
HETATM   11  O11 UNL     1     -32.259   9.621   5.018  1.00 20.00    -0.648 OA
ENDBRANCH   6   9
TORSDOF 1
