REMARK  3 active torsions:
REMARK  status: ('A' for Active; 'I' for Inactive)
REMARK    1  A    between atoms: C3_3  and  C8_8 
REMARK    2  A    between atoms: C6_6  and  C7_7 
REMARK    3  A    between atoms: C7_7  and  C8_8 
ROOT
HETATM    1  C1  UNL     1     -34.316   5.737   5.998  1.00 20.00     0.197 C 
HETATM    2  C2  UNL     1     -34.544   5.126   4.642  1.00 20.00     0.197 C 
HETATM    3  C3  UNL     1     -34.179   7.339   4.402  1.00 20.00     0.263 C 
HETATM    4  O9  UNL     1     -34.533   7.130   5.775  1.00 20.00    -0.359 OA
HETATM    5  O10 UNL     1     -33.959   6.078   3.756  1.00 20.00    -0.359 OA
ENDROOT
BRANCH   3   6
HETATM    6  C8  UNL     1     -32.917   8.177   4.314  1.00 20.00     0.037 C 
HETATM    7  C5  UNL     1     -32.952   9.273   5.379  1.00 20.00     0.015 C 
BRANCH   6   8
HETATM    8  C7  UNL     1     -32.765   8.744   2.891  1.00 20.00     0.009 C 
BRANCH   8   9
HETATM    9  C6  UNL     1     -32.255   7.717   1.877  1.00 20.00    -0.004 C 
HETATM   10  C4  UNL     1     -32.191   8.307   0.475  1.00 20.00     0.005 C 
ENDBRANCH   8   9
ENDBRANCH   6   8
ENDBRANCH   3   6
TORSDOF 3
