REMARK  2 active torsions:
REMARK  status: ('A' for Active; 'I' for Inactive)
REMARK    1  A    between atoms: C2_2  and  C3_3 
REMARK    2  A    between atoms: C3_3  and  N4_4 
ROOT
HETATM    1  C1  UNL     1     -33.283   5.848   3.679  1.00 20.00     0.055 C 
HETATM    2  C3  UNL     1     -34.096   6.676   4.681  1.00 20.00     0.145 C 
HETATM    3 CL7  UNL     1     -35.843   6.318   4.391  1.00 20.00    -0.097 Cl
ENDROOT
BRANCH   2   4
HETATM    4  C2  UNL     1     -33.788   6.313   6.142  1.00 20.00     0.160 C 
HETATM    5 CL6  UNL     1     -34.146   4.608   6.537  1.00 20.00    -0.127 Cl
ENDBRANCH   2   4
BRANCH   2   6
HETATM    6  N4  UNL     1     -33.943   8.166   4.492  1.00 20.00    -0.036 NA
HETATM    7  O5  UNL     1     -32.847   8.509   4.035  1.00 20.00    -0.099 OA
ENDBRANCH   2   6
TORSDOF 2
