REMARK  1 active torsions:
REMARK  status: ('A' for Active; 'I' for Inactive)
REMARK    1  A    between atoms: C6_6  and  O11_11 
ROOT
HETATM    1  C1  UNL     1     -34.483   6.008   3.866  1.00 20.00     0.011 A 
HETATM    2  C2  UNL     1     -35.103   5.326   4.916  1.00 20.00     0.037 A 
HETATM    3  C3  UNL     1     -34.136   6.854   6.541  1.00 20.00     0.044 A 
HETATM    4  C4  UNL     1     -33.683   7.100   4.167  1.00 20.00    -0.048 A 
HETATM    5  C5  UNL     1     -33.515   7.517   5.495  1.00 20.00    -0.049 A 
HETATM    6  C6  UNL     1     -34.930   5.746   6.244  1.00 20.00     0.066 A 
HETATM    7  C7  UNL     1     -32.653   8.738   5.569  1.00 20.00     0.040 C 
HETATM    8  C8  UNL     1     -31.955   8.688   4.203  1.00 20.00     0.014 C 
HETATM    9  C9  UNL     1     -32.949   8.018   3.230  1.00 20.00     0.015 C 
HETATM   10  C10 UNL     1     -32.244   7.331   2.071  1.00 20.00     0.015 C 
ENDROOT
BRANCH   6  11
HETATM   11  O11 UNL     1     -35.551   5.069   7.250  1.00 20.00    -0.361 OA
HETATM   12  H23 UNL     1     -36.068   4.332   6.889  1.00 20.00     0.217 HD
ENDBRANCH   6  11
TORSDOF 1
