REMARK  3 active torsions:
REMARK  status: ('A' for Active; 'I' for Inactive)
REMARK    1  A    between atoms: C4_4  and  C11_11 
REMARK    2  A    between atoms: C5_5  and  C9_9 
REMARK    3  A    between atoms: C8_8  and  C11_11 
ROOT
HETATM    1  C1  UNL     1     -34.925   5.485   5.741  1.00 20.00    -0.030 C 
HETATM    2  C2  UNL     1     -34.812   5.821   4.448  1.00 20.00    -0.025 C 
HETATM    3  C6  UNL     1     -34.008   6.000   6.806  1.00 20.00     0.027 C 
HETATM    4  C7  UNL     1     -33.186   7.205   6.347  1.00 20.00     0.016 C 
HETATM    5  C8  UNL     1     -33.727   6.723   3.911  1.00 20.00     0.025 C 
HETATM    6  C9  UNL     1     -32.610   6.982   4.946  1.00 20.00     0.055 C 
ENDROOT
BRANCH   5   7
HETATM    7  C11 UNL     1     -33.141   6.122   2.628  1.00 20.00     0.011 C 
HETATM    8  C10 UNL     1     -32.590   4.724   2.898  1.00 20.00     0.015 C 
BRANCH   7   9
HETATM    9  C4  UNL     1     -32.059   7.017   2.086  1.00 20.00    -0.032 C 
HETATM   10  C3  UNL     1     -32.109   7.606   0.886  1.00 20.00     0.007 C 
ENDBRANCH   7   9
ENDBRANCH   5   7
BRANCH   6  11
HETATM   11  C5  UNL     1     -31.810   8.193   4.567  1.00 20.00     0.236 C 
HETATM   12  O12 UNL     1     -32.274   9.141   3.943  1.00 20.00    -0.306 OA
ENDBRANCH   6  11
TORSDOF 3
