REMARK  0 active torsions:
REMARK  status: ('A' for Active; 'I' for Inactive)
ROOT
HETATM    1  C1  UNL     1     -33.454   6.402   4.172  1.00 20.00    -0.002 A 
HETATM    2  C2  UNL     1     -33.358   7.641   4.683  1.00 20.00    -0.064 A 
HETATM    3  C3  UNL     1     -34.126   5.469   5.105  1.00 20.00     0.215 A 
HETATM    4  C4  UNL     1     -33.920   7.871   6.054  1.00 20.00     0.117 A 
HETATM    5  C5  UNL     1     -32.995   5.878   2.855  1.00 20.00     0.053 C 
HETATM    6  C6  UNL     1     -32.741   8.832   4.017  1.00 20.00     0.045 C 
HETATM    7  O7  UNL     1     -34.339   4.288   4.882  1.00 20.00    -0.280 OA
HETATM    8  S8  UNL     1     -34.583   6.276   6.589  1.00 20.00    -0.083 SA
ENDROOT
TORSDOF 0
