REMARK  2 active torsions:
REMARK  status: ('A' for Active; 'I' for Inactive)
REMARK    1  A    between atoms: C1_1  and  C5_5 
REMARK    2  A    between atoms: C2_2  and  C6_6 
ROOT
HETATM    1  C1  UNL     1     -33.084   7.506   4.585  1.00 20.00    -0.063 C 
HETATM    2  C2  UNL     1     -33.628   6.477   4.882  1.00 20.00    -0.063 C 
ENDROOT
BRANCH   1   3
HETATM    3  C5  UNL     1     -32.436   8.733   4.232  1.00 20.00     0.141 A 
HETATM    4  C3  UNL     1     -32.491   9.200   2.797  1.00 20.00     0.221 A 
HETATM    5  O9  UNL     1     -31.333   8.545   3.333  1.00 20.00    -0.362 OA
HETATM    6  C7  UNL     1     -32.162   9.718   5.320  1.00 20.00     0.063 C 
ENDBRANCH   1   3
BRANCH   2   7
HETATM    7  C6  UNL     1     -34.290   5.225   5.244  1.00 20.00     0.141 A 
HETATM    8  C4  UNL     1     -35.374   5.278   6.273  1.00 20.00     0.221 A 
HETATM    9  O10 UNL     1     -34.040   4.866   6.598  1.00 20.00    -0.362 OA
HETATM   10  C8  UNL     1     -34.199   4.114   4.271  1.00 20.00     0.063 C 
ENDBRANCH   2   7
TORSDOF 2
