REMARK  0 active torsions:
REMARK  status: ('A' for Active; 'I' for Inactive)
ROOT
HETATM    1  C1  UNL     1     -33.086   4.660   2.834  1.00 20.00     0.002 A 
HETATM    2  C2  UNL     1     -33.752   4.709   4.063  1.00 20.00     0.016 A 
HETATM    3  C3  UNL     1     -32.490   5.813   2.281  1.00 20.00     0.007 A 
HETATM    4  C4  UNL     1     -33.831   5.936   4.685  1.00 20.00     0.017 A 
HETATM    5  C5  UNL     1     -32.585   7.047   2.934  1.00 20.00    -0.051 A 
HETATM    6  C6  UNL     1     -33.302   7.083   4.118  1.00 20.00    -0.033 A 
HETATM    7  C7  UNL     1     -34.304   6.302   6.016  1.00 20.00     0.160 C 
HETATM    8  C8  UNL     1     -31.842   8.274   2.479  1.00 20.00     0.039 C 
HETATM    9  C9  UNL     1     -33.885   7.734   6.313  1.00 20.00     0.093 C 
HETATM   10  C10 UNL     1     -32.163   9.547   3.292  1.00 20.00     0.005 C 
HETATM   11  C11 UNL     1     -32.401   9.271   4.790  1.00 20.00     0.010 C 
HETATM   12  C12 UNL     1     -33.576   8.312   4.924  1.00 20.00     0.027 C 
HETATM   13  O13 UNL     1     -34.880   5.543   6.773  1.00 20.00    -0.292 OA
ENDROOT
TORSDOF 0
