REMARK  4 active torsions:
REMARK  status: ('A' for Active; 'I' for Inactive)
REMARK    1  A    between atoms: C2_2  and  C7_7 
REMARK    2  A    between atoms: C7_7  and  C9_9 
REMARK    3  A    between atoms: C8_8  and  C9_9 
REMARK    4  A    between atoms: C9_9  and  O10_10 
ROOT
HETATM    1  C6  UNL     1     -34.196   9.065   4.871  1.00 20.00     0.047 C 
HETATM    2  C9  UNL     1     -33.379   7.791   4.581  1.00 20.00     0.064 C 
ENDROOT
BRANCH   2   3
HETATM    3  C7  UNL     1     -32.698   7.883   3.167  1.00 20.00     0.037 C 
HETATM    4  C3  UNL     1     -31.400   7.069   3.046  1.00 20.00     0.017 C 
BRANCH   3   5
HETATM    5  C2  UNL     1     -32.369   9.309   2.773  1.00 20.00    -0.030 C 
HETATM    6  C1  UNL     1     -32.864   9.923   1.692  1.00 20.00     0.007 C 
ENDBRANCH   3   5
ENDBRANCH   2   3
BRANCH   2   7
HETATM    7  C8  UNL     1     -34.257   6.499   4.746  1.00 20.00     0.012 C 
HETATM    8  C4  UNL     1     -33.517   5.207   4.359  1.00 20.00     0.012 C 
HETATM    9  C5  UNL     1     -34.854   6.326   6.147  1.00 20.00     0.012 C 
ENDBRANCH   2   7
BRANCH   2  10
HETATM   10  O10 UNL     1     -32.347   7.717   5.578  1.00 20.00    -0.389 OA
HETATM   11  H28 UNL     1     -32.804   7.675   6.429  1.00 20.00     0.210 HD
ENDBRANCH   2  10
TORSDOF 4
