REMARK  1 active torsions:
REMARK  status: ('A' for Active; 'I' for Inactive)
REMARK    1  A    between atoms: C2_2  and  O3_3 
ROOT
HETATM    1  C2  UNL     1     -34.197   5.691   4.508  1.00 20.00     0.524 C 
HETATM    2  F4  UNL     1     -33.738   4.590   3.876  1.00 20.00    -0.144 F 
HETATM    3  F5  UNL     1     -35.510   5.831   4.225  1.00 20.00    -0.144 F 
HETATM    4  F6  UNL     1     -33.525   6.764   4.042  1.00 20.00    -0.144 F 
ENDROOT
BRANCH   1   5
HETATM    5  O3  UNL     1     -33.998   5.542   5.903  1.00 20.00    -0.303 OA
HETATM    6  C1  UNL     1     -34.460   6.668   6.635  1.00 20.00     0.211 C 
ENDBRANCH   1   5
TORSDOF 1
