REMARK  0 active torsions:
REMARK  status: ('A' for Active; 'I' for Inactive)
ROOT
HETATM    1  C1  UNL     1     -33.966   5.762   4.750  1.00 20.00    -0.014 A 
HETATM    2  C2  UNL     1     -33.180   6.249   3.779  1.00 20.00    -0.070 A 
HETATM    3  C3  UNL     1     -33.786   6.665   5.903  1.00 20.00     0.156 A 
HETATM    4  C4  UNL     1     -32.779   7.739   5.622  1.00 20.00     0.092 A 
HETATM    5  C5  UNL     1     -32.424   7.504   4.152  1.00 20.00     0.018 A 
HETATM    6  C6  UNL     1     -34.868   4.588   4.805  1.00 20.00     0.052 C 
HETATM    7  C7  UNL     1     -32.980   5.661   2.420  1.00 20.00     0.044 C 
HETATM    8  C8  UNL     1     -32.806   8.703   3.287  1.00 20.00     0.015 C 
HETATM    9  O9  UNL     1     -34.377   6.532   6.965  1.00 20.00    -0.293 OA
ENDROOT
TORSDOF 0
