REMARK  1 active torsions:
REMARK  status: ('A' for Active; 'I' for Inactive)
REMARK    1  A    between atoms: C4_4  and  C11_11 
ROOT
HETATM    1  C1  UNL     1     -32.551   6.729   2.429  1.00 20.00     0.053 C 
HETATM    2  C2  UNL     1     -32.692   7.953   2.951  1.00 20.00    -0.072 C 
HETATM    3  C3  UNL     1     -33.286   5.817   3.311  1.00 20.00     0.155 C 
HETATM    4  C4  UNL     1     -34.082   6.573   4.347  1.00 20.00     0.075 C 
HETATM    5  C5  UNL     1     -33.480   8.006   4.254  1.00 20.00    -0.013 C 
HETATM    6  C6  UNL     1     -32.095   9.180   2.342  1.00 20.00     0.044 C 
HETATM    7  C7  UNL     1     -34.618   9.037   4.194  1.00 20.00     0.020 C 
HETATM    8  C8  UNL     1     -32.537   8.362   5.417  1.00 20.00     0.020 C 
HETATM    9  O12 UNL     1     -33.272   4.604   3.169  1.00 20.00    -0.293 OA
ENDROOT
BRANCH   4  10
HETATM   10  C11 UNL     1     -34.043   5.886   5.703  1.00 20.00    -0.010 C 
HETATM   11  C9  UNL     1     -35.184   6.378   6.594  1.00 20.00     0.010 C 
HETATM   12  C10 UNL     1     -34.109   4.366   5.545  1.00 20.00     0.010 C 
ENDBRANCH   4  10
TORSDOF 1
