REMARK  2 active torsions:
REMARK  status: ('A' for Active; 'I' for Inactive)
REMARK    1  A    between atoms: C3_3  and  C6_6 
REMARK    2  A    between atoms: C6_6  and  C7_7 
ROOT
HETATM    1  C1  UNL     1     -33.135   8.929   6.033  1.00 20.00     0.281 C 
HETATM    2  C2  UNL     1     -32.539   9.561   4.785  1.00 20.00     0.106 C 
HETATM    3  C3  UNL     1     -33.288   7.038   4.618  1.00 20.00     0.282 C 
HETATM    4  N8  UNL     1     -32.902   7.478   5.968  1.00 20.00     0.098 N 
HETATM    5  S9  UNL     1     -32.981   8.411   3.464  1.00 20.00    -0.132 SA
HETATM    6  H24 UNL     1     -31.923   7.264   6.145  1.00 20.00     0.317 HD
ENDROOT
BRANCH   3   7
HETATM    7  C6  UNL     1     -34.756   6.627   4.577  1.00 20.00     0.050 C 
BRANCH   7   8
HETATM    8  C7  UNL     1     -35.008   5.197   5.088  1.00 20.00    -0.020 C 
HETATM    9  C4  UNL     1     -34.259   4.145   4.269  1.00 20.00     0.009 C 
HETATM   10  C5  UNL     1     -34.603   5.092   6.560  1.00 20.00     0.009 C 
ENDBRANCH   7   8
ENDBRANCH   3   7
TORSDOF 2
