REMARK  3 active torsions:
REMARK  status: ('A' for Active; 'I' for Inactive)
REMARK    1  A    between atoms: C3_3  and  C10_10 
REMARK    2  A    between atoms: C7_7  and  C11_11 
REMARK    3  A    between atoms: C10_10  and  C11_11 
ROOT
HETATM    1  C1  UNL     1     -32.341   7.121   1.577  1.00 20.00    -0.024 C 
HETATM    2  C2  UNL     1     -32.597   8.310   1.005  1.00 20.00    -0.087 C 
HETATM    3  C4  UNL     1     -32.416   6.874   3.055  1.00 20.00     0.032 C 
HETATM    4  C5  UNL     1     -32.955   9.526   1.822  1.00 20.00     0.034 C 
HETATM    5  C6  UNL     1     -32.689   9.362   3.322  1.00 20.00     0.009 C 
HETATM    6  C7  UNL     1     -33.149   7.988   3.819  1.00 20.00    -0.007 C 
HETATM    7  C8  UNL     1     -32.544   8.504  -0.481  1.00 20.00     0.043 C 
ENDROOT
BRANCH   6   8
HETATM    8  C11 UNL     1     -32.935   7.846   5.324  1.00 20.00    -0.008 C 
HETATM    9  C9  UNL     1     -33.626   9.000   6.057  1.00 20.00     0.011 C 
BRANCH   8  10
HETATM   10  C10 UNL     1     -33.456   6.485   5.806  1.00 20.00     0.074 C 
BRANCH  10  11
HETATM   11  C3  UNL     1     -34.771   6.072   5.185  1.00 20.00     0.231 C 
HETATM   12  O12 UNL     1     -34.960   5.031   4.564  1.00 20.00    -0.307 OA
ENDBRANCH  10  11
ENDBRANCH   8  10
ENDBRANCH   6   8
TORSDOF 3
