REMARK  2 active torsions:
REMARK  status: ('A' for Active; 'I' for Inactive)
REMARK    1  A    between atoms: C3_3  and  C6_6 
REMARK    2  A    between atoms: C6_6  and  C7_7 
ROOT
HETATM    1  C1  UNL     1     -35.163   5.648   5.003  1.00 20.00     0.281 C 
HETATM    2  C2  UNL     1     -34.951   6.103   6.439  1.00 20.00     0.106 C 
HETATM    3  C3  UNL     1     -33.804   7.508   4.527  1.00 20.00     0.282 C 
HETATM    4  N8  UNL     1     -34.003   6.085   4.215  1.00 20.00     0.098 N 
HETATM    5  S9  UNL     1     -34.276   7.769   6.266  1.00 20.00    -0.132 SA
HETATM    6  H24 UNL     1     -33.187   5.560   4.532  1.00 20.00     0.317 HD
ENDROOT
BRANCH   3   7
HETATM    7  C6  UNL     1     -32.360   7.926   4.291  1.00 20.00     0.050 C 
BRANCH   7   8
HETATM    8  C7  UNL     1     -32.038   8.219   2.815  1.00 20.00    -0.020 C 
HETATM    9  C4  UNL     1     -32.269   7.004   1.916  1.00 20.00     0.009 C 
HETATM   10  C5  UNL     1     -32.883   9.396   2.322  1.00 20.00     0.009 C 
ENDBRANCH   7   8
ENDBRANCH   3   7
TORSDOF 2
