REMARK  2 active torsions:
REMARK  status: ('A' for Active; 'I' for Inactive)
REMARK    1  A    between atoms: C1_1  and  C5_5 
REMARK    2  A    between atoms: C2_2  and  C6_6 
ROOT
HETATM    1  C1  UNL     1     -33.750   6.556   4.537  1.00 20.00    -0.063 C 
HETATM    2  C2  UNL     1     -33.229   7.299   3.751  1.00 20.00    -0.063 C 
ENDROOT
BRANCH   1   3
HETATM    3  C5  UNL     1     -34.373   5.670   5.474  1.00 20.00     0.141 A 
HETATM    4  C3  UNL     1     -35.788   5.212   5.217  1.00 20.00     0.221 A 
HETATM    5  O9  UNL     1     -34.660   4.379   4.919  1.00 20.00    -0.362 OA
HETATM    6  C7  UNL     1     -33.818   5.616   6.860  1.00 20.00     0.063 C 
ENDBRANCH   1   3
BRANCH   2   7
HETATM    7  C6  UNL     1     -32.593   8.204   2.795  1.00 20.00     0.141 A 
HETATM    8  C4  UNL     1     -33.056   9.625   2.762  1.00 20.00     0.221 A 
HETATM    9  O10 UNL     1     -31.860   9.234   3.448  1.00 20.00    -0.362 OA
HETATM   10  C8  UNL     1     -31.913   7.583   1.637  1.00 20.00     0.063 C 
ENDBRANCH   2   7
TORSDOF 2
