REMARK  0 active torsions:
REMARK  status: ('A' for Active; 'I' for Inactive)
ROOT
HETATM    1  C1  UNL     1     -33.001   8.470   0.736  1.00 20.00     0.095 C 
HETATM    2  C2  UNL     1     -34.355   6.073   5.793  1.00 20.00     0.095 C 
HETATM    3  C3  UNL     1     -33.167   9.113   3.066  1.00 20.00    -0.007 C 
HETATM    4  C4  UNL     1     -34.014   5.393   3.494  1.00 20.00    -0.007 C 
HETATM    5  C5  UNL     1     -32.880   8.210   2.123  1.00 20.00     0.024 C 
HETATM    6  C6  UNL     1     -33.712   6.174   4.536  1.00 20.00     0.024 C 
HETATM    7  C7  UNL     1     -32.894   8.603   4.441  1.00 20.00     0.039 C 
HETATM    8  C8  UNL     1     -33.146   5.666   2.311  1.00 20.00     0.039 C 
HETATM    9  C9  UNL     1     -32.361   6.925   2.707  1.00 20.00     0.042 C 
HETATM   10  C10 UNL     1     -32.579   7.115   4.231  1.00 20.00     0.042 C 
HETATM   11  N11 UNL     1     -33.101   8.683  -0.400  1.00 20.00    -0.192 NA
HETATM   12  N12 UNL     1     -34.882   5.990   6.824  1.00 20.00    -0.192 NA
ENDROOT
TORSDOF 0
