REMARK  2 active torsions:
REMARK  status: ('A' for Active; 'I' for Inactive)
REMARK    1  A    between atoms: C1_1  and  C4_4 
REMARK    2  A    between atoms: C4_4  and  C5_5 
ROOT
HETATM    1  C1  UNL     1     -33.205   7.219   5.227  1.00 20.00     0.244 A 
HETATM    2  C3  UNL     1     -32.312   8.056   3.132  1.00 20.00     0.147 C 
HETATM    3  N6  UNL     1     -33.407   8.106   4.093  1.00 20.00    -0.168 NA
HETATM    4  O7  UNL     1     -32.796   8.586   5.318  1.00 20.00    -0.279 OA
ENDROOT
BRANCH   1   5
HETATM    5  C4  UNL     1     -34.358   6.858   6.090  1.00 20.00     0.051 C 
BRANCH   5   6
HETATM    6  C5  UNL     1     -35.073   5.610   5.576  1.00 20.00    -0.001 C 
HETATM    7  C2  UNL     1     -34.133   4.417   5.511  1.00 20.00     0.005 C 
ENDBRANCH   5   6
ENDBRANCH   1   5
TORSDOF 2
