REMARK  4 active torsions:
REMARK  status: ('A' for Active; 'I' for Inactive)
REMARK    1  A    between atoms: C4_4  and  C5_5 
REMARK    2  A    between atoms: C5_5  and  C7_7 
REMARK    3  A    between atoms: C6_6  and  O8_8 
REMARK    4  A    between atoms: C7_7  and  O8_8 
ROOT
HETATM    1  C3  UNL     1     -34.137   5.119   6.764  1.00 20.00     0.039 C 
HETATM    2  C7  UNL     1     -34.438   6.456   6.100  1.00 20.00     0.117 C 
ENDROOT
BRANCH   2   3
HETATM    3  C5  UNL     1     -35.395   6.292   4.915  1.00 20.00     0.031 C 
BRANCH   3   4
HETATM    4  C4  UNL     1     -34.838   5.340   3.852  1.00 20.00    -0.002 C 
HETATM    5  C1  UNL     1     -33.538   5.865   3.262  1.00 20.00     0.005 C 
ENDBRANCH   3   4
ENDBRANCH   2   3
BRANCH   2   6
HETATM    6  O8  UNL     1     -33.211   7.035   5.662  1.00 20.00    -0.387 OA
BRANCH   6   7
HETATM    7  C6  UNL     1     -33.342   8.434   5.459  1.00 20.00     0.163 C 
HETATM    8  C2  UNL     1     -32.013   8.992   4.997  1.00 20.00     0.033 C 
ENDBRANCH   6   7
ENDBRANCH   2   6
TORSDOF 4
