REMARK  2 active torsions:
REMARK  status: ('A' for Active; 'I' for Inactive)
REMARK    1  A    between atoms: C5_5  and  O12_12 
REMARK    2  A    between atoms: C11_11  and  O12_12 
ROOT
HETATM    1  C1  UNL     1     -31.845   7.923   4.001  1.00 20.00     0.036 C 
HETATM    2  C2  UNL     1     -33.825   7.318   5.448  1.00 20.00     0.013 C 
HETATM    3  C3  UNL     1     -33.124   5.777   3.556  1.00 20.00     0.040 C 
HETATM    4  C4  UNL     1     -33.034   8.468   4.804  1.00 20.00    -0.015 C 
HETATM    5  C5  UNL     1     -32.273   6.897   2.952  1.00 20.00     0.122 C 
HETATM    6  C6  UNL     1     -34.308   6.256   4.434  1.00 20.00    -0.045 C 
HETATM    7  C7  UNL     1     -32.549   9.446   5.875  1.00 20.00     0.010 C 
HETATM    8  C8  UNL     1     -34.862   5.044   5.211  1.00 20.00     0.015 C 
HETATM    9  C9  UNL     1     -35.459   6.814   3.574  1.00 20.00     0.015 C 
ENDROOT
BRANCH   5  10
HETATM   10  O12 UNL     1     -32.991   7.536   1.902  1.00 20.00    -0.386 OA
BRANCH  10  11
HETATM   11  C11 UNL     1     -32.114   8.167   0.980  1.00 20.00     0.163 C 
HETATM   12  C10 UNL     1     -32.933   8.826  -0.108  1.00 20.00     0.033 C 
ENDBRANCH  10  11
ENDBRANCH   5  10
TORSDOF 2
