REMARK  5 active torsions:
REMARK  status: ('A' for Active; 'I' for Inactive)
REMARK    1  A    between atoms: C1_1  and  C6_6 
REMARK    2  A    between atoms: C1_1  and  S11_11 
REMARK    3  A    between atoms: C6_6  and  C8_8 
REMARK    4  A    between atoms: C7_7  and  C9_9 
REMARK    5  A    between atoms: C9_9  and  S11_11 
ROOT
HETATM    1  C1  UNL     1     -32.994   7.424   4.680  1.00 20.00     0.186 C 
HETATM    2  O10 UNL     1     -32.555   7.882   5.727  1.00 20.00    -0.285 OA
ENDROOT
BRANCH   1   3
HETATM    3  C6  UNL     1     -34.434   6.988   4.476  1.00 20.00     0.094 C 
BRANCH   3   4
HETATM    4  C8  UNL     1     -34.670   5.506   4.809  1.00 20.00    -0.015 C 
HETATM    5  C3  UNL     1     -33.798   4.622   3.915  1.00 20.00     0.010 C 
HETATM    6  C4  UNL     1     -34.370   5.209   6.280  1.00 20.00     0.010 C 
ENDBRANCH   3   4
ENDBRANCH   1   3
BRANCH   1   7
HETATM    7  S11 UNL     1     -32.002   7.257   3.226  1.00 20.00    -0.088 SA
BRANCH   7   8
HETATM    8  C9  UNL     1     -32.893   8.345   2.093  1.00 20.00     0.051 C 
HETATM    9  C5  UNL     1     -32.965   9.740   2.710  1.00 20.00     0.022 C 
BRANCH   8  10
HETATM   10  C7  UNL     1     -32.231   8.395   0.708  1.00 20.00     0.011 C 
HETATM   11  C2  UNL     1     -32.963   9.279  -0.295  1.00 20.00     0.006 C 
ENDBRANCH   8  10
ENDBRANCH   7   8
ENDBRANCH   1   7
TORSDOF 5
