REMARK  2 active torsions:
REMARK  status: ('A' for Active; 'I' for Inactive)
REMARK    1  A    between atoms: C2_2  and  C3_3 
REMARK    2  A    between atoms: C3_3  and  O10_10 
ROOT
HETATM    1  C1  UNL     1     -33.573   6.600   5.116  1.00 20.00    -0.074 C 
HETATM    2  C2  UNL     1     -32.855   7.727   5.058  1.00 20.00     0.085 C 
HETATM    3  C4  UNL     1     -33.975   5.909   6.388  1.00 20.00     0.034 C 
HETATM    4  C5  UNL     1     -34.085   5.852   3.918  1.00 20.00     0.034 C 
HETATM    5  C6  UNL     1     -34.482   4.557   5.899  1.00 20.00     0.005 C 
HETATM    6  C7  UNL     1     -35.071   4.862   4.528  1.00 20.00     0.005 C 
ENDROOT
BRANCH   2   7
HETATM    7  C3  UNL     1     -32.516   8.320   3.749  1.00 20.00     0.282 C 
HETATM    8  O9  UNL     1     -32.354   9.511   3.532  1.00 20.00    -0.260 OA
BRANCH   7   9
HETATM    9  O10 UNL     1     -32.419   7.304   2.850  1.00 20.00    -0.323 OA
HETATM   10  C8  UNL     1     -32.091   7.695   1.512  1.00 20.00     0.213 C 
ENDBRANCH   7   9
ENDBRANCH   2   7
TORSDOF 2
