REMARK  1 active torsions:
REMARK  status: ('A' for Active; 'I' for Inactive)
REMARK    1  A    between atoms: C7_7  and  O9_9 
ROOT
HETATM    1  C1  UNL     1     -35.011   5.460   6.573  1.00 20.00    -0.023 C 
HETATM    2  C2  UNL     1     -33.920   4.711   6.344  1.00 20.00    -0.023 C 
HETATM    3  C3  UNL     1     -35.387   5.839   4.166  1.00 20.00     0.012 C 
HETATM    4  C4  UNL     1     -34.125   4.970   3.901  1.00 20.00     0.012 C 
HETATM    5  C5  UNL     1     -35.047   6.530   5.506  1.00 20.00     0.037 C 
HETATM    6  C6  UNL     1     -33.234   5.285   5.126  1.00 20.00     0.037 C 
HETATM    7  C7  UNL     1     -33.537   6.769   5.372  1.00 20.00     0.136 C 
ENDROOT
BRANCH   7   8
HETATM    8  O9  UNL     1     -33.205   7.603   4.281  1.00 20.00    -0.389 OA
HETATM    9  C8  UNL     1     -31.800   7.808   4.179  1.00 20.00     0.202 C 
ENDBRANCH   7   8
TORSDOF 1
