REMARK  0 active torsions:
REMARK  status: ('A' for Active; 'I' for Inactive)
ROOT
HETATM    1  C1  UNL     1     -32.772   7.165   4.089  1.00 20.00     0.219 C 
HETATM    2  C2  UNL     1     -33.570   7.863   5.177  1.00 20.00     0.103 C 
HETATM    3  C3  UNL     1     -33.407   7.216   6.548  1.00 20.00     0.009 C 
HETATM    4  C4  UNL     1     -34.277   5.982   6.811  1.00 20.00     0.001 C 
HETATM    5  C5  UNL     1     -33.816   4.718   6.083  1.00 20.00     0.002 C 
HETATM    6  C6  UNL     1     -34.595   4.396   4.807  1.00 20.00     0.020 C 
HETATM    7  C7  UNL     1     -34.675   5.525   3.784  1.00 20.00     0.125 C 
HETATM    8  C8  UNL     1     -32.611   5.357   2.422  1.00 20.00     0.152 C 
HETATM    9  N9  UNL     1     -33.361   6.077   3.446  1.00 20.00    -0.356 N 
HETATM   10  O10 UNL     1     -31.637   7.578   3.831  1.00 20.00    -0.273 OA
ENDROOT
TORSDOF 0
