REMARK  2 active torsions:
REMARK  status: ('A' for Active; 'I' for Inactive)
REMARK    1  A    between atoms: C4_4  and  C8_8 
REMARK    2  A    between atoms: C8_8  and  N9_9 
ROOT
HETATM    1  C1  UNL     1     -34.909   5.285   6.283  1.00 20.00    -0.003 A 
HETATM    2  C2  UNL     1     -34.635   6.685   6.088  1.00 20.00     0.004 A 
HETATM    3  C3  UNL     1     -34.818   4.642   5.110  1.00 20.00    -0.022 A 
HETATM    4  C4  UNL     1     -34.371   6.913   4.792  1.00 20.00    -0.049 A 
HETATM    5  C5  UNL     1     -34.462   5.620   4.028  1.00 20.00     0.063 A 
ENDROOT
BRANCH   4   6
HETATM    6  C8  UNL     1     -34.035   8.200   4.136  1.00 20.00     0.306 C 
BRANCH   6   7
HETATM    7  N9  UNL     1     -32.734   8.067   3.536  1.00 20.00     0.083 N 
HETATM    8  C6  UNL     1     -31.666   8.226   4.534  1.00 20.00     0.309 C 
HETATM    9  C7  UNL     1     -32.543   9.042   2.452  1.00 20.00     0.309 C 
ENDBRANCH   6   7
ENDBRANCH   4   6
TORSDOF 2
