REMARK  1 active torsions:
REMARK  status: ('A' for Active; 'I' for Inactive)
REMARK    1  A    between atoms: C3_3  and  C6_6 
ROOT
HETATM    1  C1  UNL     1     -31.816   7.413   3.593  1.00 20.00    -0.024 C 
HETATM    2  C2  UNL     1     -32.829   6.567   3.328  1.00 20.00    -0.076 C 
HETATM    3  C4  UNL     1     -31.904   8.550   4.567  1.00 20.00     0.028 C 
HETATM    4  C5  UNL     1     -33.337   8.853   5.009  1.00 20.00     0.009 C 
HETATM    5  C6  UNL     1     -34.160   6.681   4.044  1.00 20.00     0.079 C 
HETATM    6  C7  UNL     1     -34.130   7.572   5.313  1.00 20.00    -0.004 C 
HETATM    7  C8  UNL     1     -32.694   5.530   2.246  1.00 20.00     0.044 C 
HETATM    8  C9  UNL     1     -33.564   6.877   6.561  1.00 20.00     0.011 C 
ENDROOT
BRANCH   5   9
HETATM    9  C3  UNL     1     -34.700   5.316   4.368  1.00 20.00     0.240 C 
HETATM   10  O10 UNL     1     -33.988   4.351   4.626  1.00 20.00    -0.306 OA
ENDBRANCH   5   9
TORSDOF 1
