REMARK  0 active torsions:
REMARK  status: ('A' for Active; 'I' for Inactive)
ROOT
HETATM    1  C1  UNL     1     -32.783   5.836   2.639  1.00 20.00     0.006 C 
HETATM    2  C2  UNL     1     -33.135   7.081   1.816  1.00 20.00     0.006 C 
HETATM    3  C3  UNL     1     -31.644   7.203   4.385  1.00 20.00     0.021 C 
HETATM    4  C4  UNL     1     -32.667   6.082   4.162  1.00 20.00     0.005 C 
HETATM    5  C5  UNL     1     -32.394   8.345   2.290  1.00 20.00    -0.005 C 
HETATM    6  C6  UNL     1     -32.328   8.449   3.829  1.00 20.00     0.052 C 
HETATM    7  C7  UNL     1     -33.962   6.553   4.881  1.00 20.00     0.005 C 
HETATM    8  C8  UNL     1     -32.988   9.598   1.643  1.00 20.00     0.011 C 
HETATM    9  C9  UNL     1     -33.872   6.307   6.399  1.00 20.00     0.027 C 
HETATM   10  C10 UNL     1     -35.253   5.914   4.365  1.00 20.00     0.027 C 
HETATM   11  S11 UNL     1     -33.984   8.374   4.612  1.00 20.00    -0.154 SA
ENDROOT
TORSDOF 0
