REMARK  2 active torsions:
REMARK  status: ('A' for Active; 'I' for Inactive)
REMARK    1  A    between atoms: C3_3  and  C5_5 
REMARK    2  A    between atoms: C5_5  and  C6_6 
ROOT
HETATM    1  C1  UNL     1     -34.114   8.023   6.016  1.00 20.00     0.202 C 
HETATM    2  C2  UNL     1     -33.778   6.575   5.749  1.00 20.00     0.144 C 
HETATM    3  C3  UNL     1     -32.530   7.888   4.402  1.00 20.00     0.261 C 
HETATM    4  C4  UNL     1     -34.977   5.651   5.772  1.00 20.00     0.042 C 
HETATM    5  O7  UNL     1     -32.997   8.724   5.469  1.00 20.00    -0.359 OA
HETATM    6  O8  UNL     1     -33.202   6.622   4.442  1.00 20.00    -0.354 OA
ENDROOT
BRANCH   3   7
HETATM    7  C5  UNL     1     -32.796   8.556   3.067  1.00 20.00     0.075 C 
BRANCH   7   8
HETATM    8  C6  UNL     1     -32.319   7.740   1.868  1.00 20.00     0.119 C 
HETATM    9 CL9  UNL     1     -32.635   8.573   0.329  1.00 20.00    -0.130 Cl
ENDBRANCH   7   8
ENDBRANCH   3   7
TORSDOF 2
