REMARK  2 active torsions:
REMARK  status: ('A' for Active; 'I' for Inactive)
REMARK    1  A    between atoms: C6_6  and  C11_11 
REMARK    2  A    between atoms: C11_11  and  O12_12 
ROOT
HETATM    1  C1  UNL     1     -33.435   8.949   5.369  1.00 20.00     0.005 C 
HETATM    2  C2  UNL     1     -33.384   9.348   3.888  1.00 20.00     0.006 C 
HETATM    3  C3  UNL     1     -31.623   7.846   4.307  1.00 20.00     0.010 C 
HETATM    4  C4  UNL     1     -32.671   7.613   5.398  1.00 20.00    -0.007 C 
HETATM    5  C5  UNL     1     -32.678   8.146   3.233  1.00 20.00    -0.006 C 
HETATM    6  C6  UNL     1     -33.495   6.456   4.772  1.00 20.00     0.026 C 
HETATM    7  C7  UNL     1     -33.577   6.863   3.261  1.00 20.00    -0.038 C 
HETATM    8  C8  UNL     1     -34.995   7.104   2.722  1.00 20.00     0.015 C 
HETATM    9  C9  UNL     1     -32.945   5.760   2.382  1.00 20.00     0.015 C 
ENDROOT
BRANCH   6  10
HETATM   10  C11 UNL     1     -34.803   6.149   5.490  1.00 20.00     0.119 C 
HETATM   11  C10 UNL     1     -34.569   5.709   6.927  1.00 20.00     0.040 C 
BRANCH  10  12
HETATM   12  O12 UNL     1     -35.489   5.118   4.790  1.00 20.00    -0.396 OA
HETATM   13  H32 UNL     1     -36.312   4.952   5.276  1.00 20.00     0.210 HD
ENDBRANCH  10  12
ENDBRANCH   6  10
TORSDOF 2
