REMARK  3 active torsions:
REMARK  status: ('A' for Active; 'I' for Inactive)
REMARK    1  A    between atoms: C1_1  and  C4_4 
REMARK    2  A    between atoms: C2_2  and  C7_7 
REMARK    3  A    between atoms: C7_7  and  O8_8 
ROOT
HETATM    1  C1  UNL     1     -33.517   7.709   4.484  1.00 20.00    -0.070 C 
HETATM    2  C2  UNL     1     -34.214   6.898   5.032  1.00 20.00    -0.070 C 
ENDROOT
BRANCH   2   3
HETATM    3  C7  UNL     1     -35.066   5.909   5.703  1.00 20.00     0.193 C 
HETATM    4  C6  UNL     1     -34.231   4.827   6.369  1.00 20.00     0.053 C 
BRANCH   3   5
HETATM    5  O8  UNL     1     -35.926   5.282   4.755  1.00 20.00    -0.384 OA
HETATM    6  H18 UNL     1     -36.463   4.643   5.248  1.00 20.00     0.211 HD
ENDBRANCH   3   5
ENDBRANCH   2   3
BRANCH   1   7
HETATM    7  C4  UNL     1     -32.689   8.667   3.827  1.00 20.00    -0.018 C 
HETATM    8  C3  UNL     1     -32.096   9.628   4.551  1.00 20.00     0.028 C 
HETATM    9  C5  UNL     1     -32.507   8.571   2.341  1.00 20.00     0.057 C 
ENDBRANCH   1   7
TORSDOF 3
