REMARK  0 active torsions:
REMARK  status: ('A' for Active; 'I' for Inactive)
ROOT
HETATM    1  C1  UNL     1     -33.267   7.261   6.007  1.00 20.00     0.047 C 
HETATM    2  C2  UNL     1     -33.938   6.123   5.795  1.00 20.00    -0.014 C 
HETATM    3  C3  UNL     1     -32.806   8.091   4.867  1.00 20.00     0.152 C 
HETATM    4  C4  UNL     1     -33.334   6.169   3.354  1.00 20.00     0.025 C 
HETATM    5  C5  UNL     1     -33.252   7.695   3.464  1.00 20.00     0.056 C 
HETATM    6  C6  UNL     1     -34.244   5.537   4.434  1.00 20.00    -0.029 C 
HETATM    7  C7  UNL     1     -32.298   8.253   2.410  1.00 20.00     0.018 C 
HETATM    8  C8  UNL     1     -33.986   4.019   4.463  1.00 20.00     0.019 C 
HETATM    9  C9  UNL     1     -35.729   5.778   4.111  1.00 20.00     0.019 C 
HETATM   10  O10 UNL     1     -32.139   9.099   5.094  1.00 20.00    -0.293 OA
ENDROOT
TORSDOF 0
