REMARK  0 active torsions:
REMARK  status: ('A' for Active; 'I' for Inactive)
ROOT
HETATM    1  C1  UNL     1     -34.088   5.365   4.532  1.00 20.00     0.130 C 
HETATM    2  C2  UNL     1     -34.842   6.353   5.393  1.00 20.00     0.079 C 
HETATM    3  C3  UNL     1     -33.959   7.545   5.743  1.00 20.00     0.016 C 
HETATM    4  C4  UNL     1     -32.540   7.141   3.697  1.00 20.00     0.020 C 
HETATM    5  C5  UNL     1     -33.400   5.934   3.297  1.00 20.00     0.052 C 
HETATM    6  C6  UNL     1     -33.305   8.211   4.511  1.00 20.00    -0.047 C 
HETATM    7  C7  UNL     1     -32.547   4.880   2.595  1.00 20.00     0.018 C 
HETATM    8  C8  UNL     1     -34.363   8.915   3.641  1.00 20.00     0.015 C 
HETATM    9  C9  UNL     1     -32.304   9.278   4.995  1.00 20.00     0.015 C 
HETATM   10  O10 UNL     1     -34.120   4.160   4.780  1.00 20.00    -0.298 OA
ENDROOT
TORSDOF 0
