REMARK  0 active torsions:
REMARK  status: ('A' for Active; 'I' for Inactive)
ROOT
HETATM    1  C1  UNL     1     -34.638   5.219   6.504  1.00 20.00     0.061 A 
HETATM    2  C2  UNL     1     -34.468   4.567   5.350  1.00 20.00     0.061 A 
HETATM    3  C3  UNL     1     -33.955   7.050   4.795  1.00 20.00     0.254 A 
HETATM    4  O4  UNL     1     -33.664   8.101   4.243  1.00 20.00    -0.272 OA
HETATM    5  S5  UNL     1     -34.373   6.930   6.501  1.00 20.00    -0.052 SA
HETATM    6  S6  UNL     1     -34.000   5.497   3.967  1.00 20.00    -0.052 SA
ENDROOT
TORSDOF 0
