REMARK  2 active torsions:
REMARK  status: ('A' for Active; 'I' for Inactive)
REMARK    1  A    between atoms: C3_3  and  S9_9 
REMARK    2  A    between atoms: C6_6  and  S9_9 
ROOT
HETATM    1  C1  UNL     1     -32.506   8.990   0.378  1.00 20.00     0.013 C 
HETATM    2  C2  UNL     1     -32.552   8.387   1.415  1.00 20.00    -0.107 C 
HETATM    3  C6  UNL     1     -32.604   7.644   2.677  1.00 20.00     0.174 C 
ENDROOT
BRANCH   3   4
HETATM    4  S9  UNL     1     -33.348   8.615   4.006  1.00 20.00    -0.092 SA
BRANCH   4   5
HETATM    5  C3  UNL     1     -33.787   7.334   5.087  1.00 20.00     0.125 C 
HETATM    6  N7  UNL     1     -33.330   7.247   6.291  1.00 20.00    -0.275 NA
HETATM    7  C4  UNL     1     -33.950   6.080   6.955  1.00 20.00     0.161 C 
HETATM    8  C5  UNL     1     -34.385   5.058   5.914  1.00 20.00     0.103 C 
HETATM    9  S8  UNL     1     -34.866   6.093   4.520  1.00 20.00    -0.102 SA
ENDBRANCH   4   5
ENDBRANCH   3   4
TORSDOF 2
