REMARK  2 active torsions:
REMARK  status: ('A' for Active; 'I' for Inactive)
REMARK    1  A    between atoms: C4_4  and  C6_6 
REMARK    2  A    between atoms: C5_5  and  C6_6 
ROOT
HETATM    1  C1  UNL     1     -33.884   4.240   3.968  1.00 20.00     0.012 C 
HETATM    2  C2  UNL     1     -34.148   4.750   5.023  1.00 20.00    -0.117 C 
HETATM    3  C5  UNL     1     -34.474   5.370   6.314  1.00 20.00     0.095 C 
ENDROOT
BRANCH   3   4
HETATM    4  C6  UNL     1     -33.672   6.652   6.530  1.00 20.00     0.046 C 
BRANCH   4   5
HETATM    5  C4  UNL     1     -33.925   7.656   5.448  1.00 20.00     0.146 A 
HETATM    6  C3  UNL     1     -33.188   7.592   4.139  1.00 20.00     0.200 A 
HETATM    7  O7  UNL     1     -32.819   8.523   5.170  1.00 20.00    -0.381 OA
ENDBRANCH   4   5
ENDBRANCH   3   4
TORSDOF 2
