REMARK  0 active torsions:
REMARK  status: ('A' for Active; 'I' for Inactive)
ROOT
HETATM    1  C1  UNL     1     -34.087   6.184   5.364  1.00 20.00     0.017 A 
HETATM    2  C2  UNL     1     -33.442   6.179   4.047  1.00 20.00     0.296 A 
HETATM    3  C3  UNL     1     -32.997   8.160   5.028  1.00 20.00     0.270 A 
HETATM    4  C4  UNL     1     -34.794   5.146   5.816  1.00 20.00     0.025 C 
HETATM    5  C5  UNL     1     -33.829   7.462   6.058  1.00 20.00     0.155 A 
HETATM    6  O6  UNL     1     -33.452   5.287   3.220  1.00 20.00    -0.259 OA
HETATM    7  O7  UNL     1     -32.534   9.285   5.155  1.00 20.00    -0.264 OA
HETATM    8  O8  UNL     1     -32.819   7.380   3.925  1.00 20.00    -0.241 OA
ENDROOT
TORSDOF 0
