REMARK  1 active torsions:
REMARK  status: ('A' for Active; 'I' for Inactive)
REMARK    1  A    between atoms: C1_1  and  C2_2 
ROOT
HETATM    1  C2  UNL     1     -34.323   5.634   4.603  1.00 20.00     0.412 C 
HETATM    2  F4  UNL     1     -34.366   4.622   5.496  1.00 20.00    -0.168 F 
HETATM    3  F5  UNL     1     -33.661   5.195   3.512  1.00 20.00    -0.168 F 
HETATM    4  F6  UNL     1     -35.590   5.919   4.239  1.00 20.00    -0.168 F 
ENDROOT
BRANCH   1   5
HETATM    5  C1  UNL     1     -33.647   6.839   5.196  1.00 20.00     0.339 C 
HETATM    6  F3  UNL     1     -33.607   7.823   4.259  1.00 20.00    -0.246 F 
ENDBRANCH   1   5
TORSDOF 1
