REMARK  0 active torsions:
REMARK  status: ('A' for Active; 'I' for Inactive)
ROOT
HETATM    1  C1  UNL     1     -34.841   5.329   6.469  1.00 20.00     0.050 C 
HETATM    2  C2  UNL     1     -34.247   5.901   5.397  1.00 20.00     0.094 C 
HETATM    3 CL3  UNL     1     -33.391   7.402   5.527  1.00 20.00    -0.072 Cl
HETATM    4 CL4  UNL     1     -34.306   5.166   3.829  1.00 20.00    -0.072 Cl
ENDROOT
TORSDOF 0
