REMARK  0 active torsions:
REMARK  status: ('A' for Active; 'I' for Inactive)
ROOT
HETATM    1  C1  UNL     1     -36.056   6.021   4.166  1.00 20.00     0.068 C 
HETATM    2  C2  UNL     1     -34.612   5.871   4.626  1.00 20.00     0.184 C 
HETATM    3 CL3  UNL     1     -34.560   4.964   6.163  1.00 20.00    -0.084 Cl
HETATM    4 CL4  UNL     1     -33.674   4.986   3.390  1.00 20.00    -0.084 Cl
HETATM    5 CL5  UNL     1     -33.886   7.483   4.870  1.00 20.00    -0.084 Cl
ENDROOT
TORSDOF 0
