REMARK  1 active torsions:
REMARK  status: ('A' for Active; 'I' for Inactive)
REMARK    1  A    between atoms: C2_2  and  C5_5 
ROOT
HETATM    1  C1  UNL     1     -33.166   7.923   5.594  1.00 20.00     0.088 A 
HETATM    2  C2  UNL     1     -33.808   7.124   4.672  1.00 20.00     0.147 A 
HETATM    3  C3  UNL     1     -32.879   8.545   3.284  1.00 20.00     0.071 A 
HETATM    4  C4  UNL     1     -32.481   9.218   2.028  1.00 20.00     0.078 C 
HETATM    5  N6  UNL     1     -33.645   7.479   3.347  1.00 20.00    -0.241 NA
HETATM    6  S10 UNL     1     -32.318   9.172   4.780  1.00 20.00    -0.085 SA
ENDROOT
BRANCH   2   7
HETATM    7  C5  UNL     1     -34.639   5.944   4.984  1.00 20.00     0.435 C 
HETATM    8  F7  UNL     1     -34.744   5.668   6.324  1.00 20.00    -0.165 F 
HETATM    9  F8  UNL     1     -35.938   6.041   4.552  1.00 20.00    -0.165 F 
HETATM   10  F9  UNL     1     -34.166   4.786   4.422  1.00 20.00    -0.165 F 
ENDBRANCH   2   7
TORSDOF 1
