REMARK  0 active torsions:
REMARK  status: ('A' for Active; 'I' for Inactive)
ROOT
HETATM    1  C1  UNL     1     -33.567   7.050   4.753  1.00 20.00     0.409 C 
HETATM    2  C2  UNL     1     -34.748   6.292   6.511  1.00 20.00     0.247 C 
HETATM    3  C3  UNL     1     -35.044   5.465   5.304  1.00 20.00     0.343 C 
HETATM    4  O4  UNL     1     -32.795   7.724   4.088  1.00 20.00    -0.229 OA
HETATM    5  O5  UNL     1     -33.578   7.002   6.121  1.00 20.00    -0.293 OA
HETATM    6  O6  UNL     1     -34.541   6.243   4.234  1.00 20.00    -0.260 OA
HETATM    7  F7  UNL     1     -34.332   4.311   5.345  1.00 20.00    -0.217 F 
ENDROOT
TORSDOF 0
