REMARK  1 active torsions:
REMARK  status: ('A' for Active; 'I' for Inactive)
REMARK    1  A    between atoms: C3_3  and  C5_5 
ROOT
HETATM    1  C1  UNL     1     -33.659   8.358   4.315  1.00 20.00     0.032 A 
HETATM    2  C2  UNL     1     -33.114   8.544   3.029  1.00 20.00    -0.044 A 
HETATM    3  C3  UNL     1     -33.766   7.007   4.607  1.00 20.00     0.068 A 
HETATM    4  C4  UNL     1     -32.836   7.358   2.407  1.00 20.00    -0.010 A 
HETATM    5  C6  UNL     1     -32.760   9.698   2.168  1.00 20.00     0.040 C 
HETATM    6  C7  UNL     1     -32.260   7.509   1.051  1.00 20.00     0.047 C 
HETATM    7  C8  UNL     1     -32.543   9.020   0.778  1.00 20.00     0.010 C 
HETATM    8  S10 UNL     1     -33.203   6.003   3.314  1.00 20.00    -0.089 SA
ENDROOT
BRANCH   3   9
HETATM    9  C5  UNL     1     -34.263   6.385   5.792  1.00 20.00     0.259 C 
HETATM   10  O9  UNL     1     -34.679   7.092   6.751  1.00 20.00    -0.273 OA
HETATM   11 CL11 UNL     1     -34.319   4.609   5.978  1.00 20.00    -0.038 Cl
ENDBRANCH   3   9
TORSDOF 1
