REMARK  0 active torsions:
REMARK  status: ('A' for Active; 'I' for Inactive)
ROOT
HETATM    1  C1  UNL     1     -33.286   8.544   4.047  1.00 20.00     0.064 C 
HETATM    2  C2  UNL     1     -35.336   6.230   4.311  1.00 20.00     0.011 C 
HETATM    3  C3  UNL     1     -34.056   4.392   5.091  1.00 20.00     0.010 C 
HETATM    4  C4  UNL     1     -33.145   7.172   4.562  1.00 20.00     0.101 C 
HETATM    5  C5  UNL     1     -34.332   5.197   3.805  1.00 20.00    -0.009 C 
HETATM    6  C6  UNL     1     -34.389   6.761   5.394  1.00 20.00     0.007 C 
HETATM    7  C7  UNL     1     -34.039   5.477   6.188  1.00 20.00    -0.013 C 
HETATM    8  C8  UNL     1     -33.088   6.063   3.473  1.00 20.00     0.003 C 
HETATM    9  C9  UNL     1     -35.031   5.184   7.308  1.00 20.00     0.010 C 
HETATM   10  C10 UNL     1     -33.097   6.536   2.020  1.00 20.00     0.011 C 
HETATM   11  N11 UNL     1     -33.397   9.625   3.642  1.00 20.00    -0.197 NA
ENDROOT
TORSDOF 0
