REMARK  0 active torsions:
REMARK  status: ('A' for Active; 'I' for Inactive)
ROOT
HETATM    1  C1  UNL     1     -33.305   7.344   6.373  1.00 20.00     0.055 C 
HETATM    2  C2  UNL     1     -34.047   6.361   5.874  1.00 20.00    -0.046 C 
HETATM    3  C3  UNL     1     -32.885   8.103   5.179  1.00 20.00     0.150 C 
HETATM    4  C4  UNL     1     -34.502   5.069   6.422  1.00 20.00     0.202 C 
HETATM    5  C5  UNL     1     -33.314   7.426   3.897  1.00 20.00     0.094 C 
HETATM    6  C6  UNL     1     -33.967   4.905   4.147  1.00 20.00     0.177 C 
HETATM    7  C7  UNL     1     -34.267   6.364   4.408  1.00 20.00     0.048 C 
HETATM    8  O8  UNL     1     -32.225   9.129   5.240  1.00 20.00    -0.293 OA
HETATM    9  O9  UNL     1     -34.538   4.191   5.270  1.00 20.00    -0.386 OA
ENDROOT
TORSDOF 0
