REMARK  0 active torsions:
REMARK  status: ('A' for Active; 'I' for Inactive)
ROOT
HETATM    1  C1  UNL     1     -33.557   5.204   3.214  1.00 20.00     0.015 A 
HETATM    2  C2  UNL     1     -32.902   5.946   2.317  1.00 20.00     0.083 A 
HETATM    3  C3  UNL     1     -33.851   5.714   4.527  1.00 20.00    -0.028 A 
HETATM    4  C4  UNL     1     -33.458   6.960   4.833  1.00 20.00     0.063 A 
HETATM    5  C5  UNL     1     -32.465   7.315   2.654  1.00 20.00     0.287 A 
HETATM    6  C6  UNL     1     -34.578   4.825   5.497  1.00 20.00     0.041 C 
HETATM    7  C7  UNL     1     -33.727   7.609   6.158  1.00 20.00     0.066 C 
HETATM    8  C8  UNL     1     -34.532   5.349   6.937  1.00 20.00     0.005 C 
HETATM    9  C9  UNL     1     -34.770   6.855   6.988  1.00 20.00     0.007 C 
HETATM   10  O10 UNL     1     -31.861   7.999   1.834  1.00 20.00    -0.260 OA
HETATM   11  O11 UNL     1     -32.763   7.775   3.908  1.00 20.00    -0.279 OA
ENDROOT
TORSDOF 0
