REMARK  0 active torsions:
REMARK  status: ('A' for Active; 'I' for Inactive)
ROOT
HETATM    1  C1  UNL     1     -34.311   7.248   6.563  1.00 20.00     0.087 A 
HETATM    2  C2  UNL     1     -34.004   5.403   5.021  1.00 20.00     0.063 A 
HETATM    3  C3  UNL     1     -33.256   7.654   4.412  1.00 20.00     0.114 A 
HETATM    4  C4  UNL     1     -34.451   5.901   6.247  1.00 20.00     0.120 A 
HETATM    5  C5  UNL     1     -33.717   8.132   5.658  1.00 20.00     0.149 A 
HETATM    6  C6  UNL     1     -33.408   6.296   4.116  1.00 20.00     0.042 A 
HETATM    7  C7  UNL     1     -32.352   7.639   2.400  1.00 20.00     0.145 A 
HETATM    8  N8  UNL     1     -32.649   8.410   3.419  1.00 20.00    -0.230 NA
HETATM    9  F9  UNL     1     -35.023   5.070   7.129  1.00 20.00    -0.206 F 
HETATM   10  F10 UNL     1     -33.588   9.427   5.979  1.00 20.00    -0.203 F 
HETATM   11  S11 UNL     1     -32.766   5.986   2.547  1.00 20.00    -0.060 SA
HETATM   12 BR12 UNL     1     -31.503   8.330   0.835  1.00 20.00    -0.021 Br
ENDROOT
TORSDOF 0
