REMARK  2 active torsions:
REMARK  status: ('A' for Active; 'I' for Inactive)
REMARK    1  A    between atoms: C2_2  and  C7_7 
REMARK    2  A    between atoms: C3_3  and  C6_6 
ROOT
HETATM    1  C1  UNL     1     -32.984   6.326   2.782  1.00 20.00     0.066 A 
HETATM    2  C2  UNL     1     -33.694   6.588   3.966  1.00 20.00     0.068 A 
HETATM    3  C3  UNL     1     -32.498   7.552   2.414  1.00 20.00     0.094 A 
HETATM    4  N8  UNL     1     -33.652   7.879   4.307  1.00 20.00    -0.133 NA
HETATM    5  O9  UNL     1     -32.890   8.488   3.317  1.00 20.00    -0.216 OA
ENDROOT
BRANCH   2   6
HETATM    6  C7  UNL     1     -34.455   5.602   4.833  1.00 20.00     0.032 C 
HETATM    7  C4  UNL     1     -34.505   6.058   6.293  1.00 20.00     0.016 C 
HETATM    8  C5  UNL     1     -33.873   4.190   4.722  1.00 20.00     0.016 C 
ENDBRANCH   2   6
BRANCH   3   9
HETATM    9  C6  UNL     1     -31.680   8.027   1.292  1.00 20.00     0.181 C 
HETATM   10 CL10 UNL     1     -32.545   9.259   0.330  1.00 20.00    -0.123 Cl
ENDBRANCH   3   9
TORSDOF 2
