REMARK  0 active torsions:
REMARK  status: ('A' for Active; 'I' for Inactive)
ROOT
HETATM    1  C1  UNL     1     -33.959   5.873   5.958  1.00 20.00     0.135 C 
HETATM    2  C2  UNL     1     -34.461   8.281   5.863  1.00 20.00     0.017 C 
HETATM    3  C3  UNL     1     -35.808   6.640   4.525  1.00 20.00     0.017 C 
HETATM    4  C4  UNL     1     -32.340   7.364   4.856  1.00 20.00     0.037 C 
HETATM    5  C5  UNL     1     -33.689   5.720   3.515  1.00 20.00     0.037 C 
HETATM    6  C6  UNL     1     -34.197   8.182   3.364  1.00 20.00     0.030 C 
HETATM    7  C7  UNL     1     -33.331   7.256   6.023  1.00 20.00     0.058 C 
HETATM    8  C8  UNL     1     -34.702   5.586   4.661  1.00 20.00     0.058 C 
HETATM    9  C9  UNL     1     -35.197   8.056   4.527  1.00 20.00    -0.011 C 
HETATM   10  C10 UNL     1     -33.075   7.137   3.517  1.00 20.00     0.039 C 
HETATM   11  O11 UNL     1     -33.875   5.058   6.872  1.00 20.00    -0.297 OA
HETATM   12 CL12 UNL     1     -31.918   7.291   2.163  1.00 20.00    -0.119 Cl
ENDROOT
TORSDOF 0
