REMARK  3 active torsions:
REMARK  status: ('A' for Active; 'I' for Inactive)
REMARK    1  A    between atoms: C1_1  and  C6_6 
REMARK    2  A    between atoms: C4_4  and  C7_7 
REMARK    3  A    between atoms: C6_6  and  C7_7 
ROOT
HETATM    1  C7  UNL     1     -33.908   7.848   3.654  1.00 20.00     0.019 C 
ENDROOT
BRANCH   1   2
HETATM    2  C4  UNL     1     -32.782   8.802   3.365  1.00 20.00    -0.043 A 
HETATM    3  C2  UNL     1     -32.833   9.589   2.076  1.00 20.00     0.010 A 
HETATM    4  C3  UNL     1     -31.845   8.468   2.227  1.00 20.00     0.010 A 
HETATM    5  C5  UNL     1     -32.204   9.474   4.580  1.00 20.00     0.015 C 
ENDBRANCH   1   2
BRANCH   1   6
HETATM    6  C6  UNL     1     -33.498   6.740   4.615  1.00 20.00     0.114 C 
BRANCH   6   7
HETATM    7  C1  UNL     1     -34.556   5.675   4.930  1.00 20.00     0.172 C 
HETATM    8  O8  UNL     1     -34.217   4.767   5.738  1.00 20.00    -0.648 OA
HETATM    9  O9  UNL     1     -35.660   5.851   4.339  1.00 20.00    -0.648 OA
ENDBRANCH   6   7
ENDBRANCH   1   6
TORSDOF 3
