REMARK  0 active torsions:
REMARK  status: ('A' for Active; 'I' for Inactive)
ROOT
HETATM    1  C1  UNL     1     -33.358   5.985   3.704  1.00 20.00     0.050 A 
HETATM    2  C2  UNL     1     -33.359   7.074   4.554  1.00 20.00     0.010 A 
HETATM    3  C3  UNL     1     -32.323   7.427   2.423  1.00 20.00     0.168 A 
HETATM    4  C4  UNL     1     -33.980   4.680   4.061  1.00 20.00     0.060 C 
HETATM    5  C5  UNL     1     -33.920   7.089   5.935  1.00 20.00     0.048 C 
HETATM    6  C6  UNL     1     -34.235   4.579   5.575  1.00 20.00     0.006 C 
HETATM    7  C7  UNL     1     -34.843   5.874   6.144  1.00 20.00     0.006 C 
HETATM    8  N8  UNL     1     -32.767   6.189   2.475  1.00 20.00    -0.233 NA
HETATM    9  S9  UNL     1     -32.589   8.399   3.817  1.00 20.00    -0.061 SA
HETATM   10 CL10 UNL     1     -31.517   8.078   1.057  1.00 20.00    -0.054 Cl
ENDROOT
TORSDOF 0
