REMARK  0 active torsions:
REMARK  status: ('A' for Active; 'I' for Inactive)
ROOT
HETATM    1  C1  UNL     1     -34.143   5.800   5.345  1.00 20.00     0.105 C 
HETATM    2  C2  UNL     1     -32.573   6.605   2.066  1.00 20.00     0.068 A 
HETATM    3  C3  UNL     1     -32.784   8.638   3.355  1.00 20.00     0.068 A 
HETATM    4  C4  UNL     1     -33.548   6.540   4.276  1.00 20.00     0.121 A 
HETATM    5  C5  UNL     1     -33.153   5.884   3.110  1.00 20.00     0.141 A 
HETATM    6  C6  UNL     1     -33.364   7.917   4.398  1.00 20.00     0.141 A 
HETATM    7  C7  UNL     1     -32.388   7.982   2.189  1.00 20.00     0.040 A 
HETATM    8  N8  UNL     1     -34.625   5.200   6.213  1.00 20.00    -0.191 NA
HETATM    9  F9  UNL     1     -33.324   4.560   2.977  1.00 20.00    -0.204 F 
HETATM   10  F10 UNL     1     -33.740   8.562   5.512  1.00 20.00    -0.204 F 
HETATM   11 CL11 UNL     1     -31.673   8.872   0.901  1.00 20.00    -0.084 Cl
ENDROOT
TORSDOF 0
