REMARK  1 active torsions:
REMARK  status: ('A' for Active; 'I' for Inactive)
REMARK    1  A    between atoms: C3_3  and  C8_8 
ROOT
HETATM    1  C1  UNL     1     -33.538   4.450   5.212  1.00 20.00    -0.026 C 
HETATM    2  C2  UNL     1     -33.810   4.967   4.005  1.00 20.00    -0.025 C 
HETATM    3  C4  UNL     1     -35.620   5.444   5.356  1.00 20.00     0.018 C 
HETATM    4  C5  UNL     1     -33.804   6.634   6.334  1.00 20.00     0.022 C 
HETATM    5  C6  UNL     1     -34.376   5.203   6.218  1.00 20.00     0.009 C 
HETATM    6  C7  UNL     1     -34.822   6.073   4.208  1.00 20.00     0.021 C 
HETATM    7  C8  UNL     1     -34.151   7.254   4.950  1.00 20.00     0.080 C 
ENDROOT
BRANCH   7   8
HETATM    8  C3  UNL     1     -32.954   7.803   4.237  1.00 20.00     0.223 C 
HETATM    9  O9  UNL     1     -32.597   7.367   3.147  1.00 20.00    -0.279 OA
HETATM   10 CL10 UNL     1     -32.188   9.080   5.132  1.00 20.00    -0.043 Cl
ENDBRANCH   7   8
TORSDOF 1
