REMARK  3 active torsions:
REMARK  status: ('A' for Active; 'I' for Inactive)
REMARK    1  A    between atoms: C2_2  and  O6_6 
REMARK    2  A    between atoms: C3_3  and  C4_4 
REMARK    3  A    between atoms: C3_3  and  O6_6 
ROOT
HETATM    1  C1  UNL     1     -32.934   9.498   3.045  1.00 20.00     0.085 C 
HETATM    2  C2  UNL     1     -32.416   8.975   4.310  1.00 20.00     0.291 C 
HETATM    3  N5  UNL     1     -33.344   9.913   2.043  1.00 20.00    -0.195 NA
ENDROOT
BRANCH   2   4
HETATM    4  O6  UNL     1     -33.322   8.033   4.866  1.00 20.00    -0.369 OA
BRANCH   4   5
HETATM    5  C3  UNL     1     -33.195   6.759   4.250  1.00 20.00     0.286 C 
BRANCH   5   6
HETATM    6  C4  UNL     1     -34.188   5.810   4.869  1.00 20.00     0.408 C 
HETATM    7  F7  UNL     1     -33.970   5.692   6.196  1.00 20.00    -0.169 F 
HETATM    8  F8  UNL     1     -34.094   4.579   4.324  1.00 20.00    -0.169 F 
HETATM    9  F9  UNL     1     -35.454   6.248   4.699  1.00 20.00    -0.169 F 
ENDBRANCH   5   6
ENDBRANCH   4   5
ENDBRANCH   2   4
TORSDOF 3
