REMARK  0 active torsions:
REMARK  status: ('A' for Active; 'I' for Inactive)
ROOT
HETATM    1  C1  UNL     1     -33.185   7.352   5.405  1.00 20.00     0.042 C 
HETATM    2  C2  UNL     1     -32.485   6.622   3.074  1.00 20.00     0.042 C 
HETATM    3  C3  UNL     1     -35.276   6.593   3.633  1.00 20.00     0.174 C 
HETATM    4  C4  UNL     1     -34.398   5.489   4.240  1.00 20.00     0.017 C 
HETATM    5  C5  UNL     1     -33.853   5.978   5.606  1.00 20.00    -0.009 C 
HETATM    6  C6  UNL     1     -33.171   5.263   3.322  1.00 20.00    -0.009 C 
HETATM    7  C7  UNL     1     -33.178   7.718   3.908  1.00 20.00     0.058 C 
HETATM    8  C8  UNL     1     -34.922   6.022   6.697  1.00 20.00     0.010 C 
HETATM    9  C9  UNL     1     -33.524   4.561   2.011  1.00 20.00     0.010 C 
HETATM   10  C10 UNL     1     -32.520   9.075   3.680  1.00 20.00     0.046 C 
HETATM   11  O11 UNL     1     -34.546   7.816   3.466  1.00 20.00    -0.380 OA
ENDROOT
TORSDOF 0
