REMARK  2 active torsions:
REMARK  status: ('A' for Active; 'I' for Inactive)
REMARK    1  A    between atoms: C1_1  and  C2_2 
REMARK    2  A    between atoms: C2_2  and  C3_3 
ROOT
HETATM    1  C2  UNL     1     -33.294   6.699   4.519  1.00 20.00     0.213 C 
ENDROOT
BRANCH   1   2
HETATM    2  C1  UNL     1     -32.905   6.048   3.204  1.00 20.00     0.227 C 
HETATM    3  O4  UNL     1     -32.363   6.661   2.289  1.00 20.00    -0.280 OA
HETATM    4 CL8  UNL     1     -33.326   4.358   3.178  1.00 20.00    -0.043 Cl
ENDBRANCH   1   2
BRANCH   1   5
HETATM    5  C3  UNL     1     -34.488   6.038   5.169  1.00 20.00     0.395 C 
HETATM    6  F5  UNL     1     -35.582   6.105   4.381  1.00 20.00    -0.171 F 
HETATM    7  F6  UNL     1     -34.786   6.611   6.355  1.00 20.00    -0.171 F 
HETATM    8  F7  UNL     1     -34.233   4.731   5.402  1.00 20.00    -0.171 F 
ENDBRANCH   1   5
TORSDOF 2
