REMARK  1 active torsions:
REMARK  status: ('A' for Active; 'I' for Inactive)
REMARK    1  A    between atoms: C1_1  and  C2_2 
ROOT
HETATM    1  C1  UNL     1     -33.406   7.096   4.713  1.00 20.00     0.208 C 
HETATM    2  O3  UNL     1     -32.937   8.058   4.124  1.00 20.00    -0.284 OA
HETATM    3 BR5  UNL     1     -33.889   5.602   3.625  1.00 20.00    -0.008 Br
ENDROOT
BRANCH   1   4
HETATM    4  C2  UNL     1     -33.640   6.972   6.191  1.00 20.00     0.205 C 
HETATM    5 CL4  UNL     1     -34.360   5.399   6.565  1.00 20.00    -0.122 Cl
ENDBRANCH   1   4
TORSDOF 1
