REMARK  0 active torsions:
REMARK  status: ('A' for Active; 'I' for Inactive)
ROOT
HETATM    1  C1  UNL     1     -32.171   8.265   3.824  1.00 20.00     0.345 C 
HETATM    2  C2  UNL     1     -33.775   8.132   5.647  1.00 20.00     0.345 C 
HETATM    3  C3  UNL     1     -33.900   6.125   3.768  1.00 20.00     0.151 C 
HETATM    4  N4  UNL     1     -32.402   8.439   5.255  1.00 20.00     0.101 N 
HETATM    5  S5  UNL     1     -32.203   6.530   3.283  1.00 20.00    -0.129 SA
HETATM    6  S6  UNL     1     -34.189   6.366   5.540  1.00 20.00    -0.129 SA
HETATM    7  H13 UNL     1     -31.760   7.844   5.777  1.00 20.00     0.317 HD
ENDROOT
TORSDOF 0
