REMARK  0 active torsions:
REMARK  status: ('A' for Active; 'I' for Inactive)
ROOT
HETATM    1  C1  UNL     1     -32.980   7.447   4.641  1.00 20.00     0.129 C 
HETATM    2  C2  UNL     1     -34.098   7.568   5.667  1.00 20.00     0.093 C 
HETATM    3  C3  UNL     1     -33.209   6.574   3.416  1.00 20.00     0.093 C 
HETATM    4  C4  UNL     1     -33.962   5.085   6.192  1.00 20.00     0.017 C 
HETATM    5  C5  UNL     1     -33.438   4.500   4.868  1.00 20.00     0.017 C 
HETATM    6  C6  UNL     1     -34.881   6.274   5.893  1.00 20.00     0.054 C 
HETATM    7  C7  UNL     1     -34.012   5.303   3.696  1.00 20.00     0.054 C 
HETATM    8  O8  UNL     1     -31.957   8.126   4.745  1.00 20.00    -0.298 OA
HETATM    9  S9  UNL     1     -35.635   5.772   4.332  1.00 20.00    -0.159 SA
ENDROOT
TORSDOF 0
