REMARK  2 active torsions:
REMARK  status: ('A' for Active; 'I' for Inactive)
REMARK    1  A    between atoms: C1_1  and  C3_3 
REMARK    2  A    between atoms: C2_2  and  C5_5 
ROOT
HETATM    1  C1  UNL     1     -34.169   6.235   6.518  1.00 20.00     0.003 C 
HETATM    2  C2  UNL     1     -34.964   5.352   5.901  1.00 20.00     0.041 C 
ENDROOT
BRANCH   1   3
HETATM    3  C3  UNL     1     -33.272   7.114   5.800  1.00 20.00    -0.004 C 
HETATM    4  C4  UNL     1     -33.602   7.718   4.649  1.00 20.00    -0.031 C 
HETATM    5  C6  UNL     1     -32.684   8.626   3.899  1.00 20.00     0.036 C 
ENDBRANCH   1   3
BRANCH   2   6
HETATM    6  C5  UNL     1     -34.929   5.265   4.428  1.00 20.00     0.258 C 
HETATM    7  O7  UNL     1     -33.904   4.981   3.820  1.00 20.00    -0.302 OA
ENDBRANCH   2   6
TORSDOF 2
