REMARK  1 active torsions:
REMARK  status: ('A' for Active; 'I' for Inactive)
REMARK    1  A    between atoms: C2_2  and  C3_3 
ROOT
HETATM    1  C1  UNL     1     -33.368   6.662   3.808  1.00 20.00     0.010 C 
HETATM    2  C2  UNL     1     -32.752   7.658   3.159  1.00 20.00     0.074 C 
HETATM    3  C4  UNL     1     -34.121   6.877   5.098  1.00 20.00     0.058 C 
HETATM    4  C5  UNL     1     -35.008   5.632   5.179  1.00 20.00     0.026 C 
HETATM    5  C6  UNL     1     -34.226   4.549   4.432  1.00 20.00     0.122 C 
HETATM    6  C8  UNL     1     -32.761   4.652   2.396  1.00 20.00     0.149 C 
HETATM    7  N9  UNL     1     -33.460   5.324   3.468  1.00 20.00    -0.388 N 
ENDROOT
BRANCH   2   8
HETATM    8  C3  UNL     1     -32.786   9.045   3.691  1.00 20.00     0.147 C 
HETATM    9  C7  UNL     1     -32.195   9.256   5.060  1.00 20.00     0.096 C 
HETATM   10  O10 UNL     1     -33.247   9.984   3.046  1.00 20.00    -0.294 OA
ENDBRANCH   2   8
TORSDOF 1
