REMARK  1 active torsions:
REMARK  status: ('A' for Active; 'I' for Inactive)
REMARK    1  A    between atoms: C6_6  and  C10_10 
ROOT
HETATM    1  C1  UNL     1     -32.448   6.368   2.274  1.00 20.00     0.053 C 
HETATM    2  C2  UNL     1     -32.348   7.691   2.078  1.00 20.00    -0.080 C 
HETATM    3  C3  UNL     1     -33.029   5.827   3.531  1.00 20.00     0.154 C 
HETATM    4  C4  UNL     1     -32.862   8.708   3.064  1.00 20.00     0.034 C 
HETATM    5  C5  UNL     1     -33.871   8.118   4.048  1.00 20.00     0.017 C 
HETATM    6  C6  UNL     1     -33.361   6.809   4.648  1.00 20.00     0.063 C 
HETATM    7  C7  UNL     1     -31.704   8.248   0.842  1.00 20.00     0.043 C 
HETATM    8  O11 UNL     1     -33.160   4.610   3.653  1.00 20.00    -0.293 OA
ENDROOT
BRANCH   6   9
HETATM    9  C10 UNL     1     -34.391   6.222   5.609  1.00 20.00    -0.011 C 
HETATM   10  C8  UNL     1     -35.699   5.923   4.878  1.00 20.00     0.010 C 
HETATM   11  C9  UNL     1     -33.848   4.960   6.275  1.00 20.00     0.010 C 
ENDBRANCH   6   9
TORSDOF 1
