REMARK  2 active torsions:
REMARK  status: ('A' for Active; 'I' for Inactive)
REMARK    1  A    between atoms: C4_4  and  C10_10 
REMARK    2  A    between atoms: C10_10  and  O11_11 
ROOT
HETATM    1  C1  UNL     1     -32.824   7.457   2.309  1.00 20.00    -0.069 C 
HETATM    2  C2  UNL     1     -32.773   8.321   1.291  1.00 20.00    -0.085 C 
HETATM    3  C3  UNL     1     -32.608   5.964   2.378  1.00 20.00     0.043 C 
HETATM    4  C4  UNL     1     -33.225   6.054   3.796  1.00 20.00     0.025 C 
HETATM    5  C5  UNL     1     -33.099   7.623   3.801  1.00 20.00    -0.018 C 
HETATM    6  C6  UNL     1     -33.030   9.790   1.477  1.00 20.00     0.043 C 
HETATM    7  C7  UNL     1     -32.454   7.886  -0.112  1.00 20.00     0.043 C 
HETATM    8  C8  UNL     1     -34.357   8.418   4.143  1.00 20.00     0.020 C 
HETATM    9  C9  UNL     1     -31.896   8.126   4.605  1.00 20.00     0.020 C 
ENDROOT
BRANCH   4  10
HETATM   10  C10 UNL     1     -34.605   5.412   3.920  1.00 20.00     0.170 C 
BRANCH  10  11
HETATM   11  O11 UNL     1     -35.053   5.550   5.258  1.00 20.00    -0.400 OA
HETATM   12  H29 UNL     1     -35.930   5.135   5.308  1.00 20.00     0.209 HD
ENDBRANCH  10  11
ENDBRANCH   4  10
TORSDOF 2
