REMARK  2 active torsions:
REMARK  status: ('A' for Active; 'I' for Inactive)
REMARK    1  A    between atoms: C4_4  and  C10_10 
REMARK    2  A    between atoms: C10_10  and  O11_11 
ROOT
HETATM    1  C1  UNL     1     -33.094   7.076   3.574  1.00 20.00    -0.069 C 
HETATM    2  C2  UNL     1     -32.563   8.045   2.826  1.00 20.00    -0.085 C 
HETATM    3  C3  UNL     1     -33.496   7.012   5.032  1.00 20.00     0.043 C 
HETATM    4  C4  UNL     1     -33.431   5.475   4.837  1.00 20.00     0.025 C 
HETATM    5  C5  UNL     1     -33.536   5.641   3.275  1.00 20.00    -0.018 C 
HETATM    6  C6  UNL     1     -32.251   7.851   1.368  1.00 20.00     0.043 C 
HETATM    7  C7  UNL     1     -32.239   9.402   3.387  1.00 20.00     0.043 C 
HETATM    8  C8  UNL     1     -32.522   4.786   2.516  1.00 20.00     0.020 C 
HETATM    9  C9  UNL     1     -34.928   5.541   2.648  1.00 20.00     0.020 C 
ENDROOT
BRANCH   4  10
HETATM   10  C10 UNL     1     -34.493   4.669   5.568  1.00 20.00     0.170 C 
BRANCH  10  11
HETATM   11  O11 UNL     1     -35.725   5.367   5.493  1.00 20.00    -0.400 OA
HETATM   12  H29 UNL     1     -36.384   4.832   5.967  1.00 20.00     0.209 HD
ENDBRANCH  10  11
ENDBRANCH   4  10
TORSDOF 2
