REMARK  3 active torsions:
REMARK  status: ('A' for Active; 'I' for Inactive)
REMARK    1  A    between atoms: C1_1  and  C4_4 
REMARK    2  A    between atoms: C4_4  and  C5_5 
REMARK    3  A    between atoms: N6_6  and  O7_7 
ROOT
HETATM    1  C1  UNL     1     -34.134   6.878   5.474  1.00 20.00     0.035 C 
HETATM    2  C2  UNL     1     -33.127   6.574   6.559  1.00 20.00     0.068 C 
HETATM    3  N6  UNL     1     -35.146   6.117   5.189  1.00 20.00    -0.146 NA
ENDROOT
BRANCH   1   4
HETATM    4  C4  UNL     1     -33.972   8.170   4.696  1.00 20.00     0.056 C 
BRANCH   4   5
HETATM    5  C5  UNL     1     -32.505   8.559   4.529  1.00 20.00     0.001 C 
HETATM    6  C3  UNL     1     -31.699   7.511   3.776  1.00 20.00     0.005 C 
ENDBRANCH   4   5
ENDBRANCH   1   4
BRANCH   3   7
HETATM    7  O7  UNL     1     -35.174   4.987   6.009  1.00 20.00    -0.266 OA
HETATM    8  H18 UNL     1     -35.966   4.529   5.684  1.00 20.00     0.247 HD
ENDBRANCH   3   7
TORSDOF 3
