REMARK  0 active torsions:
REMARK  status: ('A' for Active; 'I' for Inactive)
ROOT
HETATM    1  C1  UNL     1     -33.885   7.578   5.983  1.00 20.00     0.027 A 
HETATM    2  C2  UNL     1     -33.050   8.603   5.563  1.00 20.00     0.116 A 
HETATM    3  C3  UNL     1     -32.611   7.592   3.528  1.00 20.00     0.124 A 
HETATM    4  C4  UNL     1     -34.049   6.527   5.103  1.00 20.00    -0.049 A 
HETATM    5  C5  UNL     1     -33.411   6.523   3.862  1.00 20.00    -0.030 A 
HETATM    6  C6  UNL     1     -34.906   5.311   5.267  1.00 20.00     0.040 C 
HETATM    7  C7  UNL     1     -34.313   4.388   4.191  1.00 20.00     0.014 C 
HETATM    8  C8  UNL     1     -33.786   5.308   3.068  1.00 20.00     0.017 C 
HETATM    9  C9  UNL     1     -32.648   4.672   2.286  1.00 20.00     0.015 C 
HETATM   10  N10 UNL     1     -32.410   8.638   4.364  1.00 20.00    -0.273 NA
ENDROOT
TORSDOF 0
