REMARK  1 active torsions:
REMARK  status: ('A' for Active; 'I' for Inactive)
REMARK    1  A    between atoms: C1_1  and  C2_2 
ROOT
HETATM    1  C1  UNL     1     -33.120   7.057   3.758  1.00 20.00     0.028 C 
HETATM    2  C4  UNL     1     -34.300   6.202   4.166  1.00 20.00     0.059 C 
HETATM    3  C5  UNL     1     -34.225   5.871   5.651  1.00 20.00     0.008 C 
HETATM    4  C6  UNL     1     -33.637   7.009   6.485  1.00 20.00     0.022 C 
HETATM    5  C7  UNL     1     -33.510   8.299   5.686  1.00 20.00     0.149 C 
HETATM    6  N9  UNL     1     -32.729   8.068   4.464  1.00 20.00    -0.294 NA
ENDROOT
BRANCH   1   7
HETATM    7  C2  UNL     1     -32.434   6.719   2.497  1.00 20.00     0.022 C 
HETATM    8  C3  UNL     1     -32.349   7.575   1.500  1.00 20.00    -0.029 C 
HETATM    9  C8  UNL     1     -32.942   8.943   1.579  1.00 20.00     0.036 C 
ENDBRANCH   1   7
TORSDOF 1
