REMARK  0 active torsions:
REMARK  status: ('A' for Active; 'I' for Inactive)
ROOT
HETATM    1  C1  UNL     1     -32.991   7.361   5.953  1.00 20.00     0.011 C 
HETATM    2  C2  UNL     1     -34.431   7.124   6.412  1.00 20.00     0.011 C 
HETATM    3  C3  UNL     1     -32.857   7.634   4.456  1.00 20.00     0.075 C 
HETATM    4  C4  UNL     1     -34.839   5.666   6.609  1.00 20.00     0.075 C 
HETATM    5  C5  UNL     1     -34.554   5.504   3.819  1.00 20.00     0.147 C 
HETATM    6  S6  UNL     1     -32.926   6.168   3.383  1.00 20.00    -0.159 SA
HETATM    7  S7  UNL     1     -34.467   4.463   5.296  1.00 20.00    -0.159 SA
ENDROOT
TORSDOF 0
