REMARK  0 active torsions:
REMARK  status: ('A' for Active; 'I' for Inactive)
ROOT
HETATM    1  C1  UNL     1     -33.001   6.483   3.100  1.00 20.00     0.029 A 
HETATM    2  C2  UNL     1     -32.486   8.688   3.889  1.00 20.00     0.136 A 
HETATM    3  C3  UNL     1     -33.653   6.278   4.299  1.00 20.00    -0.032 A 
HETATM    4  C4  UNL     1     -32.395   7.720   2.889  1.00 20.00     0.029 A 
HETATM    5  C5  UNL     1     -33.691   7.308   5.232  1.00 20.00     0.040 A 
HETATM    6  C6  UNL     1     -34.407   5.083   4.775  1.00 20.00     0.041 C 
HETATM    7  C7  UNL     1     -34.490   6.903   6.438  1.00 20.00     0.060 C 
HETATM    8  C8  UNL     1     -34.498   5.375   6.282  1.00 20.00     0.011 C 
HETATM    9  N9  UNL     1     -33.130   8.517   5.069  1.00 20.00    -0.264 NA
HETATM   10 BR10 UNL     1     -31.475   8.078   1.283  1.00 20.00    -0.050 Br
ENDROOT
TORSDOF 0
