REMARK  6 active torsions:
REMARK  status: ('A' for Active; 'I' for Inactive)
REMARK    1  A    between atoms: C1_1  and  C6_6 
REMARK    2  A    between atoms: C1_1  and  C10_10 
REMARK    3  A    between atoms: C7_7  and  C8_8 
REMARK    4  A    between atoms: C8_8  and  C11_11 
REMARK    5  A    between atoms: C9_9  and  C10_10 
REMARK    6  A    between atoms: C9_9  and  C11_11 
ROOT
HETATM    1  C9  UNL     1     -33.320   6.956   5.568  1.00 20.00     0.016 C 
ENDROOT
BRANCH   1   2
HETATM    2  C10 UNL     1     -34.728   6.350   5.442  1.00 20.00     0.051 C 
HETATM    3  C4  UNL     1     -34.975   5.199   6.415  1.00 20.00     0.018 C 
BRANCH   2   4
HETATM    4  C1  UNL     1     -34.925   5.866   4.003  1.00 20.00     0.130 C 
HETATM    5  O12 UNL     1     -35.825   6.310   3.290  1.00 20.00    -0.298 OA
BRANCH   4   6
HETATM    6  C6  UNL     1     -33.966   4.789   3.520  1.00 20.00     0.074 C 
HETATM    7  C2  UNL     1     -33.130   5.240   2.336  1.00 20.00     0.013 C 
ENDBRANCH   4   6
ENDBRANCH   2   4
ENDBRANCH   1   2
BRANCH   1   8
HETATM    8  C11 UNL     1     -33.166   8.427   5.118  1.00 20.00    -0.018 C 
HETATM    9  C5  UNL     1     -31.944   9.031   5.821  1.00 20.00     0.010 C 
BRANCH   8  10
HETATM   10  C8  UNL     1     -33.063   8.547   3.584  1.00 20.00     0.004 C 
BRANCH  10  11
HETATM   11  C7  UNL     1     -33.027   9.992   3.078  1.00 20.00    -0.004 C 
HETATM   12  C3  UNL     1     -32.998  10.047   1.558  1.00 20.00     0.005 C 
ENDBRANCH  10  11
ENDBRANCH   8  10
ENDBRANCH   1   8
TORSDOF 6
