REMARK  1 active torsions:
REMARK  status: ('A' for Active; 'I' for Inactive)
REMARK    1  A    between atoms: C3_3  and  C4_4 
ROOT
HETATM    1  C1  UNL     1     -34.019   4.984   4.205  1.00 20.00     0.087 C 
HETATM    2  C2  UNL     1     -34.541   4.822   5.516  1.00 20.00     0.093 C 
HETATM    3  C3  UNL     1     -34.677   5.863   6.350  1.00 20.00     0.011 C 
HETATM    4  N7  UNL     1     -33.594   5.113   3.133  1.00 20.00    -0.192 NA
ENDROOT
BRANCH   3   5
HETATM    5  C4  UNL     1     -34.309   7.214   5.988  1.00 20.00    -0.004 C 
HETATM    6  C5  UNL     1     -33.210   7.510   5.279  1.00 20.00    -0.031 C 
HETATM    7  C6  UNL     1     -32.820   8.900   4.897  1.00 20.00     0.036 C 
ENDBRANCH   3   5
TORSDOF 1
