REMARK  1 active torsions:
REMARK  status: ('A' for Active; 'I' for Inactive)
REMARK    1  A    between atoms: C3_3  and  C5_5 
ROOT
HETATM    1  C1  UNL     1     -32.809   6.126   3.146  1.00 20.00     0.025 A 
HETATM    2  C2  UNL     1     -32.575   6.994   2.041  1.00 20.00     0.028 A 
HETATM    3  C3  UNL     1     -33.396   6.783   4.205  1.00 20.00     0.089 A 
HETATM    4  C4  UNL     1     -32.993   8.281   2.296  1.00 20.00     0.052 A 
HETATM    5  S9  UNL     1     -33.663   8.439   3.864  1.00 20.00    -0.078 SA
HETATM    6 BR10 UNL     1     -32.849   9.722   1.067  1.00 20.00    -0.043 Br
ENDROOT
BRANCH   3   7
HETATM    7  C5  UNL     1     -33.793   6.237   5.521  1.00 20.00     0.423 C 
HETATM    8  F6  UNL     1     -33.530   4.901   5.676  1.00 20.00    -0.166 F 
HETATM    9  F7  UNL     1     -33.172   6.837   6.585  1.00 20.00    -0.166 F 
HETATM   10  F8  UNL     1     -35.133   6.366   5.774  1.00 20.00    -0.166 F 
ENDBRANCH   3   7
TORSDOF 1
