REMARK  2 active torsions:
REMARK  status: ('A' for Active; 'I' for Inactive)
REMARK    1  A    between atoms: C1_1  and  C6_6 
REMARK    2  A    between atoms: C5_5  and  N7_7 
ROOT
HETATM    1  C1  UNL     1     -33.524   6.729   4.925  1.00 20.00     0.108 C 
HETATM    2  C2  UNL     1     -33.115   7.232   6.287  1.00 20.00     0.075 C 
HETATM    3  N7  UNL     1     -33.164   7.263   3.807  1.00 20.00    -0.285 NA
ENDROOT
BRANCH   1   4
HETATM    4  C6  UNL     1     -34.404   5.511   4.880  1.00 20.00     0.430 C 
HETATM    5  F8  UNL     1     -34.691   5.056   6.126  1.00 20.00    -0.165 F 
HETATM    6  F9  UNL     1     -33.838   4.478   4.205  1.00 20.00    -0.165 F 
HETATM    7  F10 UNL     1     -35.590   5.773   4.273  1.00 20.00    -0.165 F 
ENDBRANCH   1   4
BRANCH   3   8
HETATM    8  C5  UNL     1     -32.303   8.436   3.845  1.00 20.00     0.100 C 
HETATM    9  C3  UNL     1     -31.416   8.437   2.609  1.00 20.00     0.034 C 
HETATM   10  C4  UNL     1     -33.171   9.683   3.918  1.00 20.00     0.034 C 
ENDBRANCH   3   8
TORSDOF 2
