REMARK  2 active torsions:
REMARK  status: ('A' for Active; 'I' for Inactive)
REMARK    1  A    between atoms: C1_1  and  N7_7 
REMARK    2  A    between atoms: N6_6  and  N8_8 
ROOT
HETATM    1  C1  UNL     1     -33.264   7.364   4.050  1.00 20.00     0.220 C 
HETATM    2  N6  UNL     1     -33.748   6.739   5.077  1.00 20.00    -0.195 NA
ENDROOT
BRANCH   1   3
HETATM    3  N7  UNL     1     -32.624   8.591   4.023  1.00 20.00    -0.383 N 
HETATM    4  C2  UNL     1     -32.414   9.355   5.245  1.00 20.00     0.150 C 
HETATM    5  C3  UNL     1     -32.373   9.283   2.767  1.00 20.00     0.150 C 
ENDBRANCH   1   3
BRANCH   2   6
HETATM    6  N8  UNL     1     -34.306   5.543   4.751  1.00 20.00    -0.216 NA
HETATM    7  C4  UNL     1     -34.241   4.520   5.803  1.00 20.00     0.138 C 
HETATM    8  C5  UNL     1     -35.690   5.654   4.284  1.00 20.00     0.138 C 
ENDBRANCH   2   6
TORSDOF 2
