REMARK  3 active torsions:
REMARK  status: ('A' for Active; 'I' for Inactive)
REMARK    1  A    between atoms: C1_1  and  C5_5 
REMARK    2  A    between atoms: C5_5  and  C6_6 
REMARK    3  A    between atoms: C5_5  and  O8_8 
ROOT
HETATM    1  C5  UNL     1     -33.700   7.003   5.556  1.00 20.00     0.186 C 
ENDROOT
BRANCH   1   2
HETATM    2  C1  UNL     1     -33.641   8.335   4.831  1.00 20.00     0.263 C 
HETATM    3  O7  UNL     1     -32.746   8.661   4.056  1.00 20.00    -0.304 OA
ENDBRANCH   1   2
BRANCH   1   4
HETATM    4  C6  UNL     1     -34.500   5.917   4.789  1.00 20.00    -0.019 C 
HETATM    5  C2  UNL     1     -34.531   4.595   5.577  1.00 20.00     0.017 C 
HETATM    6  C3  UNL     1     -33.815   5.650   3.431  1.00 20.00     0.017 C 
HETATM    7  C4  UNL     1     -35.945   6.375   4.512  1.00 20.00     0.017 C 
ENDBRANCH   1   4
BRANCH   1   8
HETATM    8  O8  UNL     1     -34.281   7.231   6.833  1.00 20.00    -0.388 OA
HETATM    9  H20 UNL     1     -33.707   7.863   7.293  1.00 20.00     0.210 HD
ENDBRANCH   1   8
TORSDOF 3
