REMARK  0 active torsions:
REMARK  status: ('A' for Active; 'I' for Inactive)
ROOT
HETATM    1  C1  UNL     1     -33.301   8.602   3.598  1.00 20.00     0.013 A 
HETATM    2  C2  UNL     1     -32.791   8.734   2.306  1.00 20.00     0.043 A 
HETATM    3  C3  UNL     1     -32.546   6.354   2.195  1.00 20.00     0.050 A 
HETATM    4  C4  UNL     1     -33.457   7.348   4.237  1.00 20.00    -0.020 A 
HETATM    5  C5  UNL     1     -33.073   6.208   3.497  1.00 20.00    -0.046 A 
HETATM    6  C6  UNL     1     -32.410   7.605   1.602  1.00 20.00     0.117 A 
HETATM    7  C7  UNL     1     -33.175   4.804   4.043  1.00 20.00     0.039 C 
HETATM    8  C8  UNL     1     -34.561   4.472   4.582  1.00 20.00     0.007 C 
HETATM    9  C9  UNL     1     -34.693   4.778   6.063  1.00 20.00     0.035 C 
HETATM   10  C10 UNL     1     -33.994   7.360   5.652  1.00 20.00     0.184 A 
HETATM   11  C11 UNL     1     -34.598   6.217   6.433  1.00 20.00     0.156 A 
HETATM   12  O12 UNL     1     -33.242   6.650   6.645  1.00 20.00    -0.370 OA
HETATM   13  F13 UNL     1     -31.917   7.713   0.364  1.00 20.00    -0.206 F 
ENDROOT
TORSDOF 0
