REMARK  1 active torsions:
REMARK  status: ('A' for Active; 'I' for Inactive)
REMARK    1  A    between atoms: C2_2  and  C4_4 
ROOT
HETATM    1  C1  UNL     1     -33.600   5.276   3.556  1.00 20.00     0.146 C 
HETATM    2  C4  UNL     1     -34.182   5.834   4.776  1.00 20.00     0.388 C 
HETATM    3  N5  UNL     1     -33.141   4.830   2.589  1.00 20.00    -0.190 NA
HETATM    4  F9  UNL     1     -35.520   5.989   4.580  1.00 20.00    -0.181 F 
HETATM    5  F10 UNL     1     -34.053   4.915   5.770  1.00 20.00    -0.181 F 
ENDROOT
BRANCH   2   6
HETATM    6  C2  UNL     1     -33.553   7.145   5.118  1.00 20.00     0.247 C 
HETATM    7  C3  UNL     1     -32.586   7.741   4.413  1.00 20.00     0.308 C 
HETATM    8  F7  UNL     1     -32.077   8.929   4.801  1.00 20.00    -0.170 F 
HETATM    9  F8  UNL     1     -32.109   7.145   3.300  1.00 20.00    -0.170 F 
HETATM   10  F6  UNL     1     -33.975   7.768   6.245  1.00 20.00    -0.197 F 
ENDBRANCH   2   6
TORSDOF 1
