REMARK  0 active torsions:
REMARK  status: ('A' for Active; 'I' for Inactive)
ROOT
HETATM    1  C1  UNL     1     -32.740   7.867   4.284  1.00 20.00     0.064 C 
HETATM    2  C2  UNL     1     -35.379   5.253   4.075  1.00 20.00     0.011 C 
HETATM    3  C3  UNL     1     -34.090   4.778   6.018  1.00 20.00     0.010 C 
HETATM    4  C4  UNL     1     -33.624   6.796   3.823  1.00 20.00     0.101 C 
HETATM    5  C5  UNL     1     -34.098   4.526   4.498  1.00 20.00    -0.009 C 
HETATM    6  C6  UNL     1     -34.914   6.600   4.652  1.00 20.00     0.007 C 
HETATM    7  C7  UNL     1     -34.704   6.188   6.134  1.00 20.00    -0.013 C 
HETATM    8  C8  UNL     1     -32.977   5.391   3.861  1.00 20.00     0.003 C 
HETATM    9  C9  UNL     1     -33.907   7.125   7.024  1.00 20.00     0.010 C 
HETATM   10  C10 UNL     1     -32.591   4.900   2.468  1.00 20.00     0.011 C 
HETATM   11  N11 UNL     1     -32.040   8.716   4.650  1.00 20.00    -0.197 NA
ENDROOT
TORSDOF 0
