REMARK  0 active torsions:
REMARK  status: ('A' for Active; 'I' for Inactive)
ROOT
HETATM    1  C1  UNL     1     -34.326   4.450   5.692  1.00 20.00     0.184 C 
HETATM    2  C2  UNL     1     -34.621   6.475   5.474  1.00 20.00     0.184 C 
HETATM    3  C3  UNL     1     -34.648   5.318   4.477  1.00 20.00     0.101 C 
HETATM    4  O4  UNL     1     -34.562   5.558   6.594  1.00 20.00    -0.389 OA
HETATM    5  I5  UNL     1     -32.998   5.383   2.842  1.00 20.00    -0.080 I 
ENDROOT
TORSDOF 0
