REMARK  1 active torsions:
REMARK  status: ('A' for Active; 'I' for Inactive)
REMARK    1  A    between atoms: C10_10  and  O11_11 
ROOT
HETATM    1  C1  UNL     1     -32.345   8.787   5.105  1.00 20.00    -0.030 C 
HETATM    2  C2  UNL     1     -32.000   7.755   4.302  1.00 20.00    -0.025 C 
HETATM    3  C3  UNL     1     -33.800   8.679   5.570  1.00 20.00     0.032 C 
HETATM    4  C4  UNL     1     -35.218   5.859   3.790  1.00 20.00     0.013 C 
HETATM    5  C5  UNL     1     -33.479   4.548   4.795  1.00 20.00     0.037 C 
HETATM    6  C6  UNL     1     -33.245   7.003   4.008  1.00 20.00     0.017 C 
HETATM    7  C7  UNL     1     -33.920   7.186   5.376  1.00 20.00     0.003 C 
HETATM    8  C8  UNL     1     -33.693   5.580   3.664  1.00 20.00    -0.004 C 
HETATM    9  C9  UNL     1     -35.133   6.240   5.281  1.00 20.00     0.020 C 
HETATM   10  C10 UNL     1     -34.634   4.856   5.787  1.00 20.00     0.123 C 
ENDROOT
BRANCH  10  11
HETATM   11  O11 UNL     1     -34.191   4.861   7.129  1.00 20.00    -0.395 OA
HETATM   12  H25 UNL     1     -33.831   3.977   7.317  1.00 20.00     0.210 HD
ENDBRANCH  10  11
TORSDOF 1
