REMARK  1 active torsions:
REMARK  status: ('A' for Active; 'I' for Inactive)
REMARK    1  A    between atoms: C3_3  and  C4_4 
ROOT
HETATM    1  C1  UNL     1     -33.845   7.520   5.440  1.00 20.00     0.087 A 
HETATM    2  C2  UNL     1     -34.955   5.726   6.604  1.00 20.00     0.166 A 
HETATM    3  C3  UNL     1     -33.858   6.301   4.794  1.00 20.00     0.125 A 
HETATM    4  N5  UNL     1     -34.493   5.272   5.460  1.00 20.00    -0.249 NA
HETATM    5  S7  UNL     1     -34.661   7.383   6.943  1.00 20.00    -0.092 SA
ENDROOT
BRANCH   3   6
HETATM    6  C4  UNL     1     -33.259   6.072   3.510  1.00 20.00     0.271 C 
HETATM    7  O6  UNL     1     -33.316   4.928   2.989  1.00 20.00    -0.272 OA
HETATM    8 CL8  UNL     1     -32.428   7.371   2.615  1.00 20.00    -0.037 Cl
ENDBRANCH   3   6
TORSDOF 1
