REMARK  0 active torsions:
REMARK  status: ('A' for Active; 'I' for Inactive)
ROOT
HETATM    1  C1  UNL     1     -33.777   6.999   4.562  1.00 20.00     0.101 C 
HETATM    2  C2  UNL     1     -34.762   5.691   6.414  1.00 20.00     0.067 C 
HETATM    3  C3  UNL     1     -34.605   5.839   4.906  1.00 20.00     0.197 C 
HETATM    4  N4  UNL     1     -33.121   7.918   4.292  1.00 20.00    -0.194 NA
HETATM    5 CL5  UNL     1     -36.206   6.057   4.151  1.00 20.00    -0.085 Cl
HETATM    6 CL6  UNL     1     -33.827   4.383   4.233  1.00 20.00    -0.085 Cl
ENDROOT
TORSDOF 0
