REMARK  0 active torsions:
REMARK  status: ('A' for Active; 'I' for Inactive)
ROOT
HETATM    1  C1  UNL     1     -32.840   8.956   5.426  1.00 20.00     0.015 A 
HETATM    2  C2  UNL     1     -32.261   9.078   4.158  1.00 20.00     0.025 A 
HETATM    3  C3  UNL     1     -34.185   7.301   6.929  1.00 20.00     0.031 A 
HETATM    4  C4  UNL     1     -32.988   6.840   3.552  1.00 20.00     0.054 A 
HETATM    5  C5  UNL     1     -34.636   6.027   6.673  1.00 20.00     0.091 A 
HETATM    6  C6  UNL     1     -33.503   7.760   5.767  1.00 20.00    -0.008 A 
HETATM    7  C7  UNL     1     -33.562   6.732   4.824  1.00 20.00     0.045 A 
HETATM    8  C8  UNL     1     -32.335   8.035   3.237  1.00 20.00     0.036 A 
HETATM    9  C9  UNL     1     -34.547   4.423   4.771  1.00 20.00     0.155 C 
HETATM   10  N10 UNL     1     -34.255   5.692   5.401  1.00 20.00    -0.360 N 
HETATM   11 CL11 UNL     1     -31.611   8.218   1.684  1.00 20.00    -0.084 Cl
ENDROOT
TORSDOF 0
