REMARK  3 active torsions:
REMARK  status: ('A' for Active; 'I' for Inactive)
REMARK    1  A    between atoms: C1_1  and  C3_3 
REMARK    2  A    between atoms: C3_3  and  O9_9 
REMARK    3  A    between atoms: C7_7  and  O9_9 
ROOT
HETATM    1  C3  UNL     1     -34.014   6.855   5.631  1.00 20.00     0.282 C 
HETATM    2  O8  UNL     1     -33.451   7.089   6.689  1.00 20.00    -0.260 OA
ENDROOT
BRANCH   1   3
HETATM    3  C1  UNL     1     -35.188   5.972   5.462  1.00 20.00     0.077 C 
HETATM    4  C2  UNL     1     -35.109   4.899   4.665  1.00 20.00    -0.025 C 
HETATM    5  C4  UNL     1     -33.874   4.524   3.912  1.00 20.00     0.036 C 
ENDBRANCH   1   3
BRANCH   1   6
HETATM    6  O9  UNL     1     -33.687   7.345   4.405  1.00 20.00    -0.314 OA
BRANCH   6   7
HETATM    7  C7  UNL     1     -32.299   7.635   4.208  1.00 20.00     0.124 C 
HETATM    8  C5  UNL     1     -31.944   7.412   2.746  1.00 20.00     0.040 C 
HETATM    9  C6  UNL     1     -32.019   9.064   4.648  1.00 20.00     0.040 C 
ENDBRANCH   6   7
ENDBRANCH   1   6
TORSDOF 3
