REMARK  0 active torsions:
REMARK  status: ('A' for Active; 'I' for Inactive)
ROOT
HETATM    1  C1  UNL     1     -32.383   8.005   3.788  1.00 20.00     0.179 A 
HETATM    2  C2  UNL     1     -33.090   7.106   4.540  1.00 20.00    -0.007 A 
HETATM    3  C3  UNL     1     -33.266   6.005   3.673  1.00 20.00     0.070 A 
HETATM    4  C4  UNL     1     -33.622   7.163   5.922  1.00 20.00     0.043 C 
HETATM    5  C5  UNL     1     -33.965   4.753   4.059  1.00 20.00     0.062 C 
HETATM    6  C6  UNL     1     -34.022   5.758   6.413  1.00 20.00     0.005 C 
HETATM    7  C7  UNL     1     -34.794   4.964   5.341  1.00 20.00     0.006 C 
HETATM    8  N8  UNL     1     -32.704   6.203   2.478  1.00 20.00    -0.133 NA
HETATM    9  O9  UNL     1     -32.146   7.477   2.556  1.00 20.00    -0.225 OA
ENDROOT
TORSDOF 0
