REMARK  3 active torsions:
REMARK  status: ('A' for Active; 'I' for Inactive)
REMARK    1  A    between atoms: C3_3  and  C8_8 
REMARK    2  A    between atoms: C7_7  and  C8_8 
REMARK    3  A    between atoms: N9_9  and  O10_10 
ROOT
HETATM    1  C1  UNL     1     -33.884   5.950   3.590  1.00 20.00     0.043 C 
HETATM    2  C4  UNL     1     -32.713   5.507   2.763  1.00 20.00     0.057 C 
HETATM    3  C5  UNL     1     -32.319   6.813   2.086  1.00 20.00     0.006 C 
HETATM    4  C6  UNL     1     -32.647   7.887   3.119  1.00 20.00     0.011 C 
HETATM    5  C7  UNL     1     -33.988   7.451   3.721  1.00 20.00     0.039 C 
HETATM    6  N9  UNL     1     -34.715   5.108   4.105  1.00 20.00    -0.145 NA
ENDROOT
BRANCH   5   7
HETATM    7  C8  UNL     1     -34.164   7.932   5.149  1.00 20.00     0.036 C 
BRANCH   7   8
HETATM    8  C3  UNL     1     -33.257   7.197   6.089  1.00 20.00    -0.036 C 
HETATM    9  C2  UNL     1     -33.684   6.494   7.143  1.00 20.00     0.007 C 
ENDBRANCH   7   8
ENDBRANCH   5   7
BRANCH   6  10
HETATM   10  O10 UNL     1     -35.684   5.822   4.812  1.00 20.00    -0.266 OA
HETATM   11  H23 UNL     1     -36.246   5.105   5.150  1.00 20.00     0.247 HD
ENDBRANCH   6  10
TORSDOF 3
