REMARK  3 active torsions:
REMARK  status: ('A' for Active; 'I' for Inactive)
REMARK    1  A    between atoms: C3_3  and  C5_5 
REMARK    2  A    between atoms: C4_4  and  C6_6 
REMARK    3  A    between atoms: C5_5  and  C6_6 
ROOT
HETATM    1  C1  UNL     1     -32.704   8.425   5.036  1.00 20.00     0.087 C 
HETATM    2  C3  UNL     1     -33.059   7.075   5.307  1.00 20.00     0.093 C 
HETATM    3  N7  UNL     1     -32.411   9.525   4.813  1.00 20.00    -0.192 NA
ENDROOT
BRANCH   2   4
HETATM    4  C5  UNL     1     -34.193   6.765   5.951  1.00 20.00     0.011 C 
BRANCH   4   5
HETATM    5  C6  UNL     1     -34.585   5.404   6.243  1.00 20.00     0.011 C 
BRANCH   5   6
HETATM    6  C4  UNL     1     -34.416   4.394   5.378  1.00 20.00     0.093 C 
HETATM    7  C2  UNL     1     -33.831   4.601   4.100  1.00 20.00     0.087 C 
HETATM    8  N8  UNL     1     -33.353   4.767   3.056  1.00 20.00    -0.192 NA
ENDBRANCH   5   6
ENDBRANCH   4   5
ENDBRANCH   2   4
TORSDOF 3
