REMARK  3 active torsions:
REMARK  status: ('A' for Active; 'I' for Inactive)
REMARK    1  A    between atoms: C3_3  and  C7_7 
REMARK    2  A    between atoms: C4_4  and  C5_5 
REMARK    3  A    between atoms: C7_7  and  O9_9 
ROOT
HETATM    1  C1  UNL     1     -33.371   6.510   3.756  1.00 20.00     0.031 A 
HETATM    2  C2  UNL     1     -32.494   8.657   3.898  1.00 20.00     0.060 A 
HETATM    3  C3  UNL     1     -32.642   7.544   3.100  1.00 20.00    -0.027 A 
HETATM    4  C4  UNL     1     -33.750   6.872   5.030  1.00 20.00     0.043 A 
HETATM    5  S10 UNL     1     -33.230   8.453   5.430  1.00 20.00    -0.098 SA
ENDROOT
BRANCH   3   6
HETATM    6  C7  UNL     1     -32.109   7.433   1.723  1.00 20.00     0.206 C 
BRANCH   6   7
HETATM    7  O9  UNL     1     -32.077   8.722   1.113  1.00 20.00    -0.391 OA
HETATM    8  C6  UNL     1     -33.358   9.098   0.631  1.00 20.00     0.201 C 
ENDBRANCH   6   7
ENDBRANCH   3   6
BRANCH   4   9
HETATM    9  C5  UNL     1     -34.486   6.118   5.993  1.00 20.00     0.277 C 
HETATM   10  O8  UNL     1     -34.460   4.871   6.076  1.00 20.00    -0.301 OA
ENDBRANCH   4   9
TORSDOF 3
