REMARK  3 active torsions:
REMARK  status: ('A' for Active; 'I' for Inactive)
REMARK    1  A    between atoms: C3_3  and  C6_6 
REMARK    2  A    between atoms: C4_4  and  C7_7 
REMARK    3  A    between atoms: C5_5  and  C8_8 
ROOT
HETATM    1  C1  UNL     1     -33.688   7.756   4.379  1.00 20.00     0.012 C 
HETATM    2  C2  UNL     1     -34.250   7.506   6.646  1.00 20.00     0.012 C 
HETATM    3  C3  UNL     1     -33.054   7.338   5.707  1.00 20.00    -0.005 C 
HETATM    4  C4  UNL     1     -34.704   6.620   4.408  1.00 20.00     0.022 C 
HETATM    5  C5  UNL     1     -35.079   6.453   5.919  1.00 20.00     0.022 C 
ENDROOT
BRANCH   3   6
HETATM    6  C6  UNL     1     -32.952   5.793   5.562  1.00 20.00     0.048 C 
HETATM    7  C7  UNL     1     -33.781   5.412   4.303  1.00 20.00     0.133 C 
HETATM    8  O9  UNL     1     -34.369   4.298   5.047  1.00 20.00    -0.379 OA
HETATM    9  C8  UNL     1     -34.248   5.204   6.188  1.00 20.00     0.133 C 
ENDBRANCH   3   6
TORSDOF 3
