REMARK  0 active torsions:
REMARK  status: ('A' for Active; 'I' for Inactive)
ROOT
HETATM    1  C1  UNL     1     -32.993   6.234   2.757  1.00 20.00     0.086 C 
HETATM    2  C2  UNL     1     -33.638   8.873   5.307  1.00 20.00     0.017 C 
HETATM    3  C3  UNL     1     -31.766   7.702   4.401  1.00 20.00     0.049 C 
HETATM    4  C4  UNL     1     -32.441   8.018   5.764  1.00 20.00     0.020 C 
HETATM    5  C5  UNL     1     -34.194   7.752   4.398  1.00 20.00     0.055 C 
HETATM    6  C6  UNL     1     -33.098   6.738   6.253  1.00 20.00     0.155 A 
HETATM    7  C7  UNL     1     -34.277   6.563   5.357  1.00 20.00     0.158 A 
HETATM    8  C8  UNL     1     -32.983   7.531   3.442  1.00 20.00     0.132 C 
HETATM    9  N9  UNL     1     -33.001   5.208   2.214  1.00 20.00    -0.195 NA
HETATM   10  O10 UNL     1     -34.434   6.830   6.755  1.00 20.00    -0.374 OA
HETATM   11 CL11 UNL     1     -32.957   8.779   2.155  1.00 20.00    -0.102 Cl
ENDROOT
TORSDOF 0
