REMARK  1 active torsions:
REMARK  status: ('A' for Active; 'I' for Inactive)
REMARK    1  A    between atoms: C10_10  and  O12_12 
ROOT
HETATM    1  C1  UNL     1     -35.807   6.711   4.614  1.00 20.00     0.005 C 
HETATM    2  C2  UNL     1     -35.267   6.048   3.339  1.00 20.00     0.005 C 
HETATM    3  C3  UNL     1     -33.232   8.139   5.486  1.00 20.00     0.008 C 
HETATM    4  C4  UNL     1     -32.964   8.360   4.002  1.00 20.00     0.033 C 
HETATM    5  C5  UNL     1     -34.732   4.684   5.193  1.00 20.00     0.010 C 
HETATM    6  C6  UNL     1     -34.917   6.115   5.716  1.00 20.00    -0.010 C 
HETATM    7  C7  UNL     1     -34.129   5.156   3.862  1.00 20.00    -0.007 C 
HETATM    8  C8  UNL     1     -33.462   6.639   5.654  1.00 20.00    -0.004 C 
HETATM    9  C9  UNL     1     -32.912   5.960   4.379  1.00 20.00     0.023 C 
HETATM   10  C10 UNL     1     -32.287   7.073   3.544  1.00 20.00     0.125 C 
ENDROOT
BRANCH  10  11
HETATM   11  O12 UNL     1     -32.425   6.852   2.155  1.00 20.00    -0.390 OA
HETATM   12  C11 UNL     1     -32.283   8.057   1.410  1.00 20.00     0.202 C 
ENDBRANCH  10  11
TORSDOF 1
