REMARK  3 active torsions:
REMARK  status: ('A' for Active; 'I' for Inactive)
REMARK    1  A    between atoms: C2_2  and  C7_7 
REMARK    2  A    between atoms: C3_3  and  C8_8 
REMARK    3  A    between atoms: C8_8  and  C9_9 
ROOT
HETATM    1  C1  UNL     1     -33.160   8.135   4.989  1.00 20.00     0.095 C 
HETATM    2  C2  UNL     1     -33.378   6.803   4.505  1.00 20.00     0.024 C 
HETATM    3  C3  UNL     1     -32.956   6.444   3.267  1.00 20.00    -0.067 C 
HETATM    4  C4  UNL     1     -33.145   5.062   2.678  1.00 20.00     0.044 C 
HETATM    5  N10 UNL     1     -32.989   9.209   5.394  1.00 20.00    -0.192 NA
ENDROOT
BRANCH   2   6
HETATM    6  C7  UNL     1     -34.134   5.877   5.440  1.00 20.00     0.046 C 
HETATM    7  C5  UNL     1     -34.478   6.552   6.761  1.00 20.00     0.011 C 
ENDBRANCH   2   6
BRANCH   3   8
HETATM    8  C8  UNL     1     -32.273   7.408   2.310  1.00 20.00     0.034 C 
BRANCH   8   9
HETATM    9  C9  UNL     1     -33.278   8.197   1.468  1.00 20.00    -0.000 C 
HETATM   10  C6  UNL     1     -32.574   9.136   0.501  1.00 20.00     0.005 C 
ENDBRANCH   8   9
ENDBRANCH   3   8
TORSDOF 3
