REMARK  0 active torsions:
REMARK  status: ('A' for Active; 'I' for Inactive)
ROOT
HETATM    1  C1  UNL     1     -34.153   4.869   4.734  1.00 20.00     0.096 C 
HETATM    2  C2  UNL     1     -33.769   5.805   3.871  1.00 20.00     0.096 C 
HETATM    3 CL3  UNL     1     -34.757   5.239   6.293  1.00 20.00    -0.096 Cl
HETATM    4 CL4  UNL     1     -33.164   5.435   2.312  1.00 20.00    -0.096 Cl
ENDROOT
TORSDOF 0
