REMARK  0 active torsions:
REMARK  status: ('A' for Active; 'I' for Inactive)
ROOT
HETATM    1  C1  UNL     1     -33.011   8.346   4.163  1.00 20.00     0.014 A 
HETATM    2  C2  UNL     1     -32.407   8.671   3.013  1.00 20.00     0.075 A 
HETATM    3  C3  UNL     1     -33.484   7.001   4.416  1.00 20.00    -0.035 A 
HETATM    4  C4  UNL     1     -33.304   6.053   3.476  1.00 20.00     0.018 A 
HETATM    5  C5  UNL     1     -32.212   7.630   1.966  1.00 20.00     0.245 A 
HETATM    6  C6  UNL     1     -34.169   6.732   5.728  1.00 20.00     0.040 C 
HETATM    7  C7  UNL     1     -33.743   4.627   3.656  1.00 20.00     0.057 C 
HETATM    8  C8  UNL     1     -34.921   5.398   5.748  1.00 20.00     0.005 C 
HETATM    9  C9  UNL     1     -34.094   4.288   5.107  1.00 20.00     0.006 C 
HETATM   10  N10 UNL     1     -32.685   6.368   2.285  1.00 20.00    -0.327 N 
HETATM   11  O11 UNL     1     -31.663   7.912   0.904  1.00 20.00    -0.268 OA
HETATM   12  H22 UNL     1     -32.568   5.627   1.598  1.00 20.00     0.169 HD
ENDROOT
TORSDOF 0
