REMARK  0 active torsions:
REMARK  status: ('A' for Active; 'I' for Inactive)
ROOT
HETATM    1  C1  UNL     1     -32.763   7.345   3.694  1.00 20.00     0.086 C 
HETATM    2  C2  UNL     1     -34.173   4.522   5.214  1.00 20.00    -0.025 C 
HETATM    3  C3  UNL     1     -34.764   5.261   4.264  1.00 20.00    -0.023 C 
HETATM    4  C4  UNL     1     -35.220   6.282   6.278  1.00 20.00     0.020 C 
HETATM    5  C5  UNL     1     -32.847   6.440   6.052  1.00 20.00     0.050 C 
HETATM    6  C6  UNL     1     -33.960   5.421   6.408  1.00 20.00     0.011 C 
HETATM    7  C7  UNL     1     -34.924   6.663   4.819  1.00 20.00     0.046 C 
HETATM    8  C8  UNL     1     -33.521   7.319   4.950  1.00 20.00     0.133 C 
HETATM    9  N9  UNL     1     -32.163   7.366   2.700  1.00 20.00    -0.195 NA
HETATM   10 CL10 UNL     1     -33.667   9.019   5.494  1.00 20.00    -0.102 Cl
ENDROOT
TORSDOF 0
