REMARK  4 active torsions:
REMARK  status: ('A' for Active; 'I' for Inactive)
REMARK    1  A    between atoms: C1_1  and  O10_10 
REMARK    2  A    between atoms: C1_1  and  O11_11 
REMARK    3  A    between atoms: C7_7  and  O10_10 
REMARK    4  A    between atoms: C8_8  and  O11_11 
ROOT
HETATM    1  C1  UNL     1     -33.008   6.929   3.484  1.00 20.00     0.407 C 
HETATM    2  O9  UNL     1     -32.797   5.834   2.981  1.00 20.00    -0.229 OA
ENDROOT
BRANCH   1   3
HETATM    3  O10 UNL     1     -32.630   8.133   2.969  1.00 20.00    -0.293 OA
BRANCH   3   4
HETATM    4  C7  UNL     1     -33.160   8.446   1.676  1.00 20.00     0.126 C 
HETATM    5  C2  UNL     1     -33.342   9.951   1.561  1.00 20.00     0.040 C 
HETATM    6  C3  UNL     1     -32.223   7.905   0.607  1.00 20.00     0.040 C 
ENDBRANCH   3   4
ENDBRANCH   1   3
BRANCH   1   7
HETATM    7  O11 UNL     1     -33.664   7.157   4.657  1.00 20.00    -0.288 OA
BRANCH   7   8
HETATM    8  C8  UNL     1     -34.136   5.994   5.339  1.00 20.00     0.062 C 
HETATM    9  C4  UNL     1     -32.938   5.104   5.668  1.00 20.00     0.046 C 
HETATM   10  C5  UNL     1     -34.827   6.460   6.618  1.00 20.00     0.046 C 
HETATM   11  C6  UNL     1     -35.124   5.264   4.429  1.00 20.00     0.046 C 
ENDBRANCH   7   8
ENDBRANCH   1   7
TORSDOF 4
