REMARK  1 active torsions:
REMARK  status: ('A' for Active; 'I' for Inactive)
REMARK    1  A    between atoms: C1_1  and  C3_3 
ROOT
HETATM    1  C2  UNL     1     -34.473   7.592   5.543  1.00 20.00     0.019 C 
HETATM    2  C3  UNL     1     -32.878   6.907   4.220  1.00 20.00     0.070 C 
HETATM    3  C4  UNL     1     -34.093   6.218   4.930  1.00 20.00    -0.036 C 
HETATM    4  C5  UNL     1     -33.491   8.305   4.575  1.00 20.00    -0.036 C 
HETATM    5  C7  UNL     1     -33.661   5.194   5.983  1.00 20.00     0.015 C 
HETATM    6  C8  UNL     1     -35.184   5.633   4.032  1.00 20.00     0.015 C 
HETATM    7  C9  UNL     1     -32.501   9.221   5.298  1.00 20.00     0.015 C 
HETATM    8  C10 UNL     1     -34.196   9.062   3.449  1.00 20.00     0.015 C 
ENDROOT
BRANCH   2   9
HETATM    9  C1  UNL     1     -32.582   6.573   2.754  1.00 20.00     0.128 C 
HETATM   10  C6  UNL     1     -32.818   5.151   2.323  1.00 20.00     0.091 C 
HETATM   11  O11 UNL     1     -32.173   7.426   1.968  1.00 20.00    -0.298 OA
ENDBRANCH   2   9
TORSDOF 1
