REMARK  5 active torsions:
REMARK  status: ('A' for Active; 'I' for Inactive)
REMARK    1  A    between atoms: C2_2  and  C4_4 
REMARK    2  A    between atoms: C4_4  and  C6_6 
REMARK    3  A    between atoms: C5_5  and  C6_6 
REMARK    4  A    between atoms: C5_5  and  C7_7 
REMARK    5  A    between atoms: C6_6  and  O8_8 
ROOT
HETATM    1  C6  UNL     1     -32.838   7.884   4.280  1.00 20.00     0.130 C 
ENDROOT
BRANCH   1   2
HETATM    2  C4  UNL     1     -32.404   9.215   3.647  1.00 20.00     0.065 C 
BRANCH   2   3
HETATM    3  C2  UNL     1     -32.463   9.205   2.135  1.00 20.00    -0.091 C 
HETATM    4  C1  UNL     1     -33.270  10.037   1.458  1.00 20.00     0.014 C 
HETATM    5  C3  UNL     1     -31.610   8.193   1.424  1.00 20.00     0.042 C 
ENDBRANCH   2   3
ENDBRANCH   1   2
BRANCH   1   6
HETATM    6  C5  UNL     1     -34.298   7.571   3.927  1.00 20.00     0.149 C 
BRANCH   6   7
HETATM    7  C7  UNL     1     -34.796   6.280   4.548  1.00 20.00     0.390 C 
HETATM    8  F9  UNL     1     -34.097   5.212   4.111  1.00 20.00    -0.171 F 
HETATM    9  F10 UNL     1     -34.671   6.327   5.893  1.00 20.00    -0.171 F 
HETATM   10  F11 UNL     1     -36.100   6.071   4.266  1.00 20.00    -0.171 F 
ENDBRANCH   6   7
ENDBRANCH   1   6
BRANCH   1  11
HETATM   11  O8  UNL     1     -32.702   8.000   5.696  1.00 20.00    -0.395 OA
HETATM   12  H22 UNL     1     -33.281   8.729   5.968  1.00 20.00     0.210 HD
ENDBRANCH   1  11
TORSDOF 5
