REMARK  4 active torsions:
REMARK  status: ('A' for Active; 'I' for Inactive)
REMARK    1  A    between atoms: C6_6  and  C7_7 
REMARK    2  A    between atoms: C7_7  and  C9_9 
REMARK    3  A    between atoms: C8_8  and  C9_9 
REMARK    4  A    between atoms: C8_8  and  C10_10 
ROOT
HETATM    1  C1  UNL     1     -34.319   6.778   6.105  1.00 20.00     0.068 C 
HETATM    2  C4  UNL     1     -34.056   4.381   5.579  1.00 20.00     0.031 C 
HETATM    3  C5  UNL     1     -35.718   5.796   4.367  1.00 20.00     0.031 C 
HETATM    4  C10 UNL     1     -34.313   5.783   5.008  1.00 20.00     0.042 C 
HETATM    5  N11 UNL     1     -34.334   7.558   6.964  1.00 20.00    -0.196 NA
ENDROOT
BRANCH   4   6
HETATM    6  C8  UNL     1     -33.277   6.165   3.911  1.00 20.00     0.028 C 
BRANCH   6   7
HETATM    7  C9  UNL     1     -33.044   7.665   3.595  1.00 20.00    -0.017 C 
HETATM    8  C3  UNL     1     -32.229   8.388   4.672  1.00 20.00     0.010 C 
BRANCH   7   9
HETATM    9  C7  UNL     1     -32.319   7.844   2.238  1.00 20.00     0.004 C 
BRANCH   9  10
HETATM   10  C6  UNL     1     -32.555   9.206   1.578  1.00 20.00    -0.004 C 
HETATM   11  C2  UNL     1     -31.795   9.324   0.265  1.00 20.00     0.005 C 
ENDBRANCH   9  10
ENDBRANCH   7   9
ENDBRANCH   6   7
ENDBRANCH   4   6
TORSDOF 4
