REMARK  4 active torsions:
REMARK  status: ('A' for Active; 'I' for Inactive)
REMARK    1  A    between atoms: C6_6  and  C7_7 
REMARK    2  A    between atoms: C7_7  and  C9_9 
REMARK    3  A    between atoms: C8_8  and  C9_9 
REMARK    4  A    between atoms: C8_8  and  C10_10 
ROOT
HETATM    1  C1  UNL     1     -33.722   5.869   3.665  1.00 20.00     0.068 C 
HETATM    2  C4  UNL     1     -36.016   6.326   4.451  1.00 20.00     0.031 C 
HETATM    3  C5  UNL     1     -34.058   6.527   5.988  1.00 20.00     0.031 C 
HETATM    4  C10 UNL     1     -34.540   6.743   4.537  1.00 20.00     0.042 C 
HETATM    5  N11 UNL     1     -33.076   5.179   2.990  1.00 20.00    -0.196 NA
ENDROOT
BRANCH   4   6
HETATM    6  C8  UNL     1     -34.336   8.242   4.176  1.00 20.00     0.028 C 
BRANCH   6   7
HETATM    7  C9  UNL     1     -32.934   8.713   3.708  1.00 20.00    -0.017 C 
HETATM    8  C3  UNL     1     -31.998   9.062   4.870  1.00 20.00     0.010 C 
BRANCH   7   9
HETATM    9  C7  UNL     1     -33.036   9.950   2.782  1.00 20.00     0.004 C 
BRANCH   9  10
HETATM   10  C6  UNL     1     -33.538   9.634   1.370  1.00 20.00    -0.004 C 
HETATM   11  C2  UNL     1     -32.602   8.674   0.652  1.00 20.00     0.005 C 
ENDBRANCH   9  10
ENDBRANCH   7   9
ENDBRANCH   6   7
ENDBRANCH   4   6
TORSDOF 4
