REMARK  3 active torsions:
REMARK  status: ('A' for Active; 'I' for Inactive)
REMARK    1  A    between atoms: C3_3  and  C8_8 
REMARK    2  A    between atoms: C8_8  and  C9_9 
REMARK    3  A    between atoms: C9_9  and  O11_11 
ROOT
HETATM    1  C1  UNL     1     -32.673   8.629   1.266  1.00 20.00     0.088 C 
HETATM    2  C2  UNL     1     -32.773   8.459   2.674  1.00 20.00     0.096 C 
HETATM    3  C3  UNL     1     -32.661   7.274   3.304  1.00 20.00    -0.071 C 
HETATM    4  C4  UNL     1     -32.376   5.970   2.604  1.00 20.00     0.044 C 
HETATM    5  N10 UNL     1     -32.593   8.776   0.118  1.00 20.00    -0.192 NA
ENDROOT
BRANCH   3   6
HETATM    6  C8  UNL     1     -32.776   7.208   4.819  1.00 20.00     0.071 C 
BRANCH   6   7
HETATM    7  C9  UNL     1     -34.206   7.057   5.389  1.00 20.00     0.056 C 
HETATM    8  C5  UNL     1     -34.897   8.427   5.393  1.00 20.00     0.046 C 
HETATM    9  C6  UNL     1     -35.053   6.050   4.607  1.00 20.00     0.046 C 
BRANCH   7  10
HETATM   10  O11 UNL     1     -34.116   6.626   6.748  1.00 20.00    -0.385 OA
HETATM   11  C7  UNL     1     -33.925   5.223   6.831  1.00 20.00     0.202 C 
ENDBRANCH   7  10
ENDBRANCH   6   7
ENDBRANCH   3   6
TORSDOF 3
