REMARK  3 active torsions:
REMARK  status: ('A' for Active; 'I' for Inactive)
REMARK    1  A    between atoms: C7_7  and  C9_9 
REMARK    2  A    between atoms: C8_8  and  C9_9 
REMARK    3  A    between atoms: C9_9  and  O11_11 
ROOT
HETATM    1  C1  UNL     1     -31.907   7.421   0.679  1.00 20.00     0.027 C 
HETATM    2  C2  UNL     1     -32.251   6.925   2.080  1.00 20.00     0.011 C 
HETATM    3  C5  UNL     1     -32.681   8.690   0.351  1.00 20.00     0.167 C 
HETATM    4  C6  UNL     1     -32.873   9.294   2.635  1.00 20.00     0.174 C 
HETATM    5  C8  UNL     1     -32.103   8.057   3.104  1.00 20.00     0.039 C 
HETATM    6  O10 UNL     1     -32.441   9.696   1.334  1.00 20.00    -0.391 OA
ENDROOT
BRANCH   5   7
HETATM    7  C9  UNL     1     -32.564   7.612   4.488  1.00 20.00     0.128 C 
BRANCH   7   8
HETATM    8  C7  UNL     1     -34.034   7.226   4.494  1.00 20.00     0.015 A 
HETATM    9  C3  UNL     1     -34.462   5.864   4.023  1.00 20.00     0.007 A 
HETATM   10  C4  UNL     1     -34.547   6.216   5.482  1.00 20.00     0.007 A 
ENDBRANCH   7   8
BRANCH   7  11
HETATM   11  O11 UNL     1     -32.351   8.673   5.412  1.00 20.00    -0.395 OA
HETATM   12  H27 UNL     1     -32.618   8.340   6.284  1.00 20.00     0.210 HD
ENDBRANCH   7  11
ENDBRANCH   5   7
TORSDOF 3
