REMARK  0 active torsions:
REMARK  status: ('A' for Active; 'I' for Inactive)
ROOT
HETATM    1  C1  UNL     1     -32.671   8.630   2.687  1.00 20.00     0.065 C 
HETATM    2  C2  UNL     1     -34.220   5.564   6.455  1.00 20.00     0.032 C 
HETATM    3  C3  UNL     1     -34.759   5.283   5.065  1.00 20.00     0.037 C 
HETATM    4  C4  UNL     1     -33.085   6.287   3.398  1.00 20.00     0.056 C 
HETATM    5  C5  UNL     1     -34.326   7.076   6.558  1.00 20.00     0.273 C 
HETATM    6  C6  UNL     1     -32.576   7.892   5.057  1.00 20.00     0.292 C 
HETATM    7  C7  UNL     1     -32.265   7.553   3.605  1.00 20.00     0.123 C 
HETATM    8  C8  UNL     1     -34.337   6.502   4.251  1.00 20.00     0.224 C 
HETATM    9  N9  UNL     1     -32.992   9.478   1.963  1.00 20.00    -0.197 NA
HETATM   10  N10 UNL     1     -34.006   7.577   5.217  1.00 20.00     0.094 N 
ENDROOT
TORSDOF 0
