REMARK  0 active torsions:
REMARK  status: ('A' for Active; 'I' for Inactive)
ROOT
HETATM    1  C1  UNL     1     -33.301   6.119   3.327  1.00 20.00     0.053 A 
HETATM    2  C2  UNL     1     -32.781   8.355   4.020  1.00 20.00     0.159 A 
HETATM    3  C3  UNL     1     -33.798   5.912   4.597  1.00 20.00    -0.030 A 
HETATM    4  C4  UNL     1     -32.773   7.373   3.029  1.00 20.00     0.134 A 
HETATM    5  C5  UNL     1     -33.764   6.956   5.515  1.00 20.00     0.040 A 
HETATM    6  C6  UNL     1     -34.444   4.699   5.176  1.00 20.00     0.041 C 
HETATM    7  C7  UNL     1     -34.399   6.544   6.812  1.00 20.00     0.060 C 
HETATM    8  C8  UNL     1     -34.366   5.014   6.680  1.00 20.00     0.011 C 
HETATM    9  N9  UNL     1     -33.274   8.182   5.270  1.00 20.00    -0.262 NA
HETATM   10  F10 UNL     1     -32.271   7.633   1.816  1.00 20.00    -0.205 F 
ENDROOT
TORSDOF 0
