REMARK  2 active torsions:
REMARK  status: ('A' for Active; 'I' for Inactive)
REMARK    1  A    between atoms: C1_1  and  N9_9 
REMARK    2  A    between atoms: C8_8  and  N9_9 
ROOT
HETATM    1  C2  UNL     1     -33.225   4.455   5.377  1.00 20.00     0.005 C 
HETATM    2  C3  UNL     1     -34.011   5.293   6.395  1.00 20.00     0.007 C 
HETATM    3  C4  UNL     1     -35.266   5.175   4.386  1.00 20.00     0.011 C 
HETATM    4  C5  UNL     1     -33.286   6.345   3.740  1.00 20.00     0.030 C 
HETATM    5  C6  UNL     1     -33.800   4.922   4.030  1.00 20.00    -0.012 C 
HETATM    6  C7  UNL     1     -34.919   6.163   5.502  1.00 20.00     0.009 C 
HETATM    7  C8  UNL     1     -34.100   7.210   4.718  1.00 20.00     0.088 C 
ENDROOT
BRANCH   7   8
HETATM    8  N9  UNL     1     -33.284   8.055   5.542  1.00 20.00    -0.363 N 
HETATM    9  H23 UNL     1     -33.326   7.928   6.554  1.00 20.00     0.162 HD
BRANCH   8  10
HETATM   10  C1  UNL     1     -32.443   9.032   5.042  1.00 20.00     0.348 C 
HETATM   11  O10 UNL     1     -32.259   9.330   3.869  1.00 20.00    -0.284 OA
ENDBRANCH   8  10
ENDBRANCH   7   8
TORSDOF 2
