REMARK  0 active torsions:
REMARK  status: ('A' for Active; 'I' for Inactive)
ROOT
HETATM    1  C1  UNL     1     -32.311   7.710   3.708  1.00 20.00    -0.023 C 
HETATM    2  C2  UNL     1     -32.778   8.318   4.805  1.00 20.00    -0.083 C 
HETATM    3  C3  UNL     1     -34.457   5.240   5.161  1.00 20.00     0.132 C 
HETATM    4  C4  UNL     1     -33.030   6.433   3.414  1.00 20.00     0.040 C 
HETATM    5  C5  UNL     1     -34.337   5.489   6.640  1.00 20.00     0.079 C 
HETATM    6  C6  UNL     1     -33.488   6.751   6.672  1.00 20.00     0.017 C 
HETATM    7  C7  UNL     1     -33.898   7.543   5.429  1.00 20.00     0.025 C 
HETATM    8  C8  UNL     1     -34.232   6.495   4.352  1.00 20.00     0.067 C 
HETATM    9  C9  UNL     1     -32.287   9.587   5.401  1.00 20.00     0.043 C 
HETATM   10  O10 UNL     1     -34.744   4.154   4.673  1.00 20.00    -0.298 OA
ENDROOT
TORSDOF 0
