REMARK  2 active torsions:
REMARK  status: ('A' for Active; 'I' for Inactive)
REMARK    1  A    between atoms: C4_4  and  O10_10 
REMARK    2  A    between atoms: C5_5  and  C8_8 
ROOT
HETATM    1  C1  UNL     1     -34.462   4.964   4.397  1.00 20.00     0.040 A 
HETATM    2  C2  UNL     1     -33.724   5.528   3.362  1.00 20.00     0.030 A 
HETATM    3  C3  UNL     1     -34.070   6.929   5.678  1.00 20.00     0.153 A 
HETATM    4  C4  UNL     1     -34.643   5.671   5.580  1.00 20.00     0.083 A 
HETATM    5  C5  UNL     1     -33.193   6.792   3.559  1.00 20.00     0.038 A 
HETATM    6  N9  UNL     1     -33.347   7.510   4.695  1.00 20.00    -0.262 NA
ENDROOT
BRANCH   5   7
HETATM    7  C8  UNL     1     -32.397   7.418   2.463  1.00 20.00     0.038 A 
HETATM    8  C6  UNL     1     -31.227   8.296   2.819  1.00 20.00     0.011 A 
HETATM    9  C7  UNL     1     -32.473   8.908   2.261  1.00 20.00     0.011 A 
ENDBRANCH   5   7
BRANCH   4  10
HETATM   10  O10 UNL     1     -35.359   5.146   6.605  1.00 20.00    -0.359 OA
HETATM   11  H19 UNL     1     -35.689   4.261   6.373  1.00 20.00     0.217 HD
ENDBRANCH   4  10
TORSDOF 2
