REMARK  2 active torsions:
REMARK  status: ('A' for Active; 'I' for Inactive)
REMARK    1  A    between atoms: C7_7  and  C8_8 
REMARK    2  A    between atoms: C9_9  and  O10_10 
ROOT
HETATM    1  C1  UNL     1     -33.702   4.170   4.067  1.00 20.00     0.003 C 
HETATM    2  C2  UNL     1     -32.719   5.263   3.655  1.00 20.00     0.005 C 
HETATM    3  C5  UNL     1     -34.225   4.387   5.486  1.00 20.00     0.032 C 
HETATM    4  C6  UNL     1     -33.846   6.877   5.241  1.00 20.00     0.036 C 
HETATM    5  C8  UNL     1     -33.328   6.662   3.810  1.00 20.00    -0.008 C 
HETATM    6  C9  UNL     1     -34.823   5.781   5.672  1.00 20.00     0.118 C 
ENDROOT
BRANCH   5   7
HETATM    7  C7  UNL     1     -32.307   7.738   3.441  1.00 20.00    -0.010 A 
HETATM    8  C3  UNL     1     -32.121   8.145   2.006  1.00 20.00     0.005 A 
HETATM    9  C4  UNL     1     -32.767   9.092   2.978  1.00 20.00     0.005 A 
ENDBRANCH   5   7
BRANCH   6  10
HETATM   10  O10 UNL     1     -36.021   5.871   4.904  1.00 20.00    -0.396 OA
HETATM   11  H26 UNL     1     -36.617   5.185   5.241  1.00 20.00     0.210 HD
ENDBRANCH   6  10
TORSDOF 2
