REMARK  1 active torsions:
REMARK  status: ('A' for Active; 'I' for Inactive)
REMARK    1  A    between atoms: C2_2  and  C9_9 
ROOT
HETATM    1  C1  UNL     1     -33.407   6.593   3.594  1.00 20.00     0.053 C 
HETATM    2  C2  UNL     1     -33.694   6.694   4.901  1.00 20.00    -0.072 C 
HETATM    3  C3  UNL     1     -32.435   7.518   2.959  1.00 20.00     0.149 C 
HETATM    4  C4  UNL     1     -33.114   7.768   5.786  1.00 20.00     0.035 C 
HETATM    5  C5  UNL     1     -31.706   8.510   3.837  1.00 20.00     0.083 C 
HETATM    6  C6  UNL     1     -32.585   8.959   4.992  1.00 20.00     0.012 C 
HETATM    7  O10 UNL     1     -32.193   7.419   1.758  1.00 20.00    -0.293 OA
ENDROOT
BRANCH   2   8
HETATM    8  C9  UNL     1     -34.622   5.724   5.573  1.00 20.00     0.014 A 
HETATM    9  C7  UNL     1     -34.309   4.271   5.467  1.00 20.00     0.010 A 
HETATM   10  C8  UNL     1     -34.120   4.991   6.768  1.00 20.00     0.010 A 
ENDBRANCH   2   8
TORSDOF 1
