REMARK  2 active torsions:
REMARK  status: ('A' for Active; 'I' for Inactive)
REMARK    1  A    between atoms: C7_7  and  C8_8 
REMARK    2  A    between atoms: C9_9  and  O10_10 
ROOT
HETATM    1  C1  UNL     1     -33.277   8.501   5.906  1.00 20.00     0.003 C 
HETATM    2  C2  UNL     1     -32.426   7.983   4.748  1.00 20.00     0.005 C 
HETATM    3  C5  UNL     1     -33.854   7.358   6.733  1.00 20.00     0.032 C 
HETATM    4  C6  UNL     1     -33.781   5.852   4.708  1.00 20.00     0.036 C 
HETATM    5  C8  UNL     1     -33.206   6.997   3.867  1.00 20.00    -0.008 C 
HETATM    6  C9  UNL     1     -34.634   6.374   5.865  1.00 20.00     0.118 C 
ENDROOT
BRANCH   5   7
HETATM    7  C7  UNL     1     -32.316   6.453   2.751  1.00 20.00    -0.010 A 
HETATM    8  C3  UNL     1     -32.928   5.939   1.477  1.00 20.00     0.005 A 
HETATM    9  C4  UNL     1     -32.150   7.225   1.471  1.00 20.00     0.005 A 
ENDBRANCH   5   7
BRANCH   6  10
HETATM   10  O10 UNL     1     -35.054   5.285   6.680  1.00 20.00    -0.396 OA
HETATM   11  H26 UNL     1     -35.544   4.679   6.102  1.00 20.00     0.210 HD
ENDBRANCH   6  10
TORSDOF 2
