REMARK  1 active torsions:
REMARK  status: ('A' for Active; 'I' for Inactive)
REMARK    1  A    between atoms: C7_7  and  C8_8 
ROOT
HETATM    1  C1  UNL     1     -32.445   7.469   2.815  1.00 20.00     0.131 C 
HETATM    2  C2  UNL     1     -31.793   8.443   3.768  1.00 20.00     0.104 C 
HETATM    3  C3  UNL     1     -33.129   6.284   3.456  1.00 20.00     0.110 C 
HETATM    4  C6  UNL     1     -32.751   8.755   4.905  1.00 20.00     0.175 C 
HETATM    5  C8  UNL     1     -33.998   6.764   4.617  1.00 20.00     0.132 C 
HETATM    6  O9  UNL     1     -32.328   7.573   1.596  1.00 20.00    -0.298 OA
HETATM    7  O10 UNL     1     -33.213   7.552   5.523  1.00 20.00    -0.385 OA
ENDROOT
BRANCH   5   8
HETATM    8  C7  UNL     1     -34.579   5.607   5.375  1.00 20.00     0.015 A 
HETATM    9  C4  UNL     1     -33.784   4.935   6.460  1.00 20.00     0.007 A 
HETATM   10  C5  UNL     1     -34.982   5.771   6.815  1.00 20.00     0.007 A 
ENDBRANCH   5   8
TORSDOF 1
