REMARK  0 active torsions:
REMARK  status: ('A' for Active; 'I' for Inactive)
ROOT
HETATM    1  C1  UNL     1     -32.668   6.813   3.602  1.00 20.00     0.136 C 
HETATM    2  C2  UNL     1     -32.765   4.251   3.897  1.00 20.00     0.018 A 
HETATM    3  C3  UNL     1     -33.409   8.520   5.555  1.00 20.00     0.018 A 
HETATM    4  C4  UNL     1     -34.197   5.124   6.719  1.00 20.00     0.011 A 
HETATM    5  C5  UNL     1     -33.270   5.498   3.221  1.00 20.00     0.060 A 
HETATM    6  C6  UNL     1     -32.862   7.257   4.985  1.00 20.00     0.060 A 
HETATM    7  C7  UNL     1     -34.216   4.632   4.051  1.00 20.00     0.002 A 
HETATM    8  C8  UNL     1     -34.356   7.406   5.284  1.00 20.00     0.002 A 
HETATM    9  C9  UNL     1     -34.900   4.896   5.409  1.00 20.00    -0.005 A 
HETATM   10  C10 UNL     1     -34.943   6.268   6.085  1.00 20.00    -0.005 A 
HETATM   11  O11 UNL     1     -32.013   7.469   2.804  1.00 20.00    -0.297 OA
ENDROOT
TORSDOF 0
