REMARK  0 active torsions:
REMARK  status: ('A' for Active; 'I' for Inactive)
ROOT
HETATM    1  C1  UNL     1     -33.298   7.604   4.895  1.00 20.00     0.132 C 
HETATM    2  C2  UNL     1     -34.766   7.632   4.485  1.00 20.00     0.084 C 
HETATM    3  C3  UNL     1     -33.548   5.903   6.597  1.00 20.00     0.013 C 
HETATM    4  C4  UNL     1     -35.072   5.880   6.278  1.00 20.00     0.006 C 
HETATM    5  C5  UNL     1     -33.781   3.988   3.972  1.00 20.00     0.011 A 
HETATM    6  C6  UNL     1     -33.565   5.041   2.907  1.00 20.00     0.011 A 
HETATM    7  C7  UNL     1     -32.909   6.162   5.220  1.00 20.00     0.064 C 
HETATM    8  C8  UNL     1     -35.129   6.144   4.748  1.00 20.00     0.002 C 
HETATM    9  C9  UNL     1     -33.869   5.445   4.320  1.00 20.00    -0.026 A 
HETATM   10  O10 UNL     1     -32.565   8.576   4.981  1.00 20.00    -0.298 OA
ENDROOT
TORSDOF 0
