REMARK  0 active torsions:
REMARK  status: ('A' for Active; 'I' for Inactive)
ROOT
HETATM    1  C1  UNL     1     -32.359   7.477   2.095  1.00 20.00     0.064 C 
HETATM    2  C2  UNL     1     -33.438   8.251   4.176  1.00 20.00     0.045 C 
HETATM    3  C3  UNL     1     -33.671   5.867   3.440  1.00 20.00     0.056 C 
HETATM    4  C4  UNL     1     -33.843   7.862   5.595  1.00 20.00     0.170 C 
HETATM    5  C5  UNL     1     -32.750   7.094   3.461  1.00 20.00     0.097 C 
HETATM    6  C6  UNL     1     -34.465   5.680   4.755  1.00 20.00     0.055 C 
HETATM    7  C7  UNL     1     -35.950   6.033   4.578  1.00 20.00     0.045 C 
HETATM    8  C8  UNL     1     -34.375   4.215   5.208  1.00 20.00     0.045 C 
HETATM    9  N9  UNL     1     -32.051   7.779   1.018  1.00 20.00    -0.197 NA
HETATM   10  O10 UNL     1     -33.883   6.453   5.811  1.00 20.00    -0.381 OA
ENDROOT
TORSDOF 0
