REMARK  1 active torsions:
REMARK  status: ('A' for Active; 'I' for Inactive)
REMARK    1  A    between atoms: C11_11  and  C12_12 
ROOT
HETATM    1  C1  UNL     1     -35.363   6.359   6.450  1.00 20.00     0.009 C 
HETATM    2  C2  UNL     1     -34.020   4.464   5.505  1.00 20.00     0.009 C 
HETATM    3  C3  UNL     1     -35.746   5.605   4.090  1.00 20.00     0.009 C 
HETATM    4  C4  UNL     1     -32.924   6.675   5.956  1.00 20.00     0.017 C 
HETATM    5  C5  UNL     1     -34.655   7.818   4.538  1.00 20.00     0.017 C 
HETATM    6  C6  UNL     1     -33.309   5.920   3.590  1.00 20.00     0.017 C 
HETATM    7  C8  UNL     1     -33.985   5.676   6.451  1.00 20.00    -0.013 C 
HETATM    8  C9  UNL     1     -35.721   6.823   5.029  1.00 20.00    -0.013 C 
HETATM    9  C10 UNL     1     -34.371   4.918   4.078  1.00 20.00    -0.013 C 
HETATM   10  C12 UNL     1     -33.259   7.153   4.523  1.00 20.00    -0.011 C 
ENDROOT
BRANCH  10  11
HETATM   11  C11 UNL     1     -32.215   8.134   4.040  1.00 20.00     0.153 A 
HETATM   12  C7  UNL     1     -32.288   9.590   4.406  1.00 20.00     0.201 A 
HETATM   13  O13 UNL     1     -32.701   9.112   3.116  1.00 20.00    -0.380 OA
ENDBRANCH  10  11
TORSDOF 1
