REMARK  0 active torsions:
REMARK  status: ('A' for Active; 'I' for Inactive)
ROOT
HETATM    1  C1  UNL     1     -35.145   5.506   6.427  1.00 20.00     0.000 C 
HETATM    2  C2  UNL     1     -34.080   6.474   6.937  1.00 20.00     0.003 C 
HETATM    3  C3  UNL     1     -34.909   5.142   4.962  1.00 20.00     0.003 C 
HETATM    4  C4  UNL     1     -33.995   7.720   6.057  1.00 20.00     0.044 C 
HETATM    5  C5  UNL     1     -34.817   6.389   4.078  1.00 20.00     0.044 C 
HETATM    6  C6  UNL     1     -32.384   7.356   1.797  1.00 20.00     0.032 C 
HETATM    7  C7  UNL     1     -33.399   8.328   2.334  1.00 20.00     0.112 C 
HETATM    8  C8  UNL     1     -32.031   6.515   2.994  1.00 20.00     0.112 C 
HETATM    9  C9  UNL     1     -33.760   7.340   4.601  1.00 20.00     0.095 A 
HETATM   10  N10 UNL     1     -33.190   8.411   3.775  1.00 20.00    -0.223 NA
HETATM   11  N11 UNL     1     -32.356   7.297   4.180  1.00 20.00    -0.223 NA
ENDROOT
TORSDOF 0
