REMARK  3 active torsions:
REMARK  status: ('A' for Active; 'I' for Inactive)
REMARK    1  A    between atoms: C6_6  and  C9_9 
REMARK    2  A    between atoms: C7_7  and  C9_9 
REMARK    3  A    between atoms: C8_8  and  O10_10 
ROOT
HETATM    1  C1  UNL     1     -33.226   5.211   3.191  1.00 20.00     0.003 C 
HETATM    2  C2  UNL     1     -32.525   6.219   2.280  1.00 20.00     0.007 C 
HETATM    3  C5  UNL     1     -33.517   5.944   4.501  1.00 20.00     0.032 C 
HETATM    4  C7  UNL     1     -32.037   7.317   3.220  1.00 20.00     0.015 C 
HETATM    5  C8  UNL     1     -33.174   7.405   4.235  1.00 20.00     0.122 C 
ENDROOT
BRANCH   4   6
HETATM    6  C9  UNL     1     -31.759   8.633   2.511  1.00 20.00     0.011 C 
BRANCH   6   7
HETATM    7  C6  UNL     1     -32.827   8.933   1.485  1.00 20.00    -0.014 A 
HETATM    8  C3  UNL     1     -32.558   9.913   0.376  1.00 20.00     0.005 A 
HETATM    9  C4  UNL     1     -32.676   8.445   0.071  1.00 20.00     0.005 A 
ENDBRANCH   6   7
ENDBRANCH   4   6
BRANCH   5  10
HETATM   10  O10 UNL     1     -32.757   8.065   5.415  1.00 20.00    -0.395 OA
HETATM   11  H26 UNL     1     -33.494   8.012   6.048  1.00 20.00     0.210 HD
ENDBRANCH   5  10
TORSDOF 3
