REMARK  0 active torsions:
REMARK  status: ('A' for Active; 'I' for Inactive)
ROOT
HETATM    1  C1  UNL     1     -32.692   6.170   2.350  1.00 20.00     0.032 C 
HETATM    2  C2  UNL     1     -34.648   6.383   6.204  1.00 20.00     0.032 C 
HETATM    3  C3  UNL     1     -32.464   7.176   3.460  1.00 20.00     0.109 C 
HETATM    4  C4  UNL     1     -33.484   5.090   3.058  1.00 20.00     0.109 C 
HETATM    5  C5  UNL     1     -33.573   7.295   5.649  1.00 20.00     0.109 C 
HETATM    6  C6  UNL     1     -34.598   5.212   5.244  1.00 20.00     0.109 C 
HETATM    7  N7  UNL     1     -33.720   7.137   4.204  1.00 20.00    -0.250 NA
HETATM    8  N8  UNL     1     -34.351   5.851   3.955  1.00 20.00    -0.250 NA
ENDROOT
TORSDOF 0
