REMARK  1 active torsions:
REMARK  status: ('A' for Active; 'I' for Inactive)
REMARK    1  A    between atoms: N5_5  and  N6_6 
ROOT
HETATM    1  C1  UNL     1     -34.152   5.375   5.986  1.00 20.00     0.130 C 
HETATM    2  C2  UNL     1     -33.640   4.559   3.767  1.00 20.00     0.130 C 
HETATM    3  N5  UNL     1     -34.086   5.700   4.564  1.00 20.00    -0.259 NA
ENDROOT
BRANCH   3   4
HETATM    4  N6  UNL     1     -33.307   6.913   4.382  1.00 20.00    -0.259 NA
HETATM    5  C3  UNL     1     -34.143   8.074   4.674  1.00 20.00     0.130 C 
HETATM    6  C4  UNL     1     -32.649   7.031   3.083  1.00 20.00     0.130 C 
ENDBRANCH   3   4
TORSDOF 1
