REMARK  2 active torsions:
REMARK  status: ('A' for Active; 'I' for Inactive)
REMARK    1  A    between atoms: C6_6  and  N9_9 
REMARK    2  A    between atoms: C7_7  and  N9_9 
ROOT
HETATM    1  C1  UNL     1     -33.601   5.489   3.167  1.00 20.00     0.100 C 
HETATM    2  C4  UNL     1     -35.763   5.833   4.297  1.00 20.00     0.065 C 
HETATM    3  C5  UNL     1     -33.646   5.571   5.625  1.00 20.00     0.065 C 
HETATM    4  C7  UNL     1     -34.258   6.113   4.331  1.00 20.00     0.237 C 
HETATM    5  N8  UNL     1     -33.084   4.996   2.252  1.00 20.00    -0.195 NA
ENDROOT
BRANCH   4   6
HETATM    6  N9  UNL     1     -34.058   7.550   4.284  1.00 20.00     0.110 N 
HETATM    7  H23 UNL     1     -34.760   8.011   4.866  1.00 20.00     0.318 HD
BRANCH   6   8
HETATM    8  C6  UNL     1     -32.730   7.912   4.768  1.00 20.00     0.214 C 
HETATM    9  C2  UNL     1     -32.724   9.384   5.153  1.00 20.00     0.042 C 
HETATM   10  C3  UNL     1     -31.711   7.610   3.679  1.00 20.00     0.042 C 
ENDBRANCH   6   8
ENDBRANCH   4   6
TORSDOF 2
