REMARK  0 active torsions:
REMARK  status: ('A' for Active; 'I' for Inactive)
ROOT
HETATM    1  C1  UNL     1     -33.981   5.091   6.582  1.00 20.00    -0.029 A 
HETATM    2  C2  UNL     1     -33.907   6.425   6.595  1.00 20.00    -0.018 A 
HETATM    3  C3  UNL     1     -33.063   7.270   4.386  1.00 20.00     0.135 A 
HETATM    4  C4  UNL     1     -34.412   4.523   5.264  1.00 20.00     0.033 A 
HETATM    5  C5  UNL     1     -33.411   6.136   3.409  1.00 20.00     0.084 A 
HETATM    6  C6  UNL     1     -34.278   6.969   5.281  1.00 20.00     0.082 A 
HETATM    7  C7  UNL     1     -34.582   5.751   4.358  1.00 20.00     0.011 A 
HETATM    8  O8  UNL     1     -32.166   8.085   4.432  1.00 20.00    -0.297 OA
ENDROOT
TORSDOF 0
