REMARK  0 active torsions:
REMARK  status: ('A' for Active; 'I' for Inactive)
ROOT
HETATM    1  C1  UNL     1     -34.323   4.495   5.115  1.00 20.00     0.086 C 
HETATM    2  C2  UNL     1     -34.559   5.497   6.209  1.00 20.00     0.055 C 
HETATM    3  C3  UNL     1     -33.095   8.955   5.213  1.00 20.00     0.030 C 
HETATM    4  C4  UNL     1     -33.994   8.033   6.048  1.00 20.00     0.010 C 
HETATM    5  C5  UNL     1     -33.163   8.641   3.708  1.00 20.00     0.272 C 
HETATM    6  C6  UNL     1     -33.701   6.601   5.641  1.00 20.00     0.045 C 
HETATM    7  C7  UNL     1     -33.945   6.418   4.146  1.00 20.00     0.345 C 
HETATM    8  N8  UNL     1     -33.925   4.948   3.963  1.00 20.00    -0.270 NA
HETATM    9  N9  UNL     1     -32.965   7.213   3.406  1.00 20.00     0.108 N 
HETATM   10  H21 UNL     1     -33.096   7.062   2.406  1.00 20.00     0.318 HD
ENDROOT
TORSDOF 0
