REMARK  2 active torsions:
REMARK  status: ('A' for Active; 'I' for Inactive)
REMARK    1  A    between atoms: C2_2  and  C3_3 
REMARK    2  A    between atoms: C2_2  and  N4_4 
ROOT
HETATM    1  C1  UNL     1     -33.545   8.531   4.913  1.00 20.00     0.157 C 
HETATM    2  N4  UNL     1     -34.233   8.211   5.811  1.00 20.00    -0.267 NA
HETATM    3  S8  UNL     1     -32.625   8.987   3.696  1.00 20.00    -0.055 SA
ENDROOT
BRANCH   2   4
HETATM    4  C2  UNL     1     -34.048   6.836   6.272  1.00 20.00     0.267 C 
BRANCH   4   5
HETATM    5  C3  UNL     1     -34.326   5.888   5.133  1.00 20.00     0.405 C 
HETATM    6  F5  UNL     1     -35.595   6.035   4.694  1.00 20.00    -0.169 F 
HETATM    7  F6  UNL     1     -34.170   4.602   5.513  1.00 20.00    -0.169 F 
HETATM    8  F7  UNL     1     -33.502   6.120   4.088  1.00 20.00    -0.169 F 
ENDBRANCH   4   5
ENDBRANCH   2   4
TORSDOF 2
