REMARK  0 active torsions:
REMARK  status: ('A' for Active; 'I' for Inactive)
ROOT
HETATM    1  C1  UNL     1     -33.209   6.305   3.205  1.00 20.00     0.061 A 
HETATM    2  C2  UNL     1     -32.869   8.387   5.093  1.00 20.00     0.053 A 
HETATM    3  C3  UNL     1     -33.715   6.224   4.489  1.00 20.00     0.019 A 
HETATM    4  C4  UNL     1     -33.559   7.234   5.431  1.00 20.00    -0.041 A 
HETATM    5  C5  UNL     1     -32.515   7.466   2.864  1.00 20.00     0.155 A 
HETATM    6  C6  UNL     1     -32.346   8.499   3.800  1.00 20.00     0.155 A 
HETATM    7  C7  UNL     1     -34.470   5.143   5.103  1.00 20.00     0.160 A 
HETATM    8  C8  UNL     1     -34.195   6.907   6.743  1.00 20.00     0.047 A 
HETATM    9  C9  UNL     1     -34.804   5.510   6.529  1.00 20.00     0.088 A 
HETATM   10  O10 UNL     1     -34.773   4.110   4.535  1.00 20.00    -0.292 OA
HETATM   11  F11 UNL     1     -32.003   7.597   1.633  1.00 20.00    -0.203 F 
HETATM   12  F12 UNL     1     -31.675   9.606   3.451  1.00 20.00    -0.203 F 
ENDROOT
TORSDOF 0
