REMARK  0 active torsions:
REMARK  status: ('A' for Active; 'I' for Inactive)
ROOT
HETATM    1  C1  UNL     1     -33.015   8.817   3.651  1.00 20.00     0.012 A 
HETATM    2  C2  UNL     1     -32.451   8.881   2.376  1.00 20.00     0.024 A 
HETATM    3  C3  UNL     1     -32.382   6.487   2.324  1.00 20.00     0.031 A 
HETATM    4  C4  UNL     1     -33.287   7.593   4.310  1.00 20.00    -0.021 A 
HETATM    5  C5  UNL     1     -32.963   6.411   3.609  1.00 20.00    -0.048 A 
HETATM    6  C6  UNL     1     -32.131   7.710   1.711  1.00 20.00     0.034 A 
HETATM    7  C7  UNL     1     -33.188   5.031   4.179  1.00 20.00     0.039 C 
HETATM    8  C8  UNL     1     -34.614   4.815   4.674  1.00 20.00     0.007 C 
HETATM    9  C9  UNL     1     -34.775   5.164   6.142  1.00 20.00     0.035 C 
HETATM   10  C10 UNL     1     -33.870   7.678   5.703  1.00 20.00     0.184 A 
HETATM   11  C11 UNL     1     -34.585   6.601   6.485  1.00 20.00     0.156 A 
HETATM   12  O12 UNL     1     -33.209   6.938   6.738  1.00 20.00    -0.370 OA
HETATM   13 CL13 UNL     1     -31.431   7.765   0.142  1.00 20.00    -0.084 Cl
ENDROOT
TORSDOF 0
