REMARK  1 active torsions:
REMARK  status: ('A' for Active; 'I' for Inactive)
REMARK    1  A    between atoms: C3_3  and  C8_8 
ROOT
HETATM    1  C1  UNL     1     -32.940   4.832   3.096  1.00 20.00     0.058 A 
HETATM    2  C2  UNL     1     -33.592   6.612   4.393  1.00 20.00    -0.037 A 
HETATM    3  C3  UNL     1     -32.900   6.211   3.233  1.00 20.00    -0.031 A 
HETATM    4  C4  UNL     1     -34.119   5.551   5.077  1.00 20.00    -0.011 A 
HETATM    5  C5  UNL     1     -33.903   7.895   5.069  1.00 20.00     0.040 C 
HETATM    6  C6  UNL     1     -34.856   5.931   6.304  1.00 20.00     0.047 C 
HETATM    7  C7  UNL     1     -34.409   7.417   6.467  1.00 20.00     0.010 C 
HETATM    8  S9  UNL     1     -33.816   4.064   4.376  1.00 20.00    -0.105 SA
ENDROOT
BRANCH   3   9
HETATM    9  C8  UNL     1     -32.224   7.127   2.288  1.00 20.00     0.154 C 
HETATM   10 CL10 UNL     1     -32.739   8.813   2.552  1.00 20.00    -0.126 Cl
ENDBRANCH   3   9
TORSDOF 1
