REMARK  0 active torsions:
REMARK  status: ('A' for Active; 'I' for Inactive)
ROOT
HETATM    1  C1  UNL     1     -33.367   8.524   4.244  1.00 20.00     0.009 A 
HETATM    2  C2  UNL     1     -32.825   8.855   3.002  1.00 20.00     0.019 A 
HETATM    3  C3  UNL     1     -32.803   6.513   2.336  1.00 20.00     0.029 A 
HETATM    4  C4  UNL     1     -33.618   7.188   4.514  1.00 20.00    -0.047 A 
HETATM    5  C5  UNL     1     -33.342   6.177   3.570  1.00 20.00    -0.019 A 
HETATM    6  C6  UNL     1     -32.544   7.858   2.056  1.00 20.00     0.011 A 
HETATM    7  C7  UNL     1     -34.205   6.609   5.783  1.00 20.00     0.074 A 
HETATM    8  C8  UNL     1     -33.712   4.838   4.113  1.00 20.00     0.185 A 
HETATM    9  C9  UNL     1     -34.195   5.115   5.527  1.00 20.00     0.160 A 
HETATM   10  O10 UNL     1     -35.077   4.632   4.512  1.00 20.00    -0.370 OA
HETATM   11 BR11 UNL     1     -31.811   8.340   0.380  1.00 20.00    -0.051 Br
ENDROOT
TORSDOF 0
