REMARK  0 active torsions:
REMARK  status: ('A' for Active; 'I' for Inactive)
ROOT
HETATM    1  C1  UNL     1     -33.292   8.763   5.206  1.00 20.00     0.009 A 
HETATM    2  C2  UNL     1     -32.680   8.863   3.956  1.00 20.00     0.024 A 
HETATM    3  C3  UNL     1     -33.233   6.547   3.450  1.00 20.00     0.034 A 
HETATM    4  C4  UNL     1     -33.868   7.553   5.559  1.00 20.00    -0.047 A 
HETATM    5  C5  UNL     1     -33.844   6.441   4.691  1.00 20.00    -0.019 A 
HETATM    6  C6  UNL     1     -32.651   7.764   3.085  1.00 20.00     0.034 A 
HETATM    7  C7  UNL     1     -34.573   7.223   6.856  1.00 20.00     0.074 A 
HETATM    8  C8  UNL     1     -34.527   5.273   5.318  1.00 20.00     0.185 A 
HETATM    9  C9  UNL     1     -35.035   5.793   6.652  1.00 20.00     0.160 A 
HETATM   10  O10 UNL     1     -34.017   4.794   6.573  1.00 20.00    -0.370 OA
HETATM   11 CL11 UNL     1     -31.888   7.917   1.547  1.00 20.00    -0.084 Cl
ENDROOT
TORSDOF 0
