REMARK  0 active torsions:
REMARK  status: ('A' for Active; 'I' for Inactive)
ROOT
HETATM    1  C1  UNL     1     -32.618   8.688   4.034  1.00 20.00     0.012 A 
HETATM    2  C2  UNL     1     -32.580   9.259   2.762  1.00 20.00     0.024 A 
HETATM    3  C3  UNL     1     -32.820   7.071   1.758  1.00 20.00     0.031 A 
HETATM    4  C4  UNL     1     -32.759   7.305   4.187  1.00 20.00    -0.021 A 
HETATM    5  C5  UNL     1     -32.861   6.481   3.028  1.00 20.00    -0.048 A 
HETATM    6  C6  UNL     1     -32.683   8.453   1.629  1.00 20.00     0.034 A 
HETATM    7  C7  UNL     1     -32.960   4.958   3.161  1.00 20.00     0.039 C 
HETATM    8  C8  UNL     1     -34.202   4.375   3.888  1.00 20.00     0.007 C 
HETATM    9  C9  UNL     1     -34.290   4.637   5.414  1.00 20.00     0.035 C 
HETATM   10  C10 UNL     1     -32.838   6.629   5.516  1.00 20.00     0.184 A 
HETATM   11  C11 UNL     1     -34.284   6.100   5.619  1.00 20.00     0.156 A 
HETATM   12  O12 UNL     1     -33.678   6.842   6.649  1.00 20.00    -0.370 OA
HETATM   13 CL13 UNL     1     -32.635   9.167   0.063  1.00 20.00    -0.084 Cl
ENDROOT
TORSDOF 0
