REMARK  1 active torsions:
REMARK  status: ('A' for Active; 'I' for Inactive)
REMARK    1  A    between atoms: C1_1  and  C8_8 
ROOT
HETATM    1  C1  UNL     1     -33.598   7.054   4.757  1.00 20.00     0.014 C 
HETATM    2  C2  UNL     1     -32.478   7.445   3.845  1.00 20.00     0.057 C 
HETATM    3  C3  UNL     1     -32.577   8.945   3.973  1.00 20.00     0.027 C 
HETATM    4  C4  UNL     1     -33.146   9.125   5.369  1.00 20.00     0.149 C 
HETATM    5  N9  UNL     1     -34.002   7.946   5.609  1.00 20.00    -0.298 NA
ENDROOT
BRANCH   1   6
HETATM    6  C8  UNL     1     -34.181   5.680   4.699  1.00 20.00    -0.011 C 
HETATM    7  C5  UNL     1     -33.450   4.870   3.621  1.00 20.00     0.021 C 
HETATM    8  C6  UNL     1     -35.675   5.769   4.355  1.00 20.00     0.021 C 
HETATM    9  C7  UNL     1     -34.015   4.994   6.062  1.00 20.00     0.021 C 
ENDBRANCH   1   6
TORSDOF 1
