REMARK  3 active torsions:
REMARK  status: ('A' for Active; 'I' for Inactive)
REMARK    1  A    between atoms: C5_5  and  C8_8 
REMARK    2  A    between atoms: C7_7  and  N9_9 
REMARK    3  A    between atoms: C8_8  and  N9_9 
ROOT
HETATM    1  C1  UNL     1     -32.968   9.272   1.478  1.00 20.00     0.013 C 
HETATM    2  C2  UNL     1     -32.878   8.928   2.625  1.00 20.00    -0.087 C 
HETATM    3  C7  UNL     1     -32.770   8.514   4.026  1.00 20.00     0.362 C 
ENDROOT
BRANCH   3   4
HETATM    4  N9  UNL     1     -32.480   7.099   4.119  1.00 20.00     0.098 N 
HETATM    5  H22 UNL     1     -31.815   6.828   3.408  1.00 20.00     0.317 HD
BRANCH   4   6
HETATM    6  C8  UNL     1     -33.719   6.313   3.905  1.00 20.00     0.221 C 
HETATM    7  C6  UNL     1     -33.340   4.904   3.472  1.00 20.00     0.043 C 
BRANCH   6   8
HETATM    8  C5  UNL     1     -34.534   6.307   5.190  1.00 20.00     0.018 A 
HETATM    9  C3  UNL     1     -34.203   5.340   6.293  1.00 20.00     0.007 A 
HETATM   10  C4  UNL     1     -33.929   6.808   6.472  1.00 20.00     0.007 A 
ENDBRANCH   6   8
ENDBRANCH   4   6
ENDBRANCH   3   4
TORSDOF 3
