REMARK  3 active torsions:
REMARK  status: ('A' for Active; 'I' for Inactive)
REMARK    1  A    between atoms: C2_2  and  C6_6 
REMARK    2  A    between atoms: C6_6  and  S9_9 
REMARK    3  A    between atoms: C7_7  and  S9_9 
ROOT
HETATM    1  S9  UNL     1     -32.889   7.064   4.369  1.00 20.00    -0.158 SA
ENDROOT
BRANCH   1   2
HETATM    2  C6  UNL     1     -33.165   7.136   2.587  1.00 20.00     0.108 C 
BRANCH   2   3
HETATM    3  C2  UNL     1     -32.213   8.124   1.940  1.00 20.00     0.154 A 
HETATM    4  C1  UNL     1     -32.504   8.715   0.589  1.00 20.00     0.201 A 
HETATM    5  O8  UNL     1     -32.734   9.450   1.801  1.00 20.00    -0.380 OA
ENDBRANCH   2   3
ENDBRANCH   1   2
BRANCH   1   6
HETATM    6  C7  UNL     1     -34.175   5.817   4.768  1.00 20.00    -0.003 C 
HETATM    7  C3  UNL     1     -33.860   4.527   4.006  1.00 20.00     0.026 C 
HETATM    8  C4  UNL     1     -34.149   5.563   6.278  1.00 20.00     0.026 C 
HETATM    9  C5  UNL     1     -35.540   6.367   4.345  1.00 20.00     0.026 C 
ENDBRANCH   1   6
TORSDOF 3
