REMARK  0 active torsions:
REMARK  status: ('A' for Active; 'I' for Inactive)
ROOT
HETATM    1  C1  UNL     1     -32.505   6.183   2.412  1.00 20.00     0.033 A 
HETATM    2  C2  UNL     1     -32.685   8.391   3.416  1.00 20.00     0.033 A 
HETATM    3  C3  UNL     1     -33.184   5.678   3.507  1.00 20.00    -0.028 A 
HETATM    4  C4  UNL     1     -33.377   7.866   4.511  1.00 20.00    -0.033 A 
HETATM    5  C5  UNL     1     -33.602   6.502   4.555  1.00 20.00     0.040 A 
HETATM    6  C6  UNL     1     -32.249   7.555   2.376  1.00 20.00     0.035 A 
HETATM    7  C7  UNL     1     -33.634   4.278   3.769  1.00 20.00     0.060 C 
HETATM    8  C8  UNL     1     -34.116   4.380   5.233  1.00 20.00     0.124 C 
HETATM    9  C9  UNL     1     -33.850   8.771   5.596  1.00 20.00     0.050 C 
HETATM   10  N10 UNL     1     -34.316   5.795   5.521  1.00 20.00    -0.389 N 
HETATM   11 CL11 UNL     1     -31.405   8.230   1.035  1.00 20.00    -0.084 Cl
HETATM   12  H21 UNL     1     -34.454   6.152   6.456  1.00 20.00     0.159 HD
ENDROOT
TORSDOF 0
