REMARK  0 active torsions:
REMARK  status: ('A' for Active; 'I' for Inactive)
ROOT
HETATM    1  C1  UNL     1     -33.538   8.597   4.150  1.00 20.00     0.010 A 
HETATM    2  C2  UNL     1     -32.763   8.883   3.021  1.00 20.00     0.019 A 
HETATM    3  C3  UNL     1     -32.725   6.536   2.390  1.00 20.00     0.034 A 
HETATM    4  C4  UNL     1     -33.493   6.285   3.513  1.00 20.00     0.018 A 
HETATM    5  C5  UNL     1     -33.900   7.280   4.394  1.00 20.00    -0.040 A 
HETATM    6  C6  UNL     1     -32.358   7.859   2.148  1.00 20.00     0.011 A 
HETATM    7  C7  UNL     1     -34.013   5.013   3.985  1.00 20.00     0.160 A 
HETATM    8  C8  UNL     1     -34.830   5.234   5.235  1.00 20.00     0.093 A 
HETATM    9  C9  UNL     1     -34.721   6.748   5.535  1.00 20.00     0.023 A 
HETATM   10  C10 UNL     1     -34.078   7.014   6.891  1.00 20.00     0.015 C 
HETATM   11  O11 UNL     1     -33.817   3.945   3.434  1.00 20.00    -0.292 OA
HETATM   12 BR12 UNL     1     -31.310   8.282   0.632  1.00 20.00    -0.051 Br
ENDROOT
TORSDOF 0
