REMARK  0 active torsions:
REMARK  status: ('A' for Active; 'I' for Inactive)
ROOT
HETATM    1  C1  UNL     1     -33.354   5.570   2.817  1.00 20.00     0.010 A 
HETATM    2  C2  UNL     1     -32.650   6.304   1.856  1.00 20.00     0.019 A 
HETATM    3  C3  UNL     1     -32.676   8.278   3.274  1.00 20.00     0.034 A 
HETATM    4  C4  UNL     1     -33.372   7.526   4.204  1.00 20.00     0.018 A 
HETATM    5  C5  UNL     1     -33.712   6.194   4.003  1.00 20.00    -0.040 A 
HETATM    6  C6  UNL     1     -32.313   7.648   2.085  1.00 20.00     0.011 A 
HETATM    7  C7  UNL     1     -33.873   7.937   5.505  1.00 20.00     0.160 A 
HETATM    8  C8  UNL     1     -34.604   6.785   6.151  1.00 20.00     0.093 A 
HETATM    9  C9  UNL     1     -34.463   5.603   5.163  1.00 20.00     0.023 A 
HETATM   10  C10 UNL     1     -33.733   4.421   5.792  1.00 20.00     0.015 C 
HETATM   11  O11 UNL     1     -33.722   9.049   5.977  1.00 20.00    -0.292 OA
HETATM   12 BR12 UNL     1     -31.361   8.612   0.765  1.00 20.00    -0.051 Br
ENDROOT
TORSDOF 0
