REMARK  2 active torsions:
REMARK  status: ('A' for Active; 'I' for Inactive)
REMARK    1  A    between atoms: C2_2  and  C8_8 
REMARK    2  A    between atoms: C8_8  and  N9_9 
ROOT
HETATM    1  C3  UNL     1     -34.315   4.977   6.809  1.00 20.00     0.003 C 
HETATM    2  C4  UNL     1     -33.736   6.385   6.885  1.00 20.00     0.030 C 
HETATM    3  C5  UNL     1     -34.231   4.430   5.388  1.00 20.00     0.030 C 
HETATM    4  C6  UNL     1     -34.356   7.299   5.824  1.00 20.00     0.273 C 
HETATM    5  C7  UNL     1     -34.835   5.411   4.379  1.00 20.00     0.273 C 
HETATM    6  N9  UNL     1     -34.281   6.769   4.457  1.00 20.00     0.093 N 
ENDROOT
BRANCH   6   7
HETATM    7  C8  UNL     1     -32.931   6.849   3.905  1.00 20.00     0.317 C 
BRANCH   7   8
HETATM    8  C2  UNL     1     -32.593   8.222   3.395  1.00 20.00     0.007 C 
HETATM    9  C1  UNL     1     -32.779   8.597   2.122  1.00 20.00     0.029 C 
HETATM   10 BR10 UNL     1     -31.954   9.428   4.680  1.00 20.00    -0.055 Br
ENDBRANCH   7   8
ENDBRANCH   6   7
TORSDOF 2
