REMARK  1 active torsions:
REMARK  status: ('A' for Active; 'I' for Inactive)
REMARK    1  A    between atoms: C1_1  and  C6_6 
ROOT
HETATM    1  C2  UNL     1     -34.561   4.377   5.254  1.00 20.00     0.005 C 
HETATM    2  C3  UNL     1     -34.559   5.462   6.343  1.00 20.00     0.006 C 
HETATM    3  C4  UNL     1     -33.303   5.895   3.701  1.00 20.00     0.018 C 
HETATM    4  C5  UNL     1     -35.537   6.360   4.375  1.00 20.00     0.010 C 
HETATM    5  C6  UNL     1     -33.253   6.949   4.820  1.00 20.00     0.076 C 
HETATM    6  C7  UNL     1     -34.651   5.192   3.951  1.00 20.00    -0.013 C 
HETATM    7  C8  UNL     1     -34.613   6.766   5.527  1.00 20.00    -0.002 C 
ENDROOT
BRANCH   5   8
HETATM    8  C1  UNL     1     -33.097   8.333   4.267  1.00 20.00     0.223 C 
HETATM    9  O9  UNL     1     -33.508   8.631   3.150  1.00 20.00    -0.279 OA
HETATM   10 CL10 UNL     1     -32.291   9.395   5.381  1.00 20.00    -0.043 Cl
ENDBRANCH   5   8
TORSDOF 1
