REMARK  3 active torsions:
REMARK  status: ('A' for Active; 'I' for Inactive)
REMARK    1  A    between atoms: C5_5  and  N9_9 
REMARK    2  A    between atoms: C6_6  and  C7_7 
REMARK    3  A    between atoms: C7_7  and  N9_9 
ROOT
HETATM    1  C1  UNL     1     -32.653   8.390   4.061  1.00 20.00     0.089 C 
HETATM    2  C5  UNL     1     -32.823   8.413   5.512  1.00 20.00     0.393 C 
HETATM    3  N8  UNL     1     -32.519   8.375   2.908  1.00 20.00    -0.195 NA
ENDROOT
BRANCH   2   4
HETATM    4  N9  UNL     1     -33.055   7.068   6.030  1.00 20.00     0.100 N 
HETATM    5  H23 UNL     1     -32.839   7.057   7.029  1.00 20.00     0.317 HD
BRANCH   4   6
HETATM    6  C7  UNL     1     -34.429   6.656   5.824  1.00 20.00     0.221 C 
HETATM    7  C4  UNL     1     -34.751   5.506   6.776  1.00 20.00     0.043 C 
BRANCH   6   8
HETATM    8  C6  UNL     1     -34.685   6.304   4.340  1.00 20.00     0.010 C 
HETATM    9  C2  UNL     1     -33.840   5.135   3.824  1.00 20.00     0.011 C 
HETATM   10  C3  UNL     1     -36.170   6.022   4.084  1.00 20.00     0.011 C 
ENDBRANCH   6   8
ENDBRANCH   4   6
ENDBRANCH   2   4
TORSDOF 3
