REMARK  1 active torsions:
REMARK  status: ('A' for Active; 'I' for Inactive)
REMARK    1  A    between atoms: C1_1  and  C6_6 
ROOT
HETATM    1  C2  UNL     1     -34.575   4.784   4.592  1.00 20.00     0.027 C 
HETATM    2  C3  UNL     1     -33.720   5.703   3.726  1.00 20.00     0.015 C 
HETATM    3  C4  UNL     1     -34.150   4.873   6.052  1.00 20.00     0.167 C 
HETATM    4  C5  UNL     1     -33.314   7.074   5.787  1.00 20.00     0.179 C 
HETATM    5  C6  UNL     1     -33.693   7.108   4.314  1.00 20.00     0.071 C 
HETATM    6  O8  UNL     1     -34.202   6.223   6.513  1.00 20.00    -0.390 OA
ENDROOT
BRANCH   5   7
HETATM    7  C1  UNL     1     -32.646   7.916   3.574  1.00 20.00     0.237 C 
HETATM    8  O7  UNL     1     -32.345   7.719   2.402  1.00 20.00    -0.306 OA
ENDBRANCH   5   7
TORSDOF 1
