REMARK  3 active torsions:
REMARK  status: ('A' for Active; 'I' for Inactive)
REMARK    1  A    between atoms: C5_5  and  C6_6 
REMARK    2  A    between atoms: C5_5  and  C7_7 
REMARK    3  A    between atoms: C7_7  and  O8_8 
ROOT
HETATM    1  C2  UNL     1     -34.100   8.245   4.578  1.00 20.00     0.045 C 
HETATM    2  C3  UNL     1     -35.862   6.463   4.525  1.00 20.00     0.045 C 
HETATM    3  C7  UNL     1     -34.435   6.798   4.963  1.00 20.00     0.054 C 
ENDROOT
BRANCH   3   4
HETATM    4  C5  UNL     1     -33.381   5.850   4.341  1.00 20.00     0.057 C 
BRANCH   4   5
HETATM    5  C6  UNL     1     -33.194   5.903   2.812  1.00 20.00     0.081 C 
HETATM    6  C1  UNL     1     -32.451   4.664   2.319  1.00 20.00     0.026 C 
HETATM    7 CL9  UNL     1     -32.281   7.350   2.297  1.00 20.00    -0.125 Cl
ENDBRANCH   4   5
ENDBRANCH   3   4
BRANCH   3   8
HETATM    8  O8  UNL     1     -34.364   6.713   6.386  1.00 20.00    -0.386 OA
HETATM    9  C4  UNL     1     -34.661   5.402   6.839  1.00 20.00     0.202 C 
ENDBRANCH   3   8
TORSDOF 3
