REMARK  3 active torsions:
REMARK  status: ('A' for Active; 'I' for Inactive)
REMARK    1  A    between atoms: C5_5  and  O9_9 
REMARK    2  A    between atoms: C6_6  and  C7_7 
REMARK    3  A    between atoms: C7_7  and  O9_9 
ROOT
HETATM    1  C1  UNL     1     -32.801   8.731   5.067  1.00 20.00     0.085 C 
HETATM    2  C5  UNL     1     -33.533   7.617   5.669  1.00 20.00     0.292 C 
HETATM    3  N8  UNL     1     -32.221   9.616   4.590  1.00 20.00    -0.195 NA
ENDROOT
BRANCH   2   4
HETATM    4  O9  UNL     1     -33.529   6.495   4.801  1.00 20.00    -0.367 OA
BRANCH   4   5
HETATM    5  C7  UNL     1     -34.583   5.585   5.127  1.00 20.00     0.054 C 
HETATM    6  C3  UNL     1     -34.670   5.513   6.652  1.00 20.00     0.045 C 
HETATM    7  C4  UNL     1     -35.888   6.154   4.561  1.00 20.00     0.045 C 
BRANCH   5   8
HETATM    8  C6  UNL     1     -34.288   4.213   4.491  1.00 20.00     0.033 C 
HETATM    9  C2  UNL     1     -34.191   4.228   2.969  1.00 20.00     0.008 C 
ENDBRANCH   5   8
ENDBRANCH   4   5
ENDBRANCH   2   4
TORSDOF 3
