REMARK  4 active torsions:
REMARK  status: ('A' for Active; 'I' for Inactive)
REMARK    1  A    between atoms: C5_5  and  C6_6 
REMARK    2  A    between atoms: C5_5  and  C7_7 
REMARK    3  A    between atoms: C6_6  and  S9_9 
REMARK    4  A    between atoms: C7_7  and  O8_8 
ROOT
HETATM    1  C5  UNL     1     -34.419   7.444   4.107  1.00 20.00     0.051 C 
ENDROOT
BRANCH   1   2
HETATM    2  C6  UNL     1     -34.717   6.323   5.123  1.00 20.00     0.043 C 
HETATM    3  C1  UNL     1     -33.754   6.266   6.304  1.00 20.00     0.021 C 
BRANCH   2   4
HETATM    4  S9  UNL     1     -34.645   4.714   4.244  1.00 20.00    -0.178 SA
HETATM    5  H25 UNL     1     -35.035   3.983   5.295  1.00 20.00     0.102 HD
ENDBRANCH   2   4
ENDBRANCH   1   2
BRANCH   1   6
HETATM    6  C7  UNL     1     -32.937   7.670   3.728  1.00 20.00     0.054 C 
HETATM    7  C2  UNL     1     -32.273   6.413   3.162  1.00 20.00     0.045 C 
HETATM    8  C3  UNL     1     -32.844   8.812   2.707  1.00 20.00     0.045 C 
BRANCH   6   9
HETATM    9  O8  UNL     1     -32.219   8.085   4.890  1.00 20.00    -0.386 OA
HETATM   10  C4  UNL     1     -32.473   9.448   5.194  1.00 20.00     0.202 C 
ENDBRANCH   6   9
ENDBRANCH   1   6
TORSDOF 4
