REMARK  3 active torsions:
REMARK  status: ('A' for Active; 'I' for Inactive)
REMARK    1  A    between atoms: C1_1  and  C7_7 
REMARK    2  A    between atoms: C1_1  and  C9_9 
REMARK    3  A    between atoms: C8_8  and  C9_9 
ROOT
HETATM    1  C1  UNL     1     -32.441   8.454   3.803  1.00 20.00     0.131 C 
HETATM    2  O10 UNL     1     -32.481   9.247   4.742  1.00 20.00    -0.298 OA
ENDROOT
BRANCH   1   3
HETATM    3  C7  UNL     1     -31.929   8.877   2.450  1.00 20.00     0.055 A 
HETATM    4  C3  UNL     1     -32.407   8.132   1.257  1.00 20.00     0.013 A 
HETATM    5  C4  UNL     1     -32.883   9.530   1.517  1.00 20.00     0.013 A 
ENDBRANCH   1   3
BRANCH   1   6
HETATM    6  C9  UNL     1     -32.897   7.010   3.926  1.00 20.00     0.083 C 
BRANCH   6   7
HETATM    7  C8  UNL     1     -33.975   6.824   4.973  1.00 20.00    -0.008 C 
HETATM    8  C5  UNL     1     -33.496   6.518   6.417  1.00 20.00     0.005 C 
HETATM    9  C2  UNL     1     -34.715   5.580   6.543  1.00 20.00     0.001 C 
HETATM   10  C6  UNL     1     -34.678   5.442   5.007  1.00 20.00     0.005 C 
ENDBRANCH   6   7
ENDBRANCH   1   6
TORSDOF 3
