REMARK  2 active torsions:
REMARK  status: ('A' for Active; 'I' for Inactive)
REMARK    1  A    between atoms: C1_1  and  C2_2 
REMARK    2  A    between atoms: C2_2  and  O3_3 
ROOT
HETATM    1  C2  UNL     1     -34.461   5.707   4.635  1.00 20.00     0.226 C 
HETATM    2 CL5  UNL     1     -33.997   4.104   4.010  1.00 20.00    -0.070 Cl
HETATM    3 CL6  UNL     1     -33.997   5.808   6.358  1.00 20.00    -0.070 Cl
ENDROOT
BRANCH   1   4
HETATM    4  C1  UNL     1     -33.786   6.841   3.867  1.00 20.00     0.187 C 
HETATM    5 CL4  UNL     1     -33.677   8.347   4.822  1.00 20.00    -0.125 Cl
ENDBRANCH   1   4
BRANCH   1   6
HETATM    6  O3  UNL     1     -35.873   5.842   4.557  1.00 20.00    -0.361 OA
HETATM    7  H9  UNL     1     -36.248   5.099   5.060  1.00 20.00     0.213 HD
ENDBRANCH   1   6
TORSDOF 2
