REMARK  3 active torsions:
REMARK  status: ('A' for Active; 'I' for Inactive)
REMARK    1  A    between atoms: C2_2  and  C5_5 
REMARK    2  A    between atoms: C2_2  and  C8_8 
REMARK    3  A    between atoms: C7_7  and  C8_8 
ROOT
HETATM    1  C1  UNL     1     -33.299   5.890   3.429  1.00 20.00     0.071 C 
HETATM    2  C8  UNL     1     -34.309   6.359   4.396  1.00 20.00     0.162 C 
HETATM    3  N9  UNL     1     -32.507   5.522   2.664  1.00 20.00    -0.196 NA
ENDROOT
BRANCH   2   4
HETATM    4  C2  UNL     1     -33.689   7.278   5.437  1.00 20.00     0.148 C 
HETATM    5  O10 UNL     1     -34.133   7.441   6.567  1.00 20.00    -0.296 OA
BRANCH   4   6
HETATM    6  C5  UNL     1     -32.465   8.020   5.011  1.00 20.00     0.057 A 
HETATM    7  C3  UNL     1     -32.535   8.865   3.784  1.00 20.00     0.013 A 
HETATM    8  C4  UNL     1     -32.457   9.507   5.137  1.00 20.00     0.013 A 
ENDBRANCH   4   6
ENDBRANCH   2   4
BRANCH   2   9
HETATM    9  C7  UNL     1     -35.053   5.187   5.053  1.00 20.00     0.022 C 
HETATM   10  C6  UNL     1     -34.170   4.253   5.876  1.00 20.00     0.007 C 
ENDBRANCH   2   9
TORSDOF 3
