REMARK  2 active torsions:
REMARK  status: ('A' for Active; 'I' for Inactive)
REMARK    1  A    between atoms: C1_1  and  C3_3 
REMARK    2  A    between atoms: C2_2  and  C7_7 
ROOT
HETATM    1  C1  UNL     1     -32.893   7.248   5.569  1.00 20.00     0.038 C 
HETATM    2  C2  UNL     1     -33.679   6.452   4.830  1.00 20.00    -0.015 C 
ENDROOT
BRANCH   2   3
HETATM    3  C7  UNL     1     -34.375   5.176   5.285  1.00 20.00    -0.034 C 
HETATM    4  C4  UNL     1     -33.868   4.014   4.413  1.00 20.00     0.018 C 
HETATM    5  C5  UNL     1     -34.135   4.819   6.764  1.00 20.00     0.018 C 
HETATM    6  C6  UNL     1     -35.889   5.348   5.064  1.00 20.00     0.018 C 
ENDBRANCH   2   3
BRANCH   1   7
HETATM    7  C3  UNL     1     -32.303   8.450   4.945  1.00 20.00     0.258 C 
HETATM    8  O8  UNL     1     -32.512   8.740   3.773  1.00 20.00    -0.302 OA
ENDBRANCH   1   7
TORSDOF 2
