REMARK  3 active torsions:
REMARK  status: ('A' for Active; 'I' for Inactive)
REMARK    1  A    between atoms: C5_5  and  C9_9 
REMARK    2  A    between atoms: C8_8  and  N10_10 
REMARK    3  A    between atoms: C9_9  and  N10_10 
ROOT
HETATM    1  C1  UNL     1     -32.475   8.484   0.342  1.00 20.00     0.013 C 
HETATM    2  C2  UNL     1     -32.327   7.927   1.395  1.00 20.00    -0.087 C 
HETATM    3  C8  UNL     1     -32.141   7.244   2.677  1.00 20.00     0.364 C 
ENDROOT
BRANCH   3   4
HETATM    4  N10 UNL     1     -33.066   7.763   3.674  1.00 20.00     0.099 N 
HETATM    5  C7  UNL     1     -32.589   9.018   4.234  1.00 20.00     0.311 C 
BRANCH   4   6
HETATM    6  C9  UNL     1     -33.243   6.767   4.759  1.00 20.00     0.223 C 
HETATM    7  C6  UNL     1     -33.787   7.472   5.992  1.00 20.00     0.043 C 
BRANCH   6   8
HETATM    8  C5  UNL     1     -34.180   5.668   4.279  1.00 20.00     0.018 A 
HETATM    9  C3  UNL     1     -34.161   4.315   4.935  1.00 20.00     0.007 A 
HETATM   10  C4  UNL     1     -35.336   5.232   5.135  1.00 20.00     0.007 A 
ENDBRANCH   6   8
ENDBRANCH   4   6
ENDBRANCH   3   4
TORSDOF 3
