REMARK  3 active torsions:
REMARK  status: ('A' for Active; 'I' for Inactive)
REMARK    1  A    between atoms: C4_4  and  C8_8 
REMARK    2  A    between atoms: C7_7  and  N10_10 
REMARK    3  A    between atoms: C8_8  and  N10_10 
ROOT
HETATM    1  C1  UNL     1     -34.148   5.752   5.405  1.00 20.00     0.089 C 
HETATM    2  C7  UNL     1     -33.975   7.154   5.029  1.00 20.00     0.395 C 
HETATM    3  N9  UNL     1     -34.287   4.640   5.706  1.00 20.00    -0.195 NA
ENDROOT
BRANCH   2   4
HETATM    4  N10 UNL     1     -32.839   7.315   4.134  1.00 20.00     0.101 N 
HETATM    5  C6  UNL     1     -32.367   8.691   4.123  1.00 20.00     0.311 C 
BRANCH   4   6
HETATM    6  C8  UNL     1     -33.223   6.907   2.761  1.00 20.00     0.223 C 
HETATM    7  C5  UNL     1     -33.285   5.388   2.699  1.00 20.00     0.043 C 
BRANCH   6   8
HETATM    8  C4  UNL     1     -32.213   7.471   1.772  1.00 20.00     0.018 A 
HETATM    9  C2  UNL     1     -32.586   7.649   0.326  1.00 20.00     0.007 A 
HETATM   10  C3  UNL     1     -32.397   8.852   1.207  1.00 20.00     0.007 A 
ENDBRANCH   6   8
ENDBRANCH   4   6
ENDBRANCH   2   4
TORSDOF 3
