REMARK  0 active torsions:
REMARK  status: ('A' for Active; 'I' for Inactive)
ROOT
HETATM    1  C1  UNL     1     -34.211   4.272   5.337  1.00 20.00    -0.030 C 
HETATM    2  C2  UNL     1     -34.035   4.696   4.076  1.00 20.00    -0.020 C 
HETATM    3  C3  UNL     1     -33.797   7.371   5.740  1.00 20.00    -0.021 C 
HETATM    4  C4  UNL     1     -33.401   7.162   4.478  1.00 20.00    -0.050 C 
HETATM    5  C5  UNL     1     -34.361   5.073   6.598  1.00 20.00     0.030 C 
HETATM    6  C6  UNL     1     -34.811   6.523   6.435  1.00 20.00     0.031 C 
HETATM    7  C7  UNL     1     -32.390   8.010   3.778  1.00 20.00     0.202 C 
HETATM    8  C8  UNL     1     -32.753   6.145   2.496  1.00 20.00     0.180 C 
HETATM    9  C9  UNL     1     -33.867   6.089   3.541  1.00 20.00     0.062 C 
HETATM   10  O10 UNL     1     -32.348   7.518   2.432  1.00 20.00    -0.386 OA
ENDROOT
TORSDOF 0
