REMARK  2 active torsions:
REMARK  status: ('A' for Active; 'I' for Inactive)
REMARK    1  A    between atoms: C1_1  and  C3_3 
REMARK    2  A    between atoms: C1_1  and  C8_8 
ROOT
HETATM    1  C2  UNL     1     -32.324   7.947   5.016  1.00 20.00     0.022 A 
HETATM    2  C3  UNL     1     -33.808   7.986   4.759  1.00 20.00     0.064 A 
HETATM    3  C4  UNL     1     -32.839   7.811   3.603  1.00 20.00    -0.037 A 
HETATM    4  C5  UNL     1     -32.656   8.980   2.671  1.00 20.00     0.015 C 
HETATM    5  C6  UNL     1     -32.703   6.468   2.935  1.00 20.00     0.015 C 
ENDROOT
BRANCH   2   6
HETATM    6  C1  UNL     1     -34.649   6.872   5.215  1.00 20.00     0.131 C 
HETATM    7  O9  UNL     1     -35.413   6.297   4.441  1.00 20.00    -0.298 OA
BRANCH   6   8
HETATM    8  C8  UNL     1     -34.513   6.487   6.676  1.00 20.00     0.074 C 
HETATM    9  C7  UNL     1     -34.086   5.043   6.863  1.00 20.00     0.013 C 
ENDBRANCH   6   8
ENDBRANCH   2   6
TORSDOF 2
