REMARK  1 active torsions:
REMARK  status: ('A' for Active; 'I' for Inactive)
REMARK    1  A    between atoms: C4_4  and  C8_8 
ROOT
HETATM    1  C1  UNL     1     -33.650   5.629   3.637  1.00 20.00    -0.057 C 
HETATM    2  C2  UNL     1     -33.683   4.334   3.991  1.00 20.00     0.017 C 
HETATM    3  C5  UNL     1     -32.888   6.074   2.411  1.00 20.00     0.038 C 
HETATM    4  C6  UNL     1     -31.967   7.240   2.761  1.00 20.00     0.030 C 
HETATM    5  C7  UNL     1     -32.727   8.327   3.514  1.00 20.00     0.169 C 
HETATM    6  C8  UNL     1     -34.321   6.774   4.373  1.00 20.00     0.171 C 
HETATM    7  O9  UNL     1     -33.345   7.781   4.681  1.00 20.00    -0.378 OA
ENDROOT
BRANCH   6   8
HETATM    8  C4  UNL     1     -34.987   6.402   5.658  1.00 20.00    -0.001 C 
HETATM    9  C3  UNL     1     -34.369   6.384   6.843  1.00 20.00     0.010 C 
ENDBRANCH   6   8
TORSDOF 1
