REMARK  1 active torsions:
REMARK  status: ('A' for Active; 'I' for Inactive)
REMARK    1  A    between atoms: C7_7  and  O11_11 
ROOT
HETATM    1  C1  UNL     1     -33.278   4.502   3.428  1.00 20.00    -0.027 C 
HETATM    2  C2  UNL     1     -34.330   4.524   4.266  1.00 20.00     0.001 C 
HETATM    3  C3  UNL     1     -32.338   5.671   3.230  1.00 20.00     0.036 C 
HETATM    4  C4  UNL     1     -32.600   8.919   5.214  1.00 20.00     0.001 C 
HETATM    5  C5  UNL     1     -33.740   8.061   5.789  1.00 20.00     0.008 C 
HETATM    6  C6  UNL     1     -31.910   8.071   4.128  1.00 20.00     0.010 C 
HETATM    7  C7  UNL     1     -34.677   5.711   5.136  1.00 20.00     0.145 C 
HETATM    8  C8  UNL     1     -33.502   6.685   5.182  1.00 20.00     0.026 C 
HETATM    9  C9  UNL     1     -32.932   6.980   3.784  1.00 20.00    -0.035 C 
HETATM   10  C10 UNL     1     -33.967   7.547   2.782  1.00 20.00     0.016 C 
ENDROOT
BRANCH   7  11
HETATM   11  O11 UNL     1     -34.958   5.242   6.451  1.00 20.00    -0.391 OA
HETATM   12  H27 UNL     1     -35.707   4.631   6.374  1.00 20.00     0.210 HD
ENDBRANCH   7  11
TORSDOF 1
