REMARK  0 active torsions:
REMARK  status: ('A' for Active; 'I' for Inactive)
ROOT
HETATM    1  C1  UNL     1     -32.857   8.852   2.334  1.00 20.00    -0.071 C 
HETATM    2  C2  UNL     1     -33.377   5.378   3.153  1.00 20.00     0.220 C 
HETATM    3  C3  UNL     1     -33.096   9.457   1.161  1.00 20.00     0.016 C 
HETATM    4  C4  UNL     1     -33.192   9.528   3.639  1.00 20.00     0.037 C 
HETATM    5  C5  UNL     1     -32.266   7.471   2.409  1.00 20.00     0.159 C 
HETATM    6  C6  UNL     1     -34.143   4.744   4.293  1.00 20.00     0.103 C 
HETATM    7  C7  UNL     1     -32.680   8.725   4.837  1.00 20.00     0.030 C 
HETATM    8  C8  UNL     1     -35.185   5.728   4.807  1.00 20.00     0.015 C 
HETATM    9  C9  UNL     1     -34.548   7.029   5.335  1.00 20.00     0.005 C 
HETATM   10  C10 UNL     1     -33.117   7.248   4.777  1.00 20.00     0.091 C 
HETATM   11  C11 UNL     1     -34.537   7.019   6.870  1.00 20.00     0.012 C 
HETATM   12  N12 UNL     1     -32.987   6.693   3.416  1.00 20.00    -0.343 N 
HETATM   13  O13 UNL     1     -33.141   4.755   2.120  1.00 20.00    -0.273 OA
ENDROOT
TORSDOF 0
