REMARK  3 active torsions:
REMARK  status: ('A' for Active; 'I' for Inactive)
REMARK    1  A    between atoms: C4_4  and  C6_6 
REMARK    2  A    between atoms: C5_5  and  C7_7 
REMARK    3  A    between atoms: C6_6  and  C7_7 
ROOT
HETATM    1  C1  UNL     1     -33.595   7.776   4.914  1.00 20.00     0.064 C 
HETATM    2  C7  UNL     1     -34.280   6.584   4.374  1.00 20.00     0.092 C 
HETATM    3  N8  UNL     1     -33.057   8.714   5.336  1.00 20.00    -0.197 NA
ENDROOT
BRANCH   2   4
HETATM    4  C5  UNL     1     -35.174   5.941   5.452  1.00 20.00     0.014 C 
HETATM    5  C3  UNL     1     -34.435   5.404   6.673  1.00 20.00     0.006 C 
ENDBRANCH   2   4
BRANCH   2   6
HETATM    6  C6  UNL     1     -33.272   5.583   3.779  1.00 20.00     0.019 C 
BRANCH   6   7
HETATM    7  C4  UNL     1     -32.851   5.948   2.350  1.00 20.00    -0.003 C 
HETATM    8  C2  UNL     1     -32.128   7.286   2.310  1.00 20.00     0.005 C 
ENDBRANCH   6   7
ENDBRANCH   2   6
TORSDOF 3
