REMARK  1 active torsions:
REMARK  status: ('A' for Active; 'I' for Inactive)
REMARK    1  A    between atoms: C5_5  and  C6_6 
ROOT
HETATM    1  C1  UNL     1     -33.434   8.060   4.861  1.00 20.00     0.139 C 
HETATM    2  C2  UNL     1     -32.794   8.659   3.634  1.00 20.00     0.079 C 
HETATM    3  C3  UNL     1     -32.076   7.457   3.032  1.00 20.00     0.008 C 
HETATM    4  C4  UNL     1     -32.943   6.266   3.419  1.00 20.00     0.021 C 
HETATM    5  C5  UNL     1     -33.340   6.548   4.869  1.00 20.00     0.163 C 
HETATM    6  O7  UNL     1     -33.965   8.726   5.741  1.00 20.00    -0.297 OA
ENDROOT
BRANCH   5   7
HETATM    7  C6  UNL     1     -34.638   5.876   5.269  1.00 20.00     0.398 C 
HETATM    8  F8  UNL     1     -34.989   6.233   6.519  1.00 20.00    -0.170 F 
HETATM    9  F9  UNL     1     -35.630   6.231   4.432  1.00 20.00    -0.170 F 
HETATM   10  F10 UNL     1     -34.507   4.537   5.231  1.00 20.00    -0.170 F 
ENDBRANCH   5   7
TORSDOF 1
