REMARK  2 active torsions:
REMARK  status: ('A' for Active; 'I' for Inactive)
REMARK    1  A    between atoms: C1_1  and  C3_3 
REMARK    2  A    between atoms: C3_3  and  C4_4 
ROOT
HETATM    1  C2  UNL     1     -35.946   5.984   4.426  1.00 20.00     0.069 C 
HETATM    2  C3  UNL     1     -34.484   5.577   4.665  1.00 20.00     0.264 C 
HETATM    3  O5  UNL     1     -34.395   4.268   4.786  1.00 20.00    -0.210 OA
ENDROOT
BRANCH   2   4
HETATM    4  C1  UNL     1     -33.568   5.981   3.490  1.00 20.00     0.265 C 
HETATM    5  O6  UNL     1     -33.365   5.229   2.538  1.00 20.00    -0.276 OA
HETATM    6 CL10 UNL     1     -32.828   7.567   3.633  1.00 20.00    -0.040 Cl
ENDBRANCH   2   4
BRANCH   2   7
HETATM    7  C4  UNL     1     -33.992   6.227   5.968  1.00 20.00     0.429 C 
HETATM    8  F7  UNL     1     -33.989   7.580   5.890  1.00 20.00    -0.167 F 
HETATM    9  F8  UNL     1     -32.737   5.843   6.299  1.00 20.00    -0.167 F 
HETATM   10  F9  UNL     1     -34.799   5.895   7.004  1.00 20.00    -0.167 F 
ENDBRANCH   2   7
TORSDOF 2
