REMARK  1 active torsions:
REMARK  status: ('A' for Active; 'I' for Inactive)
REMARK    1  A    between atoms: C4_4  and  C6_6 
ROOT
HETATM    1  C1  UNL     1     -33.669   7.165   5.962  1.00 20.00     0.089 A 
HETATM    2  C2  UNL     1     -33.308   6.164   3.803  1.00 20.00     0.044 A 
HETATM    3  C3  UNL     1     -33.867   6.132   5.132  1.00 20.00    -0.053 A 
HETATM    4  C4  UNL     1     -32.600   7.233   3.426  1.00 20.00     0.080 A 
HETATM    5  C5  UNL     1     -32.885   8.344   5.538  1.00 20.00     0.288 A 
HETATM    6  C8  UNL     1     -34.655   4.918   5.516  1.00 20.00     0.048 C 
HETATM    7  O11 UNL     1     -32.709   9.285   6.305  1.00 20.00    -0.260 OA
HETATM    8  O12 UNL     1     -32.372   8.336   4.268  1.00 20.00    -0.276 OA
ENDROOT
BRANCH   4   9
HETATM    9  C6  UNL     1     -32.002   7.364   2.126  1.00 20.00     0.039 C 
HETATM   10  C7  UNL     1     -32.269   8.346   1.224  1.00 20.00    -0.085 C 
HETATM   11  C9  UNL     1     -31.638   8.474  -0.135  1.00 20.00     0.043 C 
HETATM   12  C10 UNL     1     -33.269   9.429   1.538  1.00 20.00     0.043 C 
ENDBRANCH   4   9
TORSDOF 1
