REMARK  0 active torsions:
REMARK  status: ('A' for Active; 'I' for Inactive)
ROOT
HETATM    1  C1  UNL     1     -33.258   5.926   3.440  1.00 20.00    -0.057 C 
HETATM    2  C2  UNL     1     -33.243   4.828   2.678  1.00 20.00     0.017 C 
HETATM    3  C3  UNL     1     -32.274   7.041   3.370  1.00 20.00     0.205 C 
HETATM    4  C4  UNL     1     -34.047   5.477   5.809  1.00 20.00     0.040 C 
HETATM    5  C5  UNL     1     -34.479   6.502   6.833  1.00 20.00     0.172 C 
HETATM    6  C6  UNL     1     -34.248   6.229   4.509  1.00 20.00     0.073 C 
HETATM    7  C7  UNL     1     -33.893   7.655   4.900  1.00 20.00     0.268 C 
HETATM    8  O8  UNL     1     -32.513   7.836   4.542  1.00 20.00    -0.356 OA
HETATM    9  O9  UNL     1     -34.093   7.781   6.313  1.00 20.00    -0.361 OA
ENDROOT
TORSDOF 0
