REMARK  4 active torsions:
REMARK  status: ('A' for Active; 'I' for Inactive)
REMARK    1  A    between atoms: C2_2  and  C5_5 
REMARK    2  A    between atoms: C2_2  and  C6_6 
REMARK    3  A    between atoms: C5_5  and  C7_7 
REMARK    4  A    between atoms: C6_6  and  C8_8 
ROOT
HETATM    1  C1  UNL     1     -32.823   8.907   4.746  1.00 20.00     0.207 A 
HETATM    2  C2  UNL     1     -33.098   7.799   3.757  1.00 20.00     0.082 A 
HETATM    3  O9  UNL     1     -31.786   8.024   4.292  1.00 20.00    -0.375 OA
ENDROOT
BRANCH   2   4
HETATM    4  C5  UNL     1     -33.741   6.508   4.237  1.00 20.00     0.040 C 
BRANCH   4   5
HETATM    5  C7  UNL     1     -34.117   6.586   5.715  1.00 20.00    -0.002 C 
HETATM    6  C3  UNL     1     -34.786   5.306   6.189  1.00 20.00     0.005 C 
ENDBRANCH   4   5
ENDBRANCH   2   4
BRANCH   2   7
HETATM    7  C6  UNL     1     -33.218   8.122   2.303  1.00 20.00     0.040 C 
BRANCH   7   8
HETATM    8  C8  UNL     1     -32.449   9.396   1.921  1.00 20.00    -0.002 C 
HETATM    9  C4  UNL     1     -32.543   9.706   0.435  1.00 20.00     0.005 C 
ENDBRANCH   7   8
ENDBRANCH   2   7
TORSDOF 4
