REMARK  2 active torsions:
REMARK  status: ('A' for Active; 'I' for Inactive)
REMARK    1  A    between atoms: C1_1  and  C3_3 
REMARK    2  A    between atoms: C3_3  and  C4_4 
ROOT
HETATM    1  C2  UNL     1     -34.246   4.260   5.594  1.00 20.00     0.069 C 
HETATM    2  C3  UNL     1     -34.413   5.600   4.860  1.00 20.00     0.264 C 
HETATM    3  O5  UNL     1     -35.594   5.648   4.275  1.00 20.00    -0.210 OA
ENDROOT
BRANCH   2   4
HETATM    4  C1  UNL     1     -33.357   5.793   3.752  1.00 20.00     0.265 C 
HETATM    5  O6  UNL     1     -33.260   5.011   2.806  1.00 20.00    -0.276 OA
HETATM    6 CL10 UNL     1     -32.302   7.181   3.961  1.00 20.00    -0.040 Cl
ENDBRANCH   2   4
BRANCH   2   7
HETATM    7  C4  UNL     1     -34.322   6.743   5.884  1.00 20.00     0.429 C 
HETATM    8  F7  UNL     1     -34.535   7.953   5.313  1.00 20.00    -0.167 F 
HETATM    9  F8  UNL     1     -33.117   6.797   6.497  1.00 20.00    -0.167 F 
HETATM   10  F9  UNL     1     -35.257   6.596   6.853  1.00 20.00    -0.167 F 
ENDBRANCH   2   7
TORSDOF 2
