REMARK  1 active torsions:
REMARK  status: ('A' for Active; 'I' for Inactive)
REMARK    1  A    between atoms: C2_2  and  C3_3 
ROOT
HETATM    1  C1  UNL     1     -33.203   7.981   5.727  1.00 20.00     0.112 C 
HETATM    2  C2  UNL     1     -33.323   6.908   4.937  1.00 20.00     0.090 C 
HETATM    3 CL6  UNL     1     -32.355   9.420   5.327  1.00 20.00    -0.095 Cl
HETATM    4 CL7  UNL     1     -32.616   6.833   3.358  1.00 20.00    -0.080 Cl
ENDROOT
BRANCH   2   5
HETATM    5  C3  UNL     1     -34.083   5.691   5.367  1.00 20.00     0.167 C 
HETATM    6  C4  UNL     1     -34.146   5.339   6.833  1.00 20.00     0.097 C 
HETATM    7  O5  UNL     1     -34.653   4.981   4.537  1.00 20.00    -0.292 OA
ENDBRANCH   2   5
TORSDOF 1
