REMARK  1 active torsions:
REMARK  status: ('A' for Active; 'I' for Inactive)
REMARK    1  A    between atoms: C2_2  and  C4_4 
REMARK       I    between atoms: C2_2  and  N7_7 
ROOT
HETATM    1  C1  UNL     1     -34.567   5.307   4.771  1.00 20.00     0.166 C 
HETATM    2  C2  UNL     1     -33.905   7.132   5.782  1.00 20.00     0.249 C 
HETATM    3  N7  UNL     1     -34.877   6.363   5.179  1.00 20.00    -0.199 NA
HETATM    4  O8  UNL     1     -33.242   6.853   6.777  1.00 20.00    -0.271 OA
HETATM    5  S9  UNL     1     -34.183   3.868   4.205  1.00 20.00    -0.055 SA
ENDROOT
BRANCH   2   6
HETATM    6  C4  UNL     1     -33.677   8.421   5.120  1.00 20.00     0.084 A 
HETATM    7  C3  UNL     1     -32.351   9.118   5.292  1.00 20.00     0.019 A 
HETATM    8  C5  UNL     1     -32.721   8.538   3.957  1.00 20.00    -0.005 A 
HETATM    9  C6  UNL     1     -31.976   7.364   3.421  1.00 20.00     0.011 C 
ENDBRANCH   2   6
TORSDOF 1
