REMARK  1 active torsions:
REMARK  status: ('A' for Active; 'I' for Inactive)
REMARK    1  A    between atoms: C4_4  and  C10_10 
ROOT
HETATM    1  C1  UNL     1     -33.965   7.866   5.595  1.00 20.00     0.008 C 
HETATM    2  C2  UNL     1     -32.885   8.949   5.640  1.00 20.00     0.035 C 
HETATM    3  C3  UNL     1     -33.122   6.880   3.426  1.00 20.00     0.039 C 
HETATM    4  C4  UNL     1     -33.451   6.597   4.900  1.00 20.00    -0.005 C 
HETATM    5  C5  UNL     1     -32.200   9.155   4.330  1.00 20.00     0.151 A 
HETATM    6  C6  UNL     1     -32.287   8.109   3.251  1.00 20.00     0.151 A 
HETATM    7  O11 UNL     1     -33.060   9.325   3.202  1.00 20.00    -0.375 OA
ENDROOT
BRANCH   4   8
HETATM    8  C10 UNL     1     -34.473   5.467   5.011  1.00 20.00    -0.048 C 
HETATM    9  C7  UNL     1     -34.763   5.172   6.492  1.00 20.00     0.015 C 
HETATM   10  C8  UNL     1     -33.919   4.198   4.341  1.00 20.00     0.015 C 
HETATM   11  C9  UNL     1     -35.779   5.878   4.312  1.00 20.00     0.015 C 
ENDBRANCH   4   8
TORSDOF 1
