REMARK  2 active torsions:
REMARK  status: ('A' for Active; 'I' for Inactive)
REMARK    1  A    between atoms: C1_1  and  C5_5 
REMARK    2  A    between atoms: C4_4  and  C5_5 
ROOT
HETATM    1  C5  UNL     1     -34.144   7.497   5.165  1.00 20.00     0.101 C 
ENDROOT
BRANCH   1   2
HETATM    2  C1  UNL     1     -33.072   8.422   4.614  1.00 20.00     0.219 C 
HETATM    3  O6  UNL     1     -32.529   9.287   5.294  1.00 20.00    -0.280 OA
HETATM    4 CL7  UNL     1     -32.733   8.093   2.937  1.00 20.00    -0.044 Cl
ENDBRANCH   1   2
BRANCH   1   5
HETATM    5  C4  UNL     1     -33.771   6.056   5.129  1.00 20.00    -0.006 A 
HETATM    6  C2  UNL     1     -34.835   4.996   5.210  1.00 20.00     0.005 A 
HETATM    7  C3  UNL     1     -34.095   5.221   3.921  1.00 20.00     0.005 A 
ENDBRANCH   1   5
TORSDOF 2
