REMARK  2 active torsions:
REMARK  status: ('A' for Active; 'I' for Inactive)
REMARK    1  A    between atoms: C4_4  and  C11_11 
REMARK    2  A    between atoms: C10_10  and  C11_11 
ROOT
HETATM    1  C1  UNL     1     -33.137   6.992   5.763  1.00 20.00     0.008 C 
HETATM    2  C2  UNL     1     -34.148   6.286   6.668  1.00 20.00     0.035 C 
HETATM    3  C3  UNL     1     -34.405   6.451   3.644  1.00 20.00     0.040 C 
HETATM    4  C4  UNL     1     -33.819   7.574   4.515  1.00 20.00    -0.004 C 
HETATM    5  C5  UNL     1     -35.057   5.360   5.930  1.00 20.00     0.151 A 
HETATM    6  C6  UNL     1     -35.212   5.472   4.437  1.00 20.00     0.151 A 
HETATM    7  O12 UNL     1     -34.416   4.437   5.048  1.00 20.00    -0.375 OA
ENDROOT
BRANCH   4   8
HETATM    8  C11 UNL     1     -32.838   8.419   3.706  1.00 20.00    -0.044 C 
HETATM    9  C8  UNL     1     -32.298   9.554   4.599  1.00 20.00     0.015 C 
HETATM   10  C9  UNL     1     -31.656   7.531   3.264  1.00 20.00     0.015 C 
BRANCH   8  11
HETATM   11  C10 UNL     1     -33.582   8.998   2.470  1.00 20.00     0.004 C 
HETATM   12  C7  UNL     1     -32.757   9.876   1.536  1.00 20.00     0.006 C 
ENDBRANCH   8  11
ENDBRANCH   4   8
TORSDOF 2
