REMARK  2 active torsions:
REMARK  status: ('A' for Active; 'I' for Inactive)
REMARK    1  A    between atoms: C4_4  and  C11_11 
REMARK    2  A    between atoms: C10_10  and  C11_11 
ROOT
HETATM    1  C1  UNL     1     -34.236   7.097   4.834  1.00 20.00     0.008 C 
HETATM    2  C2  UNL     1     -34.619   5.834   5.606  1.00 20.00     0.035 C 
HETATM    3  C3  UNL     1     -32.861   5.848   3.127  1.00 20.00     0.040 C 
HETATM    4  C4  UNL     1     -32.850   6.962   4.187  1.00 20.00    -0.004 C 
HETATM    5  C5  UNL     1     -34.403   4.589   4.806  1.00 20.00     0.151 A 
HETATM    6  C6  UNL     1     -33.503   4.584   3.601  1.00 20.00     0.151 A 
HETATM    7  O12 UNL     1     -33.050   4.097   4.865  1.00 20.00    -0.375 OA
ENDROOT
BRANCH   4   8
HETATM    8  C11 UNL     1     -32.411   8.286   3.564  1.00 20.00    -0.044 C 
HETATM    9  C8  UNL     1     -32.384   9.372   4.659  1.00 20.00     0.015 C 
HETATM   10  C9  UNL     1     -30.989   8.124   2.990  1.00 20.00     0.015 C 
BRANCH   8  11
HETATM   11  C10 UNL     1     -33.417   8.665   2.440  1.00 20.00     0.004 C 
HETATM   12  C7  UNL     1     -33.141   9.967   1.698  1.00 20.00     0.006 C 
ENDBRANCH   8  11
ENDBRANCH   4   8
TORSDOF 2
