REMARK  1 active torsions:
REMARK  status: ('A' for Active; 'I' for Inactive)
REMARK    1  A    between atoms: C2_2  and  C6_6 
REMARK       I    between atoms: C2_2  and  N7_7 
ROOT
HETATM    1  C1  UNL     1     -32.684   7.733   2.523  1.00 20.00     0.166 C 
HETATM    2  C2  UNL     1     -33.744   7.197   4.372  1.00 20.00     0.252 C 
HETATM    3  N7  UNL     1     -32.657   7.111   3.519  1.00 20.00    -0.199 NA
HETATM    4  O8  UNL     1     -34.159   8.228   4.903  1.00 20.00    -0.270 OA
HETATM    5  S9  UNL     1     -32.685   8.561   1.163  1.00 20.00    -0.055 SA
ENDROOT
BRANCH   2   6
HETATM    6  C6  UNL     1     -34.432   5.837   4.618  1.00 20.00     0.032 C 
HETATM    7  C3  UNL     1     -33.700   4.743   3.829  1.00 20.00     0.025 C 
HETATM    8  C4  UNL     1     -34.386   5.488   6.115  1.00 20.00     0.025 C 
HETATM    9  C5  UNL     1     -35.899   5.919   4.173  1.00 20.00     0.025 C 
ENDBRANCH   2   6
TORSDOF 1
