REMARK  0 active torsions:
REMARK  status: ('A' for Active; 'I' for Inactive)
ROOT
HETATM    1  C1  UNL     1     -32.524   6.317   2.157  1.00 20.00    -0.026 C 
HETATM    2  C2  UNL     1     -34.668   5.893   6.515  1.00 20.00    -0.027 C 
HETATM    3  C3  UNL     1     -32.186   7.591   2.401  1.00 20.00    -0.001 C 
HETATM    4  C4  UNL     1     -34.747   5.588   5.213  1.00 20.00     0.005 C 
HETATM    5  C5  UNL     1     -33.943   7.115   6.996  1.00 20.00     0.057 C 
HETATM    6  C6  UNL     1     -33.382   5.533   3.109  1.00 20.00     0.066 C 
HETATM    7  C7  UNL     1     -32.604   8.297   3.662  1.00 20.00     0.300 C 
HETATM    8  C8  UNL     1     -33.613   8.098   5.864  1.00 20.00     0.277 C 
HETATM    9  C9  UNL     1     -34.083   6.432   4.151  1.00 20.00     0.249 C 
HETATM   10  N10 UNL     1     -33.086   7.376   4.702  1.00 20.00     0.100 N 
ENDROOT
TORSDOF 0
