REMARK  0 active torsions:
REMARK  status: ('A' for Active; 'I' for Inactive)
ROOT
HETATM    1  C1  UNL     1     -32.295   7.508   2.393  1.00 20.00    -0.027 C 
HETATM    2  C2  UNL     1     -34.652   4.990   6.054  1.00 20.00    -0.027 C 
HETATM    3  C3  UNL     1     -32.314   8.599   3.166  1.00 20.00    -0.001 C 
HETATM    4  C4  UNL     1     -34.646   6.106   6.791  1.00 20.00    -0.001 C 
HETATM    5  C5  UNL     1     -32.916   6.221   2.837  1.00 20.00     0.063 C 
HETATM    6  C6  UNL     1     -34.094   4.962   4.666  1.00 20.00     0.063 C 
HETATM    7  C7  UNL     1     -32.944   8.602   4.527  1.00 20.00     0.300 C 
HETATM    8  C8  UNL     1     -34.074   7.395   6.282  1.00 20.00     0.300 C 
HETATM    9  C9  UNL     1     -33.831   6.368   4.075  1.00 20.00     0.230 C 
HETATM   10  N10 UNL     1     -33.228   7.264   5.080  1.00 20.00     0.100 N 
ENDROOT
TORSDOF 0
