REMARK  0 active torsions:
REMARK  status: ('A' for Active; 'I' for Inactive)
ROOT
HETATM    1  C1  UNL     1     -32.416   7.680   3.853  1.00 20.00     0.030 A 
HETATM    2  C2  UNL     1     -32.203   7.010   2.667  1.00 20.00     0.141 A 
HETATM    3  C3  UNL     1     -33.260   7.104   4.797  1.00 20.00    -0.030 A 
HETATM    4  C4  UNL     1     -33.823   5.867   4.492  1.00 20.00     0.063 A 
HETATM    5  C5  UNL     1     -33.485   7.781   6.122  1.00 20.00     0.041 C 
HETATM    6  C6  UNL     1     -34.771   5.180   5.436  1.00 20.00     0.062 C 
HETATM    7  C7  UNL     1     -34.685   7.221   6.886  1.00 20.00     0.005 C 
HETATM    8  C8  UNL     1     -34.667   5.697   6.870  1.00 20.00     0.006 C 
HETATM    9  N9  UNL     1     -32.772   5.821   2.388  1.00 20.00    -0.162 NA
HETATM   10  N10 UNL     1     -33.593   5.246   3.311  1.00 20.00    -0.155 NA
ENDROOT
TORSDOF 0
