REMARK  0 active torsions:
REMARK  status: ('A' for Active; 'I' for Inactive)
ROOT
HETATM    1  C1  UNL     1     -32.840   8.610   4.656  1.00 20.00     0.066 C 
HETATM    2  C2  UNL     1     -34.393   4.831   6.173  1.00 20.00     0.032 C 
HETATM    3  C3  UNL     1     -34.034   6.298   6.048  1.00 20.00     0.039 C 
HETATM    4  C4  UNL     1     -32.500   6.648   3.157  1.00 20.00     0.051 C 
HETATM    5  C5  UNL     1     -33.943   4.290   4.831  1.00 20.00     0.273 C 
HETATM    6  C6  UNL     1     -33.385   5.473   2.770  1.00 20.00     0.274 C 
HETATM    7  C7  UNL     1     -33.487   7.583   3.837  1.00 20.00     0.128 C 
HETATM    8  C8  UNL     1     -34.402   6.624   4.600  1.00 20.00     0.240 C 
HETATM    9  N9  UNL     1     -32.327   9.424   5.305  1.00 20.00    -0.197 NA
HETATM   10  N10 UNL     1     -34.348   5.327   3.870  1.00 20.00     0.094 N 
ENDROOT
TORSDOF 0
