REMARK  0 active torsions:
REMARK  status: ('A' for Active; 'I' for Inactive)
ROOT
HETATM    1  C1  UNL     1     -32.393   7.826   1.995  1.00 20.00     0.101 C 
HETATM    2  C2  UNL     1     -32.239   8.747   4.357  1.00 20.00     0.042 A 
HETATM    3  C3  UNL     1     -32.708   8.330   5.584  1.00 20.00     0.092 A 
HETATM    4  C4  UNL     1     -32.661   7.797   3.394  1.00 20.00     0.068 A 
HETATM    5  C5  UNL     1     -33.378   6.821   4.057  1.00 20.00     0.032 A 
HETATM    6  C6  UNL     1     -34.028   5.574   3.557  1.00 20.00     0.059 C 
HETATM    7  C7  UNL     1     -35.044   5.017   4.557  1.00 20.00     0.008 C 
HETATM    8  C8  UNL     1     -34.463   5.003   5.971  1.00 20.00     0.021 C 
HETATM    9  C9  UNL     1     -34.096   6.418   6.417  1.00 20.00     0.128 C 
HETATM   10  N10 UNL     1     -32.175   7.850   0.855  1.00 20.00    -0.191 NA
HETATM   11  N11 UNL     1     -33.394   7.163   5.388  1.00 20.00    -0.359 N 
ENDROOT
TORSDOF 0
