REMARK  1 active torsions:
REMARK  status: ('A' for Active; 'I' for Inactive)
REMARK    1  A    between atoms: C3_3  and  C5_5 
ROOT
HETATM    1  C1  UNL     1     -32.697   8.774   3.746  1.00 20.00     0.034 A 
HETATM    2  C2  UNL     1     -33.233   8.590   5.002  1.00 20.00     0.092 A 
HETATM    3  C3  UNL     1     -32.749   7.526   3.074  1.00 20.00     0.025 A 
HETATM    4  C4  UNL     1     -33.316   6.610   3.938  1.00 20.00     0.024 A 
HETATM    5  C6  UNL     1     -33.587   5.152   3.779  1.00 20.00     0.058 C 
HETATM    6  C7  UNL     1     -34.585   4.637   4.818  1.00 20.00     0.008 C 
HETATM    7  C8  UNL     1     -34.228   5.149   6.214  1.00 20.00     0.021 C 
HETATM    8  C9  UNL     1     -34.259   6.677   6.252  1.00 20.00     0.128 C 
HETATM    9  N10 UNL     1     -33.602   7.277   5.105  1.00 20.00    -0.359 N 
ENDROOT
BRANCH   3  10
HETATM   10  C5  UNL     1     -32.296   7.234   1.744  1.00 20.00     0.272 C 
HETATM   11  O11 UNL     1     -31.782   8.077   0.986  1.00 20.00    -0.301 OA
ENDBRANCH   3  10
TORSDOF 1
