REMARK  0 active torsions:
REMARK  status: ('A' for Active; 'I' for Inactive)
ROOT
HETATM    1  C1  UNL     1     -34.400   6.675   5.452  1.00 20.00     0.027 A 
HETATM    2  C2  UNL     1     -34.854   5.405   5.779  1.00 20.00     0.116 A 
HETATM    3  C3  UNL     1     -33.837   4.423   3.949  1.00 20.00     0.123 A 
HETATM    4  C4  UNL     1     -33.619   6.775   4.317  1.00 20.00    -0.045 A 
HETATM    5  C5  UNL     1     -33.333   5.641   3.555  1.00 20.00    -0.034 A 
HETATM    6  C6  UNL     1     -32.519   5.980   2.352  1.00 20.00     0.041 C 
HETATM    7  C7  UNL     1     -31.962   7.353   2.758  1.00 20.00     0.014 C 
HETATM    8  C8  UNL     1     -33.020   7.998   3.680  1.00 20.00     0.015 C 
HETATM    9  C9  UNL     1     -32.408   8.997   4.649  1.00 20.00     0.015 C 
HETATM   10  N10 UNL     1     -34.593   4.280   5.061  1.00 20.00    -0.273 NA
ENDROOT
TORSDOF 0
