REMARK  2 active torsions:
REMARK  status: ('A' for Active; 'I' for Inactive)
REMARK    1  A    between atoms: C1_1  and  C8_8 
REMARK    2  A    between atoms: C5_5  and  C8_8 
ROOT
HETATM    1  C2  UNL     1     -34.281   5.667   6.862  1.00 20.00     0.003 C 
HETATM    2  C3  UNL     1     -33.283   6.712   6.366  1.00 20.00     0.007 C 
HETATM    3  C4  UNL     1     -34.225   4.404   6.003  1.00 20.00     0.034 C 
HETATM    4  C5  UNL     1     -33.645   7.210   4.957  1.00 20.00     0.023 C 
HETATM    5  C6  UNL     1     -34.242   4.687   4.537  1.00 20.00     0.151 A 
HETATM    6  C7  UNL     1     -33.912   6.063   4.016  1.00 20.00     0.155 A 
HETATM    7  O10 UNL     1     -35.268   5.574   4.091  1.00 20.00    -0.375 OA
ENDROOT
BRANCH   4   8
HETATM    8  C8  UNL     1     -32.534   8.113   4.419  1.00 20.00     0.076 C 
BRANCH   8   9
HETATM    9  C1  UNL     1     -32.860   8.671   3.061  1.00 20.00     0.231 C 
HETATM   10  O9  UNL     1     -32.206   8.475   2.042  1.00 20.00    -0.307 OA
ENDBRANCH   8   9
ENDBRANCH   4   8
TORSDOF 2
