REMARK  1 active torsions:
REMARK  status: ('A' for Active; 'I' for Inactive)
REMARK    1  A    between atoms: C1_1  and  C5_5 
ROOT
HETATM    1  C2  UNL     1     -33.521   5.002   3.070  1.00 20.00     0.022 C 
HETATM    2  C3  UNL     1     -34.265   4.259   4.194  1.00 20.00     0.011 C 
HETATM    3  C4  UNL     1     -32.907   5.978   5.173  1.00 20.00     0.031 C 
HETATM    4  C5  UNL     1     -33.388   6.371   3.744  1.00 20.00     0.057 C 
HETATM    5  C6  UNL     1     -34.364   5.401   5.228  1.00 20.00    -0.035 C 
HETATM    6  C7  UNL     1     -34.775   6.728   4.429  1.00 20.00    -0.023 C 
HETATM    7  C8  UNL     1     -34.992   5.044   6.545  1.00 20.00     0.016 C 
HETATM    8  C9  UNL     1     -36.030   6.640   3.547  1.00 20.00     0.017 C 
HETATM    9  C10 UNL     1     -34.874   8.047   5.220  1.00 20.00     0.017 C 
ENDROOT
BRANCH   4  10
HETATM   10  C1  UNL     1     -32.657   7.406   3.000  1.00 20.00     0.182 C 
HETATM   11  O11 UNL     1     -32.564   8.523   3.581  1.00 20.00    -0.647 OA
HETATM   12  O12 UNL     1     -32.218   7.039   1.874  1.00 20.00    -0.647 OA
ENDBRANCH   4  10
TORSDOF 1
