REMARK  0 active torsions:
REMARK  status: ('A' for Active; 'I' for Inactive)
ROOT
HETATM    1  C1  UNL     1     -33.099   7.443   4.400  1.00 20.00     0.147 C 
HETATM    2  C2  UNL     1     -33.807   7.752   5.706  1.00 20.00     0.085 C 
HETATM    3  C3  UNL     1     -35.868   6.915   4.567  1.00 20.00     0.008 C 
HETATM    4  C4  UNL     1     -35.074   6.648   3.268  1.00 20.00     0.030 C 
HETATM    5  C5  UNL     1     -34.838   6.592   5.683  1.00 20.00     0.002 C 
HETATM    6  C6  UNL     1     -33.716   6.185   3.808  1.00 20.00     0.086 C 
HETATM    7  C7  UNL     1     -34.045   5.391   5.088  1.00 20.00    -0.019 C 
HETATM    8  C8  UNL     1     -32.829   4.965   5.938  1.00 20.00     0.017 C 
HETATM    9  C9  UNL     1     -34.906   4.129   4.883  1.00 20.00     0.017 C 
HETATM   10  O10 UNL     1     -32.210   8.126   3.917  1.00 20.00    -0.296 OA
HETATM   11 BR11 UNL     1     -32.591   5.354   2.532  1.00 20.00    -0.076 Br
ENDROOT
TORSDOF 0
