REMARK  1 active torsions:
REMARK  status: ('A' for Active; 'I' for Inactive)
REMARK    1  A    between atoms: C3_3  and  O10_10 
ROOT
HETATM    1  C1  UNL     1     -32.117   7.408   3.846  1.00 20.00     0.041 C 
HETATM    2  C2  UNL     1     -34.327   8.143   4.645  1.00 20.00     0.020 C 
HETATM    3  C3  UNL     1     -33.144   6.296   3.666  1.00 20.00     0.126 C 
HETATM    4  C4  UNL     1     -32.953   8.668   4.144  1.00 20.00    -0.045 C 
HETATM    5  C5  UNL     1     -34.210   6.605   4.733  1.00 20.00    -0.021 C 
HETATM    6  C6  UNL     1     -33.141   9.500   2.865  1.00 20.00     0.015 C 
HETATM    7  C7  UNL     1     -32.268   9.538   5.204  1.00 20.00     0.015 C 
HETATM    8  C8  UNL     1     -33.784   6.170   6.148  1.00 20.00     0.017 C 
HETATM    9  C9  UNL     1     -35.544   5.926   4.400  1.00 20.00     0.017 C 
ENDROOT
BRANCH   3  10
HETATM   10  O10 UNL     1     -32.536   5.028   3.825  1.00 20.00    -0.395 OA
HETATM   11  H28 UNL     1     -31.843   4.957   3.146  1.00 20.00     0.210 HD
ENDBRANCH   3  10
TORSDOF 1
