REMARK  3 active torsions:
REMARK  status: ('A' for Active; 'I' for Inactive)
REMARK    1  A    between atoms: C1_1  and  C6_6 
REMARK    2  A    between atoms: C1_1  and  O8_8 
REMARK    3  A    between atoms: C4_4  and  C6_6 
ROOT
HETATM    1  C6  UNL     1     -33.931   7.492   5.251  1.00 20.00     0.115 C 
ENDROOT
BRANCH   1   2
HETATM    2  C1  UNL     1     -34.608   6.151   5.026  1.00 20.00     0.139 C 
HETATM    3  O7  UNL     1     -34.785   5.626   3.937  1.00 20.00    -0.650 OA
BRANCH   2   4
HETATM    4  O8  UNL     1     -35.000   5.598   6.202  1.00 20.00    -0.776 OA
HETATM    5  H18 UNL     1     -35.438   4.731   6.071  1.00 20.00     0.167 HD
ENDBRANCH   2   4
ENDBRANCH   1   2
BRANCH   1   6
HETATM    6  C4  UNL     1     -33.532   8.163   3.983  1.00 20.00    -0.001 A 
HETATM    7  C2  UNL     1     -32.420   9.179   3.982  1.00 20.00     0.010 A 
HETATM    8  C3  UNL     1     -32.212   7.834   3.336  1.00 20.00    -0.014 A 
HETATM    9  C5  UNL     1     -32.113   7.722   1.854  1.00 20.00     0.010 C 
ENDBRANCH   1   6
TORSDOF 3
