REMARK  1 active torsions:
REMARK  status: ('A' for Active; 'I' for Inactive)
REMARK    1  A    between atoms: C8_8  and  N10_10 
ROOT
HETATM    1  C1  UNL     1     -32.936   9.348  -0.017  1.00 20.00     0.013 C 
HETATM    2  C2  UNL     1     -32.592   8.470   0.727  1.00 20.00    -0.087 C 
HETATM    3  C8  UNL     1     -32.168   7.399   1.631  1.00 20.00     0.365 C 
ENDROOT
BRANCH   3   4
HETATM    4  N10 UNL     1     -33.163   7.185   2.680  1.00 20.00     0.102 N 
HETATM    5  C5  UNL     1     -33.006   5.857   3.286  1.00 20.00     0.303 C 
HETATM    6  C3  UNL     1     -34.047   5.633   4.387  1.00 20.00     0.302 C 
HETATM    7  N9  UNL     1     -33.957   6.678   5.414  1.00 20.00     0.087 N 
HETATM    8  C4  UNL     1     -34.113   8.007   4.808  1.00 20.00     0.302 C 
HETATM    9  C7  UNL     1     -34.953   6.465   6.461  1.00 20.00     0.310 C 
HETATM   10  C6  UNL     1     -33.071   8.230   3.707  1.00 20.00     0.303 C 
ENDBRANCH   3   4
TORSDOF 1
