REMARK  3 active torsions:
REMARK  status: ('A' for Active; 'I' for Inactive)
REMARK    1  A    between atoms: C1_1  and  C4_4 
REMARK    2  A    between atoms: C2_2  and  C9_9 
REMARK    3  A    between atoms: C9_9  and  N10_10 
ROOT
HETATM    1  C5  UNL     1     -33.628   7.218   6.361  1.00 20.00     0.032 C 
HETATM    2  C6  UNL     1     -33.820   5.710   6.430  1.00 20.00     0.032 C 
HETATM    3  C7  UNL     1     -34.136   7.624   4.985  1.00 20.00     0.273 C 
HETATM    4  C8  UNL     1     -34.427   5.321   5.090  1.00 20.00     0.273 C 
HETATM    5  N10 UNL     1     -34.106   6.410   4.159  1.00 20.00     0.099 N 
ENDROOT
BRANCH   5   6
HETATM    6  C9  UNL     1     -32.761   6.214   3.589  1.00 20.00     0.366 C 
BRANCH   6   7
HETATM    7  C2  UNL     1     -32.560   7.069   2.415  1.00 20.00    -0.072 C 
HETATM    8  C1  UNL     1     -32.390   7.767   1.453  1.00 20.00    -0.078 C 
BRANCH   8   9
HETATM    9  C4  UNL     1     -32.184   8.589   0.314  1.00 20.00     0.054 C 
HETATM   10  C3  UNL     1     -33.092   9.484  -0.085  1.00 20.00     0.020 C 
ENDBRANCH   8   9
ENDBRANCH   6   7
ENDBRANCH   5   6
TORSDOF 3
