REMARK  0 active torsions:
REMARK  status: ('A' for Active; 'I' for Inactive)
ROOT
HETATM    1  C1  UNL     1     -32.803   8.278   4.525  1.00 20.00     0.124 C 
HETATM    2  C2  UNL     1     -33.223   6.069   3.699  1.00 20.00     0.021 C 
HETATM    3  C3  UNL     1     -33.389   6.990   4.663  1.00 20.00     0.145 C 
HETATM    4  C4  UNL     1     -33.864   4.717   3.763  1.00 20.00     0.033 C 
HETATM    5  C5  UNL     1     -34.913   4.661   4.869  1.00 20.00     0.031 C 
HETATM    6  C6  UNL     1     -34.406   5.401   6.098  1.00 20.00     0.176 C 
HETATM    7  N7  UNL     1     -32.326   9.329   4.413  1.00 20.00    -0.189 NA
HETATM    8  O8  UNL     1     -34.118   6.776   5.815  1.00 20.00    -0.341 OA
ENDROOT
TORSDOF 0
