REMARK  0 active torsions:
REMARK  status: ('A' for Active; 'I' for Inactive)
ROOT
HETATM    1  C1  UNL     1     -33.205   5.353   3.131  1.00 20.00     0.011 A 
HETATM    2  C2  UNL     1     -32.555   6.242   2.275  1.00 20.00     0.024 A 
HETATM    3  C3  UNL     1     -32.856   8.017   3.884  1.00 20.00     0.031 A 
HETATM    4  C4  UNL     1     -33.694   5.792   4.368  1.00 20.00    -0.024 A 
HETATM    5  C5  UNL     1     -33.501   7.130   4.755  1.00 20.00    -0.047 A 
HETATM    6  C6  UNL     1     -32.383   7.573   2.650  1.00 20.00     0.034 A 
HETATM    7  C7  UNL     1     -34.042   7.624   6.073  1.00 20.00     0.069 C 
HETATM    8  C8  UNL     1     -34.363   4.814   5.303  1.00 20.00     0.308 C 
HETATM    9  C9  UNL     1     -34.374   6.484   7.037  1.00 20.00     0.274 C 
HETATM   10  N10 UNL     1     -35.160   5.457   6.354  1.00 20.00     0.087 N 
HETATM   11 CL11 UNL     1     -31.585   8.669   1.589  1.00 20.00    -0.084 Cl
HETATM   12  H21 UNL     1     -35.985   5.886   5.936  1.00 20.00     0.316 HD
ENDROOT
TORSDOF 0
