REMARK  2 active torsions:
REMARK  status: ('A' for Active; 'I' for Inactive)
REMARK    1  A    between atoms: C2_2  and  C3_3 
REMARK    2  A    between atoms: C3_3  and  O10_10 
ROOT
HETATM    1  C1  UNL     1     -33.266   6.991   4.265  1.00 20.00    -0.067 C 
HETATM    2  C2  UNL     1     -33.823   5.781   4.150  1.00 20.00     0.014 C 
HETATM    3  C4  UNL     1     -32.389   7.629   3.225  1.00 20.00     0.035 C 
HETATM    4  C5  UNL     1     -33.431   7.898   5.451  1.00 20.00     0.035 C 
HETATM    5  C6  UNL     1     -31.787   8.817   3.966  1.00 20.00     0.005 C 
HETATM    6  C7  UNL     1     -32.876   9.225   4.948  1.00 20.00     0.005 C 
HETATM    7  C8  UNL     1     -33.628   4.911   2.944  1.00 20.00     0.056 C 
ENDROOT
BRANCH   2   8
HETATM    8  C3  UNL     1     -34.664   5.306   5.280  1.00 20.00     0.171 C 
HETATM    9  O9  UNL     1     -34.284   5.149   6.430  1.00 20.00    -0.646 OA
BRANCH   8  10
HETATM   10  O10 UNL     1     -35.931   5.064   4.868  1.00 20.00    -0.773 OA
HETATM   11  H22 UNL     1     -36.502   4.749   5.601  1.00 20.00     0.167 HD
ENDBRANCH   8  10
ENDBRANCH   2   8
TORSDOF 2
