REMARK  1 active torsions:
REMARK  status: ('A' for Active; 'I' for Inactive)
REMARK    1  A    between atoms: C5_5  and  O7_7 
ROOT
HETATM    1  C1  UNL     1     -33.298   6.723   6.102  1.00 20.00     0.037 C 
HETATM    2  C2  UNL     1     -34.794   6.104   4.161  1.00 20.00     0.037 C 
HETATM    3  C3  UNL     1     -32.914   8.020   5.396  1.00 20.00     0.081 C 
HETATM    4  C4  UNL     1     -34.414   7.399   3.451  1.00 20.00     0.081 C 
HETATM    5  C5  UNL     1     -34.686   6.243   5.680  1.00 20.00     0.118 C 
HETATM    6  C6  UNL     1     -33.043   7.890   3.887  1.00 20.00     0.243 C 
HETATM    7  F8  UNL     1     -32.787   9.089   3.307  1.00 20.00    -0.206 F 
HETATM    8  F9  UNL     1     -32.095   7.030   3.431  1.00 20.00    -0.206 F 
ENDROOT
BRANCH   5   9
HETATM    9  O7  UNL     1     -34.936   4.983   6.294  1.00 20.00    -0.396 OA
HETATM   10  H19 UNL     1     -35.820   4.705   6.009  1.00 20.00     0.210 HD
ENDBRANCH   5   9
TORSDOF 1
