REMARK  3 active torsions:
REMARK  status: ('A' for Active; 'I' for Inactive)
REMARK    1  A    between atoms: C1_1  and  C3_3 
REMARK    2  A    between atoms: C2_2  and  C5_5 
REMARK    3  A    between atoms: C4_4  and  C7_7 
ROOT
HETATM    1  C1  UNL     1     -33.154   6.389   3.652  1.00 20.00     0.000 C 
HETATM    2  C2  UNL     1     -32.703   6.305   2.392  1.00 20.00    -0.000 C 
ENDROOT
BRANCH   1   3
HETATM    3  C3  UNL     1     -33.279   7.643   4.363  1.00 20.00     0.003 C 
HETATM    4  C4  UNL     1     -33.731   7.719   5.621  1.00 20.00     0.041 C 
BRANCH   4   5
HETATM    5  C7  UNL     1     -34.119   6.477   6.318  1.00 20.00     0.258 C 
HETATM    6  O9  UNL     1     -35.006   5.747   5.894  1.00 20.00    -0.302 OA
ENDBRANCH   4   5
ENDBRANCH   1   3
BRANCH   2   7
HETATM    7  C5  UNL     1     -32.297   7.459   1.621  1.00 20.00    -0.004 C 
HETATM    8  C6  UNL     1     -31.845   7.379   0.361  1.00 20.00    -0.031 C 
HETATM    9  C8  UNL     1     -31.424   8.563  -0.445  1.00 20.00     0.036 C 
ENDBRANCH   2   7
TORSDOF 3
