REMARK  1 active torsions:
REMARK  status: ('A' for Active; 'I' for Inactive)
REMARK    1  A    between atoms: C4_4  and  O11_11 
ROOT
HETATM    1  C1  UNL     1     -34.130   4.478   6.020  1.00 20.00    -0.021 C 
HETATM    2  C2  UNL     1     -34.182   5.483   6.910  1.00 20.00    -0.025 C 
HETATM    3  C3  UNL     1     -33.551   6.039   4.220  1.00 20.00    -0.043 C 
HETATM    4  C4  UNL     1     -32.779   5.944   3.135  1.00 20.00     0.045 C 
HETATM    5  C5  UNL     1     -33.592   7.205   5.202  1.00 20.00     0.046 C 
HETATM    6  C6  UNL     1     -35.652   6.011   5.203  1.00 20.00     0.022 C 
HETATM    7  C7  UNL     1     -34.588   5.034   4.691  1.00 20.00     0.040 C 
HETATM    8  C8  UNL     1     -34.690   6.707   6.175  1.00 20.00     0.013 C 
HETATM    9  C9  UNL     1     -32.789   4.768   2.210  1.00 20.00     0.076 C 
ENDROOT
BRANCH   4  10
HETATM   10  O11 UNL     1     -31.906   6.965   2.810  1.00 20.00    -0.360 OA
HETATM   11  C10 UNL     1     -32.174   7.522   1.547  1.00 20.00     0.209 C 
ENDBRANCH   4  10
TORSDOF 1
