REMARK  0 active torsions:
REMARK  status: ('A' for Active; 'I' for Inactive)
ROOT
HETATM    1  C1  UNL     1     -33.750   6.017   3.713  1.00 20.00     0.063 C 
HETATM    2  C2  UNL     1     -33.797   8.147   4.739  1.00 20.00     0.167 C 
HETATM    3  C3  UNL     1     -34.854   5.966   6.183  1.00 20.00     0.112 C 
HETATM    4  C4  UNL     1     -33.152   4.977   2.811  1.00 20.00     0.078 C 
HETATM    5  C5  UNL     1     -32.815   9.312   4.873  1.00 20.00     0.046 C 
HETATM    6  C6  UNL     1     -33.781   5.028   6.731  1.00 20.00     0.033 C 
HETATM    7  N7  UNL     1     -33.143   7.136   3.901  1.00 20.00    -0.272 NA
HETATM    8  S8  UNL     1     -35.267   5.556   4.462  1.00 20.00    -0.100 SA
HETATM    9  S9  UNL     1     -34.349   7.700   6.428  1.00 20.00    -0.127 SA
ENDROOT
TORSDOF 0
