REMARK  0 active torsions:
REMARK  status: ('A' for Active; 'I' for Inactive)
ROOT
HETATM    1  C1  UNL     1     -32.859   7.700   3.955  1.00 20.00     0.302 C 
HETATM    2  C2  UNL     1     -32.585   6.522   3.047  1.00 20.00     0.201 C 
HETATM    3  C3  UNL     1     -34.204   5.929   4.565  1.00 20.00     0.253 C 
HETATM    4  C4  UNL     1     -34.005   4.676   5.422  1.00 20.00     0.081 C 
HETATM    5  C5  UNL     1     -35.702   6.211   4.390  1.00 20.00     0.081 C 
HETATM    6  C6  UNL     1     -34.063   7.933   6.045  1.00 20.00     0.314 C 
HETATM    7  N7  UNL     1     -33.398   7.023   5.129  1.00 20.00     0.120 N 
HETATM    8  O8  UNL     1     -33.692   5.634   3.246  1.00 20.00    -0.351 OA
ENDROOT
TORSDOF 0
