REMARK  1 active torsions:
REMARK  status: ('A' for Active; 'I' for Inactive)
REMARK    1  A    between atoms: C8_8  and  N9_9 
ROOT
HETATM    1  C1  UNL     1     -32.990   9.558   1.770  1.00 20.00     0.013 C 
HETATM    2  C2  UNL     1     -32.950   9.048   2.856  1.00 20.00    -0.087 C 
HETATM    3  C8  UNL     1     -32.898   8.431   4.183  1.00 20.00     0.364 C 
ENDROOT
BRANCH   3   4
HETATM    4  N9  UNL     1     -33.739   7.235   4.230  1.00 20.00     0.099 N 
HETATM    5  C6  UNL     1     -34.071   6.893   5.620  1.00 20.00     0.273 C 
HETATM    6  C4  UNL     1     -34.991   5.673   5.684  1.00 20.00     0.030 C 
HETATM    7  C3  UNL     1     -34.379   4.478   4.962  1.00 20.00     0.003 C 
HETATM    8  C5  UNL     1     -33.962   4.867   3.548  1.00 20.00     0.030 C 
HETATM    9  C7  UNL     1     -33.075   6.113   3.551  1.00 20.00     0.273 C 
ENDBRANCH   3   4
TORSDOF 1
