REMARK  1 active torsions:
REMARK  status: ('A' for Active; 'I' for Inactive)
REMARK    1  A    between atoms: C9_9  and  N11_11 
ROOT
HETATM    1  C1  UNL     1     -35.723   6.280   4.376  1.00 20.00     0.102 C 
HETATM    2  C2  UNL     1     -34.595   4.909   6.838  1.00 20.00     0.007 C 
HETATM    3  C5  UNL     1     -34.502   6.436   6.619  1.00 20.00     0.058 C 
HETATM    4  C6  UNL     1     -33.986   4.729   5.429  1.00 20.00     0.058 C 
HETATM    5  C9  UNL     1     -34.484   6.155   5.100  1.00 20.00     0.246 C 
HETATM    6  N10 UNL     1     -36.721   6.380   3.793  1.00 20.00    -0.194 NA
ENDROOT
BRANCH   5   7
HETATM    7  N11 UNL     1     -33.397   6.917   4.474  1.00 20.00     0.112 N 
HETATM    8  C7  UNL     1     -33.155   6.451   3.108  1.00 20.00     0.275 C 
HETATM    9  C3  UNL     1     -32.376   7.602   2.489  1.00 20.00     0.032 C 
HETATM   10  C4  UNL     1     -32.775   8.834   3.295  1.00 20.00     0.032 C 
HETATM   11  C8  UNL     1     -33.767   8.326   4.332  1.00 20.00     0.275 C 
ENDBRANCH   5   7
TORSDOF 1
