REMARK  2 active torsions:
REMARK  status: ('A' for Active; 'I' for Inactive)
REMARK    1  A    between atoms: C8_8  and  C9_9 
REMARK    2  A    between atoms: C9_9  and  N11_11 
ROOT
HETATM    1  C1  UNL     1     -32.995   9.758   1.045  1.00 20.00     0.064 C 
HETATM    2  C2  UNL     1     -32.362   7.868   2.501  1.00 20.00     0.047 C 
HETATM    3  C3  UNL     1     -32.720  10.174   3.463  1.00 20.00     0.047 C 
HETATM    4  C4  UNL     1     -31.658   7.450   3.786  1.00 20.00     0.236 C 
HETATM    5  C5  UNL     1     -32.014   9.742   4.741  1.00 20.00     0.236 C 
HETATM    6  C6  UNL     1     -32.238   9.374   2.248  1.00 20.00     0.096 C 
HETATM    7  N10 UNL     1     -33.591  10.061   0.097  1.00 20.00    -0.197 NA
HETATM    8  N11 UNL     1     -32.155   8.256   4.960  1.00 20.00    -0.071 N 
HETATM    9  H28 UNL     1     -31.496   8.025   5.760  1.00 20.00     0.279 HD
ENDROOT
BRANCH   8  10
HETATM   10  C9  UNL     1     -33.518   7.842   5.446  1.00 20.00     0.234 C 
BRANCH  10  11
HETATM   11  C8  UNL     1     -33.376   6.624   6.345  1.00 20.00     0.023 C 
HETATM   12  C7  UNL     1     -34.732   6.136   6.828  1.00 20.00     0.007 C 
ENDBRANCH  10  11
ENDBRANCH   8  10
TORSDOF 2
