REMARK  2 active torsions:
REMARK  status: ('A' for Active; 'I' for Inactive)
REMARK    1  A    between atoms: C2_2  and  C5_5 
REMARK    2  A    between atoms: C5_5  and  C6_6 
ROOT
HETATM    1  C1  UNL     1     -35.300   6.041   4.701  1.00 20.00     0.206 A 
HETATM    2  C2  UNL     1     -34.159   5.963   5.687  1.00 20.00     0.079 A 
HETATM    3  C3  UNL     1     -34.231   4.993   6.821  1.00 20.00     0.048 C 
HETATM    4  O7  UNL     1     -34.085   5.340   4.397  1.00 20.00    -0.375 OA
ENDROOT
BRANCH   2   5
HETATM    5  C5  UNL     1     -33.225   7.152   5.848  1.00 20.00     0.039 C 
BRANCH   5   6
HETATM    6  C6  UNL     1     -33.181   8.005   4.581  1.00 20.00    -0.002 C 
HETATM    7  C4  UNL     1     -32.269   9.209   4.751  1.00 20.00     0.005 C 
ENDBRANCH   5   6
ENDBRANCH   2   5
TORSDOF 2
