REMARK  2 active torsions:
REMARK  status: ('A' for Active; 'I' for Inactive)
REMARK    1  A    between atoms: C3_3  and  C10_10 
REMARK    2  A    between atoms: C7_7  and  C10_10 
ROOT
HETATM    1  C1  UNL     1     -32.612   7.963   1.621  1.00 20.00    -0.024 C 
HETATM    2  C2  UNL     1     -32.852   9.164   2.175  1.00 20.00    -0.087 C 
HETATM    3  C4  UNL     1     -32.316   6.723   2.414  1.00 20.00     0.032 C 
HETATM    4  C5  UNL     1     -32.816   9.377   3.668  1.00 20.00     0.034 C 
HETATM    5  C6  UNL     1     -32.202   8.206   4.443  1.00 20.00     0.010 C 
HETATM    6  C7  UNL     1     -32.654   6.840   3.909  1.00 20.00    -0.001 C 
HETATM    7  C8  UNL     1     -33.175  10.370   1.344  1.00 20.00     0.043 C 
ENDROOT
BRANCH   6   8
HETATM    8  C10 UNL     1     -34.144   6.595   4.171  1.00 20.00     0.047 C 
HETATM    9  C9  UNL     1     -34.584   5.255   3.599  1.00 20.00     0.017 C 
BRANCH   8  10
HETATM   10  C3  UNL     1     -34.404   6.686   5.661  1.00 20.00     0.235 C 
HETATM   11  O11 UNL     1     -34.387   5.731   6.431  1.00 20.00    -0.306 OA
ENDBRANCH   8  10
ENDBRANCH   6   8
TORSDOF 2
