REMARK  2 active torsions:
REMARK  status: ('A' for Active; 'I' for Inactive)
REMARK    1  A    between atoms: C2_2  and  C5_5 
REMARK    2  A    between atoms: C5_5  and  C6_6 
ROOT
HETATM    1  C1  UNL     1     -33.187   7.069   3.519  1.00 20.00     0.223 C 
HETATM    2  C2  UNL     1     -33.478   5.796   3.502  1.00 20.00    -0.030 C 
HETATM    3  C3  UNL     1     -32.666   4.805   2.716  1.00 20.00     0.048 C 
HETATM    4  O7  UNL     1     -32.926   8.215   3.535  1.00 20.00    -0.284 OA
ENDROOT
BRANCH   2   5
HETATM    5  C5  UNL     1     -34.654   5.234   4.267  1.00 20.00     0.037 C 
BRANCH   5   6
HETATM    6  C6  UNL     1     -34.986   6.068   5.507  1.00 20.00    -0.000 C 
HETATM    7  C4  UNL     1     -33.820   6.101   6.483  1.00 20.00     0.005 C 
ENDBRANCH   5   6
ENDBRANCH   2   5
TORSDOF 2
