REMARK  2 active torsions:
REMARK  status: ('A' for Active; 'I' for Inactive)
REMARK    1  A    between atoms: C2_2  and  C5_5 
REMARK    2  A    between atoms: C5_5  and  C6_6 
ROOT
HETATM    1  C1  UNL     1     -33.341   6.714   6.640  1.00 20.00     0.206 A 
HETATM    2  C2  UNL     1     -33.797   7.016   5.233  1.00 20.00     0.079 A 
HETATM    3  C3  UNL     1     -32.959   7.893   4.359  1.00 20.00     0.048 C 
HETATM    4  O7  UNL     1     -34.354   7.695   6.367  1.00 20.00    -0.375 OA
ENDROOT
BRANCH   2   5
HETATM    5  C5  UNL     1     -34.771   6.075   4.543  1.00 20.00     0.039 C 
BRANCH   5   6
HETATM    6  C6  UNL     1     -34.047   4.898   3.893  1.00 20.00    -0.002 C 
HETATM    7  C4  UNL     1     -33.070   5.366   2.826  1.00 20.00     0.005 C 
ENDBRANCH   5   6
ENDBRANCH   2   5
TORSDOF 2
