REMARK  3 active torsions:
REMARK  status: ('A' for Active; 'I' for Inactive)
REMARK    1  A    between atoms: C1_1  and  C6_6 
REMARK    2  A    between atoms: C1_1  and  O9_9 
REMARK    3  A    between atoms: C6_6  and  C7_7 
ROOT
HETATM    1  C2  UNL     1     -32.638   5.923   2.562  1.00 20.00     0.021 C 
HETATM    2  C6  UNL     1     -32.787   6.723   3.858  1.00 20.00     0.085 C 
ENDROOT
BRANCH   2   3
HETATM    3  C1  UNL     1     -33.833   6.060   4.743  1.00 20.00     0.262 C 
HETATM    4  O8  UNL     1     -34.517   5.100   4.411  1.00 20.00    -0.265 OA
BRANCH   3   5
HETATM    5  O9  UNL     1     -33.882   6.693   5.952  1.00 20.00    -0.326 OA
HETATM    6  C5  UNL     1     -34.824   6.163   6.889  1.00 20.00     0.213 C 
ENDBRANCH   3   5
ENDBRANCH   2   3
BRANCH   2   7
HETATM    7  C7  UNL     1     -33.082   8.219   3.599  1.00 20.00    -0.010 C 
HETATM    8  C3  UNL     1     -32.401   8.784   2.348  1.00 20.00     0.010 C 
HETATM    9  C4  UNL     1     -32.729   9.084   4.813  1.00 20.00     0.010 C 
ENDBRANCH   2   7
TORSDOF 3
