REMARK  1 active torsions:
REMARK  status: ('A' for Active; 'I' for Inactive)
REMARK    1  A    between atoms: C3_3  and  C8_8 
ROOT
HETATM    1  C1  UNL     1     -34.124   5.973   5.510  1.00 20.00     0.017 C 
HETATM    2  C2  UNL     1     -34.225   5.015   4.333  1.00 20.00     0.092 C 
HETATM    3  C3  UNL     1     -32.612   7.039   4.201  1.00 20.00     0.173 C 
HETATM    4  C4  UNL     1     -34.972   5.720   6.725  1.00 20.00     0.066 C 
HETATM    5  C5  UNL     1     -33.667   3.646   4.683  1.00 20.00     0.028 C 
HETATM    6  N9  UNL     1     -33.314   6.986   5.494  1.00 20.00    -0.282 NA
HETATM    7  S10 UNL     1     -33.225   5.791   3.045  1.00 20.00    -0.131 SA
ENDROOT
BRANCH   3   8
HETATM    8  C8  UNL     1     -32.790   8.431   3.610  1.00 20.00     0.012 C 
HETATM    9  C6  UNL     1     -32.249   9.498   4.562  1.00 20.00     0.012 C 
HETATM   10  C7  UNL     1     -32.103   8.533   2.249  1.00 20.00     0.012 C 
ENDBRANCH   3   8
TORSDOF 1
