REMARK  2 active torsions:
REMARK  status: ('A' for Active; 'I' for Inactive)
REMARK    1  A    between atoms: C3_3  and  C10_10 
REMARK    2  A    between atoms: C7_7  and  C10_10 
ROOT
HETATM    1  C1  UNL     1     -32.237   7.811   2.338  1.00 20.00    -0.024 C 
HETATM    2  C2  UNL     1     -32.612   9.100   2.410  1.00 20.00    -0.087 C 
HETATM    3  C4  UNL     1     -31.895   6.972   3.536  1.00 20.00     0.032 C 
HETATM    4  C5  UNL     1     -32.695   9.835   3.725  1.00 20.00     0.034 C 
HETATM    5  C6  UNL     1     -32.043   9.086   4.892  1.00 20.00     0.010 C 
HETATM    6  C7  UNL     1     -32.344   7.582   4.874  1.00 20.00    -0.001 C 
HETATM    7  C8  UNL     1     -32.975   9.890   1.188  1.00 20.00     0.043 C 
ENDROOT
BRANCH   6   8
HETATM    8  C10 UNL     1     -33.823   7.298   5.155  1.00 20.00     0.047 C 
HETATM    9  C9  UNL     1     -34.264   7.950   6.459  1.00 20.00     0.017 C 
BRANCH   8  10
HETATM   10  C3  UNL     1     -34.042   5.799   5.171  1.00 20.00     0.235 C 
HETATM   11  O11 UNL     1     -34.766   5.192   4.388  1.00 20.00    -0.306 OA
ENDBRANCH   8  10
ENDBRANCH   6   8
TORSDOF 2
