REMARK  2 active torsions:
REMARK  status: ('A' for Active; 'I' for Inactive)
REMARK    1  A    between atoms: C3_3  and  C8_8 
REMARK    2  A    between atoms: C4_4  and  O9_9 
ROOT
HETATM    1  C1  UNL     1     -33.487   7.228   6.280  1.00 20.00     0.037 C 
HETATM    2  C2  UNL     1     -34.790   7.098   4.594  1.00 20.00     0.037 C 
HETATM    3  C3  UNL     1     -33.831   8.194   5.120  1.00 20.00    -0.002 C 
HETATM    4  C4  UNL     1     -34.856   6.551   6.040  1.00 20.00     0.118 C 
ENDROOT
BRANCH   3   5
HETATM    5  C8  UNL     1     -32.689   8.591   4.207  1.00 20.00    -0.048 C 
HETATM    6  C5  UNL     1     -31.714   9.498   4.970  1.00 20.00     0.015 C 
HETATM    7  C6  UNL     1     -33.245   9.345   2.990  1.00 20.00     0.015 C 
HETATM    8  C7  UNL     1     -31.951   7.330   3.733  1.00 20.00     0.015 C 
ENDBRANCH   3   5
BRANCH   4   9
HETATM    9  O9  UNL     1     -34.881   5.120   6.174  1.00 20.00    -0.396 OA
HETATM   10  H25 UNL     1     -35.792   4.854   5.997  1.00 20.00     0.210 HD
ENDBRANCH   4   9
TORSDOF 2
