REMARK  3 active torsions:
REMARK  status: ('A' for Active; 'I' for Inactive)
REMARK    1  A    between atoms: C4_4  and  C6_6 
REMARK    2  A    between atoms: C6_6  and  C8_8 
REMARK    3  A    between atoms: C7_7  and  C8_8 
ROOT
HETATM    1  C1  UNL     1     -34.364   5.143   5.379  1.00 20.00     0.011 C 
HETATM    2  C2  UNL     1     -34.200   6.105   4.212  1.00 20.00     0.016 C 
HETATM    3  C3  UNL     1     -34.499   5.999   6.626  1.00 20.00     0.074 C 
HETATM    4  C4  UNL     1     -33.081   7.067   4.602  1.00 20.00     0.047 C 
HETATM    5  S9  UNL     1     -33.342   7.375   6.380  1.00 20.00    -0.164 SA
ENDROOT
BRANCH   4   6
HETATM    6  C6  UNL     1     -33.111   8.358   3.802  1.00 20.00     0.015 C 
BRANCH   6   7
HETATM    7  C8  UNL     1     -32.921   8.096   2.309  1.00 20.00     0.001 C 
BRANCH   7   8
HETATM    8  C7  UNL     1     -32.917   9.400   1.512  1.00 20.00    -0.005 C 
HETATM    9  C5  UNL     1     -32.694   9.146   0.029  1.00 20.00     0.005 C 
ENDBRANCH   7   8
ENDBRANCH   6   7
ENDBRANCH   4   6
TORSDOF 3
