REMARK  1 active torsions:
REMARK  status: ('A' for Active; 'I' for Inactive)
REMARK    1  A    between atoms: C5_5  and  N10_10 
ROOT
HETATM    1  C1  UNL     1     -36.124   7.206   4.515  1.00 20.00    -0.026 C 
HETATM    2  C2  UNL     1     -33.664   5.944   6.800  1.00 20.00    -0.026 C 
HETATM    3  C3  UNL     1     -35.901   5.881   4.475  1.00 20.00    -0.005 C 
HETATM    4  C4  UNL     1     -33.457   7.187   6.332  1.00 20.00    -0.005 C 
HETATM    5  C6  UNL     1     -35.006   8.215   4.622  1.00 20.00     0.056 C 
HETATM    6  C7  UNL     1     -34.125   4.809   5.917  1.00 20.00     0.056 C 
HETATM    7  C8  UNL     1     -34.510   5.282   4.502  1.00 20.00     0.113 C 
HETATM    8  C9  UNL     1     -33.637   7.554   4.873  1.00 20.00     0.113 C 
HETATM    9  N10 UNL     1     -33.562   6.320   4.084  1.00 20.00    -0.343 N 
ENDROOT
BRANCH   9  10
HETATM   10  C5  UNL     1     -32.670   6.146   3.045  1.00 20.00     0.352 C 
HETATM   11  O11 UNL     1     -32.532   5.151   2.342  1.00 20.00    -0.283 OA
ENDBRANCH   9  10
TORSDOF 1
