REMARK  4 active torsions:
REMARK  status: ('A' for Active; 'I' for Inactive)
REMARK    1  A    between atoms: C5_5  and  C6_6 
REMARK    2  A    between atoms: C5_5  and  C7_7 
REMARK    3  A    between atoms: C6_6  and  C8_8 
REMARK    4  A    between atoms: C7_7  and  O9_9 
ROOT
HETATM    1  C5  UNL     1     -34.161   7.247   5.817  1.00 20.00     0.032 C 
ENDROOT
BRANCH   1   2
HETATM    2  C6  UNL     1     -33.737   7.378   4.346  1.00 20.00     0.011 C 
BRANCH   2   3
HETATM    3  C8  UNL     1     -32.808   8.578   4.016  1.00 20.00    -0.051 C 
HETATM    4  C2  UNL     1     -33.431   9.487   2.944  1.00 20.00     0.014 C 
HETATM    5  C3  UNL     1     -32.615   9.403   5.304  1.00 20.00     0.014 C 
HETATM    6  C4  UNL     1     -31.428   8.099   3.534  1.00 20.00     0.014 C 
ENDBRANCH   2   3
ENDBRANCH   1   2
BRANCH   1   7
HETATM    7  C7  UNL     1     -35.024   6.001   6.055  1.00 20.00     0.114 C 
HETATM    8  C1  UNL     1     -34.168   4.743   6.121  1.00 20.00     0.039 C 
BRANCH   7   9
HETATM    9  O9  UNL     1     -35.956   5.866   4.986  1.00 20.00    -0.396 OA
HETATM   10  H27 UNL     1     -36.495   5.086   5.186  1.00 20.00     0.210 HD
ENDBRANCH   7   9
ENDBRANCH   1   7
TORSDOF 4
