REMARK  2 active torsions:
REMARK  status: ('A' for Active; 'I' for Inactive)
REMARK    1  A    between atoms: C1_1  and  C8_8 
REMARK    2  A    between atoms: C9_9  and  N10_10 
ROOT
HETATM    1  C1  UNL     1     -33.382   6.711   4.370  1.00 20.00     0.092 C 
HETATM    2  N10 UNL     1     -33.708   7.816   3.791  1.00 20.00    -0.295 NA
ENDROOT
BRANCH   1   3
HETATM    3  C8  UNL     1     -34.410   5.653   4.747  1.00 20.00    -0.018 C 
HETATM    4  C2  UNL     1     -34.343   5.461   6.266  1.00 20.00     0.020 C 
HETATM    5  C3  UNL     1     -35.791   6.185   4.348  1.00 20.00     0.020 C 
HETATM    6  C4  UNL     1     -34.148   4.315   4.045  1.00 20.00     0.020 C 
ENDBRANCH   1   3
BRANCH   2   7
HETATM    7  C9  UNL     1     -32.562   8.681   3.526  1.00 20.00     0.042 C 
HETATM    8  C5  UNL     1     -31.592   7.930   2.614  1.00 20.00     0.039 C 
HETATM    9  C6  UNL     1     -33.077   9.945   2.839  1.00 20.00     0.039 C 
HETATM   10  C7  UNL     1     -31.899   9.025   4.859  1.00 20.00     0.039 C 
ENDBRANCH   2   7
TORSDOF 2
