REMARK  0 active torsions:
REMARK  status: ('A' for Active; 'I' for Inactive)
ROOT
HETATM    1  C1  UNL     1     -34.658   6.566   6.251  1.00 20.00     0.166 A 
HETATM    2  C2  UNL     1     -33.306   7.430   4.811  1.00 20.00     0.048 A 
HETATM    3  C3  UNL     1     -33.571   6.250   4.174  1.00 20.00     0.008 A 
HETATM    4  C4  UNL     1     -32.370   8.277   4.046  1.00 20.00     0.061 C 
HETATM    5  C5  UNL     1     -32.872   6.092   2.885  1.00 20.00     0.048 C 
HETATM    6  C6  UNL     1     -32.350   7.552   2.657  1.00 20.00     0.011 C 
HETATM    7  N7  UNL     1     -33.919   7.637   6.009  1.00 20.00    -0.257 NA
HETATM    8  S8  UNL     1     -34.628   5.301   5.055  1.00 20.00    -0.085 SA
ENDROOT
TORSDOF 0
