REMARK  1 active torsions:
REMARK  status: ('A' for Active; 'I' for Inactive)
REMARK    1  A    between atoms: C3_3  and  C8_8 
ROOT
HETATM    1  C1  UNL     1     -33.841   6.886   5.384  1.00 20.00     0.017 C 
HETATM    2  C2  UNL     1     -34.383   5.689   4.619  1.00 20.00     0.092 C 
HETATM    3  C3  UNL     1     -32.458   7.093   3.599  1.00 20.00     0.173 C 
HETATM    4  C4  UNL     1     -34.440   7.225   6.720  1.00 20.00     0.066 C 
HETATM    5  C5  UNL     1     -35.802   5.938   4.135  1.00 20.00     0.028 C 
HETATM    6  N9  UNL     1     -32.896   7.631   4.897  1.00 20.00    -0.282 NA
HETATM    7  S10 UNL     1     -33.259   5.516   3.217  1.00 20.00    -0.131 SA
ENDROOT
BRANCH   3   8
HETATM    8  C8  UNL     1     -32.771   8.118   2.517  1.00 20.00     0.012 C 
HETATM    9  C6  UNL     1     -32.073   9.446   2.811  1.00 20.00     0.012 C 
HETATM   10  C7  UNL     1     -32.363   7.594   1.141  1.00 20.00     0.012 C 
ENDBRANCH   3   8
TORSDOF 1
