REMARK  5 active torsions:
REMARK  status: ('A' for Active; 'I' for Inactive)
REMARK    1  A    between atoms: C1_1  and  C9_9 
REMARK    2  A    between atoms: C1_1  and  O11_11 
REMARK    3  A    between atoms: C6_6  and  C7_7 
REMARK    4  A    between atoms: C7_7  and  C9_9 
REMARK    5  A    between atoms: C8_8  and  O11_11 
ROOT
HETATM    1  C4  UNL     1     -34.610   8.436   4.843  1.00 20.00     0.025 C 
HETATM    2  C5  UNL     1     -32.138   8.195   4.643  1.00 20.00     0.025 C 
HETATM    3  C9  UNL     1     -33.479   7.882   3.957  1.00 20.00     0.041 C 
ENDROOT
BRANCH   3   4
HETATM    4  C1  UNL     1     -33.658   6.362   3.848  1.00 20.00     0.266 C 
HETATM    5  O10 UNL     1     -32.918   5.623   3.210  1.00 20.00    -0.264 OA
BRANCH   4   6
HETATM    6  O11 UNL     1     -34.747   5.955   4.565  1.00 20.00    -0.321 OA
BRANCH   6   7
HETATM    7  C8  UNL     1     -34.670   4.635   5.113  1.00 20.00     0.174 C 
HETATM    8  C3  UNL     1     -34.057   4.709   6.495  1.00 20.00     0.034 C 
ENDBRANCH   6   7
ENDBRANCH   4   6
ENDBRANCH   3   4
BRANCH   3   9
HETATM    9  C7  UNL     1     -33.552   8.549   2.559  1.00 20.00     0.018 C 
BRANCH   9  10
HETATM   10  C6  UNL     1     -32.522   8.037   1.546  1.00 20.00    -0.003 C 
HETATM   11  C2  UNL     1     -32.704   8.704   0.190  1.00 20.00     0.005 C 
ENDBRANCH   9  10
ENDBRANCH   3   9
TORSDOF 5
