REMARK  0 active torsions:
REMARK  status: ('A' for Active; 'I' for Inactive)
ROOT
HETATM    1  C1  UNL     1     -32.968   7.813   4.165  1.00 20.00     0.085 C 
HETATM    2  C2  UNL     1     -33.048   5.575   3.352  1.00 20.00     0.085 C 
HETATM    3  C3  UNL     1     -35.061   6.481   4.646  1.00 20.00     0.030 A 
HETATM    4  C4  UNL     1     -33.582   6.518   4.296  1.00 20.00     0.148 A 
HETATM    5  C5  UNL     1     -34.042   6.035   5.680  1.00 20.00    -0.007 A 
HETATM    6  C6  UNL     1     -36.023   5.537   4.005  1.00 20.00     0.014 C 
HETATM    7  C7  UNL     1     -33.858   6.936   6.884  1.00 20.00     0.018 C 
HETATM    8  C8  UNL     1     -33.923   4.571   6.044  1.00 20.00     0.018 C 
HETATM    9  N9  UNL     1     -32.473   8.857   4.060  1.00 20.00    -0.195 NA
HETATM   10  N10 UNL     1     -32.617   4.813   2.590  1.00 20.00    -0.195 NA
ENDROOT
TORSDOF 0
