REMARK  1 active torsions:
REMARK  status: ('A' for Active; 'I' for Inactive)
REMARK    1  A    between atoms: C5_5  and  C10_10 
ROOT
HETATM    1  C1  UNL     1     -33.551   5.645   3.600  1.00 20.00    -0.018 C 
HETATM    2  C2  UNL     1     -32.691   5.850   2.592  1.00 20.00    -0.025 C 
HETATM    3  C3  UNL     1     -33.019   7.908   4.505  1.00 20.00     0.135 C 
HETATM    4  C4  UNL     1     -32.658   8.317   3.095  1.00 20.00     0.087 C 
HETATM    5  C5  UNL     1     -33.900   6.666   4.648  1.00 20.00     0.081 C 
HETATM    6  C6  UNL     1     -31.980   7.157   2.360  1.00 20.00     0.010 C 
HETATM    7  C7  UNL     1     -31.892   7.469   0.866  1.00 20.00     0.014 C 
HETATM    8  O11 UNL     1     -32.692   8.602   5.467  1.00 20.00    -0.297 OA
ENDROOT
BRANCH   5   9
HETATM    9  C10 UNL     1     -33.761   6.064   6.045  1.00 20.00    -0.008 C 
HETATM   10  C8  UNL     1     -34.528   6.898   7.071  1.00 20.00     0.010 C 
HETATM   11  C9  UNL     1     -34.249   4.616   6.060  1.00 20.00     0.010 C 
ENDBRANCH   5   9
TORSDOF 1
