REMARK  2 active torsions:
REMARK  status: ('A' for Active; 'I' for Inactive)
REMARK    1  A    between atoms: C1_1  and  O6_6 
REMARK    2  A    between atoms: C4_4  and  O6_6 
ROOT
HETATM    1  O6  UNL     1     -33.483   6.714   4.967  1.00 20.00    -0.301 OA
ENDROOT
BRANCH   1   2
HETATM    2  C1  UNL     1     -34.540   5.854   5.024  1.00 20.00     0.256 C 
HETATM    3  C2  UNL     1     -34.555   5.173   6.359  1.00 20.00     0.126 C 
HETATM    4  O5  UNL     1     -35.362   5.649   4.142  1.00 20.00    -0.266 OA
ENDBRANCH   1   2
BRANCH   1   5
HETATM    5  C4  UNL     1     -33.310   7.459   3.750  1.00 20.00     0.223 C 
HETATM    6  C3  UNL     1     -32.556   6.625   2.728  1.00 20.00     0.057 C 
HETATM    7 CL7  UNL     1     -32.370   8.925   4.138  1.00 20.00    -0.095 Cl
ENDBRANCH   1   5
TORSDOF 2
