REMARK  3 active torsions:
REMARK  status: ('A' for Active; 'I' for Inactive)
REMARK    1  A    between atoms: C1_1  and  C3_3 
REMARK    2  A    between atoms: C2_2  and  C7_7 
REMARK    3  A    between atoms: C3_3  and  O9_9 
ROOT
HETATM    1  C1  UNL     1     -33.321   8.607   4.574  1.00 20.00     0.078 C 
HETATM    2  C2  UNL     1     -34.147   7.839   5.297  1.00 20.00    -0.017 C 
ENDROOT
BRANCH   1   3
HETATM    3  C3  UNL     1     -32.528   8.010   3.478  1.00 20.00     0.282 C 
HETATM    4  O8  UNL     1     -31.710   7.112   3.604  1.00 20.00    -0.260 OA
BRANCH   3   5
HETATM    5  O9  UNL     1     -32.878   8.641   2.325  1.00 20.00    -0.323 OA
HETATM    6  C6  UNL     1     -32.203   8.189   1.146  1.00 20.00     0.213 C 
ENDBRANCH   3   5
ENDBRANCH   1   3
BRANCH   2   7
HETATM    7  C7  UNL     1     -34.326   6.361   5.056  1.00 20.00    -0.000 C 
HETATM    8  C4  UNL     1     -33.913   5.570   6.298  1.00 20.00     0.013 C 
HETATM    9  C5  UNL     1     -35.777   6.058   4.684  1.00 20.00     0.013 C 
ENDBRANCH   2   7
TORSDOF 3
