REMARK  1 active torsions:
REMARK  status: ('A' for Active; 'I' for Inactive)
REMARK    1  A    between atoms: C3_3  and  C4_4 
ROOT
HETATM    1  C1  UNL     1     -33.453   5.455   2.899  1.00 20.00    -0.018 A 
HETATM    2  C2  UNL     1     -32.260   6.038   2.699  1.00 20.00    -0.024 A 
HETATM    3  C4  UNL     1     -34.176   6.163   4.019  1.00 20.00     0.082 A 
HETATM    4  C5  UNL     1     -31.978   7.156   3.615  1.00 20.00     0.022 A 
HETATM    5  C6  UNL     1     -33.224   7.253   4.485  1.00 20.00     0.017 A 
HETATM    6  C7  UNL     1     -32.790   8.434   3.632  1.00 20.00    -0.035 A 
HETATM    7  C9  UNL     1     -32.185   9.612   4.359  1.00 20.00     0.016 C 
HETATM    8  C10 UNL     1     -33.604   8.844   2.429  1.00 20.00     0.016 C 
ENDROOT
BRANCH   3   9
HETATM    9  C3  UNL     1     -34.440   5.141   5.076  1.00 20.00     0.131 C 
HETATM   10  C8  UNL     1     -35.151   5.617   6.314  1.00 20.00     0.091 C 
HETATM   11  O11 UNL     1     -34.097   3.968   4.940  1.00 20.00    -0.298 OA
ENDBRANCH   3   9
TORSDOF 1
