REMARK  1 active torsions:
REMARK  status: ('A' for Active; 'I' for Inactive)
REMARK    1  A    between atoms: C3_3  and  C6_6 
ROOT
HETATM    1  C1  UNL     1     -34.237   4.835   6.514  1.00 20.00     0.282 C 
HETATM    2  C2  UNL     1     -33.797   4.093   5.263  1.00 20.00     0.106 C 
HETATM    3  C3  UNL     1     -34.807   6.512   4.926  1.00 20.00     0.201 C 
HETATM    4  C4  UNL     1     -36.017   6.854   4.056  1.00 20.00     0.061 C 
HETATM    5  N7  UNL     1     -35.273   5.791   6.119  1.00 20.00     0.103 N 
HETATM    6  S8  UNL     1     -33.694   5.386   4.006  1.00 20.00    -0.127 SA
HETATM    7  H21 UNL     1     -36.111   5.261   5.880  1.00 20.00     0.318 HD
ENDROOT
BRANCH   3   8
HETATM    8  C6  UNL     1     -34.041   7.784   5.305  1.00 20.00     0.048 C 
HETATM    9  C5  UNL     1     -33.547   8.506   4.096  1.00 20.00     0.009 C 
ENDBRANCH   3   8
TORSDOF 1
