REMARK  0 active torsions:
REMARK  status: ('A' for Active; 'I' for Inactive)
ROOT
HETATM    1  C1  UNL     1     -33.701   5.414   3.326  1.00 20.00     0.033 A 
HETATM    2  C2  UNL     1     -34.393   4.604   4.211  1.00 20.00     0.117 A 
HETATM    3  C3  UNL     1     -34.448   6.210   5.886  1.00 20.00     0.136 A 
HETATM    4  C4  UNL     1     -32.538   8.897   3.879  1.00 20.00     0.070 A 
HETATM    5  C5  UNL     1     -33.366   6.709   3.765  1.00 20.00     0.002 A 
HETATM    6  C6  UNL     1     -33.751   7.088   5.054  1.00 20.00     0.034 A 
HETATM    7  C7  UNL     1     -32.665   7.771   3.101  1.00 20.00     0.029 A 
HETATM    8  N8  UNL     1     -34.764   4.970   5.453  1.00 20.00    -0.272 NA
HETATM    9  S9  UNL     1     -33.256   8.698   5.412  1.00 20.00    -0.098 SA
HETATM   10 BR10 UNL     1     -31.988   7.635   1.341  1.00 20.00    -0.050 Br
ENDROOT
TORSDOF 0
