REMARK  0 active torsions:
REMARK  status: ('A' for Active; 'I' for Inactive)
ROOT
HETATM    1  C1  UNL     1     -34.554   5.102   6.370  1.00 20.00     0.003 C 
HETATM    2  C2  UNL     1     -34.661   4.694   4.903  1.00 20.00     0.003 C 
HETATM    3  C3  UNL     1     -34.595   6.632   6.325  1.00 20.00     0.040 C 
HETATM    4  C4  UNL     1     -33.794   5.725   4.173  1.00 20.00     0.040 C 
HETATM    5  C5  UNL     1     -33.865   8.350   4.460  1.00 20.00     0.207 A 
HETATM    6  C6  UNL     1     -33.937   6.953   5.019  1.00 20.00     0.082 A 
HETATM    7  O7  UNL     1     -32.747   7.747   5.123  1.00 20.00    -0.375 OA
ENDROOT
TORSDOF 0
