REMARK  3 active torsions:
REMARK  status: ('A' for Active; 'I' for Inactive)
REMARK    1  A    between atoms: C2_2  and  C6_6 
REMARK    2  A    between atoms: C2_2  and  O9_9 
REMARK    3  A    between atoms: C5_5  and  C6_6 
ROOT
HETATM    1  C1  UNL     1     -32.710   8.526   3.027  1.00 20.00     0.074 C 
HETATM    2  C6  UNL     1     -33.341   7.239   3.377  1.00 20.00     0.192 C 
HETATM    3  N7  UNL     1     -32.218   9.540   2.750  1.00 20.00    -0.196 NA
ENDROOT
BRANCH   2   4
HETATM    4  C2  UNL     1     -33.492   7.088   4.881  1.00 20.00     0.276 C 
HETATM    5  O8  UNL     1     -33.085   7.890   5.713  1.00 20.00    -0.264 OA
BRANCH   4   6
HETATM    6  O9  UNL     1     -34.140   5.917   5.160  1.00 20.00    -0.325 OA
HETATM    7  C4  UNL     1     -34.341   5.637   6.549  1.00 20.00     0.213 C 
ENDBRANCH   4   6
ENDBRANCH   2   4
BRANCH   2   8
HETATM    8  C5  UNL     1     -32.578   6.055   2.763  1.00 20.00     0.025 C 
HETATM    9  C3  UNL     1     -33.204   4.690   3.034  1.00 20.00     0.007 C 
ENDBRANCH   2   8
TORSDOF 3
