REMARK  0 active torsions:
REMARK  status: ('A' for Active; 'I' for Inactive)
ROOT
HETATM    1  C1  UNL     1     -32.370   8.627   4.424  1.00 20.00     0.094 C 
HETATM    2  C2  UNL     1     -34.891   4.916   5.185  1.00 20.00     0.003 C 
HETATM    3  C3  UNL     1     -33.960   4.099   4.294  1.00 20.00     0.003 C 
HETATM    4  C4  UNL     1     -34.209   6.284   5.259  1.00 20.00     0.042 C 
HETATM    5  C5  UNL     1     -33.532   5.090   3.209  1.00 20.00     0.042 C 
HETATM    6  C6  UNL     1     -32.647   7.560   3.514  1.00 20.00     0.263 A 
HETATM    7  C7  UNL     1     -33.546   6.413   3.918  1.00 20.00     0.101 A 
HETATM    8  N8  UNL     1     -32.144   9.493   5.162  1.00 20.00    -0.194 NA
HETATM    9  O9  UNL     1     -34.024   7.504   3.120  1.00 20.00    -0.354 OA
ENDROOT
TORSDOF 0
