REMARK  2 active torsions:
REMARK  status: ('A' for Active; 'I' for Inactive)
REMARK    1  A    between atoms: C1_1  and  C3_3 
REMARK    2  A    between atoms: C2_2  and  C9_9 
ROOT
HETATM    1  C1  UNL     1     -33.701   6.476   4.050  1.00 20.00    -0.071 C 
HETATM    2  C2  UNL     1     -33.180   7.548   3.896  1.00 20.00    -0.095 C 
ENDROOT
BRANCH   1   3
HETATM    3  C3  UNL     1     -34.334   5.172   4.237  1.00 20.00     0.229 A 
HETATM    4  C4  UNL     1     -34.442   4.573   5.599  1.00 20.00     0.160 A 
HETATM    5  C5  UNL     1     -33.959   5.225   6.846  1.00 20.00     0.043 C 
HETATM    6  O10 UNL     1     -33.406   4.191   4.689  1.00 20.00    -0.363 OA
ENDBRANCH   1   3
BRANCH   2   7
HETATM    7  C9  UNL     1     -32.538   8.868   3.705  1.00 20.00     0.013 C 
HETATM    8  C6  UNL     1     -31.250   8.695   2.887  1.00 20.00     0.028 C 
HETATM    9  C7  UNL     1     -32.198   9.471   5.075  1.00 20.00     0.028 C 
HETATM   10  C8  UNL     1     -33.501   9.800   2.958  1.00 20.00     0.028 C 
ENDBRANCH   2   7
TORSDOF 2
