REMARK  1 active torsions:
REMARK  status: ('A' for Active; 'I' for Inactive)
REMARK    1  A    between atoms: C2_2  and  C4_4 
ROOT
HETATM    1  C1  UNL     1     -32.555   8.182   3.052  1.00 20.00     0.236 A 
HETATM    2  C2  UNL     1     -33.474   6.488   4.032  1.00 20.00     0.199 A 
HETATM    3  C3  UNL     1     -32.716   6.027   2.975  1.00 20.00     0.245 A 
HETATM    4  N5  UNL     1     -33.368   7.834   4.072  1.00 20.00    -0.233 NA
HETATM    5  N6  UNL     1     -32.146   7.092   2.370  1.00 20.00    -0.212 NA
HETATM    6  F7  UNL     1     -32.567   4.755   2.608  1.00 20.00    -0.182 F 
ENDROOT
BRANCH   2   7
HETATM    7  C4  UNL     1     -34.292   5.758   5.008  1.00 20.00     0.439 C 
HETATM    8  F8  UNL     1     -34.302   4.393   4.838  1.00 20.00    -0.164 F 
HETATM    9  F9  UNL     1     -33.906   5.929   6.317  1.00 20.00    -0.164 F 
HETATM   10  F10 UNL     1     -35.618   6.117   4.991  1.00 20.00    -0.164 F 
ENDBRANCH   2   7
TORSDOF 1
