REMARK  2 active torsions:
REMARK  status: ('A' for Active; 'I' for Inactive)
REMARK    1  A    between atoms: C3_3  and  C8_8 
REMARK       I    between atoms: C3_3  and  N10_10 
REMARK    2  A    between atoms: C9_9  and  N10_10 
ROOT
HETATM    1  C1  UNL     1     -34.106   4.851   6.746  1.00 20.00     0.015 C 
HETATM    2  C2  UNL     1     -34.291   5.148   5.597  1.00 20.00    -0.086 C 
HETATM    3  C6  UNL     1     -34.215   4.309   3.287  1.00 20.00     0.052 C 
HETATM    4  C7  UNL     1     -35.975   5.952   3.990  1.00 20.00     0.052 C 
HETATM    5  C9  UNL     1     -34.520   5.514   4.184  1.00 20.00     0.088 C 
ENDROOT
BRANCH   5   6
HETATM    6  N10 UNL     1     -33.644   6.608   3.834  1.00 20.00    -0.341 N 
HETATM    7  C3  UNL     1     -33.682   7.835   4.479  1.00 20.00     0.222 C 
HETATM    8  O11 UNL     1     -34.448   8.121   5.398  1.00 20.00    -0.273 OA
HETATM    9  H26 UNL     1     -32.972   6.473   3.084  1.00 20.00     0.164 HD
BRANCH   7  10
HETATM   10  C8  UNL     1     -32.659   8.821   3.918  1.00 20.00     0.070 C 
HETATM   11  C4  UNL     1     -33.265   9.607   2.758  1.00 20.00     0.019 C 
HETATM   12  C5  UNL     1     -32.161   9.773   5.004  1.00 20.00     0.019 C 
ENDBRANCH   7  10
ENDBRANCH   5   6
TORSDOF 2
