REMARK  1 active torsions:
REMARK  status: ('A' for Active; 'I' for Inactive)
REMARK    1  A    between atoms: C6_6  and  N7_7 
ROOT
HETATM    1  C1  UNL     1     -34.473   4.726   5.732  1.00 20.00     0.000 C 
HETATM    2  C2  UNL     1     -34.661   5.151   4.279  1.00 20.00     0.003 C 
HETATM    3  C3  UNL     1     -34.415   5.925   6.674  1.00 20.00     0.003 C 
HETATM    4  C4  UNL     1     -33.592   6.154   3.842  1.00 20.00     0.046 C 
HETATM    5  C5  UNL     1     -33.345   6.930   6.242  1.00 20.00     0.046 C 
HETATM    6  C6  UNL     1     -33.494   7.367   4.778  1.00 20.00     0.136 C 
HETATM    7 CL9  UNL     1     -34.939   8.414   4.588  1.00 20.00    -0.098 Cl
ENDROOT
BRANCH   6   8
HETATM    8  N7  UNL     1     -32.304   8.188   4.390  1.00 20.00    -0.037 NA
HETATM    9  O8  UNL     1     -32.183   9.175   5.113  1.00 20.00    -0.099 OA
ENDBRANCH   6   8
TORSDOF 1
