REMARK  0 active torsions:
REMARK  status: ('A' for Active; 'I' for Inactive)
ROOT
HETATM    1  C1  UNL     1     -33.745   4.842   3.402  1.00 20.00     0.014 A 
HETATM    2  C2  UNL     1     -33.106   5.411   2.299  1.00 20.00     0.024 A 
HETATM    3  C3  UNL     1     -34.622   5.061   5.682  1.00 20.00     0.031 A 
HETATM    4  C4  UNL     1     -32.928   7.511   3.477  1.00 20.00     0.039 A 
HETATM    5  C5  UNL     1     -34.821   5.875   6.786  1.00 20.00     0.119 A 
HETATM    6  C6  UNL     1     -33.984   5.602   4.559  1.00 20.00    -0.021 A 
HETATM    7  C7  UNL     1     -33.570   6.949   4.593  1.00 20.00     0.016 A 
HETATM    8  C8  UNL     1     -32.699   6.742   2.336  1.00 20.00     0.035 A 
HETATM    9  C9  UNL     1     -33.824   7.672   5.760  1.00 20.00     0.136 A 
HETATM   10  N10 UNL     1     -34.439   7.168   6.854  1.00 20.00    -0.248 NA
HETATM   11 CL11 UNL     1     -31.911   7.437   0.973  1.00 20.00    -0.084 Cl
HETATM   12 CL12 UNL     1     -33.388   9.329   5.979  1.00 20.00    -0.061 Cl
ENDROOT
TORSDOF 0
