REMARK  1 active torsions:
REMARK  status: ('A' for Active; 'I' for Inactive)
REMARK    1  A    between atoms: C5_5  and  O12_12 
ROOT
HETATM    1  C1  UNL     1     -34.366   4.363   5.409  1.00 20.00     0.006 C 
HETATM    2  C2  UNL     1     -33.968   5.423   6.444  1.00 20.00     0.012 C 
HETATM    3  C3  UNL     1     -35.256   6.431   4.708  1.00 20.00     0.017 C 
HETATM    4  C4  UNL     1     -34.564   5.189   4.126  1.00 20.00    -0.003 C 
HETATM    5  C5  UNL     1     -32.892   6.857   4.675  1.00 20.00     0.137 C 
HETATM    6  C6  UNL     1     -34.095   6.749   5.657  1.00 20.00    -0.017 C 
HETATM    7  C7  UNL     1     -33.217   5.776   3.593  1.00 20.00    -0.017 C 
HETATM    8  C8  UNL     1     -34.316   7.957   6.547  1.00 20.00     0.018 C 
HETATM    9  C9  UNL     1     -32.089   4.736   3.502  1.00 20.00     0.018 C 
HETATM   10  C10 UNL     1     -33.423   6.354   2.178  1.00 20.00     0.018 C 
ENDROOT
BRANCH   5  11
HETATM   11  O12 UNL     1     -32.813   8.165   4.128  1.00 20.00    -0.389 OA
HETATM   12  C11 UNL     1     -31.517   8.436   3.610  1.00 20.00     0.202 C 
ENDBRANCH   5  11
TORSDOF 1
