REMARK  2 active torsions:
REMARK  status: ('A' for Active; 'I' for Inactive)
REMARK    1  A    between atoms: C2_2  and  C4_4 
REMARK    2  A    between atoms: C4_4  and  S6_6 
ROOT
HETATM    1  C1  UNL     1     -32.521   8.752   4.444  1.00 20.00     0.201 A 
HETATM    2  C2  UNL     1     -33.631   7.954   5.070  1.00 20.00     0.154 A 
HETATM    3  O5  UNL     1     -33.034   7.559   3.830  1.00 20.00    -0.380 OA
ENDROOT
BRANCH   2   4
HETATM    4  C4  UNL     1     -33.370   7.029   6.204  1.00 20.00     0.107 C 
BRANCH   4   5
HETATM    5  S6  UNL     1     -34.694   5.786   6.371  1.00 20.00    -0.171 SA
HETATM    6  C3  UNL     1     -34.150   4.659   5.069  1.00 20.00     0.089 C 
ENDBRANCH   4   5
ENDBRANCH   2   4
TORSDOF 2
