REMARK  0 active torsions:
REMARK  status: ('A' for Active; 'I' for Inactive)
ROOT
HETATM    1  C1  UNL     1     -34.376   7.172   6.014  1.00 20.00     0.116 C 
HETATM    2  C2  UNL     1     -33.143   7.631   3.739  1.00 20.00     0.344 C 
HETATM    3  C3  UNL     1     -34.424   6.042   4.972  1.00 20.00     0.159 C 
HETATM    4  C4  UNL     1     -34.318   4.679   5.674  1.00 20.00     0.049 C 
HETATM    5  C5  UNL     1     -35.726   6.065   4.150  1.00 20.00     0.049 C 
HETATM    6  N6  UNL     1     -33.247   6.213   4.089  1.00 20.00     0.102 N 
HETATM    7  S7  UNL     1     -33.738   8.617   5.130  1.00 20.00    -0.137 SA
HETATM    8  H18 UNL     1     -33.410   5.691   3.233  1.00 20.00     0.317 HD
ENDROOT
TORSDOF 0
