REMARK  0 active torsions:
REMARK  status: ('A' for Active; 'I' for Inactive)
ROOT
HETATM    1  C1  UNL     1     -33.734   6.725   5.729  1.00 20.00     0.139 C 
HETATM    2  C2  UNL     1     -32.616   7.014   4.705  1.00 20.00     0.057 C 
HETATM    3  C3  UNL     1     -33.487   6.255   3.652  1.00 20.00     0.007 C 
HETATM    4  C4  UNL     1     -34.402   5.666   4.798  1.00 20.00     0.018 C 
HETATM    5  C5  UNL     1     -32.350   8.478   4.417  1.00 20.00     0.018 C 
HETATM    6  C6  UNL     1     -32.731   5.300   2.742  1.00 20.00     0.012 C 
HETATM    7  C7  UNL     1     -34.136   4.233   5.250  1.00 20.00     0.023 C 
HETATM    8  C8  UNL     1     -35.891   5.911   4.562  1.00 20.00     0.023 C 
HETATM    9  O9  UNL     1     -33.984   7.150   6.838  1.00 20.00    -0.297 OA
ENDROOT
TORSDOF 0
