REMARK  2 active torsions:
REMARK  status: ('A' for Active; 'I' for Inactive)
REMARK    1  A    between atoms: C1_1  and  C6_6 
REMARK    2  A    between atoms: C1_1  and  O9_9 
ROOT
HETATM    1  C2  UNL     1     -35.187   6.303   5.221  1.00 20.00     0.024 C 
HETATM    2  C3  UNL     1     -33.326   5.966   6.180  1.00 20.00     0.024 C 
HETATM    3  C4  UNL     1     -33.869   7.926   5.579  1.00 20.00     0.024 C 
HETATM    4  C5  UNL     1     -34.550   6.882   6.531  1.00 20.00    -0.011 C 
HETATM    5  C6  UNL     1     -33.711   6.584   4.801  1.00 20.00     0.049 C 
ENDROOT
BRANCH   5   6
HETATM    6  C1  UNL     1     -33.073   6.353   3.480  1.00 20.00     0.267 C 
HETATM    7  O8  UNL     1     -32.992   5.258   2.940  1.00 20.00    -0.264 OA
BRANCH   6   8
HETATM    8  O9  UNL     1     -32.606   7.535   2.987  1.00 20.00    -0.326 OA
HETATM    9  C7  UNL     1     -31.962   7.458   1.711  1.00 20.00     0.213 C 
ENDBRANCH   6   8
ENDBRANCH   5   6
TORSDOF 2
