REMARK  0 active torsions:
REMARK  status: ('A' for Active; 'I' for Inactive)
ROOT
HETATM    1  C1  UNL     1     -33.982   7.239   5.874  1.00 20.00     0.045 C 
HETATM    2  C2  UNL     1     -33.213   7.511   4.802  1.00 20.00     0.011 C 
HETATM    3  C3  UNL     1     -34.918   6.087   5.895  1.00 20.00     0.028 C 
HETATM    4  C4  UNL     1     -33.260   6.612   3.571  1.00 20.00     0.059 C 
HETATM    5  C5  UNL     1     -35.070   5.240   4.651  1.00 20.00     0.067 C 
HETATM    6  C6  UNL     1     -33.770   5.175   3.838  1.00 20.00    -0.038 C 
HETATM    7  C7  UNL     1     -34.050   4.481   2.493  1.00 20.00     0.015 C 
HETATM    8  C8  UNL     1     -32.704   4.348   4.588  1.00 20.00     0.015 C 
HETATM    9  N9  UNL     1     -35.640   5.797   6.929  1.00 20.00    -0.305 NA
HETATM   10  S10 UNL     1     -32.107   8.864   4.661  1.00 20.00    -0.085 SA
HETATM   11  H22 UNL     1     -36.206   4.971   6.720  1.00 20.00     0.186 HD
ENDROOT
TORSDOF 0
