REMARK  2 active torsions:
REMARK  status: ('A' for Active; 'I' for Inactive)
REMARK    1  A    between atoms: C2_2  and  C4_4 
REMARK    2  A    between atoms: C4_4  and  S5_5 
ROOT
HETATM    1  C1  UNL     1     -34.342   7.611   6.136  1.00 20.00     0.051 A 
HETATM    2  C2  UNL     1     -33.281   7.171   5.165  1.00 20.00     0.036 A 
HETATM    3  C3  UNL     1     -34.387   6.218   5.557  1.00 20.00     0.118 A 
HETATM    4 CL6  UNL     1     -33.970   4.874   6.621  1.00 20.00    -0.101 Cl
HETATM    5 CL7  UNL     1     -35.679   5.833   4.428  1.00 20.00    -0.101 Cl
ENDROOT
BRANCH   2   6
HETATM    6  C4  UNL     1     -33.199   7.801   3.816  1.00 20.00     0.078 C 
BRANCH   6   7
HETATM    7  S5  UNL     1     -32.283   6.746   2.646  1.00 20.00    -0.182 SA
HETATM    8  H13 UNL     1     -32.398   7.574   1.600  1.00 20.00     0.101 HD
ENDBRANCH   6   7
ENDBRANCH   2   6
TORSDOF 2
