REMARK  2 active torsions:
REMARK  status: ('A' for Active; 'I' for Inactive)
REMARK    1  A    between atoms: C1_1  and  C7_7 
REMARK    2  A    between atoms: C6_6  and  N8_8 
ROOT
HETATM    1  C1  UNL     1     -33.255   6.967   4.685  1.00 20.00     0.108 C 
HETATM    2  N8  UNL     1     -33.556   7.939   3.894  1.00 20.00    -0.299 NA
ENDROOT
BRANCH   1   3
HETATM    3  C7  UNL     1     -34.221   5.833   4.977  1.00 20.00     0.063 C 
HETATM    4  C4  UNL     1     -35.513   6.070   4.199  1.00 20.00     0.038 C 
HETATM    5  C5  UNL     1     -34.507   5.650   6.465  1.00 20.00     0.038 C 
HETATM    6 CL9  UNL     1     -33.421   4.356   4.350  1.00 20.00    -0.114 Cl
ENDBRANCH   1   3
BRANCH   2   7
HETATM    7  C6  UNL     1     -32.482   8.920   3.762  1.00 20.00     0.099 C 
HETATM    8  C2  UNL     1     -32.196   9.526   5.127  1.00 20.00     0.034 C 
HETATM    9  C3  UNL     1     -31.255   8.233   3.181  1.00 20.00     0.034 C 
ENDBRANCH   2   7
TORSDOF 2
