REMARK  4 active torsions:
REMARK  status: ('A' for Active; 'I' for Inactive)
REMARK    1  A    between atoms: C1_1  and  C6_6 
REMARK    2  A    between atoms: C1_1  and  C9_9 
REMARK    3  A    between atoms: C7_7  and  C8_8 
REMARK    4  A    between atoms: C8_8  and  N10_10 
ROOT
HETATM    1  C1  UNL     1     -33.197   6.858   4.095  1.00 20.00     0.009 C 
HETATM    2  N10 UNL     1     -32.544   6.500   3.041  1.00 20.00    -0.298 NA
ENDROOT
BRANCH   1   3
HETATM    3  C6  UNL     1     -33.600   8.285   4.431  1.00 20.00     0.050 C 
HETATM    4  C2  UNL     1     -32.529   8.957   5.270  1.00 20.00     0.011 C 
ENDBRANCH   1   3
BRANCH   1   5
HETATM    5  C9  UNL     1     -33.619   5.770   5.087  1.00 20.00     0.025 C 
HETATM    6  C4  UNL     1     -34.968   5.188   4.679  1.00 20.00     0.016 C 
HETATM    7  C5  UNL     1     -33.653   6.317   6.510  1.00 20.00     0.016 C 
ENDBRANCH   1   5
BRANCH   2   8
HETATM    8  C8  UNL     1     -32.141   7.501   2.069  1.00 20.00     0.148 C 
BRANCH   8   9
HETATM    9  C7  UNL     1     -33.233   7.674   1.022  1.00 20.00     0.017 C 
HETATM   10  C3  UNL     1     -32.869   8.703  -0.039  1.00 20.00     0.007 C 
ENDBRANCH   8   9
ENDBRANCH   2   8
TORSDOF 4
