REMARK  1 active torsions:
REMARK  status: ('A' for Active; 'I' for Inactive)
REMARK    1  A    between atoms: C2_2  and  C5_5 
ROOT
HETATM    1  C1  UNL     1     -32.450   9.001   3.703  1.00 20.00     0.065 A 
HETATM    2  C2  UNL     1     -32.687   7.848   2.986  1.00 20.00     0.015 A 
HETATM    3  C3  UNL     1     -33.307   6.838   3.781  1.00 20.00    -0.031 A 
HETATM    4  C4  UNL     1     -33.509   7.272   5.078  1.00 20.00    -0.010 A 
HETATM    5  C6  UNL     1     -33.688   5.461   3.333  1.00 20.00     0.040 C 
HETATM    6  C7  UNL     1     -34.160   6.470   6.161  1.00 20.00     0.046 C 
HETATM    7  C8  UNL     1     -34.661   4.791   4.316  1.00 20.00     0.005 C 
HETATM    8  C9  UNL     1     -34.216   4.984   5.773  1.00 20.00     0.005 C 
HETATM    9  S11 UNL     1     -32.972   8.867   5.329  1.00 20.00    -0.105 SA
ENDROOT
BRANCH   2  10
HETATM   10  C5  UNL     1     -32.327   7.728   1.597  1.00 20.00     0.271 C 
HETATM   11  O10 UNL     1     -31.785   8.637   0.946  1.00 20.00    -0.301 OA
ENDBRANCH   2  10
TORSDOF 1
