REMARK  3 active torsions:
REMARK  status: ('A' for Active; 'I' for Inactive)
REMARK    1  A    between atoms: C1_1  and  C3_3 
REMARK       I    between atoms: C1_1  and  N10_10 
REMARK    2  A    between atoms: C8_8  and  C9_9 
REMARK    3  A    between atoms: C8_8  and  N10_10 
ROOT
HETATM    1  C1  UNL     1     -33.149   7.465   4.145  1.00 20.00     0.222 C 
HETATM    2  N10 UNL     1     -33.444   7.389   2.817  1.00 20.00    -0.360 N 
HETATM    3  O11 UNL     1     -32.068   7.726   4.658  1.00 20.00    -0.273 OA
HETATM    4  H28 UNL     1     -34.379   7.164   2.539  1.00 20.00     0.162 HD
ENDROOT
BRANCH   1   5
HETATM    5  C3  UNL     1     -34.330   7.189   5.017  1.00 20.00     0.082 A 
HETATM    6  C2  UNL     1     -34.090   6.711   6.414  1.00 20.00     0.019 A 
HETATM    7  C4  UNL     1     -34.675   5.780   5.390  1.00 20.00    -0.005 A 
HETATM    8  C5  UNL     1     -33.893   4.601   4.921  1.00 20.00     0.011 C 
ENDBRANCH   1   5
BRANCH   2   9
HETATM    9  C8  UNL     1     -32.422   7.629   1.773  1.00 20.00     0.126 C 
BRANCH   9  10
HETATM   10  C9  UNL     1     -32.804   8.801   0.862  1.00 20.00    -0.005 C 
HETATM   11  C6  UNL     1     -32.960  10.111   1.636  1.00 20.00     0.011 C 
HETATM   12  C7  UNL     1     -31.818   8.974  -0.295  1.00 20.00     0.011 C 
ENDBRANCH   9  10
ENDBRANCH   2   9
TORSDOF 3
