REMARK  3 active torsions:
REMARK  status: ('A' for Active; 'I' for Inactive)
REMARK    1  A    between atoms: C1_1  and  C3_3 
REMARK       I    between atoms: C1_1  and  N10_10 
REMARK    2  A    between atoms: C8_8  and  C9_9 
REMARK    3  A    between atoms: C8_8  and  N10_10 
ROOT
HETATM    1  C1  UNL     1     -33.628   7.972   4.275  1.00 20.00     0.222 C 
HETATM    2  N10 UNL     1     -34.330   6.883   3.852  1.00 20.00    -0.360 N 
HETATM    3  O11 UNL     1     -33.673   8.512   5.374  1.00 20.00    -0.273 OA
HETATM    4  H28 UNL     1     -34.191   6.548   2.920  1.00 20.00     0.162 HD
ENDROOT
BRANCH   1   5
HETATM    5  C3  UNL     1     -32.717   8.516   3.225  1.00 20.00     0.082 A 
HETATM    6  C2  UNL     1     -32.045   7.554   2.297  1.00 20.00     0.019 A 
HETATM    7  C4  UNL     1     -33.153   8.436   1.796  1.00 20.00    -0.005 A 
HETATM    8  C5  UNL     1     -32.851   9.566   0.873  1.00 20.00     0.011 C 
ENDBRANCH   1   5
BRANCH   2   9
HETATM    9  C8  UNL     1     -35.291   6.181   4.732  1.00 20.00     0.126 C 
BRANCH   9  10
HETATM   10  C9  UNL     1     -34.617   5.060   5.532  1.00 20.00    -0.005 C 
HETATM   11  C6  UNL     1     -33.990   3.997   4.629  1.00 20.00     0.011 C 
HETATM   12  C7  UNL     1     -33.585   5.602   6.522  1.00 20.00     0.011 C 
ENDBRANCH   9  10
ENDBRANCH   2   9
TORSDOF 3
