REMARK  0 active torsions:
REMARK  status: ('A' for Active; 'I' for Inactive)
ROOT
HETATM    1  C1  UNL     1     -34.648   6.005   6.704  1.00 20.00     0.137 A 
HETATM    2  C2  UNL     1     -34.694   5.341   5.489  1.00 20.00     0.118 A 
HETATM    3  C3  UNL     1     -33.439   7.136   5.410  1.00 20.00     0.177 A 
HETATM    4  C4  UNL     1     -33.491   6.055   3.362  1.00 20.00     0.112 A 
HETATM    5  C5  UNL     1     -32.683   7.091   3.066  1.00 20.00    -0.002 A 
HETATM    6  C6  UNL     1     -32.053   7.365   1.747  1.00 20.00     0.058 C 
HETATM    7  N7  UNL     1     -33.855   7.136   6.646  1.00 20.00    -0.235 NA
HETATM    8  N8  UNL     1     -33.905   6.093   4.672  1.00 20.00    -0.309 N 
HETATM    9  S9  UNL     1     -32.415   8.169   4.462  1.00 20.00    -0.055 SA
ENDROOT
TORSDOF 0
