REMARK  1 active torsions:
REMARK  status: ('A' for Active; 'I' for Inactive)
REMARK    1  A    between atoms: C1_1  and  C4_4 
ROOT
HETATM    1  C2  UNL     1     -33.113   7.810   4.318  1.00 20.00     0.023 C 
HETATM    2  C3  UNL     1     -33.306   8.281   5.748  1.00 20.00     0.075 C 
HETATM    3  C4  UNL     1     -33.137   6.285   4.361  1.00 20.00     0.066 C 
HETATM    4  C5  UNL     1     -34.397   5.868   5.143  1.00 20.00     0.010 C 
HETATM    5  C6  UNL     1     -35.702   5.943   4.337  1.00 20.00     0.027 C 
HETATM    6  C7  UNL     1     -34.241   4.477   5.762  1.00 20.00     0.027 C 
HETATM    7  S9  UNL     1     -34.494   7.125   6.484  1.00 20.00    -0.159 SA
ENDROOT
BRANCH   3   8
HETATM    8  C1  UNL     1     -33.088   5.712   2.977  1.00 20.00     0.237 C 
HETATM    9  O8  UNL     1     -32.553   4.642   2.707  1.00 20.00    -0.306 OA
ENDBRANCH   3   8
TORSDOF 1
