REMARK  2 active torsions:
REMARK  status: ('A' for Active; 'I' for Inactive)
REMARK    1  A    between atoms: C5_5  and  C6_6 
REMARK    2  A    between atoms: C7_7  and  N9_9 
ROOT
HETATM    1  C1  UNL     1     -33.068   8.583   3.632  1.00 20.00     0.079 C 
HETATM    2  C7  UNL     1     -33.107   8.287   5.066  1.00 20.00     0.252 C 
HETATM    3  N8  UNL     1     -33.036   8.820   2.496  1.00 20.00    -0.196 NA
ENDROOT
BRANCH   2   4
HETATM    4  N9  UNL     1     -33.703   6.997   5.335  1.00 20.00    -0.341 N 
HETATM    5  C4  UNL     1     -34.437   6.696   6.453  1.00 20.00     0.092 A 
HETATM    6  C2  UNL     1     -34.835   5.381   6.356  1.00 20.00     0.020 A 
HETATM    7  C3  UNL     1     -34.321   4.873   5.137  1.00 20.00     0.034 A 
HETATM    8  C5  UNL     1     -33.626   5.893   4.527  1.00 20.00     0.073 A 
BRANCH   8   9
HETATM    9  C6  UNL     1     -32.933   5.849   3.275  1.00 20.00     0.288 C 
HETATM   10  O10 UNL     1     -33.263   5.118   2.321  1.00 20.00    -0.300 OA
ENDBRANCH   8   9
ENDBRANCH   2   4
TORSDOF 2
