REMARK  1 active torsions:
REMARK  status: ('A' for Active; 'I' for Inactive)
REMARK    1  A    between atoms: C3_3  and  C7_7 
ROOT
HETATM    1  C1  UNL     1     -34.850   5.467   6.193  1.00 20.00    -0.030 C 
HETATM    2  C2  UNL     1     -34.100   6.555   6.417  1.00 20.00    -0.025 C 
HETATM    3  C4  UNL     1     -34.841   4.712   4.900  1.00 20.00     0.028 C 
HETATM    4  C5  UNL     1     -33.686   5.117   3.980  1.00 20.00     0.021 C 
HETATM    5  C6  UNL     1     -33.181   7.165   5.383  1.00 20.00     0.018 C 
HETATM    6  C7  UNL     1     -33.466   6.645   3.938  1.00 20.00     0.016 C 
HETATM    7  C8  UNL     1     -33.221   8.695   5.491  1.00 20.00     0.015 C 
HETATM    8  C9  UNL     1     -34.661   7.339   3.261  1.00 20.00     0.023 C 
ENDROOT
BRANCH   6   9
HETATM    9  C3  UNL     1     -32.250   6.883   3.075  1.00 20.00     0.241 C 
HETATM   10  O10 UNL     1     -32.272   7.549   2.045  1.00 20.00    -0.306 OA
ENDBRANCH   6   9
TORSDOF 1
