REMARK  3 active torsions:
REMARK  status: ('A' for Active; 'I' for Inactive)
REMARK    1  A    between atoms: C1_1  and  N8_8 
REMARK    2  A    between atoms: C6_6  and  C7_7 
REMARK    3  A    between atoms: C6_6  and  N8_8 
ROOT
HETATM    1  C2  UNL     1     -34.284   7.632   7.174  1.00 20.00     0.033 C 
HETATM    2  C6  UNL     1     -33.937   7.667   5.684  1.00 20.00     0.087 C 
ENDROOT
BRANCH   2   3
HETATM    3  C7  UNL     1     -34.208   6.334   4.912  1.00 20.00    -0.031 C 
HETATM    4  C3  UNL     1     -35.223   6.521   3.768  1.00 20.00     0.016 C 
HETATM    5  C4  UNL     1     -32.898   5.782   4.316  1.00 20.00     0.016 C 
HETATM    6  C5  UNL     1     -34.762   5.270   5.886  1.00 20.00     0.016 C 
ENDBRANCH   2   3
BRANCH   2   7
HETATM    7  N8  UNL     1     -32.566   8.109   5.534  1.00 20.00    -0.363 N 
HETATM    8  H24 UNL     1     -31.888   7.824   6.232  1.00 20.00     0.162 HD
BRANCH   7   9
HETATM    9  C1  UNL     1     -32.139   8.898   4.491  1.00 20.00     0.348 C 
HETATM   10  O9  UNL     1     -32.799   9.340   3.560  1.00 20.00    -0.284 OA
ENDBRANCH   7   9
ENDBRANCH   2   7
TORSDOF 3
