REMARK  4 active torsions:
REMARK  status: ('A' for Active; 'I' for Inactive)
REMARK    1  A    between atoms: C3_3  and  C4_4 
REMARK    2  A    between atoms: C4_4  and  N7_7 
REMARK    3  A    between atoms: C5_5  and  C6_6 
REMARK    4  A    between atoms: C5_5  and  N7_7 
ROOT
HETATM    1  C2  UNL     1     -32.319   9.187   4.528  1.00 20.00     0.309 C 
HETATM    2  N7  UNL     1     -33.084   8.056   4.005  1.00 20.00     0.085 N 
ENDROOT
BRANCH   2   3
HETATM    3  C4  UNL     1     -33.456   7.146   5.089  1.00 20.00     0.271 C 
BRANCH   3   4
HETATM    4  C3  UNL     1     -34.238   5.938   4.590  1.00 20.00     0.026 C 
HETATM    5  C1  UNL     1     -34.648   4.997   5.714  1.00 20.00     0.007 C 
ENDBRANCH   3   4
ENDBRANCH   2   3
BRANCH   2   6
HETATM    6  C5  UNL     1     -32.314   7.346   2.984  1.00 20.00     0.286 C 
BRANCH   6   7
HETATM    7  C6  UNL     1     -31.614   8.290   2.021  1.00 20.00     0.144 C 
HETATM    8 CL8  UNL     1     -32.782   9.328   1.167  1.00 20.00    -0.129 Cl
ENDBRANCH   6   7
ENDBRANCH   2   6
TORSDOF 4
