REMARK  1 active torsions:
REMARK  status: ('A' for Active; 'I' for Inactive)
REMARK    1  A    between atoms: C3_3  and  C7_7 
ROOT
HETATM    1  C1  UNL     1     -32.342   5.909   2.459  1.00 20.00    -0.030 C 
HETATM    2  C2  UNL     1     -32.391   6.920   3.337  1.00 20.00    -0.025 C 
HETATM    3  C4  UNL     1     -33.054   4.609   2.661  1.00 20.00     0.028 C 
HETATM    4  C5  UNL     1     -33.564   4.429   4.092  1.00 20.00     0.021 C 
HETATM    5  C6  UNL     1     -33.198   6.884   4.616  1.00 20.00     0.018 C 
HETATM    6  C7  UNL     1     -34.223   5.707   4.659  1.00 20.00     0.016 C 
HETATM    7  C8  UNL     1     -33.840   8.260   4.846  1.00 20.00     0.015 C 
HETATM    8  C9  UNL     1     -35.536   6.004   3.915  1.00 20.00     0.023 C 
ENDROOT
BRANCH   6   9
HETATM    9  C3  UNL     1     -34.590   5.409   6.094  1.00 20.00     0.241 C 
HETATM   10  O10 UNL     1     -33.771   5.096   6.950  1.00 20.00    -0.306 OA
ENDBRANCH   6   9
TORSDOF 1
