REMARK  0 active torsions:
REMARK  status: ('A' for Active; 'I' for Inactive)
ROOT
HETATM    1  C1  UNL     1     -32.955   7.467   4.243  1.00 20.00     0.037 C 
HETATM    2  C2  UNL     1     -33.301   5.646   3.166  1.00 20.00     0.017 C 
HETATM    3  C3  UNL     1     -32.700   8.767   4.425  1.00 20.00    -0.063 C 
HETATM    4  C4  UNL     1     -33.537   6.569   5.295  1.00 20.00     0.074 C 
HETATM    5  C5  UNL     1     -34.030   5.374   4.468  1.00 20.00    -0.002 C 
HETATM    6  C6  UNL     1     -33.262   4.645   2.053  1.00 20.00     0.066 C 
HETATM    7  C7  UNL     1     -32.115   9.625   3.339  1.00 20.00     0.045 C 
HETATM    8  C8  UNL     1     -32.979   9.459   5.729  1.00 20.00     0.045 C 
HETATM    9  C9  UNL     1     -33.621   4.047   5.101  1.00 20.00     0.021 C 
HETATM   10  C10 UNL     1     -35.542   5.432   4.241  1.00 20.00     0.021 C 
HETATM   11  N11 UNL     1     -32.738   6.809   3.058  1.00 20.00    -0.262 NA
ENDROOT
TORSDOF 0
