REMARK  2 active torsions:
REMARK  status: ('A' for Active; 'I' for Inactive)
REMARK    1  A    between atoms: C2_2  and  C3_3 
REMARK    2  A    between atoms: C4_4  and  C5_5 
ROOT
HETATM    1  C1  UNL     1     -32.084   7.670   1.456  1.00 20.00    -0.020 C 
HETATM    2  C2  UNL     1     -32.733   8.409   2.363  1.00 20.00    -0.062 C 
HETATM    3  C6  UNL     1     -31.822   8.440   0.204  1.00 20.00     0.028 C 
HETATM    4  C7  UNL     1     -33.007   9.791   1.861  1.00 20.00     0.038 C 
HETATM    5  C8  UNL     1     -32.721   9.665   0.364  1.00 20.00     0.008 C 
ENDROOT
BRANCH   2   6
HETATM    6  C3  UNL     1     -33.123   7.990   3.672  1.00 20.00     0.010 C 
HETATM    7  C4  UNL     1     -33.610   6.767   3.939  1.00 20.00     0.050 C 
BRANCH   7   8
HETATM    8  C5  UNL     1     -34.000   6.390   5.326  1.00 20.00     0.145 C 
HETATM    9  C9  UNL     1     -32.916   6.442   6.370  1.00 20.00     0.096 C 
HETATM   10  O10 UNL     1     -35.151   6.073   5.619  1.00 20.00    -0.294 OA
ENDBRANCH   7   8
ENDBRANCH   2   6
TORSDOF 2
