REMARK  2 active torsions:
REMARK  status: ('A' for Active; 'I' for Inactive)
REMARK    1  A    between atoms: C2_2  and  C6_6 
REMARK    2  A    between atoms: C3_3  and  C7_7 
ROOT
HETATM    1  C1  UNL     1     -32.572   8.741   3.927  1.00 20.00     0.100 C 
HETATM    2  C2  UNL     1     -32.312   7.861   2.728  1.00 20.00     0.089 C 
HETATM    3  C3  UNL     1     -33.322   6.837   4.885  1.00 20.00     0.168 C 
HETATM    4  N8  UNL     1     -33.085   8.284   5.026  1.00 20.00    -0.289 NA
HETATM    5  S9  UNL     1     -32.704   6.199   3.304  1.00 20.00    -0.132 SA
ENDROOT
BRANCH   2   6
HETATM    6  C6  UNL     1     -33.207   8.272   1.573  1.00 20.00     0.016 C 
HETATM    7  C4  UNL     1     -32.955   9.683   1.143  1.00 20.00     0.006 C 
ENDBRANCH   2   6
BRANCH   3   8
HETATM    8  C7  UNL     1     -34.817   6.576   5.006  1.00 20.00     0.033 C 
HETATM    9  C5  UNL     1     -35.137   5.118   4.910  1.00 20.00     0.008 C 
ENDBRANCH   3   8
TORSDOF 2
