REMARK  0 active torsions:
REMARK  status: ('A' for Active; 'I' for Inactive)
ROOT
HETATM    1  C1  UNL     1     -33.075   5.512   3.030  1.00 20.00     0.099 C 
HETATM    2  C2  UNL     1     -34.720   5.862   6.150  1.00 20.00    -0.026 C 
HETATM    3  C3  UNL     1     -34.636   5.511   4.860  1.00 20.00     0.019 C 
HETATM    4  C4  UNL     1     -34.194   7.175   6.637  1.00 20.00     0.057 C 
HETATM    5  C5  UNL     1     -33.938   8.160   5.491  1.00 20.00     0.277 C 
HETATM    6  C6  UNL     1     -33.966   6.383   3.821  1.00 20.00     0.350 C 
HETATM    7  C7  UNL     1     -32.853   8.506   3.374  1.00 20.00     0.312 C 
HETATM    8  N8  UNL     1     -32.375   4.827   2.408  1.00 20.00    -0.195 NA
HETATM    9  N9  UNL     1     -33.198   7.512   4.396  1.00 20.00     0.106 N 
ENDROOT
TORSDOF 0
