REMARK  2 active torsions:
REMARK  status: ('A' for Active; 'I' for Inactive)
REMARK    1  A    between atoms: C1_1  and  C8_8 
REMARK    2  A    between atoms: C2_2  and  C3_3 
ROOT
HETATM    1  C1  UNL     1     -33.322   6.885   4.308  1.00 20.00    -0.009 C 
HETATM    2  C3  UNL     1     -33.603   5.691   3.751  1.00 20.00    -0.027 C 
HETATM    3  C4  UNL     1     -33.224   5.173   2.401  1.00 20.00     0.051 C 
ENDROOT
BRANCH   1   4
HETATM    4  C8  UNL     1     -32.570   8.082   3.734  1.00 20.00    -0.033 C 
HETATM    5  C5  UNL     1     -32.547   9.197   4.806  1.00 20.00     0.018 C 
HETATM    6  C6  UNL     1     -31.110   7.716   3.416  1.00 20.00     0.018 C 
HETATM    7  C7  UNL     1     -33.266   8.663   2.490  1.00 20.00     0.018 C 
ENDBRANCH   1   4
BRANCH   2   8
HETATM    8  C2  UNL     1     -34.390   4.756   4.608  1.00 20.00     0.265 C 
HETATM    9  O9  UNL     1     -34.759   5.038   5.742  1.00 20.00    -0.302 OA
ENDBRANCH   2   8
TORSDOF 2
