REMARK  3 active torsions:
REMARK  status: ('A' for Active; 'I' for Inactive)
REMARK    1  A    between atoms: C1_1  and  C5_5 
REMARK    2  A    between atoms: C6_6  and  C8_8 
REMARK    3  A    between atoms: C8_8  and  C9_9 
ROOT
HETATM    1  C2  UNL     1     -34.653   7.921   3.406  1.00 20.00     0.028 C 
HETATM    2  C3  UNL     1     -32.716   7.047   3.315  1.00 20.00     0.028 C 
HETATM    3  C4  UNL     1     -33.284   8.200   5.009  1.00 20.00     0.028 C 
HETATM    4  C5  UNL     1     -33.882   6.945   4.328  1.00 20.00     0.038 C 
HETATM    5  C6  UNL     1     -33.200   8.548   3.466  1.00 20.00    -0.037 C 
ENDROOT
BRANCH   4   6
HETATM    6  C1  UNL     1     -34.406   5.717   4.984  1.00 20.00     0.227 C 
HETATM    7  O10 UNL     1     -34.857   4.779   4.333  1.00 20.00    -0.279 OA
HETATM    8 CL11 UNL     1     -34.289   5.800   6.716  1.00 20.00    -0.043 Cl
ENDBRANCH   4   6
BRANCH   5   9
HETATM    9  C8  UNL     1     -32.681   9.767   2.811  1.00 20.00     0.009 C 
BRANCH   9  10
HETATM   10  C9  UNL     1     -33.172   9.924   1.356  1.00 20.00    -0.004 C 
HETATM   11  C7  UNL     1     -32.725   8.784   0.454  1.00 20.00     0.005 C 
ENDBRANCH   9  10
ENDBRANCH   5   9
TORSDOF 3
