REMARK  0 active torsions:
REMARK  status: ('A' for Active; 'I' for Inactive)
ROOT
HETATM    1  C1  UNL     1     -33.716   7.049   6.424  1.00 20.00     0.149 C 
HETATM    2  C2  UNL     1     -33.413   7.350   5.154  1.00 20.00     0.010 C 
HETATM    3  C3  UNL     1     -33.734   6.415   4.028  1.00 20.00     0.050 C 
HETATM    4  C4  UNL     1     -34.708   5.334   4.494  1.00 20.00     0.032 C 
HETATM    5  C5  UNL     1     -34.310   4.833   5.877  1.00 20.00     0.174 C 
HETATM    6  O6  UNL     1     -34.288   5.879   6.857  1.00 20.00    -0.362 OA
HETATM    7 BR7  UNL     1     -32.621   8.967   4.672  1.00 20.00    -0.054 Br
ENDROOT
TORSDOF 0
