REMARK  2 active torsions:
REMARK  status: ('A' for Active; 'I' for Inactive)
REMARK    1  A    between atoms: C2_2  and  C7_7 
REMARK    2  A    between atoms: C3_3  and  C7_7 
ROOT
HETATM    1  C6  UNL     1     -33.993   5.462   6.725  1.00 20.00     0.022 C 
HETATM    2  C7  UNL     1     -34.012   6.113   5.345  1.00 20.00     0.073 C 
ENDROOT
BRANCH   2   3
HETATM    3  C2  UNL     1     -32.969   7.189   5.232  1.00 20.00    -0.019 C 
HETATM    4  C1  UNL     1     -33.253   8.470   4.956  1.00 20.00    -0.034 C 
HETATM    5  C4  UNL     1     -32.222   9.545   4.845  1.00 20.00     0.036 C 
ENDBRANCH   2   3
BRANCH   2   6
HETATM    6  C3  UNL     1     -33.721   5.086   4.256  1.00 20.00     0.130 C 
HETATM    7  C5  UNL     1     -33.073   5.599   2.994  1.00 20.00     0.091 C 
HETATM    8  O8  UNL     1     -34.031   3.900   4.369  1.00 20.00    -0.298 OA
ENDBRANCH   2   6
TORSDOF 2
