REMARK  3 active torsions:
REMARK  status: ('A' for Active; 'I' for Inactive)
REMARK    1  A    between atoms: C2_2  and  C7_7 
REMARK    2  A    between atoms: C5_5  and  C8_8 
REMARK    3  A    between atoms: C7_7  and  C8_8 
ROOT
HETATM    1  C3  UNL     1     -34.013   6.983   6.643  1.00 20.00     0.281 C 
HETATM    2  C4  UNL     1     -34.865   5.886   6.024  1.00 20.00     0.106 C 
HETATM    3  C5  UNL     1     -33.610   7.513   4.373  1.00 20.00     0.282 C 
HETATM    4  N9  UNL     1     -33.932   8.095   5.685  1.00 20.00     0.098 N 
HETATM    5  S10 UNL     1     -34.332   5.845   4.299  1.00 20.00    -0.132 SA
HETATM    6  H25 UNL     1     -34.815   8.598   5.643  1.00 20.00     0.317 HD
ENDROOT
BRANCH   3   7
HETATM    7  C8  UNL     1     -32.101   7.450   4.159  1.00 20.00     0.050 C 
BRANCH   7   8
HETATM    8  C7  UNL     1     -31.753   7.288   2.679  1.00 20.00     0.030 C 
BRANCH   8   9
HETATM    9  C2  UNL     1     -32.301   8.424   1.864  1.00 20.00    -0.031 C 
HETATM   10  C1  UNL     1     -32.632   8.320   0.568  1.00 20.00    -0.035 C 
HETATM   11  C6  UNL     1     -33.171   9.450  -0.245  1.00 20.00     0.036 C 
ENDBRANCH   8   9
ENDBRANCH   7   8
ENDBRANCH   3   7
TORSDOF 3
