REMARK  3 active torsions:
REMARK  status: ('A' for Active; 'I' for Inactive)
REMARK    1  A    between atoms: C5_5  and  N8_8 
REMARK    2  A    between atoms: C6_6  and  C7_7 
REMARK    3  A    between atoms: C7_7  and  N8_8 
ROOT
HETATM    1  C1  UNL     1     -32.906   4.908   2.142  1.00 20.00     0.013 C 
HETATM    2  C2  UNL     1     -32.801   6.039   2.532  1.00 20.00    -0.087 C 
HETATM    3  C5  UNL     1     -32.672   7.420   3.003  1.00 20.00     0.364 C 
ENDROOT
BRANCH   3   4
HETATM    4  N8  UNL     1     -32.964   7.508   4.433  1.00 20.00     0.095 N 
HETATM    5  C4  UNL     1     -32.396   8.731   4.997  1.00 20.00     0.310 C 
BRANCH   4   6
HETATM    6  C7  UNL     1     -34.408   7.461   4.664  1.00 20.00     0.272 C 
BRANCH   6   7
HETATM    7  C6  UNL     1     -34.965   6.045   4.572  1.00 20.00     0.026 C 
HETATM    8  C3  UNL     1     -34.356   5.105   5.603  1.00 20.00     0.007 C 
ENDBRANCH   6   7
ENDBRANCH   4   6
ENDBRANCH   3   4
TORSDOF 3
