REMARK  0 active torsions:
REMARK  status: ('A' for Active; 'I' for Inactive)
ROOT
HETATM    1  C1  UNL     1     -33.108   6.929   4.265  1.00 20.00     0.292 C 
HETATM    2  C2  UNL     1     -33.297   7.142   6.601  1.00 20.00     0.346 C 
HETATM    3  C3  UNL     1     -34.051   5.730   4.484  1.00 20.00     0.029 C 
HETATM    4  C4  UNL     1     -33.554   4.485   3.753  1.00 20.00     0.028 C 
HETATM    5  C5  UNL     1     -35.496   6.050   4.086  1.00 20.00     0.028 C 
HETATM    6  C6  UNL     1     -32.455   9.016   5.319  1.00 20.00     0.310 C 
HETATM    7  N7  UNL     1     -33.377   7.889   5.344  1.00 20.00     0.094 N 
HETATM    8  S8  UNL     1     -33.975   5.483   6.294  1.00 20.00    -0.128 SA
ENDROOT
TORSDOF 0
