REMARK  0 active torsions:
REMARK  status: ('A' for Active; 'I' for Inactive)
ROOT
HETATM    1  C1  UNL     1     -32.333   7.102   2.062  1.00 20.00     0.143 A 
HETATM    2  C2  UNL     1     -33.329   5.607   3.434  1.00 20.00     0.059 A 
HETATM    3  C3  UNL     1     -33.690   6.629   4.293  1.00 20.00     0.063 A 
HETATM    4  C4  UNL     1     -32.699   8.129   2.920  1.00 20.00     0.048 A 
HETATM    5  C5  UNL     1     -33.841   4.283   3.915  1.00 20.00     0.062 C 
HETATM    6  C6  UNL     1     -34.124   4.606   5.392  1.00 20.00     0.016 C 
HETATM    7  C7  UNL     1     -34.498   6.104   5.450  1.00 20.00     0.036 C 
HETATM    8  C8  UNL     1     -32.327   9.536   2.600  1.00 20.00     0.072 C 
HETATM    9  C9  UNL     1     -34.158   6.741   6.786  1.00 20.00     0.016 C 
HETATM   10  N10 UNL     1     -32.648   5.809   2.299  1.00 20.00    -0.261 NA
HETATM   11  N11 UNL     1     -33.396   7.915   4.058  1.00 20.00    -0.254 NA
ENDROOT
TORSDOF 0
