REMARK  2 active torsions:
REMARK  status: ('A' for Active; 'I' for Inactive)
REMARK    1  A    between atoms: C1_1  and  C6_6 
REMARK    2  A    between atoms: C7_7  and  N8_8 
ROOT
HETATM    1  C3  UNL     1     -35.969   6.134   4.247  1.00 20.00     0.039 C 
HETATM    2  C4  UNL     1     -34.253   4.308   4.444  1.00 20.00     0.039 C 
HETATM    3  C5  UNL     1     -34.410   6.077   6.222  1.00 20.00     0.039 C 
HETATM    4  C7  UNL     1     -34.564   5.776   4.731  1.00 20.00     0.042 C 
ENDROOT
BRANCH   4   5
HETATM    5  N8  UNL     1     -33.595   6.595   3.989  1.00 20.00    -0.296 NA
HETATM    6  C1  UNL     1     -33.780   7.854   4.166  1.00 20.00     0.084 C 
BRANCH   6   7
HETATM    7  C6  UNL     1     -32.890   8.853   3.482  1.00 20.00     0.042 C 
HETATM    8  C2  UNL     1     -32.151   9.680   4.516  1.00 20.00     0.010 C 
ENDBRANCH   6   7
ENDBRANCH   4   5
TORSDOF 2
