REMARK  1 active torsions:
REMARK  status: ('A' for Active; 'I' for Inactive)
REMARK    1  A    between atoms: C1_1  and  C6_6 
ROOT
HETATM    1  C2  UNL     1     -34.641   5.787   6.971  1.00 20.00     0.001 C 
HETATM    2  C3  UNL     1     -33.792   7.048   6.845  1.00 20.00     0.011 C 
HETATM    3  C4  UNL     1     -34.232   4.726   5.949  1.00 20.00     0.009 C 
HETATM    4  C5  UNL     1     -33.397   6.543   4.398  1.00 20.00     0.020 C 
HETATM    5  C6  UNL     1     -33.812   7.604   5.422  1.00 20.00     0.048 C 
HETATM    6  C7  UNL     1     -34.230   5.244   4.493  1.00 20.00    -0.047 C 
HETATM    7  C8  UNL     1     -33.595   4.174   3.584  1.00 20.00     0.015 C 
HETATM    8  C9  UNL     1     -35.670   5.487   4.002  1.00 20.00     0.015 C 
ENDROOT
BRANCH   5   9
HETATM    9  C1  UNL     1     -32.879   8.775   5.343  1.00 20.00     0.235 C 
HETATM   10  O10 UNL     1     -31.929   8.831   4.569  1.00 20.00    -0.306 OA
ENDBRANCH   5   9
TORSDOF 1
