REMARK  0 active torsions:
REMARK  status: ('A' for Active; 'I' for Inactive)
ROOT
HETATM    1  C1  UNL     1     -34.148   4.866   5.005  1.00 20.00     0.131 C 
HETATM    2  C2  UNL     1     -34.159   4.856   6.510  1.00 20.00     0.079 C 
HETATM    3  C3  UNL     1     -34.947   6.117   6.836  1.00 20.00     0.013 C 
HETATM    4  C4  UNL     1     -33.416   6.837   3.591  1.00 20.00     0.021 C 
HETATM    5  C5  UNL     1     -33.365   7.851   5.778  1.00 20.00     0.014 C 
HETATM    6  C6  UNL     1     -34.534   6.214   4.429  1.00 20.00     0.060 C 
HETATM    7  C7  UNL     1     -34.682   7.080   5.686  1.00 20.00    -0.002 C 
HETATM    8  C8  UNL     1     -33.007   8.139   4.311  1.00 20.00    -0.047 C 
HETATM    9  C9  UNL     1     -31.512   8.426   4.151  1.00 20.00     0.015 C 
HETATM   10  C10 UNL     1     -33.807   9.335   3.765  1.00 20.00     0.015 C 
HETATM   11  O11 UNL     1     -33.832   3.897   4.324  1.00 20.00    -0.298 OA
ENDROOT
TORSDOF 0
