REMARK  1 active torsions:
REMARK  status: ('A' for Active; 'I' for Inactive)
REMARK    1  A    between atoms: C1_1  and  C5_5 
ROOT
HETATM    1  C2  UNL     1     -33.658   5.285   6.720  1.00 20.00     0.006 C 
HETATM    2  C3  UNL     1     -34.724   4.669   5.803  1.00 20.00     0.006 C 
HETATM    3  C4  UNL     1     -34.914   7.013   5.685  1.00 20.00     0.011 C 
HETATM    4  C5  UNL     1     -32.707   6.606   4.814  1.00 20.00     0.059 C 
HETATM    5  C6  UNL     1     -33.489   6.704   6.147  1.00 20.00    -0.003 C 
HETATM    6  C7  UNL     1     -34.983   5.784   4.771  1.00 20.00    -0.006 C 
HETATM    7  C8  UNL     1     -33.756   6.009   3.825  1.00 20.00    -0.034 C 
HETATM    8  C9  UNL     1     -34.152   6.953   2.669  1.00 20.00     0.016 C 
HETATM    9  C10 UNL     1     -33.232   4.713   3.185  1.00 20.00     0.016 C 
ENDROOT
BRANCH   4  10
HETATM   10  C1  UNL     1     -32.155   7.946   4.424  1.00 20.00     0.236 C 
HETATM   11  O11 UNL     1     -32.323   8.965   5.085  1.00 20.00    -0.306 OA
ENDBRANCH   4  10
TORSDOF 1
