REMARK  0 active torsions:
REMARK  status: ('A' for Active; 'I' for Inactive)
ROOT
HETATM    1  C1  UNL     1     -33.174   7.050   4.673  1.00 20.00     0.011 C 
HETATM    2  C2  UNL     1     -32.248   7.656   3.655  1.00 20.00     0.054 C 
HETATM    3  C3  UNL     1     -32.539   6.808   2.416  1.00 20.00     0.006 C 
HETATM    4  C4  UNL     1     -34.961   5.675   6.312  1.00 20.00     0.022 C 
HETATM    5  C5  UNL     1     -33.104   5.491   2.953  1.00 20.00     0.011 C 
HETATM    6  C6  UNL     1     -34.335   4.916   5.150  1.00 20.00     0.012 C 
HETATM    7  C7  UNL     1     -33.993   6.710   6.882  1.00 20.00     0.148 C 
HETATM    8  C8  UNL     1     -34.006   5.943   4.094  1.00 20.00     0.033 C 
HETATM    9  N9  UNL     1     -33.192   7.445   5.894  1.00 20.00    -0.298 NA
ENDROOT
TORSDOF 0
