REMARK  2 active torsions:
REMARK  status: ('A' for Active; 'I' for Inactive)
REMARK    1  A    between atoms: C1_1  and  S9_9 
REMARK    2  A    between atoms: C2_2  and  N7_7 
ROOT
HETATM    1  C1  UNL     1     -33.573   6.728   4.529  1.00 20.00     0.102 C 
HETATM    2  C2  UNL     1     -32.853   6.660   3.392  1.00 20.00     0.011 C 
HETATM    3  C3  UNL     1     -32.828   5.363   2.623  1.00 20.00     0.068 C 
ENDROOT
BRANCH   2   4
HETATM    4  N7  UNL     1     -32.112   7.664   2.830  1.00 20.00    -0.393 N 
HETATM    5  C4  UNL     1     -31.917   7.743   1.390  1.00 20.00     0.148 C 
HETATM    6  C5  UNL     1     -31.699   8.825   3.604  1.00 20.00     0.148 C 
ENDBRANCH   2   4
BRANCH   1   7
HETATM    7  S9  UNL     1     -34.497   5.329   5.150  1.00 20.00     0.036 S 
HETATM    8  C6  UNL     1     -36.041   5.691   4.284  1.00 20.00     0.132 C 
HETATM    9  O8  UNL     1     -34.705   5.597   6.610  1.00 20.00    -0.254 OA
ENDBRANCH   1   7
TORSDOF 2
