REMARK  1 active torsions:
REMARK  status: ('A' for Active; 'I' for Inactive)
REMARK    1  A    between atoms: C10_10  and  O11_11 
ROOT
HETATM    1  C1  UNL     1     -35.577   6.064   5.026  1.00 20.00    -0.025 C 
HETATM    2  C2  UNL     1     -34.895   5.425   4.065  1.00 20.00    -0.025 C 
HETATM    3  C3  UNL     1     -33.690   8.387   5.570  1.00 20.00     0.008 C 
HETATM    4  C4  UNL     1     -33.439   8.340   4.066  1.00 20.00     0.032 C 
HETATM    5  C5  UNL     1     -34.080   4.671   6.079  1.00 20.00     0.018 C 
HETATM    6  C6  UNL     1     -34.718   6.057   6.266  1.00 20.00     0.013 C 
HETATM    7  C7  UNL     1     -33.578   4.991   4.661  1.00 20.00     0.015 C 
HETATM    8  C8  UNL     1     -33.470   6.964   6.081  1.00 20.00     0.000 C 
HETATM    9  C9  UNL     1     -32.671   6.213   4.970  1.00 20.00     0.027 C 
HETATM   10  C10 UNL     1     -32.385   7.252   3.886  1.00 20.00     0.123 C 
ENDROOT
BRANCH  10  11
HETATM   11  O11 UNL     1     -32.419   6.715   2.579  1.00 20.00    -0.395 OA
HETATM   12  H25 UNL     1     -32.244   7.447   1.962  1.00 20.00     0.210 HD
ENDBRANCH  10  11
TORSDOF 1
