REMARK  0 active torsions:
REMARK  status: ('A' for Active; 'I' for Inactive)
ROOT
HETATM    1  C1  UNL     1     -33.244   5.888   3.241  1.00 20.00     0.135 C 
HETATM    2  C2  UNL     1     -33.132   8.129   4.109  1.00 20.00     0.092 C 
HETATM    3  C3  UNL     1     -34.152   7.513   5.076  1.00 20.00     0.073 C 
HETATM    4  C4  UNL     1     -32.091   9.034   4.751  1.00 20.00     0.033 C 
HETATM    5  C5  UNL     1     -33.602   7.095   6.436  1.00 20.00     0.024 C 
HETATM    6  N6  UNL     1     -32.510   7.042   3.378  1.00 20.00    -0.370 N 
HETATM    7  S7  UNL     1     -32.790   4.582   2.323  1.00 20.00    -0.053 SA
HETATM    8  S8  UNL     1     -34.718   6.017   4.182  1.00 20.00    -0.094 SA
HETATM    9  H17 UNL     1     -31.553   7.102   3.053  1.00 20.00     0.161 HD
ENDROOT
TORSDOF 0
