REMARK  3 active torsions:
REMARK  status: ('A' for Active; 'I' for Inactive)
REMARK    1  A    between atoms: C1_1  and  C7_7 
REMARK    2  A    between atoms: C6_6  and  C7_7 
REMARK    3  A    between atoms: C6_6  and  C8_8 
ROOT
HETATM    1  C6  UNL     1     -34.211   7.394   4.411  1.00 20.00     0.019 C 
ENDROOT
BRANCH   1   2
HETATM    2  C7  UNL     1     -32.792   7.841   4.810  1.00 20.00     0.043 C 
HETATM    3  C2  UNL     1     -32.762   9.346   5.078  1.00 20.00     0.017 C 
BRANCH   2   4
HETATM    4  C1  UNL     1     -31.801   7.570   3.698  1.00 20.00     0.235 C 
HETATM    5  O9  UNL     1     -32.114   7.532   2.512  1.00 20.00    -0.306 OA
ENDBRANCH   2   4
ENDBRANCH   1   2
BRANCH   1   6
HETATM    6  C8  UNL     1     -34.525   5.872   4.495  1.00 20.00    -0.051 C 
HETATM    7  C3  UNL     1     -35.949   5.543   4.023  1.00 20.00     0.014 C 
HETATM    8  C4  UNL     1     -33.518   5.055   3.666  1.00 20.00     0.014 C 
HETATM    9  C5  UNL     1     -34.394   5.443   5.971  1.00 20.00     0.014 C 
ENDBRANCH   1   6
TORSDOF 3
