REMARK  2 active torsions:
REMARK  status: ('A' for Active; 'I' for Inactive)
REMARK    1  A    between atoms: C7_7  and  C10_10 
REMARK    2  A    between atoms: C7_7  and  O11_11 
ROOT
HETATM    1  C1  UNL     1     -32.670   7.211   1.781  1.00 20.00     0.000 C 
HETATM    2  C2  UNL     1     -32.692   8.669   2.225  1.00 20.00     0.000 C 
HETATM    3  C3  UNL     1     -32.192   6.219   2.836  1.00 20.00     0.003 C 
HETATM    4  C4  UNL     1     -33.066   8.950   3.676  1.00 20.00     0.003 C 
HETATM    5  C5  UNL     1     -33.326   5.736   3.743  1.00 20.00     0.038 C 
HETATM    6  C6  UNL     1     -34.223   8.113   4.225  1.00 20.00     0.038 C 
HETATM    7  C7  UNL     1     -33.818   6.741   4.798  1.00 20.00     0.061 C 
ENDROOT
BRANCH   7   8
HETATM    8  C10 UNL     1     -35.014   6.135   5.547  1.00 20.00     0.012 C 
HETATM    9  C8  UNL     1     -36.161   5.864   4.581  1.00 20.00     0.012 C 
HETATM   10  C9  UNL     1     -34.596   4.858   6.266  1.00 20.00     0.012 C 
ENDBRANCH   7   8
BRANCH   7  11
HETATM   11  O11 UNL     1     -32.778   6.944   5.762  1.00 20.00    -0.389 OA
HETATM   12  H31 UNL     1     -33.130   7.578   6.401  1.00 20.00     0.210 HD
ENDBRANCH   7  11
TORSDOF 2
