REMARK  0 active torsions:
REMARK  status: ('A' for Active; 'I' for Inactive)
ROOT
HETATM    1  C1  UNL     1     -33.240   4.390   2.120  1.00 20.00     0.015 C 
HETATM    2  C2  UNL     1     -33.554   4.870   3.175  1.00 20.00    -0.071 C 
HETATM    3  C3  UNL     1     -32.684   7.620   4.235  1.00 20.00     0.039 C 
HETATM    4  C4  UNL     1     -33.274   6.757   6.475  1.00 20.00     0.039 C 
HETATM    5  C5  UNL     1     -34.031   8.362   4.227  1.00 20.00     0.273 C 
HETATM    6  C6  UNL     1     -34.635   7.464   6.377  1.00 20.00     0.273 C 
HETATM    7  C7  UNL     1     -35.234   6.281   4.361  1.00 20.00     0.329 C 
HETATM    8  C8  UNL     1     -32.820   6.332   5.067  1.00 20.00     0.043 C 
HETATM    9  C9  UNL     1     -33.937   5.457   4.466  1.00 20.00     0.195 C 
HETATM   10  N10 UNL     1     -35.074   7.623   4.973  1.00 20.00     0.092 N 
HETATM   11  F11 UNL     1     -34.160   4.411   5.314  1.00 20.00    -0.227 F 
ENDROOT
TORSDOF 0
