REMARK  2 active torsions:
REMARK  status: ('A' for Active; 'I' for Inactive)
REMARK    1  A    between atoms: C6_6  and  C10_10 
REMARK    2  A    between atoms: C7_7  and  C11_11 
ROOT
HETATM    1  C1  UNL     1     -32.822   9.010   0.335  1.00 20.00     0.059 C 
HETATM    2  C10 UNL     1     -32.136   7.941   1.048  1.00 20.00     0.128 C 
HETATM    3  N12 UNL     1     -33.345   9.862  -0.255  1.00 20.00    -0.197 NA
ENDROOT
BRANCH   2   4
HETATM    4  C6  UNL     1     -33.069   7.606   2.210  1.00 20.00    -0.002 C 
HETATM    5  C2  UNL     1     -32.791   6.193   2.738  1.00 20.00     0.006 C 
HETATM    6  C4  UNL     1     -33.678   5.853   3.934  1.00 20.00     0.005 C 
HETATM    7  C7  UNL     1     -33.540   6.891   5.056  1.00 20.00    -0.011 C 
HETATM    8  C5  UNL     1     -33.819   8.303   4.527  1.00 20.00     0.005 C 
HETATM    9  C3  UNL     1     -32.932   8.644   3.331  1.00 20.00     0.006 C 
BRANCH   7  10
HETATM   10  C11 UNL     1     -34.472   6.556   6.218  1.00 20.00    -0.019 C 
HETATM   11  C8  UNL     1     -34.163   5.167   6.771  1.00 20.00     0.010 C 
HETATM   12  C9  UNL     1     -34.359   7.609   7.317  1.00 20.00     0.010 C 
ENDBRANCH   7  10
ENDBRANCH   2   4
TORSDOF 2
