REMARK  0 active torsions:
REMARK  status: ('A' for Active; 'I' for Inactive)
ROOT
HETATM    1  C1  UNL     1     -33.040   8.019   5.067  1.00 20.00     0.124 C 
HETATM    2  C2  UNL     1     -33.637   6.290   6.665  1.00 20.00     0.024 C 
HETATM    3  C3  UNL     1     -33.579   6.762   5.423  1.00 20.00     0.145 C 
HETATM    4  C4  UNL     1     -34.310   4.974   6.640  1.00 20.00     0.057 C 
HETATM    5  C5  UNL     1     -34.379   4.706   5.140  1.00 20.00     0.180 C 
HETATM    6  N6  UNL     1     -32.597   9.050   4.775  1.00 20.00    -0.189 NA
HETATM    7  O7  UNL     1     -34.130   5.944   4.444  1.00 20.00    -0.341 OA
ENDROOT
TORSDOF 0
