REMARK  1 active torsions:
REMARK  status: ('A' for Active; 'I' for Inactive)
REMARK    1  A    between atoms: C4_4  and  C7_7 
ROOT
HETATM    1  C1  UNL     1     -32.297   7.497   1.583  1.00 20.00     0.035 A 
HETATM    2  C2  UNL     1     -32.356   6.433   2.388  1.00 20.00    -0.008 A 
HETATM    3  C3  UNL     1     -32.823   8.708   2.225  1.00 20.00     0.085 A 
HETATM    4  C4  UNL     1     -32.918   6.609   3.763  1.00 20.00     0.080 A 
HETATM    5  N8  UNL     1     -32.898   9.878   1.700  1.00 20.00    -0.293 NA
HETATM    6  S9  UNL     1     -33.362   8.379   3.857  1.00 20.00    -0.102 SA
HETATM    7  H20 UNL     1     -32.528   9.849   0.743  1.00 20.00     0.187 HD
ENDROOT
BRANCH   4   8
HETATM    8  C7  UNL     1     -34.144   5.741   4.004  1.00 20.00    -0.005 C 
HETATM    9  C5  UNL     1     -33.810   4.262   3.806  1.00 20.00     0.011 C 
HETATM   10  C6  UNL     1     -34.708   5.976   5.406  1.00 20.00     0.011 C 
ENDBRANCH   4   8
TORSDOF 1
