REMARK  2 active torsions:
REMARK  status: ('A' for Active; 'I' for Inactive)
REMARK    1  A    between atoms: C1_1  and  C3_3 
REMARK    2  A    between atoms: C1_1  and  C8_8 
ROOT
HETATM    1  C1  UNL     1     -34.123   6.508   4.276  1.00 20.00     0.134 C 
HETATM    2  O9  UNL     1     -34.957   5.691   3.886  1.00 20.00    -0.297 OA
ENDROOT
BRANCH   1   3
HETATM    3  C3  UNL     1     -34.372   7.332   5.514  1.00 20.00     0.060 A 
HETATM    4  C2  UNL     1     -33.355   7.288   6.600  1.00 20.00     0.017 A 
HETATM    5  C4  UNL     1     -34.702   6.652   6.797  1.00 20.00    -0.007 A 
HETATM    6  C5  UNL     1     -34.814   5.173   6.939  1.00 20.00     0.011 C 
ENDBRANCH   1   3
BRANCH   1   7
HETATM    7  C8  UNL     1     -32.788   6.717   3.566  1.00 20.00     0.048 C 
HETATM    8  C6  UNL     1     -32.695   5.797   2.355  1.00 20.00     0.017 C 
HETATM    9  C7  UNL     1     -32.609   8.176   3.156  1.00 20.00     0.017 C 
ENDBRANCH   1   7
TORSDOF 2
