REMARK  2 active torsions:
REMARK  status: ('A' for Active; 'I' for Inactive)
REMARK    1  A    between atoms: C3_3  and  C7_7 
REMARK    2  A    between atoms: C3_3  and  O11_11 
ROOT
HETATM    1  C1  UNL     1     -33.689   7.126   4.924  1.00 20.00    -0.070 C 
HETATM    2  C2  UNL     1     -34.387   6.109   5.444  1.00 20.00    -0.027 C 
HETATM    3  C4  UNL     1     -32.890   8.103   5.740  1.00 20.00     0.034 C 
HETATM    4  C5  UNL     1     -32.025   8.802   4.700  1.00 20.00     0.005 C 
HETATM    5  C6  UNL     1     -32.886   8.808   3.441  1.00 20.00     0.019 C 
HETATM    6  C7  UNL     1     -33.604   7.461   3.460  1.00 20.00     0.114 C 
HETATM    7  C8  UNL     1     -34.465   5.812   6.904  1.00 20.00     0.036 C 
ENDROOT
BRANCH   6   8
HETATM    8  C3  UNL     1     -32.801   6.404   2.762  1.00 20.00     0.266 C 
HETATM    9  O10 UNL     1     -31.737   6.614   2.195  1.00 20.00    -0.265 OA
BRANCH   8  10
HETATM   10  O11 UNL     1     -33.442   5.204   2.863  1.00 20.00    -0.326 OA
HETATM   11  C9  UNL     1     -32.782   4.100   2.236  1.00 20.00     0.213 C 
ENDBRANCH   8  10
ENDBRANCH   6   8
TORSDOF 2
