REMARK  0 active torsions:
REMARK  status: ('A' for Active; 'I' for Inactive)
ROOT
HETATM    1  C1  UNL     1     -33.336   6.740   3.933  1.00 20.00     0.134 C 
HETATM    2  C2  UNL     1     -33.005   7.344   5.285  1.00 20.00     0.109 C 
HETATM    3  C3  UNL     1     -33.914   4.499   4.853  1.00 20.00     0.044 C 
HETATM    4  C4  UNL     1     -34.223   7.332   6.220  1.00 20.00     0.280 C 
HETATM    5  C5  UNL     1     -34.447   4.900   6.232  1.00 20.00     0.273 C 
HETATM    6  C6  UNL     1     -35.606   6.153   4.650  1.00 20.00     0.284 C 
HETATM    7  C7  UNL     1     -34.374   5.629   3.939  1.00 20.00     0.085 C 
HETATM    8  N8  UNL     1     -35.148   6.189   6.054  1.00 20.00     0.089 N 
HETATM    9  O9  UNL     1     -32.748   7.079   2.908  1.00 20.00    -0.297 OA
ENDROOT
TORSDOF 0
