REMARK  1 active torsions:
REMARK  status: ('A' for Active; 'I' for Inactive)
REMARK    1  A    between atoms: C1_1  and  C4_4 
ROOT
HETATM    1  C2  UNL     1     -35.549   6.205   5.092  1.00 20.00     0.035 C 
HETATM    2  C3  UNL     1     -33.858   6.128   6.400  1.00 20.00     0.035 C 
HETATM    3  C4  UNL     1     -34.357   7.153   5.356  1.00 20.00     0.089 C 
HETATM    4  C5  UNL     1     -34.724   5.053   5.707  1.00 20.00     0.084 C 
HETATM    5 CL8  UNL     1     -33.902   3.916   4.577  1.00 20.00    -0.125 Cl
ENDROOT
BRANCH   3   6
HETATM    6  C1  UNL     1     -33.449   7.372   4.194  1.00 20.00     0.177 C 
HETATM    7  O6  UNL     1     -33.049   6.323   3.616  1.00 20.00    -0.648 OA
HETATM    8  O7  UNL     1     -33.197   8.583   3.939  1.00 20.00    -0.648 OA
ENDBRANCH   3   6
TORSDOF 1
