REMARK  0 active torsions:
REMARK  status: ('A' for Active; 'I' for Inactive)
ROOT
HETATM    1  C1  UNL     1     -33.522   5.402   2.581  1.00 20.00     0.004 C 
HETATM    2  C2  UNL     1     -32.571   6.582   2.735  1.00 20.00     0.027 C 
HETATM    3  C3  UNL     1     -33.856   4.840   3.957  1.00 20.00     0.027 C 
HETATM    4  C4  UNL     1     -33.127   7.683   3.663  1.00 20.00     0.037 C 
HETATM    5  C5  UNL     1     -34.440   5.903   4.912  1.00 20.00     0.037 C 
HETATM    6  C6  UNL     1     -34.187   8.527   2.930  1.00 20.00     0.034 C 
HETATM    7  C7  UNL     1     -31.959   8.625   4.029  1.00 20.00     0.034 C 
HETATM    8  C8  UNL     1     -34.394   5.327   6.345  1.00 20.00     0.034 C 
HETATM    9  C9  UNL     1     -35.918   6.181   4.577  1.00 20.00     0.034 C 
HETATM   10  N10 UNL     1     -33.625   7.128   4.932  1.00 20.00    -0.137 NA
HETATM   11  F11 UNL     1     -34.158   8.096   5.751  1.00 20.00    -0.132 F 
ENDROOT
TORSDOF 0
