REMARK  1 active torsions:
REMARK  status: ('A' for Active; 'I' for Inactive)
REMARK    1  A    between atoms: C3_3  and  C4_4 
ROOT
HETATM    1  C1  UNL     1     -32.453   7.218   3.835  1.00 20.00     0.065 A 
HETATM    2  C2  UNL     1     -31.924   8.401   4.279  1.00 20.00     0.172 A 
HETATM    3  C3  UNL     1     -33.449   6.922   4.781  1.00 20.00     0.169 A 
HETATM    4  N5  UNL     1     -33.531   7.849   5.739  1.00 20.00    -0.124 NA
HETATM    5  O6  UNL     1     -32.559   8.787   5.415  1.00 20.00    -0.225 OA
ENDROOT
BRANCH   3   6
HETATM    6  C4  UNL     1     -34.350   5.758   4.808  1.00 20.00     0.436 C 
HETATM    7  F7  UNL     1     -34.168   4.876   3.770  1.00 20.00    -0.164 F 
HETATM    8  F8  UNL     1     -34.237   4.980   5.935  1.00 20.00    -0.164 F 
HETATM    9  F9  UNL     1     -35.679   6.095   4.749  1.00 20.00    -0.164 F 
ENDBRANCH   3   6
TORSDOF 1
