REMARK  3 active torsions:
REMARK  status: ('A' for Active; 'I' for Inactive)
REMARK    1  A    between atoms: C2_2  and  C9_9 
REMARK    2  A    between atoms: C7_7  and  C9_9 
REMARK    3  A    between atoms: C8_8  and  O10_10 
ROOT
HETATM    1  C3  UNL     1     -33.414   5.545   3.166  1.00 20.00     0.003 C 
HETATM    2  C4  UNL     1     -32.709   6.873   3.431  1.00 20.00     0.005 C 
HETATM    3  C5  UNL     1     -33.995   4.952   4.444  1.00 20.00     0.032 C 
HETATM    4  C6  UNL     1     -34.209   7.272   5.425  1.00 20.00     0.036 C 
HETATM    5  C7  UNL     1     -33.631   7.876   4.139  1.00 20.00    -0.009 C 
HETATM    6  C8  UNL     1     -34.915   5.943   5.155  1.00 20.00     0.118 C 
ENDROOT
BRANCH   5   7
HETATM    7  C9  UNL     1     -32.886   9.175   4.440  1.00 20.00     0.031 C 
BRANCH   7   8
HETATM    8  C2  UNL     1     -32.350   9.795   3.188  1.00 20.00    -0.037 C 
HETATM    9  C1  UNL     1     -32.909   9.641   1.982  1.00 20.00     0.007 C 
ENDBRANCH   7   8
ENDBRANCH   5   7
BRANCH   6  10
HETATM   10  O10 UNL     1     -35.362   5.382   6.384  1.00 20.00    -0.396 OA
HETATM   11  H26 UNL     1     -35.840   4.568   6.160  1.00 20.00     0.210 HD
ENDBRANCH   6  10
TORSDOF 3
