REMARK  2 active torsions:
REMARK  status: ('A' for Active; 'I' for Inactive)
REMARK    1  A    between atoms: C3_3  and  C7_7 
REMARK    2  A    between atoms: C3_3  and  O11_11 
ROOT
HETATM    1  C1  UNL     1     -33.561   7.107   4.746  1.00 20.00    -0.070 C 
HETATM    2  C2  UNL     1     -33.016   7.997   3.907  1.00 20.00    -0.027 C 
HETATM    3  C4  UNL     1     -33.327   7.098   6.231  1.00 20.00     0.034 C 
HETATM    4  C5  UNL     1     -33.851   5.734   6.658  1.00 20.00     0.005 C 
HETATM    5  C6  UNL     1     -34.989   5.448   5.684  1.00 20.00     0.019 C 
HETATM    6  C7  UNL     1     -34.498   6.001   4.348  1.00 20.00     0.114 C 
HETATM    7  C8  UNL     1     -32.116   9.106   4.337  1.00 20.00     0.036 C 
ENDROOT
BRANCH   6   8
HETATM    8  C3  UNL     1     -33.736   4.967   3.575  1.00 20.00     0.266 C 
HETATM    9  O10 UNL     1     -33.583   3.810   3.944  1.00 20.00    -0.265 OA
BRANCH   8  10
HETATM   10  O11 UNL     1     -33.255   5.520   2.425  1.00 20.00    -0.326 OA
HETATM   11  C9  UNL     1     -32.502   4.638   1.587  1.00 20.00     0.213 C 
ENDBRANCH   8  10
ENDBRANCH   6   8
TORSDOF 2
