REMARK  2 active torsions:
REMARK  status: ('A' for Active; 'I' for Inactive)
REMARK    1  A    between atoms: C1_1  and  C3_3 
REMARK    2  A    between atoms: C5_5  and  O10_10 
ROOT
HETATM    1  C2  UNL     1     -34.448   7.795   4.005  1.00 20.00     0.074 C 
HETATM    2  C3  UNL     1     -34.705   6.333   4.318  1.00 20.00     0.080 C 
HETATM    3  C4  UNL     1     -34.638   6.324   5.838  1.00 20.00     0.131 C 
HETATM    4  C5  UNL     1     -33.516   8.239   5.129  1.00 20.00     0.260 C 
HETATM    5  C6  UNL     1     -34.325   4.991   6.492  1.00 20.00     0.040 C 
HETATM    6  O9  UNL     1     -33.648   7.297   6.203  1.00 20.00    -0.356 OA
ENDROOT
BRANCH   2   7
HETATM    7  C1  UNL     1     -33.670   5.475   3.651  1.00 20.00     0.238 C 
HETATM    8  O8  UNL     1     -32.783   5.921   2.931  1.00 20.00    -0.306 OA
ENDBRANCH   2   7
BRANCH   4   9
HETATM    9  O10 UNL     1     -32.166   8.328   4.690  1.00 20.00    -0.366 OA
HETATM   10  C7  UNL     1     -31.926   9.537   3.985  1.00 20.00     0.204 C 
ENDBRANCH   4   9
TORSDOF 2
