REMARK  0 active torsions:
REMARK  status: ('A' for Active; 'I' for Inactive)
ROOT
HETATM    1  C1  UNL     1     -33.846   6.571   5.726  1.00 20.00    -0.013 C 
HETATM    2  C2  UNL     1     -33.031   7.424   5.105  1.00 20.00    -0.066 C 
HETATM    3  C3  UNL     1     -34.009   5.461   4.761  1.00 20.00     0.156 C 
HETATM    4  C4  UNL     1     -32.718   8.858   5.364  1.00 20.00     0.036 C 
HETATM    5  C5  UNL     1     -33.356   5.769   3.434  1.00 20.00     0.093 C 
HETATM    6  C6  UNL     1     -32.272   9.353   3.977  1.00 20.00     0.009 C 
HETATM    7  C7  UNL     1     -32.518   6.989   3.769  1.00 20.00     0.026 C 
HETATM    8  C8  UNL     1     -32.735   8.274   2.978  1.00 20.00    -0.010 C 
HETATM    9  C9  UNL     1     -34.594   6.680   6.996  1.00 20.00     0.052 C 
HETATM   10  C10 UNL     1     -31.966   8.305   1.668  1.00 20.00     0.010 C 
HETATM   11  O11 UNL     1     -34.644   4.445   5.002  1.00 20.00    -0.293 OA
ENDROOT
TORSDOF 0
