REMARK  0 active torsions:
REMARK  status: ('A' for Active; 'I' for Inactive)
ROOT
HETATM    1  C1  UNL     1     -33.917   7.013   5.412  1.00 20.00     0.102 C 
HETATM    2  C2  UNL     1     -35.894   6.019   4.321  1.00 20.00     0.068 C 
HETATM    3  C3  UNL     1     -34.737   4.829   6.212  1.00 20.00     0.068 C 
HETATM    4  C4  UNL     1     -34.565   5.755   5.016  1.00 20.00     0.183 C 
HETATM    5  N5  UNL     1     -33.404   8.006   5.723  1.00 20.00    -0.194 NA
HETATM    6  F6  UNL     1     -33.745   5.133   4.122  1.00 20.00    -0.228 F 
ENDROOT
TORSDOF 0
