REMARK  0 active torsions:
REMARK  status: ('A' for Active; 'I' for Inactive)
ROOT
HETATM    1  C1  UNL     1     -33.496   6.983   5.608  1.00 20.00     0.223 A 
HETATM    2  C2  UNL     1     -33.958   7.047   4.137  1.00 20.00     0.096 A 
HETATM    3  C3  UNL     1     -32.595   7.753   3.876  1.00 20.00     0.093 A 
HETATM    4  C4  UNL     1     -34.169   5.709   3.457  1.00 20.00     0.022 C 
HETATM    5  C5  UNL     1     -32.642   9.195   3.415  1.00 20.00     0.033 C 
HETATM    6  N6  UNL     1     -32.353   7.658   5.312  1.00 20.00    -0.356 N 
HETATM    7  O7  UNL     1     -33.929   6.532   6.644  1.00 20.00    -0.273 OA
HETATM    8  H16 UNL     1     -31.580   7.922   5.906  1.00 20.00     0.162 HD
ENDROOT
TORSDOF 0
