REMARK  2 active torsions:
REMARK  status: ('A' for Active; 'I' for Inactive)
REMARK    1  A    between atoms: C2_2  and  O12_12 
REMARK    2  A    between atoms: C7_7  and  O12_12 
ROOT
HETATM    1  C3  UNL     1     -32.195   7.310   1.182  1.00 20.00     0.036 C 
HETATM    2  C4  UNL     1     -32.792   9.424   2.428  1.00 20.00     0.013 C 
HETATM    3  C5  UNL     1     -31.875   7.425   3.697  1.00 20.00     0.041 C 
HETATM    4  C6  UNL     1     -33.150   8.510   1.246  1.00 20.00    -0.015 C 
HETATM    5  C7  UNL     1     -32.160   6.524   2.492  1.00 20.00     0.128 C 
HETATM    6  C8  UNL     1     -32.763   8.692   3.789  1.00 20.00    -0.045 C 
HETATM    7  C9  UNL     1     -33.109   9.295  -0.066  1.00 20.00     0.010 C 
HETATM    8  C10 UNL     1     -32.157   9.637   4.848  1.00 20.00     0.015 C 
HETATM    9  C11 UNL     1     -34.193   8.347   4.249  1.00 20.00     0.015 C 
ENDROOT
BRANCH   5  10
HETATM   10  O12 UNL     1     -33.390   5.834   2.686  1.00 20.00    -0.359 OA
BRANCH  10  11
HETATM   11  C2  UNL     1     -33.326   4.797   3.510  1.00 20.00     0.125 C 
HETATM   12  C1  UNL     1     -34.331   4.366   4.275  1.00 20.00     0.037 C 
ENDBRANCH  10  11
ENDBRANCH   5  10
TORSDOF 2
