REMARK  2 active torsions:
REMARK  status: ('A' for Active; 'I' for Inactive)
REMARK    1  A    between atoms: C2_2  and  O12_12 
REMARK    2  A    between atoms: C7_7  and  O12_12 
ROOT
HETATM    1  C3  UNL     1     -32.617   5.921   2.991  1.00 20.00     0.036 C 
HETATM    2  C4  UNL     1     -33.464   7.119   5.048  1.00 20.00     0.013 C 
HETATM    3  C5  UNL     1     -31.761   8.245   3.540  1.00 20.00     0.041 C 
HETATM    4  C6  UNL     1     -33.822   6.143   3.916  1.00 20.00    -0.015 C 
HETATM    5  C7  UNL     1     -32.060   7.229   2.434  1.00 20.00     0.128 C 
HETATM    6  C8  UNL     1     -32.917   8.475   4.545  1.00 20.00    -0.045 C 
HETATM    7  C9  UNL     1     -34.303   4.811   4.492  1.00 20.00     0.010 C 
HETATM    8  C10 UNL     1     -32.368   9.265   5.752  1.00 20.00     0.015 C 
HETATM    9  C11 UNL     1     -34.048   9.317   3.923  1.00 20.00     0.015 C 
ENDROOT
BRANCH   5  10
HETATM   10  O12 UNL     1     -32.981   7.763   1.489  1.00 20.00    -0.359 OA
BRANCH  10  11
HETATM   11  C2  UNL     1     -32.454   8.600   0.605  1.00 20.00     0.125 C 
HETATM   12  C1  UNL     1     -33.104   9.616   0.032  1.00 20.00     0.037 C 
ENDBRANCH  10  11
ENDBRANCH   5  10
TORSDOF 2
