REMARK  0 active torsions:
REMARK  status: ('A' for Active; 'I' for Inactive)
ROOT
HETATM    1  C1  UNL     1     -33.645   7.706   6.021  1.00 20.00     0.026 C 
HETATM    2  C2  UNL     1     -33.782   6.177   3.984  1.00 20.00     0.026 C 
HETATM    3  C3  UNL     1     -34.447   6.764   6.911  1.00 20.00     0.075 C 
HETATM    4  C4  UNL     1     -34.596   5.111   4.710  1.00 20.00     0.075 C 
HETATM    5  C5  UNL     1     -34.015   7.577   4.546  1.00 20.00     0.059 C 
HETATM    6  S6  UNL     1     -34.174   5.023   6.474  1.00 20.00    -0.169 SA
HETATM    7 BR7  UNL     1     -32.942   8.854   3.514  1.00 20.00    -0.091 Br
ENDROOT
TORSDOF 0
