REMARK  0 active torsions:
REMARK  status: ('A' for Active; 'I' for Inactive)
ROOT
HETATM    1  C1  UNL     1     -33.745   7.046   5.765  1.00 20.00     0.223 A 
HETATM    2  C2  UNL     1     -34.412   7.125   4.376  1.00 20.00     0.096 A 
HETATM    3  C3  UNL     1     -33.006   7.580   3.872  1.00 20.00     0.093 A 
HETATM    4  C4  UNL     1     -35.012   5.827   3.869  1.00 20.00     0.022 C 
HETATM    5  C5  UNL     1     -32.197   6.694   2.947  1.00 20.00     0.033 C 
HETATM    6  N6  UNL     1     -32.553   7.453   5.253  1.00 20.00    -0.356 N 
HETATM    7  O7  UNL     1     -34.088   6.747   6.886  1.00 20.00    -0.273 OA
HETATM    8  H16 UNL     1     -31.663   7.600   5.710  1.00 20.00     0.162 HD
ENDROOT
TORSDOF 0
