REMARK  0 active torsions:
REMARK  status: ('A' for Active; 'I' for Inactive)
ROOT
HETATM    1  C1  UNL     1     -32.405   8.956   2.138  1.00 20.00     0.015 C 
HETATM    2  C2  UNL     1     -32.565   8.033   2.889  1.00 20.00    -0.083 C 
HETATM    3  C3  UNL     1     -33.037   5.613   3.084  1.00 20.00     0.216 C 
HETATM    4  C4  UNL     1     -32.760   6.911   3.803  1.00 20.00     0.226 C 
HETATM    5  C5  UNL     1     -34.431   5.784   4.864  1.00 20.00     0.158 C 
HETATM    6  C6  UNL     1     -35.914   5.741   4.516  1.00 20.00     0.078 C 
HETATM    7  C7  UNL     1     -34.196   5.450   6.331  1.00 20.00     0.078 C 
HETATM    8  O8  UNL     1     -33.726   4.829   4.058  1.00 20.00    -0.352 OA
HETATM    9  O9  UNL     1     -33.936   7.106   4.595  1.00 20.00    -0.336 OA
ENDROOT
TORSDOF 0
