REMARK  0 active torsions:
REMARK  status: ('A' for Active; 'I' for Inactive)
ROOT
HETATM    1  C1  UNL     1     -31.685   7.796   1.366  1.00 20.00     0.015 C 
HETATM    2  C2  UNL     1     -32.111   7.383   2.410  1.00 20.00    -0.083 C 
HETATM    3  C3  UNL     1     -33.421   7.918   4.440  1.00 20.00     0.216 C 
HETATM    4  C4  UNL     1     -32.629   6.881   3.680  1.00 20.00     0.226 C 
HETATM    5  C5  UNL     1     -34.502   5.928   4.557  1.00 20.00     0.158 C 
HETATM    6  C6  UNL     1     -35.923   5.939   4.005  1.00 20.00     0.078 C 
HETATM    7  C7  UNL     1     -34.281   4.747   5.493  1.00 20.00     0.078 C 
HETATM    8  O8  UNL     1     -34.267   7.141   5.287  1.00 20.00    -0.352 OA
HETATM    9  O9  UNL     1     -33.584   5.838   3.457  1.00 20.00    -0.336 OA
ENDROOT
TORSDOF 0
