REMARK  1 active torsions:
REMARK  status: ('A' for Active; 'I' for Inactive)
REMARK    1  A    between atoms: C1_1  and  C7_7 
ROOT
HETATM    1  C2  UNL     1     -34.468   5.160   3.396  1.00 20.00     0.006 C 
HETATM    2  C3  UNL     1     -35.349   5.744   4.505  1.00 20.00     0.017 C 
HETATM    3  C4  UNL     1     -33.098   5.800   3.574  1.00 20.00     0.069 C 
HETATM    4  C5  UNL     1     -32.275   9.118   4.300  1.00 20.00     0.197 C 
HETATM    5  C6  UNL     1     -32.873   9.014   2.925  1.00 20.00     0.197 C 
HETATM    6  C7  UNL     1     -34.565   6.911   5.121  1.00 20.00     0.109 C 
HETATM    7  C8  UNL     1     -33.421   7.178   4.139  1.00 20.00     0.173 C 
HETATM    8  O10 UNL     1     -32.275   7.767   4.756  1.00 20.00    -0.352 OA
HETATM    9  O11 UNL     1     -33.901   8.038   3.090  1.00 20.00    -0.352 OA
ENDROOT
BRANCH   6  10
HETATM   10  C1  UNL     1     -34.078   6.535   6.490  1.00 20.00     0.241 C 
HETATM   11  O9  UNL     1     -33.808   5.384   6.819  1.00 20.00    -0.306 OA
ENDBRANCH   6  10
TORSDOF 1
