REMARK  2 active torsions:
REMARK  status: ('A' for Active; 'I' for Inactive)
REMARK    1  A    between atoms: C7_7  and  C9_9 
REMARK    2  A    between atoms: C9_9  and  C10_10 
ROOT
HETATM    1  C1  UNL     1     -35.722   6.110   4.460  1.00 20.00     0.064 C 
HETATM    2  C2  UNL     1     -33.379   5.320   4.261  1.00 20.00     0.019 C 
HETATM    3  C3  UNL     1     -33.949   7.324   5.698  1.00 20.00     0.019 C 
HETATM    4  C4  UNL     1     -32.873   6.255   3.161  1.00 20.00     0.006 C 
HETATM    5  C5  UNL     1     -33.442   8.256   4.595  1.00 20.00     0.006 C 
HETATM    6  C6  UNL     1     -34.433   5.970   5.165  1.00 20.00     0.093 C 
HETATM    7  C7  UNL     1     -32.365   7.583   3.735  1.00 20.00    -0.014 C 
HETATM    8  N11 UNL     1     -36.735   6.220   3.905  1.00 20.00    -0.197 NA
ENDROOT
BRANCH   7   9
HETATM    9  C9  UNL     1     -31.910   8.516   2.614  1.00 20.00     0.004 C 
BRANCH   9  10
HETATM   10  C10 UNL     1     -33.044   8.795   1.634  1.00 20.00    -0.004 C 
HETATM   11  C8  UNL     1     -32.600   9.744   0.533  1.00 20.00     0.005 C 
ENDBRANCH   9  10
ENDBRANCH   7   9
TORSDOF 2
