REMARK  1 active torsions:
REMARK  status: ('A' for Active; 'I' for Inactive)
REMARK    1  A    between atoms: C7_7  and  C11_11 
ROOT
HETATM    1  C1  UNL     1     -32.667   8.735   0.783  1.00 20.00     0.063 C 
HETATM    2  C11 UNL     1     -32.322   7.477   1.462  1.00 20.00     0.162 C 
HETATM    3  N12 UNL     1     -32.939   9.726   0.244  1.00 20.00    -0.197 NA
ENDROOT
BRANCH   2   4
HETATM    4  C7  UNL     1     -32.888   7.456   2.843  1.00 20.00    -0.045 A 
HETATM    5  C3  UNL     1     -33.048   8.660   3.547  1.00 20.00     0.009 A 
HETATM    6  C2  UNL     1     -33.570   8.664   4.843  1.00 20.00     0.008 A 
HETATM    7  C5  UNL     1     -33.934   7.453   5.407  1.00 20.00    -0.052 A 
HETATM    8  C6  UNL     1     -33.773   6.252   4.705  1.00 20.00    -0.051 A 
HETATM    9  C8  UNL     1     -34.473   7.200   6.779  1.00 20.00     0.039 C 
HETATM   10  C4  UNL     1     -33.246   6.237   3.425  1.00 20.00     0.015 A 
HETATM   11  C9  UNL     1     -34.190   5.085   5.544  1.00 20.00     0.039 C 
HETATM   12  C10 UNL     1     -35.037   5.780   6.620  1.00 20.00     0.009 C 
ENDBRANCH   2   4
TORSDOF 1
