REMARK  1 active torsions:
REMARK  status: ('A' for Active; 'I' for Inactive)
REMARK    1  A    between atoms: C1_1  and  C3_3 
ROOT
HETATM    1  C2  UNL     1     -35.181   6.260   4.414  1.00 20.00     0.084 A 
HETATM    2  C3  UNL     1     -33.703   6.241   4.078  1.00 20.00     0.087 A 
HETATM    3  C4  UNL     1     -34.186   5.937   5.490  1.00 20.00     0.195 A 
HETATM    4  C5  UNL     1     -33.216   5.122   3.191  1.00 20.00     0.029 C 
HETATM    5  F7  UNL     1     -33.985   6.940   6.436  1.00 20.00    -0.224 F 
HETATM    6 CL9  UNL     1     -34.144   4.304   6.130  1.00 20.00    -0.081 Cl
ENDROOT
BRANCH   2   7
HETATM    7  C1  UNL     1     -33.042   7.554   3.886  1.00 20.00     0.231 C 
HETATM    8  O6  UNL     1     -33.007   8.395   4.779  1.00 20.00    -0.279 OA
HETATM    9 CL8  UNL     1     -32.362   7.718   2.295  1.00 20.00    -0.043 Cl
ENDBRANCH   2   7
TORSDOF 1
