REMARK  2 active torsions:
REMARK  status: ('A' for Active; 'I' for Inactive)
REMARK    1  A    between atoms: C1_1  and  C3_3 
REMARK    2  A    between atoms: C2_2  and  C6_6 
ROOT
HETATM    1  C1  UNL     1     -33.143   7.128   4.059  1.00 20.00     0.046 C 
HETATM    2  C2  UNL     1     -33.834   6.956   5.193  1.00 20.00    -0.014 C 
ENDROOT
BRANCH   2   3
HETATM    3  C6  UNL     1     -34.371   5.634   5.634  1.00 20.00    -0.026 A 
HETATM    4  C4  UNL     1     -35.125   5.626   6.935  1.00 20.00     0.014 A 
HETATM    5  C5  UNL     1     -33.746   5.042   6.867  1.00 20.00     0.014 A 
HETATM    6  C8  UNL     1     -34.811   4.724   4.533  1.00 20.00     0.019 C 
ENDBRANCH   2   3
BRANCH   1   7
HETATM    7  C3  UNL     1     -32.634   8.474   3.676  1.00 20.00     0.145 C 
HETATM    8  C7  UNL     1     -32.511   8.760   2.202  1.00 20.00     0.096 C 
HETATM    9  O9  UNL     1     -32.314   9.315   4.513  1.00 20.00    -0.294 OA
ENDBRANCH   1   7
TORSDOF 2
