REMARK  1 active torsions:
REMARK  status: ('A' for Active; 'I' for Inactive)
REMARK    1  A    between atoms: C8_8  and  C11_11 
ROOT
HETATM    1  C1  UNL     1     -33.916   5.669   5.979  1.00 20.00     0.136 C 
HETATM    2  C2  UNL     1     -35.655   7.010   4.900  1.00 20.00     0.017 C 
HETATM    3  C3  UNL     1     -34.217   5.416   3.376  1.00 20.00     0.018 C 
HETATM    4  C4  UNL     1     -33.542   7.938   5.470  1.00 20.00     0.023 C 
HETATM    5  C5  UNL     1     -34.626   7.017   6.046  1.00 20.00     0.057 C 
HETATM    6  C6  UNL     1     -33.228   5.693   4.541  1.00 20.00     0.065 C 
HETATM    7  C7  UNL     1     -34.771   6.851   3.633  1.00 20.00    -0.003 C 
HETATM    8  C8  UNL     1     -33.329   7.218   4.126  1.00 20.00    -0.023 C 
HETATM    9  O12 UNL     1     -33.937   4.818   6.852  1.00 20.00    -0.297 OA
ENDROOT
BRANCH   8  10
HETATM   10  C11 UNL     1     -32.322   7.836   3.195  1.00 20.00    -0.013 C 
HETATM   11  C9  UNL     1     -32.172   7.014   1.907  1.00 20.00     0.010 C 
HETATM   12  C10 UNL     1     -32.697   9.283   2.845  1.00 20.00     0.010 C 
ENDBRANCH   8  10
TORSDOF 1
