REMARK  3 active torsions:
REMARK  status: ('A' for Active; 'I' for Inactive)
REMARK    1  A    between atoms: C1_1  and  C4_4 
REMARK    2  A    between atoms: C2_2  and  C5_5 
REMARK    3  A    between atoms: C2_2  and  O9_9 
ROOT
HETATM    1  C3  UNL     1     -34.609   7.156   6.655  1.00 20.00     0.028 A 
HETATM    2  C4  UNL     1     -34.171   5.772   6.263  1.00 20.00     0.061 A 
HETATM    3  C5  UNL     1     -33.233   6.942   6.088  1.00 20.00     0.097 A 
ENDROOT
BRANCH   3   4
HETATM    4  C2  UNL     1     -32.919   7.459   4.750  1.00 20.00     0.263 C 
HETATM    5  O8  UNL     1     -32.973   6.791   3.727  1.00 20.00    -0.265 OA
BRANCH   4   6
HETATM    6  O9  UNL     1     -32.566   8.773   4.841  1.00 20.00    -0.326 OA
HETATM    7  C6  UNL     1     -32.232   9.407   3.602  1.00 20.00     0.213 C 
ENDBRANCH   4   6
ENDBRANCH   3   4
BRANCH   2   8
HETATM    8  C1  UNL     1     -34.791   5.126   5.100  1.00 20.00     0.236 C 
HETATM    9  O7  UNL     1     -34.252   4.232   4.456  1.00 20.00    -0.306 OA
ENDBRANCH   2   8
TORSDOF 3
