REMARK  0 active torsions:
REMARK  status: ('A' for Active; 'I' for Inactive)
ROOT
HETATM    1  C1  UNL     1     -33.772   6.026   6.747  1.00 20.00     0.280 C 
HETATM    2  C2  UNL     1     -34.803   5.246   5.941  1.00 20.00     0.104 C 
HETATM    3  C3  UNL     1     -34.110   6.935   3.915  1.00 20.00     0.114 C 
HETATM    4  C4  UNL     1     -33.087   7.536   4.903  1.00 20.00     0.159 C 
HETATM    5  C5  UNL     1     -33.600   8.847   5.532  1.00 20.00     0.049 C 
HETATM    6  C6  UNL     1     -31.807   7.871   4.108  1.00 20.00     0.049 C 
HETATM    7  N7  UNL     1     -32.682   6.563   5.933  1.00 20.00     0.093 N 
HETATM    8  S8  UNL     1     -35.614   6.298   4.711  1.00 20.00    -0.165 SA
HETATM    9  H21 UNL     1     -31.990   6.990   6.550  1.00 20.00     0.316 HD
ENDROOT
TORSDOF 0
