REMARK  0 active torsions:
REMARK  status: ('A' for Active; 'I' for Inactive)
ROOT
HETATM    1  C1  UNL     1     -32.597   8.503   3.802  1.00 20.00     0.282 C 
HETATM    2  C2  UNL     1     -33.638   6.302   3.895  1.00 20.00     0.286 C 
HETATM    3  C3  UNL     1     -32.582   8.724   5.311  1.00 20.00     0.104 C 
HETATM    4  C4  UNL     1     -33.756   6.250   5.425  1.00 20.00     0.071 C 
HETATM    5  C5  UNL     1     -34.929   5.372   5.852  1.00 20.00     0.023 C 
HETATM    6  C6  UNL     1     -32.321   6.949   1.987  1.00 20.00     0.310 C 
HETATM    7  N7  UNL     1     -32.477   7.083   3.438  1.00 20.00     0.086 N 
HETATM    8  S8  UNL     1     -33.993   7.921   6.116  1.00 20.00    -0.161 SA
ENDROOT
TORSDOF 0
