REMARK  1 active torsions:
REMARK  status: ('A' for Active; 'I' for Inactive)
REMARK    1  A    between atoms: C1_1  and  C9_9 
ROOT
HETATM    1  C1  UNL     1     -33.070   7.595   4.388  1.00 20.00     0.020 C 
HETATM    2  C2  UNL     1     -33.787   7.902   5.654  1.00 20.00     0.058 C 
HETATM    3  C3  UNL     1     -34.220   6.510   6.106  1.00 20.00     0.038 C 
HETATM    4  C4  UNL     1     -34.377   5.698   4.813  1.00 20.00     0.055 C 
HETATM    5  C5  UNL     1     -35.760   5.829   4.182  1.00 20.00     0.041 C 
HETATM    6  C6  UNL     1     -33.935   4.250   4.970  1.00 20.00     0.041 C 
HETATM    7  N10 UNL     1     -33.418   6.417   3.938  1.00 20.00    -0.224 N 
HETATM    8  O11 UNL     1     -33.006   5.928   2.838  1.00 20.00    -0.085 OA
ENDROOT
BRANCH   1   9
HETATM    9  C9  UNL     1     -32.179   8.509   3.642  1.00 20.00     0.025 C 
HETATM   10  C7  UNL     1     -32.962   9.301   2.589  1.00 20.00     0.016 C 
HETATM   11  C8  UNL     1     -31.442   9.469   4.584  1.00 20.00     0.016 C 
ENDBRANCH   1   9
TORSDOF 1
