REMARK  1 active torsions:
REMARK  status: ('A' for Active; 'I' for Inactive)
REMARK    1  A    between atoms: C3_3  and  C7_7 
REMARK       I    between atoms: C3_3  and  N8_8 
ROOT
HETATM    1  C1  UNL     1     -34.708   5.586   6.080  1.00 20.00    -0.010 A 
HETATM    2  C2  UNL     1     -34.633   4.795   5.005  1.00 20.00    -0.010 A 
HETATM    3  C3  UNL     1     -32.817   7.757   3.854  1.00 20.00     0.219 C 
HETATM    4  C4  UNL     1     -34.021   6.886   5.845  1.00 20.00     0.153 A 
HETATM    5  C5  UNL     1     -33.885   5.453   3.898  1.00 20.00     0.153 A 
HETATM    6  N8  UNL     1     -33.530   6.747   4.478  1.00 20.00    -0.345 N 
HETATM    7  O9  UNL     1     -32.540   8.834   4.383  1.00 20.00    -0.273 OA
ENDROOT
BRANCH   3   8
HETATM    8  C7  UNL     1     -32.380   7.464   2.441  1.00 20.00     0.098 C 
HETATM    9  C6  UNL     1     -31.648   8.654   1.871  1.00 20.00     0.014 C 
ENDBRANCH   3   8
TORSDOF 1
