REMARK  3 active torsions:
REMARK  status: ('A' for Active; 'I' for Inactive)
REMARK    1  A    between atoms: C2_2  and  C3_3 
REMARK    2  A    between atoms: C3_3  and  N8_8 
REMARK    3  A    between atoms: C7_7  and  N8_8 
ROOT
HETATM    1  C3  UNL     1     -32.972   7.485   3.748  1.00 20.00     0.102 C 
HETATM    2  S9  UNL     1     -32.343   6.314   2.716  1.00 20.00    -0.060 SA
ENDROOT
BRANCH   1   3
HETATM    3  C2  UNL     1     -32.672   8.939   3.617  1.00 20.00    -0.034 C 
HETATM    4  C1  UNL     1     -32.071   9.541   4.653  1.00 20.00     0.021 C 
HETATM    5  C4  UNL     1     -33.071   9.631   2.354  1.00 20.00     0.050 C 
ENDBRANCH   1   3
BRANCH   1   6
HETATM    6  N8  UNL     1     -33.803   7.110   4.781  1.00 20.00    -0.377 N 
HETATM    7  H22 UNL     1     -34.149   7.856   5.377  1.00 20.00     0.160 HD
BRANCH   6   8
HETATM    8  C7  UNL     1     -34.256   5.768   5.096  1.00 20.00     0.074 C 
HETATM    9  C5  UNL     1     -35.542   5.484   4.333  1.00 20.00     0.031 C 
HETATM   10  C6  UNL     1     -34.456   5.655   6.600  1.00 20.00     0.031 C 
ENDBRANCH   6   8
ENDBRANCH   1   6
TORSDOF 3
