REMARK  3 active torsions:
REMARK  status: ('A' for Active; 'I' for Inactive)
REMARK    1  A    between atoms: C4_4  and  C10_10 
REMARK    2  A    between atoms: C8_8  and  C10_10 
REMARK    3  A    between atoms: C8_8  and  O11_11 
ROOT
HETATM    1  C1  UNL     1     -34.857   5.157   5.636  1.00 20.00    -0.030 C 
HETATM    2  C2  UNL     1     -34.327   4.969   4.421  1.00 20.00    -0.028 C 
HETATM    3  C5  UNL     1     -34.594   6.375   6.467  1.00 20.00     0.030 C 
HETATM    4  C6  UNL     1     -33.435   5.970   3.744  1.00 20.00     0.065 C 
HETATM    5  C7  UNL     1     -33.424   7.220   5.947  1.00 20.00     0.042 C 
HETATM    6  C8  UNL     1     -33.445   7.357   4.418  1.00 20.00     0.068 C 
ENDROOT
BRANCH   6   7
HETATM    7  C10 UNL     1     -32.266   8.202   3.933  1.00 20.00     0.038 C 
HETATM    8  C9  UNL     1     -32.250   9.556   4.642  1.00 20.00     0.017 C 
BRANCH   7   9
HETATM    9  C4  UNL     1     -32.342   8.395   2.441  1.00 20.00    -0.030 C 
HETATM   10  C3  UNL     1     -32.959   9.426   1.852  1.00 20.00     0.007 C 
ENDBRANCH   7   9
ENDBRANCH   6   7
BRANCH   6  11
HETATM   11  O11 UNL     1     -34.647   8.044   4.052  1.00 20.00    -0.389 OA
HETATM   12  H27 UNL     1     -34.630   8.122   3.087  1.00 20.00     0.210 HD
ENDBRANCH   6  11
TORSDOF 3
