REMARK  0 active torsions:
REMARK  status: ('A' for Active; 'I' for Inactive)
ROOT
HETATM    1  C1  UNL     1     -34.113   7.081   6.228  1.00 20.00     0.282 C 
HETATM    2  C2  UNL     1     -33.106   7.058   4.010  1.00 20.00     0.286 C 
HETATM    3  C3  UNL     1     -35.003   5.862   5.999  1.00 20.00     0.104 C 
HETATM    4  C4  UNL     1     -33.873   5.828   3.503  1.00 20.00     0.071 C 
HETATM    5  C5  UNL     1     -33.071   5.089   2.435  1.00 20.00     0.023 C 
HETATM    6  C6  UNL     1     -33.164   9.087   5.304  1.00 20.00     0.310 C 
HETATM    7  N7  UNL     1     -33.872   7.842   4.994  1.00 20.00     0.086 N 
HETATM    8  S8  UNL     1     -34.229   4.675   4.870  1.00 20.00    -0.161 SA
ENDROOT
TORSDOF 0
