REMARK  2 active torsions:
REMARK  status: ('A' for Active; 'I' for Inactive)
REMARK    1  A    between atoms: C1_1  and  C3_3 
REMARK    2  A    between atoms: C2_2  and  N9_9 
ROOT
HETATM    1  C1  UNL     1     -33.540   6.798   5.117  1.00 20.00     0.050 C 
HETATM    2  C2  UNL     1     -34.559   5.921   5.065  1.00 20.00     0.002 C 
HETATM    3  C4  UNL     1     -35.210   5.626   3.739  1.00 20.00     0.068 C 
ENDROOT
BRANCH   1   4
HETATM    4  C3  UNL     1     -33.015   7.503   3.910  1.00 20.00     0.026 C 
HETATM    5  C5  UNL     1     -33.092   9.013   3.951  1.00 20.00     0.070 C 
HETATM    6  N8  UNL     1     -32.506   6.833   2.929  1.00 20.00    -0.299 NA
HETATM    7  C6  UNL     1     -31.992   7.561   1.779  1.00 20.00     0.177 C 
ENDBRANCH   1   4
BRANCH   2   8
HETATM    8  N9  UNL     1     -35.080   5.234   6.128  1.00 20.00    -0.398 N 
HETATM    9  C7  UNL     1     -34.251   4.881   7.246  1.00 20.00     0.146 C 
HETATM   10  H23 UNL     1     -36.041   5.001   6.079  1.00 20.00     0.158 HD
ENDBRANCH   2   8
TORSDOF 2
