REMARK  3 active torsions:
REMARK  status: ('A' for Active; 'I' for Inactive)
REMARK    1  A    between atoms: C2_2  and  N9_9 
REMARK    2  A    between atoms: C3_3  and  C8_8 
REMARK    3  A    between atoms: C7_7  and  C8_8 
ROOT
HETATM    1  C3  UNL     1     -33.442   6.758   5.052  1.00 20.00     0.099 C 
HETATM    2  N9  UNL     1     -33.453   7.796   4.281  1.00 20.00    -0.277 NA
ENDROOT
BRANCH   1   3
HETATM    3  C8  UNL     1     -34.413   5.596   4.858  1.00 20.00    -0.001 C 
HETATM    4  C5  UNL     1     -34.656   4.990   6.250  1.00 20.00     0.021 C 
HETATM    5  C6  UNL     1     -35.761   6.052   4.278  1.00 20.00     0.021 C 
BRANCH   3   6
HETATM    6  C7  UNL     1     -33.742   4.530   3.968  1.00 20.00     0.129 C 
HETATM    7 CL10 UNL     1     -33.283   5.144   2.356  1.00 20.00    -0.129 Cl
ENDBRANCH   3   6
ENDBRANCH   1   3
BRANCH   2   8
HETATM    8  C2  UNL     1     -32.529   8.751   4.577  1.00 20.00     0.111 C 
HETATM    9  C1  UNL     1     -31.983   9.557   3.658  1.00 20.00    -0.012 C 
HETATM   10  C4  UNL     1     -32.319   9.505   2.204  1.00 20.00     0.037 C 
ENDBRANCH   2   8
TORSDOF 3
