REMARK  0 active torsions:
REMARK  status: ('A' for Active; 'I' for Inactive)
ROOT
HETATM    1  C1  UNL     1     -33.033   6.221   3.058  1.00 20.00     0.047 A 
HETATM    2  C2  UNL     1     -33.561   6.548   4.321  1.00 20.00     0.025 A 
HETATM    3  C3  UNL     1     -33.506   7.885   4.588  1.00 20.00    -0.002 A 
HETATM    4  C4  UNL     1     -32.590   7.365   2.411  1.00 20.00     0.075 A 
HETATM    5  C5  UNL     1     -34.155   5.867   5.439  1.00 20.00     0.161 A 
HETATM    6  C6  UNL     1     -34.051   8.283   5.908  1.00 20.00     0.055 A 
HETATM    7  C7  UNL     1     -34.500   6.914   6.510  1.00 20.00     0.089 A 
HETATM    8  O8  UNL     1     -34.352   4.665   5.524  1.00 20.00    -0.292 OA
HETATM    9  S9  UNL     1     -32.829   8.795   3.356  1.00 20.00    -0.082 SA
HETATM   10 CL10 UNL     1     -31.873   7.481   0.858  1.00 20.00    -0.076 Cl
ENDROOT
TORSDOF 0
