REMARK  1 active torsions:
REMARK  status: ('A' for Active; 'I' for Inactive)
REMARK    1  A    between atoms: C1_1  and  C8_8 
ROOT
HETATM    1  C2  UNL     1     -34.723   6.219   6.931  1.00 20.00     0.000 C 
HETATM    2  C3  UNL     1     -34.616   4.978   6.052  1.00 20.00     0.001 C 
HETATM    3  C4  UNL     1     -33.558   7.169   6.673  1.00 20.00     0.006 C 
HETATM    4  C5  UNL     1     -34.746   5.339   4.575  1.00 20.00     0.019 C 
HETATM    5  C6  UNL     1     -34.337   7.870   4.275  1.00 20.00     0.025 A 
HETATM    6  C7  UNL     1     -33.275   7.404   5.221  1.00 20.00     0.004 A 
HETATM    7  C8  UNL     1     -33.800   6.449   4.157  1.00 20.00     0.040 A 
ENDROOT
BRANCH   7   8
HETATM    8  C1  UNL     1     -32.898   6.173   3.017  1.00 20.00     0.228 C 
HETATM    9  O9  UNL     1     -32.910   5.094   2.431  1.00 20.00    -0.279 OA
HETATM   10 CL10 UNL     1     -31.874   7.528   2.649  1.00 20.00    -0.043 Cl
ENDBRANCH   7   8
TORSDOF 1
