REMARK  4 active torsions:
REMARK  status: ('A' for Active; 'I' for Inactive)
REMARK    1  A    between atoms: C1_1  and  C7_7 
REMARK    2  A    between atoms: C1_1  and  O11_11 
REMARK    3  A    between atoms: C7_7  and  C8_8 
REMARK    4  A    between atoms: C8_8  and  C9_9 
ROOT
HETATM    1  C2  UNL     1     -34.333   7.620   6.680  1.00 20.00     0.011 C 
HETATM    2  C8  UNL     1     -33.768   7.207   5.307  1.00 20.00    -0.002 C 
ENDROOT
BRANCH   2   3
HETATM    3  C7  UNL     1     -33.943   8.384   4.319  1.00 20.00     0.116 C 
BRANCH   3   4
HETATM    4  C1  UNL     1     -32.942   8.358   3.180  1.00 20.00     0.258 C 
HETATM    5  O10 UNL     1     -31.825   7.861   3.236  1.00 20.00    -0.265 OA
BRANCH   4   6
HETATM    6  O11 UNL     1     -33.504   8.939   2.079  1.00 20.00    -0.326 OA
HETATM    7  C6  UNL     1     -32.687   8.953   0.904  1.00 20.00     0.213 C 
ENDBRANCH   4   6
ENDBRANCH   3   4
ENDBRANCH   2   3
BRANCH   2   8
HETATM    8  C9  UNL     1     -34.365   5.850   4.773  1.00 20.00    -0.048 C 
HETATM    9  C3  UNL     1     -34.154   4.687   5.761  1.00 20.00     0.015 C 
HETATM   10  C4  UNL     1     -33.718   5.462   3.425  1.00 20.00     0.015 C 
HETATM   11  C5  UNL     1     -35.882   5.999   4.518  1.00 20.00     0.015 C 
ENDBRANCH   2   8
TORSDOF 4
