REMARK  2 active torsions:
REMARK  status: ('A' for Active; 'I' for Inactive)
REMARK    1  A    between atoms: C2_2  and  C5_5 
REMARK    2  A    between atoms: C9_9  and  N10_10 
ROOT
HETATM    1  C3  UNL     1     -34.492   7.436   6.569  1.00 20.00     0.070 C 
HETATM    2  C4  UNL     1     -34.053   8.640   5.714  1.00 20.00     0.277 C 
HETATM    3  C5  UNL     1     -33.712   6.593   5.533  1.00 20.00     0.247 C 
HETATM    4  N10 UNL     1     -33.943   7.703   4.565  1.00 20.00     0.105 N 
ENDROOT
BRANCH   4   5
HETATM    5  C9  UNL     1     -32.734   7.981   3.796  1.00 20.00     0.150 C 
HETATM    6  C6  UNL     1     -31.657   8.545   4.729  1.00 20.00     0.048 C 
HETATM    7  C7  UNL     1     -32.237   6.680   3.157  1.00 20.00     0.048 C 
HETATM    8  C8  UNL     1     -33.055   9.007   2.702  1.00 20.00     0.048 C 
ENDBRANCH   4   5
BRANCH   3   9
HETATM    9  C2  UNL     1     -34.365   5.346   5.096  1.00 20.00    -0.002 C 
HETATM   10  C1  UNL     1     -35.353   5.294   4.196  1.00 20.00     0.009 C 
ENDBRANCH   3   9
TORSDOF 2
