REMARK  4 active torsions:
REMARK  status: ('A' for Active; 'I' for Inactive)
REMARK    1  A    between atoms: C1_1  and  C7_7 
REMARK    2  A    between atoms: C1_1  and  C8_8 
REMARK    3  A    between atoms: C7_7  and  O10_10 
REMARK    4  A    between atoms: C7_7  and  O11_11 
ROOT
HETATM    1  C1  UNL     1     -33.693   6.856   5.405  1.00 20.00     0.188 C 
HETATM    2  O9  UNL     1     -33.389   7.176   6.558  1.00 20.00    -0.292 OA
ENDROOT
BRANCH   1   3
HETATM    3  C7  UNL     1     -33.252   7.721   4.228  1.00 20.00     0.330 C 
BRANCH   3   4
HETATM    4  O10 UNL     1     -32.603   8.835   4.844  1.00 20.00    -0.359 OA
HETATM    5  C5  UNL     1     -31.272   8.527   5.237  1.00 20.00     0.205 C 
ENDBRANCH   3   4
BRANCH   3   6
HETATM    6  O11 UNL     1     -32.349   6.983   3.413  1.00 20.00    -0.359 OA
HETATM    7  C6  UNL     1     -32.245   7.513   2.097  1.00 20.00     0.205 C 
ENDBRANCH   3   6
ENDBRANCH   1   3
BRANCH   1   8
HETATM    8  C8  UNL     1     -34.476   5.556   5.115  1.00 20.00     0.015 C 
HETATM    9  C2  UNL     1     -33.601   4.643   4.246  1.00 20.00     0.023 C 
HETATM   10  C3  UNL     1     -34.782   4.838   6.442  1.00 20.00     0.023 C 
HETATM   11  C4  UNL     1     -35.805   5.846   4.406  1.00 20.00     0.023 C 
ENDBRANCH   1   8
TORSDOF 4
