REMARK  2 active torsions:
REMARK  status: ('A' for Active; 'I' for Inactive)
REMARK    1  A    between atoms: C4_4  and  C8_8 
REMARK    2  A    between atoms: C5_5  and  O9_9 
ROOT
HETATM    1  C1  UNL     1     -33.264   6.753   6.254  1.00 20.00     0.007 C 
HETATM    2  C2  UNL     1     -34.312   5.752   6.720  1.00 20.00     0.032 C 
HETATM    3  C3  UNL     1     -34.906   6.528   4.484  1.00 20.00     0.036 C 
HETATM    4  C4  UNL     1     -34.014   7.557   5.196  1.00 20.00    -0.009 C 
HETATM    5  C5  UNL     1     -34.990   5.321   5.424  1.00 20.00     0.118 C 
ENDROOT
BRANCH   4   6
HETATM    6  C8  UNL     1     -33.088   8.304   4.251  1.00 20.00    -0.019 C 
HETATM    7  C6  UNL     1     -32.232   9.316   5.015  1.00 20.00     0.010 C 
HETATM    8  C7  UNL     1     -32.196   7.330   3.479  1.00 20.00     0.010 C 
ENDBRANCH   4   6
BRANCH   5   9
HETATM    9  O9  UNL     1     -34.270   4.239   4.841  1.00 20.00    -0.396 OA
HETATM   10  H25 UNL     1     -34.738   4.003   4.025  1.00 20.00     0.210 HD
ENDBRANCH   5   9
TORSDOF 2
