REMARK  2 active torsions:
REMARK  status: ('A' for Active; 'I' for Inactive)
REMARK    1  A    between atoms: C4_4  and  C8_8 
REMARK    2  A    between atoms: C5_5  and  O9_9 
ROOT
HETATM    1  C1  UNL     1     -33.287   6.589   6.589  1.00 20.00     0.007 C 
HETATM    2  C2  UNL     1     -34.699   6.027   6.793  1.00 20.00     0.032 C 
HETATM    3  C3  UNL     1     -34.547   7.067   4.611  1.00 20.00     0.036 C 
HETATM    4  C4  UNL     1     -33.124   6.765   5.080  1.00 20.00    -0.009 C 
HETATM    5  C5  UNL     1     -35.387   6.096   5.430  1.00 20.00     0.118 C 
ENDROOT
BRANCH   4   6
HETATM    6  C8  UNL     1     -32.129   7.851   4.707  1.00 20.00    -0.019 C 
HETATM    7  C6  UNL     1     -31.983   7.958   3.188  1.00 20.00     0.010 C 
HETATM    8  C7  UNL     1     -32.549   9.200   5.296  1.00 20.00     0.010 C 
ENDBRANCH   4   6
BRANCH   5   9
HETATM    9  O9  UNL     1     -35.355   4.803   4.833  1.00 20.00    -0.396 OA
HETATM   10  H25 UNL     1     -35.829   4.208   5.435  1.00 20.00     0.210 HD
ENDBRANCH   5   9
TORSDOF 2
