REMARK  1 active torsions:
REMARK  status: ('A' for Active; 'I' for Inactive)
REMARK    1  A    between atoms: C5_5  and  C8_8 
ROOT
HETATM    1  C1  UNL     1     -32.285   9.047   3.342  1.00 20.00     0.052 C 
HETATM    2  C2  UNL     1     -32.511   9.066   4.664  1.00 20.00    -0.080 C 
HETATM    3  C3  UNL     1     -32.543   7.820   2.549  1.00 20.00     0.150 C 
HETATM    4  C6  UNL     1     -33.095   7.894   5.413  1.00 20.00     0.043 C 
HETATM    5  C7  UNL     1     -32.972   6.567   3.278  1.00 20.00     0.092 C 
HETATM    6  C8  UNL     1     -33.831   6.908   4.495  1.00 20.00     0.024 C 
HETATM    7  C9  UNL     1     -32.188  10.276   5.492  1.00 20.00     0.043 C 
HETATM    8  O11 UNL     1     -32.345   7.826   1.335  1.00 20.00    -0.293 OA
ENDROOT
BRANCH   6   9
HETATM    9  C5  UNL     1     -34.224   5.669   5.241  1.00 20.00    -0.088 C 
HETATM   10  C4  UNL     1     -34.356   4.484   4.627  1.00 20.00     0.014 C 
HETATM   11  C10 UNL     1     -34.461   5.831   6.713  1.00 20.00     0.043 C 
ENDBRANCH   6   9
TORSDOF 1
