REMARK  2 active torsions:
REMARK  status: ('A' for Active; 'I' for Inactive)
REMARK    1  A    between atoms: C5_5  and  C8_8 
REMARK    2  A    between atoms: C6_6  and  N9_9 
ROOT
HETATM    1  C1  UNL     1     -32.373   8.844   5.256  1.00 20.00     0.006 C 
HETATM    2  C2  UNL     1     -32.264   7.459   3.143  1.00 20.00     0.006 C 
HETATM    3  C3  UNL     1     -33.569   8.022   5.734  1.00 20.00     0.024 C 
HETATM    4  C4  UNL     1     -33.460   6.636   3.619  1.00 20.00     0.024 C 
HETATM    5  C5  UNL     1     -32.240   8.879   3.727  1.00 20.00    -0.015 C 
HETATM    6  C6  UNL     1     -33.552   6.613   5.143  1.00 20.00     0.109 C 
ENDROOT
BRANCH   5   7
HETATM    7  C8  UNL     1     -33.308   9.771   3.088  1.00 20.00     0.000 C 
HETATM    8  C7  UNL     1     -33.145   9.851   1.605  1.00 20.00     0.005 C 
ENDBRANCH   5   7
BRANCH   6   9
HETATM    9  N9  UNL     1     -34.775   5.908   5.543  1.00 20.00    -0.059 NA
HETATM   10  O10 UNL     1     -34.518   4.905   6.207  1.00 20.00    -0.101 OA
ENDBRANCH   6   9
TORSDOF 2
