REMARK  0 active torsions:
REMARK  status: ('A' for Active; 'I' for Inactive)
ROOT
HETATM    1  C1  UNL     1     -34.418   6.484   6.635  1.00 20.00     0.097 A 
HETATM    2  C2  UNL     1     -34.409   4.417   5.532  1.00 20.00     0.097 A 
HETATM    3  C3  UNL     1     -33.770   7.099   5.565  1.00 20.00    -0.016 A 
HETATM    4  C4  UNL     1     -33.761   4.968   4.428  1.00 20.00    -0.016 A 
HETATM    5  C5  UNL     1     -33.451   6.343   4.420  1.00 20.00     0.045 A 
HETATM    6  C6  UNL     1     -33.469   8.572   5.632  1.00 20.00     0.044 C 
HETATM    7  C7  UNL     1     -33.450   4.095   3.242  1.00 20.00     0.044 C 
HETATM    8  C8  UNL     1     -32.378   8.958   4.641  1.00 20.00     0.025 C 
HETATM    9  C9  UNL     1     -32.360   4.711   2.374  1.00 20.00     0.025 C 
HETATM   10  C10 UNL     1     -32.687   8.383   3.264  1.00 20.00     0.123 C 
HETATM   11  C11 UNL     1     -32.677   6.172   2.085  1.00 20.00     0.123 C 
HETATM   12  N12 UNL     1     -34.713   5.181   6.586  1.00 20.00    -0.374 N 
HETATM   13  N13 UNL     1     -32.812   6.929   3.327  1.00 20.00    -0.380 N 
HETATM   14  H28 UNL     1     -35.187   4.754   7.382  1.00 20.00     0.164 HD
ENDROOT
TORSDOF 0
