REMARK  2 active torsions:
REMARK  status: ('A' for Active; 'I' for Inactive)
REMARK    1  A    between atoms: C7_7  and  C8_8 
REMARK    2  A    between atoms: C8_8  and  O10_10 
ROOT
HETATM    1  C1  UNL     1     -33.118   8.997   2.839  1.00 20.00     0.071 C 
HETATM    2  C2  UNL     1     -34.646   5.165   4.221  1.00 20.00     0.000 C 
HETATM    3  C3  UNL     1     -34.597   6.303   5.234  1.00 20.00     0.002 C 
HETATM    4  C4  UNL     1     -33.404   5.143   3.339  1.00 20.00     0.002 C 
HETATM    5  C5  UNL     1     -34.376   7.656   4.554  1.00 20.00     0.027 C 
HETATM    6  C6  UNL     1     -33.177   6.490   2.649  1.00 20.00     0.027 C 
HETATM    7  C7  UNL     1     -33.137   7.679   3.633  1.00 20.00     0.070 C 
HETATM    8  N9  UNL     1     -33.104   9.990   2.240  1.00 20.00    -0.196 NA
ENDROOT
BRANCH   7   9
HETATM    9  C8  UNL     1     -31.901   7.619   4.448  1.00 20.00     0.188 C 
BRANCH   9  10
HETATM   10  O10 UNL     1     -31.890   8.737   5.310  1.00 20.00    -0.399 OA
HETATM   11  H23 UNL     1     -31.074   8.686   5.840  1.00 20.00     0.209 HD
ENDBRANCH   9  10
ENDBRANCH   7   9
TORSDOF 2
