REMARK  0 active torsions:
REMARK  status: ('A' for Active; 'I' for Inactive)
ROOT
HETATM    1  C1  UNL     1     -32.534   6.291   2.453  1.00 20.00     0.047 A 
HETATM    2  C2  UNL     1     -33.408   6.034   3.525  1.00 20.00     0.026 A 
HETATM    3  C3  UNL     1     -33.901   7.175   4.091  1.00 20.00    -0.001 A 
HETATM    4  C4  UNL     1     -32.401   7.656   2.256  1.00 20.00     0.075 A 
HETATM    5  C5  UNL     1     -33.944   4.892   4.218  1.00 20.00     0.175 A 
HETATM    6  C6  UNL     1     -34.844   6.962   5.218  1.00 20.00     0.071 A 
HETATM    7  C7  UNL     1     -34.836   5.410   5.357  1.00 20.00     0.137 A 
HETATM    8  O8  UNL     1     -33.709   3.724   3.951  1.00 20.00    -0.291 OA
HETATM    9  S9  UNL     1     -33.342   8.583   3.375  1.00 20.00    -0.082 SA
HETATM   10 CL10 UNL     1     -31.448   8.458   1.077  1.00 20.00    -0.076 Cl
HETATM   11 BR11 UNL     1     -33.981   4.861   7.009  1.00 20.00    -0.082 Br
ENDROOT
TORSDOF 0
