REMARK  2 active torsions:
REMARK  status: ('A' for Active; 'I' for Inactive)
REMARK    1  A    between atoms: C6_6  and  C8_8 
REMARK    2  A    between atoms: C7_7  and  C8_8 
ROOT
HETATM    1  C1  UNL     1     -34.724   6.047   6.613  1.00 20.00     0.001 A 
HETATM    2  C2  UNL     1     -34.689   4.939   5.676  1.00 20.00     0.001 A 
HETATM    3  C3  UNL     1     -34.074   7.098   6.088  1.00 20.00     0.013 A 
HETATM    4  C4  UNL     1     -34.017   5.307   4.573  1.00 20.00     0.013 A 
HETATM    5  C5  UNL     1     -33.601   6.680   4.784  1.00 20.00    -0.018 A 
HETATM    6  C7  UNL     1     -32.904   7.428   3.924  1.00 20.00     0.028 C 
HETATM    7 CL10 UNL     1     -32.444   9.042   4.357  1.00 20.00    -0.088 Cl
ENDROOT
BRANCH   6   8
HETATM    8  C8  UNL     1     -32.435   6.953   2.584  1.00 20.00     0.121 C 
BRANCH   8   9
HETATM    9  C6  UNL     1     -32.999   7.787   1.453  1.00 20.00     0.236 C 
HETATM   10  O9  UNL     1     -32.336   8.455   0.667  1.00 20.00    -0.307 OA
ENDBRANCH   8   9
ENDBRANCH   6   8
TORSDOF 2
