REMARK  2 active torsions:
REMARK  status: ('A' for Active; 'I' for Inactive)
REMARK    1  A    between atoms: C2_2  and  C6_6 
REMARK    2  A    between atoms: C3_3  and  C7_7 
ROOT
HETATM    1  C1  UNL     1     -32.408   6.320   2.476  1.00 20.00     0.133 A 
HETATM    2  C2  UNL     1     -32.315   7.695   2.428  1.00 20.00     0.016 A 
HETATM    3  C3  UNL     1     -33.562   6.792   4.281  1.00 20.00     0.078 A 
HETATM    4  N8  UNL     1     -33.122   5.800   3.538  1.00 20.00    -0.257 NA
HETATM    5  S9  UNL     1     -33.153   8.376   3.760  1.00 20.00    -0.076 SA
ENDROOT
BRANCH   3   6
HETATM    6  C7  UNL     1     -34.390   6.621   5.540  1.00 20.00     0.037 C 
HETATM    7  C4  UNL     1     -33.713   7.267   6.751  1.00 20.00     0.016 C 
HETATM    8  C5  UNL     1     -34.701   5.147   5.813  1.00 20.00     0.016 C 
ENDBRANCH   3   6
BRANCH   2   9
HETATM    9  C6  UNL     1     -31.636   8.562   1.446  1.00 20.00     0.162 C 
HETATM   10 CL10 UNL     1     -32.560   8.658  -0.077  1.00 20.00    -0.125 Cl
ENDBRANCH   2   9
TORSDOF 2
