REMARK  1 active torsions:
REMARK  status: ('A' for Active; 'I' for Inactive)
REMARK    1  A    between atoms: C5_5  and  O10_10 
ROOT
HETATM    1  C1  UNL     1     -33.390   8.019   5.034  1.00 20.00     0.050 A 
HETATM    2  C2  UNL     1     -32.744   7.027   2.908  1.00 20.00     0.079 A 
HETATM    3  C3  UNL     1     -33.794   6.763   5.456  1.00 20.00    -0.046 A 
HETATM    4  C4  UNL     1     -33.682   5.649   4.616  1.00 20.00    -0.018 A 
HETATM    5  C5  UNL     1     -33.165   5.766   3.337  1.00 20.00     0.075 A 
HETATM    6  C6  UNL     1     -32.855   8.145   3.750  1.00 20.00     0.119 A 
HETATM    7  C7  UNL     1     -34.426   6.388   6.759  1.00 20.00     0.039 C 
HETATM    8  C8  UNL     1     -34.228   4.424   5.281  1.00 20.00     0.042 C 
HETATM    9  C9  UNL     1     -34.237   4.864   6.753  1.00 20.00     0.009 C 
HETATM   10  F11 UNL     1     -32.451   9.345   3.313  1.00 20.00    -0.206 F 
ENDROOT
BRANCH   5  11
HETATM   11  O10 UNL     1     -33.068   4.692   2.513  1.00 20.00    -0.360 OA
HETATM   12  H20 UNL     1     -32.687   4.953   1.658  1.00 20.00     0.217 HD
ENDBRANCH   5  11
TORSDOF 1
