REMARK  1 active torsions:
REMARK  status: ('A' for Active; 'I' for Inactive)
REMARK    1  A    between atoms: C2_2  and  C6_6 
ROOT
HETATM    1  C1  UNL     1     -33.596   5.712   3.186  1.00 20.00     0.134 A 
HETATM    2  C2  UNL     1     -33.847   6.510   4.282  1.00 20.00     0.006 A 
HETATM    3  C3  UNL     1     -32.370   7.441   2.623  1.00 20.00     0.167 A 
HETATM    4  N7  UNL     1     -32.749   6.244   2.233  1.00 20.00    -0.240 NA
HETATM    5  S8  UNL     1     -32.993   7.989   4.125  1.00 20.00    -0.061 SA
HETATM    6 CL9  UNL     1     -31.312   8.435   1.712  1.00 20.00    -0.054 Cl
ENDROOT
BRANCH   2   7
HETATM    7  C6  UNL     1     -34.715   6.247   5.498  1.00 20.00     0.019 C 
HETATM    8  C4  UNL     1     -34.216   7.016   6.724  1.00 20.00     0.015 C 
HETATM    9  C5  UNL     1     -34.821   4.750   5.801  1.00 20.00     0.015 C 
ENDBRANCH   2   7
TORSDOF 1
