REMARK  2 active torsions:
REMARK  status: ('A' for Active; 'I' for Inactive)
REMARK    1  A    between atoms: C1_1  and  C4_4 
REMARK    2  A    between atoms: C1_1  and  C5_5 
ROOT
HETATM    1  C2  UNL     1     -35.116   5.668   4.403  1.00 20.00     0.055 A 
HETATM    2  C3  UNL     1     -34.139   4.946   5.283  1.00 20.00     0.055 A 
HETATM    3  C4  UNL     1     -33.639   5.801   4.152  1.00 20.00     0.164 A 
HETATM    4  F7  UNL     1     -33.156   5.107   3.046  1.00 20.00    -0.235 F 
ENDROOT
BRANCH   3   5
HETATM    5  C1  UNL     1     -32.962   7.068   4.440  1.00 20.00     0.179 C 
HETATM    6  O6  UNL     1     -33.369   7.806   5.335  1.00 20.00    -0.293 OA
BRANCH   5   7
HETATM    7  C5  UNL     1     -31.763   7.383   3.574  1.00 20.00     0.196 C 
HETATM    8 CL8  UNL     1     -32.225   7.456   1.867  1.00 20.00    -0.122 Cl
ENDBRANCH   5   7
ENDBRANCH   3   5
TORSDOF 2
