REMARK  1 active torsions:
REMARK  status: ('A' for Active; 'I' for Inactive)
REMARK    1  A    between atoms: C2_2  and  C6_6 
ROOT
HETATM    1  C1  UNL     1     -32.991   7.871   4.434  1.00 20.00    -0.021 C 
HETATM    2  C2  UNL     1     -33.151   6.650   3.890  1.00 20.00    -0.061 C 
HETATM    3  C3  UNL     1     -33.610   8.346   5.716  1.00 20.00     0.037 C 
HETATM    4  C4  UNL     1     -34.015   5.559   4.468  1.00 20.00     0.108 C 
HETATM    5  C5  UNL     1     -34.167   7.247   6.614  1.00 20.00     0.078 C 
HETATM    6  S7  UNL     1     -35.243   6.140   5.669  1.00 20.00    -0.165 SA
ENDROOT
BRANCH   2   7
HETATM    7  C6  UNL     1     -32.445   6.284   2.613  1.00 20.00     0.149 C 
HETATM    8 CL8  UNL     1     -32.290   7.767   1.676  1.00 20.00    -0.126 Cl
ENDBRANCH   2   7
TORSDOF 1
