REMARK  4 active torsions:
REMARK  status: ('A' for Active; 'I' for Inactive)
REMARK    1  A    between atoms: C2_2  and  C6_6 
REMARK    2  A    between atoms: C6_6  and  C8_8 
REMARK    3  A    between atoms: C7_7  and  C8_8 
REMARK    4  A    between atoms: C8_8  and  O9_9 
ROOT
HETATM    1  C1  UNL     1     -32.502   8.634   2.090  1.00 20.00    -0.111 C 
HETATM    2  C2  UNL     1     -32.775   8.605   3.259  1.00 20.00    -0.104 C 
HETATM    3  C3  UNL     1     -32.168   8.667   0.667  1.00 20.00     0.112 C 
ENDROOT
BRANCH   2   4
HETATM    4  C6  UNL     1     -33.111   8.571   4.693  1.00 20.00     0.126 C 
BRANCH   4   5
HETATM    5  C8  UNL     1     -33.220   7.130   5.210  1.00 20.00     0.132 C 
BRANCH   5   6
HETATM    6  C7  UNL     1     -34.588   6.485   4.883  1.00 20.00     0.007 C 
HETATM    7  C4  UNL     1     -34.932   5.309   5.802  1.00 20.00     0.012 C 
HETATM    8  C5  UNL     1     -34.629   6.016   3.425  1.00 20.00     0.012 C 
ENDBRANCH   5   6
BRANCH   5   9
HETATM    9  O9  UNL     1     -33.024   7.119   6.625  1.00 20.00    -0.394 OA
HETATM   10  H23 UNL     1     -32.137   7.478   6.780  1.00 20.00     0.210 HD
ENDBRANCH   5   9
ENDBRANCH   4   5
ENDBRANCH   2   4
TORSDOF 4
