REMARK  0 active torsions:
REMARK  status: ('A' for Active; 'I' for Inactive)
ROOT
HETATM    1  C1  UNL     1     -34.164   7.086   4.442  1.00 20.00     0.064 C 
HETATM    2  C2  UNL     1     -33.060   6.531   3.549  1.00 20.00     0.170 C 
HETATM    3  C3  UNL     1     -33.634   4.246   3.809  1.00 20.00     0.205 C 
HETATM    4  C4  UNL     1     -34.690   6.027   5.361  1.00 20.00     0.258 A 
HETATM    5  C5  UNL     1     -34.444   4.582   5.020  1.00 20.00     0.277 A 
HETATM    6  N6  UNL     1     -35.768   5.164   4.870  1.00 20.00     0.099 N 
HETATM    7  O7  UNL     1     -33.524   5.347   2.897  1.00 20.00    -0.389 OA
HETATM    8  H16 UNL     1     -36.365   4.881   5.647  1.00 20.00     0.317 HD
ENDROOT
TORSDOF 0
