REMARK  0 active torsions:
REMARK  status: ('A' for Active; 'I' for Inactive)
ROOT
HETATM    1  C1  UNL     1     -32.559   6.618   2.164  1.00 20.00     0.136 A 
HETATM    2  C2  UNL     1     -32.439   7.828   2.847  1.00 20.00     0.136 A 
HETATM    3  C3  UNL     1     -34.147   4.711   4.705  1.00 20.00     0.083 A 
HETATM    4  C4  UNL     1     -33.934   6.866   5.923  1.00 20.00     0.083 A 
HETATM    5  C5  UNL     1     -33.545   5.685   3.948  1.00 20.00     0.092 A 
HETATM    6  C6  UNL     1     -33.422   6.929   4.651  1.00 20.00     0.092 A 
HETATM    7  N7  UNL     1     -33.115   5.490   2.675  1.00 20.00    -0.257 NA
HETATM    8  N8  UNL     1     -32.862   8.045   4.119  1.00 20.00    -0.257 NA
HETATM    9  S9  UNL     1     -34.563   5.302   6.266  1.00 20.00    -0.109 SA
ENDROOT
TORSDOF 0
