REMARK  3 active torsions:
REMARK  status: ('A' for Active; 'I' for Inactive)
REMARK    1  A    between atoms: C2_2  and  C6_6 
REMARK    2  A    between atoms: C3_3  and  C6_6 
REMARK    3  A    between atoms: C3_3  and  C7_7 
ROOT
HETATM    1  C3  UNL     1     -33.259   6.734   3.809  1.00 20.00     0.240 C 
HETATM    2  O8  UNL     1     -32.931   5.750   3.145  1.00 20.00    -0.287 OA
ENDROOT
BRANCH   1   3
HETATM    3  C6  UNL     1     -34.453   6.715   4.760  1.00 20.00     0.088 C 
HETATM    4  C5  UNL     1     -35.530   5.826   4.137  1.00 20.00     0.023 C 
BRANCH   3   5
HETATM    5  C2  UNL     1     -33.959   6.329   6.143  1.00 20.00    -0.082 C 
HETATM    6  C1  UNL     1     -33.934   5.073   6.618  1.00 20.00     0.014 C 
HETATM    7  C4  UNL     1     -33.453   7.467   6.992  1.00 20.00     0.043 C 
ENDBRANCH   3   5
ENDBRANCH   1   3
BRANCH   1   8
HETATM    8  C7  UNL     1     -32.474   8.013   3.736  1.00 20.00     0.451 C 
HETATM    9  F9  UNL     1     -32.984   8.963   4.559  1.00 20.00    -0.163 F 
HETATM   10  F10 UNL     1     -32.467   8.538   2.485  1.00 20.00    -0.163 F 
HETATM   11  F11 UNL     1     -31.178   7.832   4.094  1.00 20.00    -0.163 F 
ENDBRANCH   1   8
TORSDOF 3
