REMARK  3 active torsions:
REMARK  status: ('A' for Active; 'I' for Inactive)
REMARK    1  A    between atoms: C1_1  and  O7_7 
REMARK    2  A    between atoms: C4_4  and  C5_5 
REMARK    3  A    between atoms: C5_5  and  O7_7 
ROOT
HETATM    1  C5  UNL     1     -32.633   8.008   5.103  1.00 20.00     0.184 C 
ENDROOT
BRANCH   1   2
HETATM    2  C4  UNL     1     -34.022   7.622   5.475  1.00 20.00     0.010 A 
HETATM    3  C2  UNL     1     -34.556   6.265   5.108  1.00 20.00     0.007 A 
HETATM    4  C3  UNL     1     -34.261   6.593   6.545  1.00 20.00     0.007 A 
ENDBRANCH   1   2
BRANCH   1   5
HETATM    5  O7  UNL     1     -32.587   8.400   3.731  1.00 20.00    -0.308 OA
BRANCH   5   6
HETATM    6  C1  UNL     1     -32.332   7.402   2.823  1.00 20.00     0.357 C 
HETATM    7  O6  UNL     1     -32.149   6.232   3.147  1.00 20.00    -0.246 OA
HETATM    8 CL8  UNL     1     -32.298   7.985   1.179  1.00 20.00    -0.012 Cl
ENDBRANCH   5   6
ENDBRANCH   1   5
TORSDOF 3
