REMARK  1 active torsions:
REMARK  status: ('A' for Active; 'I' for Inactive)
REMARK    1  A    between atoms: C6_6  and  O8_8 
ROOT
HETATM    1  C1  UNL     1     -33.754   3.242   4.302  1.00 20.00     0.015 C 
HETATM    2  C2  UNL     1     -34.141   4.319   4.665  1.00 20.00    -0.077 C 
HETATM    3  C3  UNL     1     -33.663   6.758   4.755  1.00 20.00     0.080 C 
HETATM    4  C4  UNL     1     -34.037   7.820   5.769  1.00 20.00     0.171 C 
HETATM    5  C5  UNL     1     -34.694   5.748   6.622  1.00 20.00     0.219 C 
HETATM    6  C6  UNL     1     -34.611   5.632   5.108  1.00 20.00     0.143 C 
HETATM    7  O7  UNL     1     -34.457   7.129   6.951  1.00 20.00    -0.387 OA
ENDROOT
BRANCH   6   8
HETATM    8  O8  UNL     1     -35.901   5.898   4.561  1.00 20.00    -0.375 OA
HETATM    9  H16 UNL     1     -36.496   5.199   4.881  1.00 20.00     0.211 HD
ENDBRANCH   6   8
TORSDOF 1
