REMARK  4 active torsions:
REMARK  status: ('A' for Active; 'I' for Inactive)
REMARK    1  A    between atoms: C1_1  and  C8_8 
REMARK    2  A    between atoms: C1_1  and  C9_9 
REMARK    3  A    between atoms: C6_6  and  C8_8 
REMARK    4  A    between atoms: C7_7  and  C9_9 
ROOT
HETATM    1  C1  UNL     1     -32.377   7.373   3.433  1.00 20.00     0.127 C 
HETATM    2  O10 UNL     1     -31.837   8.152   4.217  1.00 20.00    -0.298 OA
ENDROOT
BRANCH   1   3
HETATM    3  C8  UNL     1     -32.119   7.420   1.936  1.00 20.00     0.082 C 
BRANCH   3   4
HETATM    4  C6  UNL     1     -33.065   8.356   1.207  1.00 20.00    -0.008 A 
HETATM    5  C2  UNL     1     -32.707   9.804   1.024  1.00 20.00     0.005 A 
HETATM    6  C3  UNL     1     -32.711   8.876  -0.159  1.00 20.00     0.005 A 
ENDBRANCH   3   4
ENDBRANCH   1   3
BRANCH   1   7
HETATM    7  C9  UNL     1     -33.347   6.299   3.897  1.00 20.00     0.082 C 
BRANCH   7   8
HETATM    8  C7  UNL     1     -34.134   6.711   5.128  1.00 20.00    -0.008 A 
HETATM    9  C4  UNL     1     -34.797   5.670   5.986  1.00 20.00     0.005 A 
HETATM   10  C5  UNL     1     -33.598   6.417   6.501  1.00 20.00     0.005 A 
ENDBRANCH   7   8
ENDBRANCH   1   7
TORSDOF 4
