REMARK  2 active torsions:
REMARK  status: ('A' for Active; 'I' for Inactive)
REMARK    1  A    between atoms: C1_1  and  C9_9 
REMARK    2  A    between atoms: C9_9  and  N10_10 
ROOT
HETATM    1  C2  UNL     1     -34.356   5.548   6.748  1.00 20.00     0.003 C 
HETATM    2  C3  UNL     1     -33.573   6.826   6.468  1.00 20.00     0.030 C 
HETATM    3  C4  UNL     1     -34.403   4.657   5.511  1.00 20.00     0.030 C 
HETATM    4  C5  UNL     1     -34.088   7.529   5.209  1.00 20.00     0.273 C 
HETATM    5  C6  UNL     1     -34.890   5.435   4.286  1.00 20.00     0.273 C 
HETATM    6  N10 UNL     1     -34.140   6.669   4.020  1.00 20.00     0.099 N 
ENDROOT
BRANCH   6   7
HETATM    7  C9  UNL     1     -32.813   6.403   3.470  1.00 20.00     0.287 C 
HETATM    8  C8  UNL     1     -32.874   5.483   2.265  1.00 20.00     0.051 C 
BRANCH   7   9
HETATM    9  C1  UNL     1     -32.202   7.743   3.093  1.00 20.00     0.155 C 
HETATM   10  C7  UNL     1     -32.890   8.511   1.993  1.00 20.00     0.093 C 
HETATM   11  O11 UNL     1     -31.222   8.210   3.674  1.00 20.00    -0.296 OA
ENDBRANCH   7   9
ENDBRANCH   6   7
TORSDOF 2
