REMARK  2 active torsions:
REMARK  status: ('A' for Active; 'I' for Inactive)
REMARK    1  A    between atoms: C2_2  and  C4_4 
REMARK       I    between atoms: C2_2  and  N6_6 
REMARK    2  A    between atoms: C4_4  and  C5_5 
ROOT
HETATM    1  C1  UNL     1     -33.072   7.848   3.661  1.00 20.00     0.166 C 
HETATM    2  C2  UNL     1     -34.166   7.176   5.439  1.00 20.00     0.244 C 
HETATM    3  N6  UNL     1     -33.605   8.168   4.657  1.00 20.00    -0.199 NA
HETATM    4  O7  UNL     1     -33.893   6.931   6.613  1.00 20.00    -0.271 OA
HETATM    5  S8  UNL     1     -32.341   7.453   2.301  1.00 20.00    -0.055 SA
ENDROOT
BRANCH   2   6
HETATM    6  C4  UNL     1     -35.241   6.404   4.688  1.00 20.00     0.105 C 
BRANCH   6   7
HETATM    7  C5  UNL     1     -34.946   4.912   4.557  1.00 20.00     0.005 C 
HETATM    8  C3  UNL     1     -33.646   4.637   3.814  1.00 20.00     0.005 C 
ENDBRANCH   6   7
ENDBRANCH   2   6
TORSDOF 2
