REMARK  1 active torsions:
REMARK  status: ('A' for Active; 'I' for Inactive)
REMARK    1  A    between atoms: C11_11  and  N13_13 
ROOT
HETATM    1  C1  UNL     1     -32.753   9.168   0.804  1.00 20.00     0.089 C 
HETATM    2  C11 UNL     1     -32.081   9.445   2.072  1.00 20.00     0.395 C 
HETATM    3  N12 UNL     1     -33.285   8.950  -0.204  1.00 20.00    -0.195 NA
ENDROOT
BRANCH   2   4
HETATM    4  N13 UNL     1     -32.810   8.852   3.188  1.00 20.00     0.101 N 
HETATM    5  C7  UNL     1     -32.157   9.115   4.467  1.00 20.00     0.274 C 
HETATM    6  C6  UNL     1     -33.075   8.718   5.631  1.00 20.00     0.035 C 
HETATM    7  C9  UNL     1     -33.908   7.454   5.346  1.00 20.00    -0.007 C 
HETATM    8  C4  UNL     1     -34.162   6.652   6.628  1.00 20.00     0.005 C 
HETATM    9  C10 UNL     1     -33.227   6.602   4.265  1.00 20.00     0.018 C 
HETATM   10  C2  UNL     1     -34.934   5.366   6.343  1.00 20.00     0.000 C 
HETATM   11  C3  UNL     1     -34.236   4.515   5.286  1.00 20.00     0.000 C 
HETATM   12  C5  UNL     1     -33.997   5.302   3.999  1.00 20.00     0.007 C 
HETATM   13  C8  UNL     1     -33.048   7.416   2.964  1.00 20.00     0.278 C 
ENDBRANCH   2   4
TORSDOF 1
