REMARK  0 active torsions:
REMARK  status: ('A' for Active; 'I' for Inactive)
ROOT
HETATM    1  C1  UNL     1     -34.120   4.400   4.919  1.00 20.00     0.028 C 
HETATM    2  C2  UNL     1     -33.240   5.895   3.126  1.00 20.00     0.033 C 
HETATM    3  C3  UNL     1     -32.785   8.093   4.103  1.00 20.00     0.046 C 
HETATM    4  C4  UNL     1     -34.603   4.821   6.236  1.00 20.00     0.112 C 
HETATM    5  C5  UNL     1     -33.988   5.579   4.316  1.00 20.00    -0.025 C 
HETATM    6  C6  UNL     1     -32.681   7.115   3.024  1.00 20.00     0.036 C 
HETATM    7  C7  UNL     1     -33.645   7.901   5.121  1.00 20.00     0.042 C 
HETATM    8  C8  UNL     1     -34.554   6.704   5.136  1.00 20.00     0.185 C 
HETATM    9  N9  UNL     1     -34.788   6.089   6.463  1.00 20.00    -0.286 NA
HETATM   10 CL10 UNL     1     -31.724   7.530   1.649  1.00 20.00    -0.084 Cl
HETATM   11 CL11 UNL     1     -33.809   9.056   6.386  1.00 20.00    -0.086 Cl
ENDROOT
TORSDOF 0
