REMARK  3 active torsions:
REMARK  status: ('A' for Active; 'I' for Inactive)
REMARK    1  A    between atoms: C1_1  and  C6_6 
REMARK    2  A    between atoms: C5_5  and  C7_7 
REMARK    3  A    between atoms: C6_6  and  C7_7 
ROOT
HETATM    1  C2  UNL     1     -31.962   8.702   5.487  1.00 20.00     0.033 C 
HETATM    2  C3  UNL     1     -32.636   9.607   4.475  1.00 20.00     0.168 C 
HETATM    3  C4  UNL     1     -33.012   7.394   3.845  1.00 20.00     0.172 C 
HETATM    4  C5  UNL     1     -32.718   7.398   5.337  1.00 20.00     0.012 C 
HETATM    5  O9  UNL     1     -33.165   8.763   3.443  1.00 20.00    -0.391 OA
ENDROOT
BRANCH   4   6
HETATM    6  C7  UNL     1     -34.000   7.382   6.167  1.00 20.00     0.013 C 
BRANCH   6   7
HETATM    7  C6  UNL     1     -34.516   5.962   6.376  1.00 20.00     0.070 C 
BRANCH   7   8
HETATM    8  C1  UNL     1     -34.797   5.246   5.077  1.00 20.00     0.231 C 
HETATM    9  O8  UNL     1     -34.278   4.190   4.734  1.00 20.00    -0.307 OA
ENDBRANCH   7   8
ENDBRANCH   6   7
ENDBRANCH   4   6
TORSDOF 3
