REMARK  1 active torsions:
REMARK  status: ('A' for Active; 'I' for Inactive)
REMARK    1  A    between atoms: C2_2  and  C6_6 
REMARK       I    between atoms: C2_2  and  N7_7 
ROOT
HETATM    1  C1  UNL     1     -32.443   7.859   1.577  1.00 20.00     0.167 C 
HETATM    2  C2  UNL     1     -32.507   7.738   3.761  1.00 20.00     0.273 C 
HETATM    3  N7  UNL     1     -32.255   7.189   2.522  1.00 20.00    -0.197 NA
HETATM    4  O8  UNL     1     -31.727   8.357   4.479  1.00 20.00    -0.268 OA
HETATM    5  S10 UNL     1     -32.688   8.738   0.271  1.00 20.00    -0.055 SA
ENDROOT
BRANCH   2   6
HETATM    6  C6  UNL     1     -33.910   7.525   4.239  1.00 20.00     0.215 C 
HETATM    7  C4  UNL     1     -34.127   8.036   5.650  1.00 20.00     0.044 C 
HETATM    8  C3  UNL     1     -33.822   6.819   6.490  1.00 20.00     0.029 C 
HETATM    9  C5  UNL     1     -34.334   5.698   5.615  1.00 20.00     0.168 C 
HETATM   10  O9  UNL     1     -34.119   6.110   4.259  1.00 20.00    -0.376 OA
ENDBRANCH   2   6
TORSDOF 1
