REMARK  1 active torsions:
REMARK  status: ('A' for Active; 'I' for Inactive)
REMARK    1  A    between atoms: C4_4  and  C5_5 
ROOT
HETATM    1  C1  UNL     1     -34.576   4.637   5.584  1.00 20.00     0.135 A 
HETATM    2  C2  UNL     1     -34.698   5.756   6.379  1.00 20.00     0.136 A 
HETATM    3  C3  UNL     1     -33.608   5.906   3.947  1.00 20.00     0.152 A 
HETATM    4  C4  UNL     1     -33.730   7.024   4.741  1.00 20.00     0.157 A 
HETATM    5  N6  UNL     1     -34.029   4.692   4.354  1.00 20.00    -0.269 NA
HETATM    6  N7  UNL     1     -34.277   6.969   5.971  1.00 20.00    -0.254 NA
ENDROOT
BRANCH   4   7
HETATM    7  C5  UNL     1     -33.254   8.350   4.258  1.00 20.00     0.435 C 
HETATM    8  F8  UNL     1     -32.713   8.316   3.003  1.00 20.00    -0.165 F 
HETATM    9  F9  UNL     1     -34.237   9.297   4.194  1.00 20.00    -0.165 F 
HETATM   10  F10 UNL     1     -32.284   8.885   5.057  1.00 20.00    -0.165 F 
ENDBRANCH   4   7
TORSDOF 1
