REMARK  3 active torsions:
REMARK  status: ('A' for Active; 'I' for Inactive)
REMARK    1  A    between atoms: C4_4  and  C7_7 
REMARK    2  A    between atoms: C6_6  and  N9_9 
REMARK    3  A    between atoms: C7_7  and  N9_9 
ROOT
HETATM    1  C1  UNL     1     -32.960   9.305   2.905  1.00 20.00     0.089 C 
HETATM    2  C6  UNL     1     -32.863   8.838   4.287  1.00 20.00     0.393 C 
HETATM    3  N8  UNL     1     -33.038   9.679   1.809  1.00 20.00    -0.195 NA
ENDROOT
BRANCH   2   4
HETATM    4  N9  UNL     1     -32.649   7.408   4.335  1.00 20.00     0.100 N 
HETATM    5  H21 UNL     1     -32.005   7.123   3.609  1.00 20.00     0.317 HD
BRANCH   4   6
HETATM    6  C7  UNL     1     -33.931   6.696   4.108  1.00 20.00     0.221 C 
HETATM    7  C5  UNL     1     -33.632   5.283   3.628  1.00 20.00     0.043 C 
BRANCH   6   8
HETATM    8  C4  UNL     1     -34.735   6.694   5.400  1.00 20.00     0.018 A 
HETATM    9  C2  UNL     1     -34.447   5.677   6.470  1.00 20.00     0.007 A 
HETATM   10  C3  UNL     1     -34.093   7.121   6.691  1.00 20.00     0.007 A 
ENDBRANCH   6   8
ENDBRANCH   4   6
ENDBRANCH   2   4
TORSDOF 3
