REMARK  3 active torsions:
REMARK  status: ('A' for Active; 'I' for Inactive)
REMARK    1  A    between atoms: C4_4  and  C7_7 
REMARK    2  A    between atoms: C6_6  and  N9_9 
REMARK    3  A    between atoms: C7_7  and  N9_9 
ROOT
HETATM    1  C1  UNL     1     -32.521   6.384   2.834  1.00 20.00     0.089 C 
HETATM    2  C6  UNL     1     -32.454   7.787   3.238  1.00 20.00     0.393 C 
HETATM    3  N8  UNL     1     -32.575   5.271   2.510  1.00 20.00    -0.195 NA
ENDROOT
BRANCH   2   4
HETATM    4  N9  UNL     1     -32.222   7.903   4.662  1.00 20.00     0.100 N 
HETATM    5  H21 UNL     1     -31.856   8.819   4.886  1.00 20.00     0.317 HD
BRANCH   4   6
HETATM    6  C7  UNL     1     -33.498   7.731   5.398  1.00 20.00     0.221 C 
HETATM    7  C5  UNL     1     -33.362   8.370   6.773  1.00 20.00     0.043 C 
BRANCH   6   8
HETATM    8  C4  UNL     1     -33.821   6.247   5.496  1.00 20.00     0.018 A 
HETATM    9  C2  UNL     1     -35.091   5.790   6.160  1.00 20.00     0.007 A 
HETATM   10  C3  UNL     1     -34.932   5.659   4.671  1.00 20.00     0.007 A 
ENDBRANCH   6   8
ENDBRANCH   4   6
ENDBRANCH   2   4
TORSDOF 3
