REMARK  1 active torsions:
REMARK  status: ('A' for Active; 'I' for Inactive)
REMARK    1  A    between atoms: C7_7  and  O9_9 
ROOT
HETATM    1  C1  UNL     1     -33.679   7.802   5.063  1.00 20.00     0.097 C 
HETATM    2  C2  UNL     1     -32.916   6.192   3.474  1.00 20.00    -0.006 C 
HETATM    3  C3  UNL     1     -33.737   6.494   4.495  1.00 20.00     0.047 C 
HETATM    4  C4  UNL     1     -32.881   4.851   2.801  1.00 20.00     0.028 C 
HETATM    5  C5  UNL     1     -34.055   3.947   3.178  1.00 20.00     0.007 C 
HETATM    6  C6  UNL     1     -34.358   4.035   4.672  1.00 20.00     0.037 C 
HETATM    7  C7  UNL     1     -34.683   5.475   5.087  1.00 20.00     0.161 C 
HETATM    8  N8  UNL     1     -33.631   8.865   5.525  1.00 20.00    -0.192 NA
ENDROOT
BRANCH   7   9
HETATM    9  O9  UNL     1     -36.016   5.772   4.668  1.00 20.00    -0.390 OA
HETATM   10  H18 UNL     1     -36.585   5.098   5.068  1.00 20.00     0.210 HD
ENDBRANCH   7   9
TORSDOF 1
