REMARK  1 active torsions:
REMARK  status: ('A' for Active; 'I' for Inactive)
REMARK    1  A    between atoms: C7_7  and  N8_8 
ROOT
HETATM    1  C1  UNL     1     -32.914   9.718   1.417  1.00 20.00     0.013 C 
HETATM    2  C2  UNL     1     -32.843   9.286   2.535  1.00 20.00    -0.087 C 
HETATM    3  C7  UNL     1     -32.755   8.763   3.901  1.00 20.00     0.365 C 
ENDROOT
BRANCH   3   4
HETATM    4  N8  UNL     1     -33.528   7.537   4.032  1.00 20.00     0.106 N 
HETATM    5  C5  UNL     1     -33.860   7.234   5.425  1.00 20.00     0.351 C 
HETATM    6  C3  UNL     1     -34.086   5.746   5.357  1.00 20.00     0.156 C 
HETATM    7  C4  UNL     1     -33.618   5.186   4.046  1.00 20.00     0.110 C 
HETATM    8  O9  UNL     1     -34.587   5.081   6.253  1.00 20.00    -0.296 OA
HETATM    9  C6  UNL     1     -32.817   6.365   3.512  1.00 20.00     0.281 C 
ENDBRANCH   3   4
TORSDOF 1
