REMARK  3 active torsions:
REMARK  status: ('A' for Active; 'I' for Inactive)
REMARK    1  A    between atoms: C3_3  and  C6_6 
REMARK    2  A    between atoms: C3_3  and  O11_11 
REMARK    3  A    between atoms: C8_8  and  O11_11 
ROOT
HETATM    1  C1  UNL     1     -34.420   6.005   6.866  1.00 20.00    -0.025 C 
HETATM    2  C2  UNL     1     -34.743   5.045   5.989  1.00 20.00    -0.005 C 
HETATM    3  C4  UNL     1     -33.860   7.318   6.408  1.00 20.00     0.069 C 
HETATM    4  C5  UNL     1     -34.532   5.218   4.514  1.00 20.00     0.196 C 
HETATM    5  C6  UNL     1     -34.074   7.508   4.908  1.00 20.00     0.224 C 
HETATM    6  O10 UNL     1     -33.683   6.330   4.207  1.00 20.00    -0.372 OA
ENDROOT
BRANCH   5   7
HETATM    7  C3  UNL     1     -33.192   8.586   4.371  1.00 20.00     0.288 C 
HETATM    8  O9  UNL     1     -32.451   9.272   5.062  1.00 20.00    -0.262 OA
BRANCH   7   9
HETATM    9  O11 UNL     1     -33.348   8.673   3.020  1.00 20.00    -0.320 OA
BRANCH   9  10
HETATM   10  C8  UNL     1     -32.556   9.673   2.372  1.00 20.00     0.174 C 
HETATM   11  C7  UNL     1     -32.841   9.643   0.886  1.00 20.00     0.034 C 
ENDBRANCH   9  10
ENDBRANCH   7   9
ENDBRANCH   5   7
TORSDOF 3
