REMARK  1 active torsions:
REMARK  status: ('A' for Active; 'I' for Inactive)
REMARK    1  A    between atoms: C5_5  and  C10_10 
ROOT
HETATM    1  C1  UNL     1     -33.442   6.904   4.749  1.00 20.00     0.166 C 
HETATM    2  C2  UNL     1     -32.116   7.435   4.257  1.00 20.00     0.086 C 
HETATM    3  C3  UNL     1     -32.751   6.172   2.111  1.00 20.00     0.009 C 
HETATM    4  C4  UNL     1     -32.951   5.047   3.123  1.00 20.00     0.052 C 
HETATM    5  C5  UNL     1     -32.033   7.390   2.726  1.00 20.00    -0.004 C 
HETATM    6  C6  UNL     1     -33.848   5.518   4.272  1.00 20.00     0.159 C 
HETATM    7  C7  UNL     1     -33.819   4.535   5.434  1.00 20.00     0.060 C 
HETATM    8  O11 UNL     1     -34.148   7.554   5.519  1.00 20.00    -0.294 OA
HETATM    9  F12 UNL     1     -35.131   5.566   3.804  1.00 20.00    -0.235 F 
ENDROOT
BRANCH   5  10
HETATM   10  C10 UNL     1     -32.561   8.685   2.104  1.00 20.00    -0.018 C 
HETATM   11  C8  UNL     1     -32.439   8.639   0.582  1.00 20.00     0.010 C 
HETATM   12  C9  UNL     1     -34.009   8.929   2.520  1.00 20.00     0.010 C 
ENDBRANCH   5  10
TORSDOF 1
