REMARK  3 active torsions:
REMARK  status: ('A' for Active; 'I' for Inactive)
REMARK    1  A    between atoms: C6_6  and  C7_7 
REMARK    2  A    between atoms: C7_7  and  C8_8 
REMARK    3  A    between atoms: C7_7  and  O9_9 
ROOT
HETATM    1  C1  UNL     1     -31.719   8.536   3.248  1.00 20.00     0.012 C 
HETATM    2  C2  UNL     1     -32.624   8.433   4.031  1.00 20.00    -0.115 C 
HETATM    3  C6  UNL     1     -33.736   8.310   4.991  1.00 20.00     0.125 C 
ENDROOT
BRANCH   3   4
HETATM    4  C7  UNL     1     -33.709   6.945   5.700  1.00 20.00     0.136 C 
BRANCH   4   5
HETATM    5  C8  UNL     1     -34.340   5.765   4.894  1.00 20.00    -0.025 C 
HETATM    6  C3  UNL     1     -34.291   4.480   5.750  1.00 20.00     0.017 C 
HETATM    7  C4  UNL     1     -35.811   6.034   4.524  1.00 20.00     0.017 C 
HETATM    8  C5  UNL     1     -33.545   5.505   3.600  1.00 20.00     0.017 C 
ENDBRANCH   4   5
BRANCH   4   9
HETATM    9  O9  UNL     1     -34.370   7.081   6.964  1.00 20.00    -0.394 OA
HETATM   10  H23 UNL     1     -35.274   7.363   6.765  1.00 20.00     0.210 HD
ENDBRANCH   4   9
ENDBRANCH   3   4
TORSDOF 3
