REMARK  0 active torsions:
REMARK  status: ('A' for Active; 'I' for Inactive)
ROOT
HETATM    1  C1  UNL     1     -32.603   8.594   3.591  1.00 20.00     0.071 C 
HETATM    2  C2  UNL     1     -33.266   6.245   3.996  1.00 20.00     0.152 C 
HETATM    3  C3  UNL     1     -33.583   7.812   5.735  1.00 20.00     0.028 C 
HETATM    4  C4  UNL     1     -34.030   6.439   6.228  1.00 20.00     0.018 C 
HETATM    5  C5  UNL     1     -32.649   7.505   4.566  1.00 20.00     0.163 C 
HETATM    6  C6  UNL     1     -34.275   5.618   4.950  1.00 20.00     0.015 C 
HETATM    7  C7  UNL     1     -35.687   5.823   4.399  1.00 20.00     0.023 C 
HETATM    8  C8  UNL     1     -33.984   4.138   5.173  1.00 20.00     0.023 C 
HETATM    9  N9  UNL     1     -32.567   9.457   2.817  1.00 20.00    -0.196 NA
HETATM   10  O10 UNL     1     -32.984   5.781   2.897  1.00 20.00    -0.296 OA
ENDROOT
TORSDOF 0
