REMARK  2 active torsions:
REMARK  status: ('A' for Active; 'I' for Inactive)
REMARK    1  A    between atoms: C4_4  and  C6_6 
REMARK    2  A    between atoms: C5_5  and  C7_7 
ROOT
HETATM    1  C1  UNL     1     -34.150   4.556   4.039  1.00 20.00     0.007 C 
HETATM    2  C2  UNL     1     -33.468   5.813   3.439  1.00 20.00     0.007 C 
HETATM    3  C3  UNL     1     -35.448   6.468   4.567  1.00 20.00     0.014 C 
HETATM    4  C4  UNL     1     -34.988   5.141   5.198  1.00 20.00     0.017 C 
HETATM    5  C5  UNL     1     -34.005   6.953   4.334  1.00 20.00     0.017 C 
ENDROOT
BRANCH   4   6
HETATM    6  C6  UNL     1     -34.013   5.584   6.277  1.00 20.00     0.155 A 
HETATM    7  C7  UNL     1     -33.356   6.794   5.700  1.00 20.00     0.155 A 
HETATM    8  O8  UNL     1     -34.194   6.880   6.856  1.00 20.00    -0.375 OA
ENDBRANCH   4   6
TORSDOF 2
