REMARK  1 active torsions:
REMARK  status: ('A' for Active; 'I' for Inactive)
REMARK    1  A    between atoms: C6_6  and  C8_8 
ROOT
HETATM    1  C1  UNL     1     -33.264   6.628   3.599  1.00 20.00     0.144 C 
HETATM    2  C2  UNL     1     -32.017   7.429   3.911  1.00 20.00     0.079 C 
HETATM    3  C3  UNL     1     -32.368   8.854   4.309  1.00 20.00     0.007 C 
HETATM    4  C4  UNL     1     -33.388   8.888   5.441  1.00 20.00     0.002 C 
HETATM    5  C5  UNL     1     -34.656   8.129   5.052  1.00 20.00     0.026 C 
HETATM    6  C6  UNL     1     -34.399   6.667   4.633  1.00 20.00     0.114 C 
HETATM    7  C7  UNL     1     -35.689   6.096   4.019  1.00 20.00     0.033 C 
HETATM    8  O9  UNL     1     -33.310   5.913   2.597  1.00 20.00    -0.297 OA
ENDROOT
BRANCH   6   9
HETATM    9  C8  UNL     1     -34.000   5.797   5.833  1.00 20.00     0.401 C 
HETATM   10  F10 UNL     1     -32.874   6.273   6.378  1.00 20.00    -0.170 F 
HETATM   11  F11 UNL     1     -34.977   5.818   6.747  1.00 20.00    -0.170 F 
HETATM   12  F12 UNL     1     -33.798   4.538   5.429  1.00 20.00    -0.170 F 
ENDBRANCH   6   9
TORSDOF 1
