REMARK  0 active torsions:
REMARK  status: ('A' for Active; 'I' for Inactive)
ROOT
HETATM    1  C1  UNL     1     -32.641   7.336   3.781  1.00 20.00     0.047 C 
HETATM    2  C2  UNL     1     -32.511   6.568   2.694  1.00 20.00    -0.023 C 
HETATM    3  C3  UNL     1     -33.498   6.902   4.915  1.00 20.00     0.157 C 
HETATM    4  C4  UNL     1     -33.139   5.219   2.531  1.00 20.00     0.028 C 
HETATM    5  C5  UNL     1     -33.583   4.624   3.865  1.00 20.00     0.021 C 
HETATM    6  C6  UNL     1     -34.339   5.629   4.755  1.00 20.00     0.017 C 
HETATM    7  C7  UNL     1     -34.574   4.990   6.133  1.00 20.00     0.023 C 
HETATM    8  C8  UNL     1     -35.694   6.017   4.145  1.00 20.00     0.023 C 
HETATM    9  O9  UNL     1     -33.552   7.609   5.921  1.00 20.00    -0.292 OA
ENDROOT
TORSDOF 0
