REMARK  0 active torsions:
REMARK  status: ('A' for Active; 'I' for Inactive)
ROOT
HETATM    1  C1  UNL     1     -33.464   4.512   3.310  1.00 20.00     0.003 C 
HETATM    2  C2  UNL     1     -32.792   5.521   2.383  1.00 20.00     0.001 C 
HETATM    3  C3  UNL     1     -34.497   5.182   4.209  1.00 20.00     0.041 C 
HETATM    4  C4  UNL     1     -32.167   6.674   3.172  1.00 20.00     0.012 C 
HETATM    5  C5  UNL     1     -33.599   6.133   6.449  1.00 20.00     0.207 A 
HETATM    6  C6  UNL     1     -33.875   6.330   4.967  1.00 20.00     0.089 A 
HETATM    7  C7  UNL     1     -33.164   7.393   4.120  1.00 20.00    -0.014 C 
HETATM    8  C8  UNL     1     -32.361   8.407   4.960  1.00 20.00     0.018 C 
HETATM    9  C9  UNL     1     -34.197   8.197   3.301  1.00 20.00     0.018 C 
HETATM   10  O10 UNL     1     -34.737   6.868   5.984  1.00 20.00    -0.374 OA
ENDROOT
TORSDOF 0
