REMARK  2 active torsions:
REMARK  status: ('A' for Active; 'I' for Inactive)
REMARK    1  A    between atoms: C3_3  and  C8_8 
REMARK    2  A    between atoms: C8_8  and  N10_10 
ROOT
HETATM    1  C1  UNL     1     -34.075   7.562   6.039  1.00 20.00     0.100 C 
HETATM    2  C8  UNL     1     -34.091   7.097   4.641  1.00 20.00     0.356 C 
HETATM    3  N9  UNL     1     -34.068   7.929   7.141  1.00 20.00    -0.195 NA
ENDROOT
BRANCH   2   4
HETATM    4  C3  UNL     1     -33.130   7.938   3.809  1.00 20.00    -0.041 C 
HETATM    5  C2  UNL     1     -33.608   8.673   2.783  1.00 20.00    -0.025 C 
HETATM    6  C4  UNL     1     -32.846   9.530   1.825  1.00 20.00     0.036 C 
HETATM    7  C5  UNL     1     -31.673   7.891   4.198  1.00 20.00     0.046 C 
ENDBRANCH   2   4
BRANCH   2   8
HETATM    8  N10 UNL     1     -33.776   5.668   4.579  1.00 20.00     0.102 N 
HETATM    9  C6  UNL     1     -33.791   5.203   3.193  1.00 20.00     0.311 C 
HETATM   10  C7  UNL     1     -34.723   4.902   5.387  1.00 20.00     0.311 C 
ENDBRANCH   2   8
TORSDOF 2
