REMARK  3 active torsions:
REMARK  status: ('A' for Active; 'I' for Inactive)
REMARK    1  A    between atoms: C6_6  and  N8_8 
REMARK    2  A    between atoms: C6_6  and  O9_9 
REMARK    3  A    between atoms: C7_7  and  O9_9 
ROOT
HETATM    1  O9  UNL     1     -33.561   6.312   4.558  1.00 20.00    -0.352 OA
ENDROOT
BRANCH   1   2
HETATM    2  C6  UNL     1     -33.455   6.473   3.139  1.00 20.00     0.440 C 
BRANCH   2   3
HETATM    3  N8  UNL     1     -32.477   7.507   2.770  1.00 20.00     0.102 N 
HETATM    4  C4  UNL     1     -32.849   8.793   3.361  1.00 20.00     0.312 C 
HETATM    5  C5  UNL     1     -32.371   7.635   1.315  1.00 20.00     0.312 C 
ENDBRANCH   2   3
ENDBRANCH   1   2
BRANCH   1   6
HETATM    6  C7  UNL     1     -34.513   5.316   4.907  1.00 20.00     0.052 C 
HETATM    7  C1  UNL     1     -34.074   3.988   4.291  1.00 20.00     0.045 C 
HETATM    8  C2  UNL     1     -34.541   5.219   6.430  1.00 20.00     0.045 C 
HETATM    9  C3  UNL     1     -35.879   5.740   4.370  1.00 20.00     0.045 C 
ENDBRANCH   1   6
TORSDOF 3
