REMARK  0 active torsions:
REMARK  status: ('A' for Active; 'I' for Inactive)
ROOT
HETATM    1  C1  UNL     1     -33.946   5.874   4.588  1.00 20.00    -0.064 C 
HETATM    2  C2  UNL     1     -33.375   5.760   3.385  1.00 20.00     0.016 C 
HETATM    3  C3  UNL     1     -34.651   4.791   5.326  1.00 20.00     0.061 C 
HETATM    4  C4  UNL     1     -33.912   7.089   5.452  1.00 20.00     0.201 C 
HETATM    5  C5  UNL     1     -34.464   5.264   6.752  1.00 20.00     0.172 C 
HETATM    6  O6  UNL     1     -34.530   6.696   6.692  1.00 20.00    -0.387 OA
ENDROOT
TORSDOF 0
