REMARK  1 active torsions:
REMARK  status: ('A' for Active; 'I' for Inactive)
REMARK    1  A    between atoms: C3_3  and  C8_8 
ROOT
HETATM    1  C1  UNL     1     -32.569   8.701   5.221  1.00 20.00     0.302 C 
HETATM    2  C2  UNL     1     -34.501   6.927   5.106  1.00 20.00     0.209 C 
HETATM    3  C3  UNL     1     -32.487   7.709   4.060  1.00 20.00     0.149 C 
HETATM    4  C4  UNL     1     -33.728   6.918   6.438  1.00 20.00     0.171 C 
HETATM    5  C5  UNL     1     -33.021   5.564   6.635  1.00 20.00     0.051 C 
HETATM    6  C6  UNL     1     -34.710   7.138   7.598  1.00 20.00     0.051 C 
HETATM    7  N9  UNL     1     -32.730   8.004   6.497  1.00 20.00     0.097 N 
HETATM    8  O10 UNL     1     -33.631   6.851   3.977  1.00 20.00    -0.382 OA
HETATM    9  H27 UNL     1     -31.828   7.607   6.762  1.00 20.00     0.317 HD
ENDROOT
BRANCH   3  10
HETATM   10  C8  UNL     1     -32.354   8.431   2.726  1.00 20.00     0.029 C 
HETATM   11  C7  UNL     1     -32.273   7.473   1.580  1.00 20.00     0.007 C 
ENDBRANCH   3  10
TORSDOF 1
