REMARK  5 active torsions:
REMARK  status: ('A' for Active; 'I' for Inactive)
REMARK    1  A    between atoms: C5_5  and  C9_9 
REMARK    2  A    between atoms: C6_6  and  C9_9 
REMARK    3  A    between atoms: C7_7  and  N11_11 
REMARK    4  A    between atoms: C8_8  and  N11_11 
REMARK    5  A    between atoms: C9_9  and  N11_11 
ROOT
HETATM    1  C1  UNL     1     -34.673   5.751   5.835  1.00 20.00     0.061 C 
HETATM    2  C5  UNL     1     -35.132   5.891   4.444  1.00 20.00     0.159 C 
HETATM    3  N10 UNL     1     -34.314   5.640   6.933  1.00 20.00    -0.197 NA
ENDROOT
BRANCH   2   4
HETATM    4  C9  UNL     1     -33.958   6.001   3.454  1.00 20.00     0.235 C 
BRANCH   4   5
HETATM    5  C6  UNL     1     -33.342   4.622   3.144  1.00 20.00     0.032 C 
HETATM    6  C2  UNL     1     -32.808   3.898   4.375  1.00 20.00     0.007 C 
ENDBRANCH   4   5
BRANCH   4   7
HETATM    7  N11 UNL     1     -32.949   6.892   4.036  1.00 20.00     0.093 N 
BRANCH   7   8
HETATM    8  C7  UNL     1     -33.518   8.216   4.273  1.00 20.00     0.268 C 
HETATM    9  C3  UNL     1     -32.523   9.122   4.917  1.00 20.00     0.037 C 
ENDBRANCH   7   8
BRANCH   7  10
HETATM   10  C8  UNL     1     -31.785   6.982   3.157  1.00 20.00     0.268 C 
HETATM   11  C4  UNL     1     -32.152   7.569   1.837  1.00 20.00     0.037 C 
ENDBRANCH   7  10
ENDBRANCH   4   7
ENDBRANCH   2   4
TORSDOF 5
