REMARK  0 active torsions:
REMARK  status: ('A' for Active; 'I' for Inactive)
ROOT
HETATM    1  C1  UNL     1     -32.404   6.354   2.545  1.00 20.00    -0.003 C 
HETATM    2  C2  UNL     1     -32.816   7.253   3.604  1.00 20.00     0.011 C 
HETATM    3  C3  UNL     1     -33.061   5.181   2.641  1.00 20.00    -0.017 C 
HETATM    4  C4  UNL     1     -33.754   6.615   4.305  1.00 20.00    -0.005 C 
HETATM    5  C5  UNL     1     -34.255   6.694   5.680  1.00 20.00     0.156 C 
HETATM    6  C6  UNL     1     -34.630   5.294   6.111  1.00 20.00     0.084 C 
HETATM    7  C7  UNL     1     -34.012   4.419   4.990  1.00 20.00     0.021 C 
HETATM    8  C8  UNL     1     -34.087   5.278   3.728  1.00 20.00     0.045 C 
HETATM    9  O9  UNL     1     -34.340   7.710   6.346  1.00 20.00    -0.293 OA
ENDROOT
TORSDOF 0
