REMARK  1 active torsions:
REMARK  status: ('A' for Active; 'I' for Inactive)
REMARK    1  A    between atoms: C1_1  and  S9_9 
ROOT
HETATM    1  C1  UNL     1     -33.623   7.113   5.455  1.00 20.00     0.047 A 
HETATM    2  C2  UNL     1     -32.665   7.947   4.848  1.00 20.00     0.069 A 
HETATM    3  C3  UNL     1     -33.795   6.082   4.563  1.00 20.00     0.044 A 
HETATM    4  C4  UNL     1     -32.097   9.209   5.359  1.00 20.00     0.074 C 
HETATM    5  C5  UNL     1     -34.657   4.885   4.602  1.00 20.00     0.071 C 
HETATM    6  C6  UNL     1     -32.782   5.558   2.323  1.00 20.00     0.179 C 
HETATM    7  N7  UNL     1     -32.258   7.487   3.662  1.00 20.00    -0.176 NA
HETATM    8  N8  UNL     1     -32.962   6.352   3.517  1.00 20.00    -0.277 N 
ENDROOT
BRANCH   1   9
HETATM    9  S9  UNL     1     -34.404   7.345   6.989  1.00 20.00    -0.139 SA
HETATM   10  H19 UNL     1     -35.183   6.245   7.004  1.00 20.00     0.107 HD
ENDBRANCH   1   9
TORSDOF 1
