REMARK  2 active torsions:
REMARK  status: ('A' for Active; 'I' for Inactive)
REMARK    1  A    between atoms: C6_6  and  C7_7 
REMARK    2  A    between atoms: C7_7  and  N9_9 
ROOT
HETATM    1  C1  UNL     1     -33.991   4.262   4.031  1.00 20.00     0.101 C 
HETATM    2  C4  UNL     1     -35.574   6.024   3.385  1.00 20.00     0.066 C 
HETATM    3  C7  UNL     1     -34.525   5.585   4.419  1.00 20.00     0.243 C 
HETATM    4  N8  UNL     1     -33.573   3.223   3.725  1.00 20.00    -0.195 NA
ENDROOT
BRANCH   3   5
HETATM    5  C6  UNL     1     -33.387   6.644   4.575  1.00 20.00     0.030 C 
HETATM    6  C2  UNL     1     -33.887   8.024   5.026  1.00 20.00     0.013 C 
HETATM    7  C3  UNL     1     -32.544   6.814   3.299  1.00 20.00     0.013 C 
ENDBRANCH   3   5
BRANCH   3   8
HETATM    8  N9  UNL     1     -35.220   5.455   5.693  1.00 20.00     0.102 N 
HETATM    9  C5  UNL     1     -34.315   4.992   6.736  1.00 20.00     0.309 C 
HETATM   10  H23 UNL     1     -35.984   4.787   5.591  1.00 20.00     0.317 HD
ENDBRANCH   3   8
TORSDOF 2
