REMARK  2 active torsions:
REMARK  status: ('A' for Active; 'I' for Inactive)
REMARK    1  A    between atoms: C1_1  and  C5_5 
REMARK       I    between atoms: C1_1  and  N7_7 
REMARK    2  A    between atoms: C5_5  and  C6_6 
ROOT
HETATM    1  C1  UNL     1     -33.197   8.098   4.569  1.00 20.00     0.220 C 
HETATM    2  C2  UNL     1     -34.863   5.487   5.976  1.00 20.00     0.040 C 
HETATM    3  C3  UNL     1     -34.028   6.654   6.516  1.00 20.00     0.127 C 
HETATM    4  C4  UNL     1     -35.019   6.260   4.661  1.00 20.00     0.127 C 
HETATM    5  N7  UNL     1     -33.967   7.129   5.148  1.00 20.00    -0.352 N 
HETATM    6  O8  UNL     1     -32.367   8.775   5.173  1.00 20.00    -0.273 OA
ENDROOT
BRANCH   1   7
HETATM    7  C5  UNL     1     -33.439   8.284   3.094  1.00 20.00     0.118 C 
BRANCH   7   8
HETATM    8  C6  UNL     1     -32.546   9.375   2.539  1.00 20.00     0.124 C 
HETATM    9 CL9  UNL     1     -32.788   9.590   0.787  1.00 20.00    -0.130 Cl
ENDBRANCH   7   8
ENDBRANCH   1   7
TORSDOF 2
