REMARK  3 active torsions:
REMARK  status: ('A' for Active; 'I' for Inactive)
REMARK    1  A    between atoms: C2_2  and  C4_4 
REMARK    2  A    between atoms: C2_2  and  C9_9 
REMARK    3  A    between atoms: C8_8  and  C9_9 
ROOT
HETATM    1  C1  UNL     1     -32.235   8.787   3.837  1.00 20.00     0.071 C 
HETATM    2  C9  UNL     1     -32.192   7.464   3.187  1.00 20.00     0.162 C 
HETATM    3  N10 UNL     1     -32.266   9.827   4.351  1.00 20.00    -0.196 NA
ENDROOT
BRANCH   2   4
HETATM    4  C2  UNL     1     -33.234   6.525   3.775  1.00 20.00     0.148 C 
HETATM    5  O11 UNL     1     -33.371   5.352   3.447  1.00 20.00    -0.296 OA
BRANCH   4   6
HETATM    6  C4  UNL     1     -34.136   7.111   4.811  1.00 20.00     0.061 A 
HETATM    7  C3  UNL     1     -33.657   7.167   6.225  1.00 20.00     0.017 A 
HETATM    8  C5  UNL     1     -34.767   6.230   5.843  1.00 20.00    -0.007 A 
HETATM    9  C6  UNL     1     -34.549   4.756   5.895  1.00 20.00     0.011 C 
ENDBRANCH   4   6
ENDBRANCH   2   4
BRANCH   2  10
HETATM   10  C8  UNL     1     -32.340   7.574   1.662  1.00 20.00     0.022 C 
HETATM   11  C7  UNL     1     -31.291   8.447   0.982  1.00 20.00     0.007 C 
ENDBRANCH   2  10
TORSDOF 3
