REMARK  2 active torsions:
REMARK  status: ('A' for Active; 'I' for Inactive)
REMARK    1  A    between atoms: C1_1  and  C3_3 
REMARK    2  A    between atoms: C7_7  and  C9_9 
ROOT
HETATM    1  C1  UNL     1     -33.597   6.559   4.064  1.00 20.00    -0.002 C 
HETATM    2  C2  UNL     1     -33.845   7.345   5.127  1.00 20.00     0.021 C 
HETATM    3  C4  UNL     1     -32.896   7.062   2.828  1.00 20.00     0.047 C 
HETATM    4  C5  UNL     1     -33.418   8.788   5.190  1.00 20.00     0.052 C 
HETATM    5  C6  UNL     1     -32.420   9.180   4.097  1.00 20.00     0.010 C 
HETATM    6  C7  UNL     1     -32.832   8.596   2.743  1.00 20.00    -0.010 C 
HETATM    7 CL11 UNL     1     -34.672   6.805   6.551  1.00 20.00    -0.088 Cl
ENDROOT
BRANCH   1   8
HETATM    8  C3  UNL     1     -34.001   5.144   4.022  1.00 20.00     0.267 C 
HETATM    9  O10 UNL     1     -34.983   4.729   4.617  1.00 20.00    -0.302 OA
ENDBRANCH   1   8
BRANCH   6  10
HETATM   10  C9  UNL     1     -31.875   9.039   1.639  1.00 20.00     0.000 C 
HETATM   11  C8  UNL     1     -32.284   8.502   0.306  1.00 20.00     0.005 C 
ENDBRANCH   6  10
TORSDOF 2
