REMARK  2 active torsions:
REMARK  status: ('A' for Active; 'I' for Inactive)
REMARK    1  A    between atoms: C2_2  and  C4_4 
REMARK    2  A    between atoms: C2_2  and  C8_8 
ROOT
HETATM    1  C1  UNL     1     -34.154   5.254   4.999  1.00 20.00     0.071 C 
HETATM    2  C7  UNL     1     -34.731   6.986   6.654  1.00 20.00     0.033 C 
HETATM    3  C8  UNL     1     -33.652   6.430   5.731  1.00 20.00     0.158 C 
HETATM    4  N9  UNL     1     -34.546   4.326   4.424  1.00 20.00    -0.196 NA
ENDROOT
BRANCH   3   5
HETATM    5  C2  UNL     1     -33.200   7.515   4.770  1.00 20.00     0.148 C 
HETATM    6  O10 UNL     1     -32.730   8.593   5.115  1.00 20.00    -0.296 OA
BRANCH   5   7
HETATM    7  C4  UNL     1     -33.372   7.217   3.317  1.00 20.00     0.061 A 
HETATM    8  C3  UNL     1     -32.771   5.964   2.772  1.00 20.00     0.017 A 
HETATM    9  C5  UNL     1     -32.163   7.297   2.428  1.00 20.00    -0.007 A 
HETATM   10  C6  UNL     1     -32.301   7.852   1.052  1.00 20.00     0.011 C 
ENDBRANCH   5   7
ENDBRANCH   3   5
TORSDOF 2
