REMARK  3 active torsions:
REMARK  status: ('A' for Active; 'I' for Inactive)
REMARK    1  A    between atoms: C2_2  and  C5_5 
REMARK    2  A    between atoms: C2_2  and  C7_7 
REMARK    3  A    between atoms: C5_5  and  C6_6 
ROOT
HETATM    1  C1  UNL     1     -32.123   8.108   4.131  1.00 20.00     0.071 C 
HETATM    2  C4  UNL     1     -32.435   7.933   1.691  1.00 20.00     0.033 C 
HETATM    3  C7  UNL     1     -31.969   7.228   2.960  1.00 20.00     0.158 C 
HETATM    4  N8  UNL     1     -32.240   8.801   5.054  1.00 20.00    -0.196 NA
ENDROOT
BRANCH   3   5
HETATM    5  C2  UNL     1     -32.756   5.935   3.140  1.00 20.00     0.144 C 
HETATM    6  O9  UNL     1     -32.383   4.872   2.643  1.00 20.00    -0.297 OA
BRANCH   5   7
HETATM    7  C5  UNL     1     -34.036   6.038   3.960  1.00 20.00     0.079 C 
BRANCH   7   8
HETATM    8  C6  UNL     1     -33.828   5.816   5.456  1.00 20.00     0.003 C 
HETATM    9  C3  UNL     1     -35.133   5.858   6.238  1.00 20.00     0.005 C 
ENDBRANCH   7   8
ENDBRANCH   5   7
ENDBRANCH   3   5
TORSDOF 3
