REMARK  3 active torsions:
REMARK  status: ('A' for Active; 'I' for Inactive)
REMARK    1  A    between atoms: C2_2  and  C7_7 
REMARK    2  A    between atoms: C2_2  and  C8_8 
REMARK    3  A    between atoms: C7_7  and  C9_9 
ROOT
HETATM    1  C1  UNL     1     -32.660   9.080   2.182  1.00 20.00     0.071 C 
HETATM    2  C3  UNL     1     -32.347   9.639   4.563  1.00 20.00     0.033 C 
HETATM    3  C8  UNL     1     -33.036   8.721   3.560  1.00 20.00     0.158 C 
HETATM    4  N10 UNL     1     -32.368   9.363   1.095  1.00 20.00    -0.196 NA
ENDROOT
BRANCH   3   5
HETATM    5  C2  UNL     1     -32.667   7.274   3.867  1.00 20.00     0.144 C 
HETATM    6  O11 UNL     1     -32.125   6.546   3.033  1.00 20.00    -0.296 OA
BRANCH   5   7
HETATM    7  C7  UNL     1     -33.023   6.744   5.248  1.00 20.00     0.088 C 
BRANCH   7   8
HETATM    8  C9  UNL     1     -34.049   5.588   5.256  1.00 20.00    -0.045 C 
HETATM    9  C4  UNL     1     -33.865   4.687   6.488  1.00 20.00     0.015 C 
HETATM   10  C5  UNL     1     -33.938   4.734   3.982  1.00 20.00     0.015 C 
HETATM   11  C6  UNL     1     -35.461   6.203   5.307  1.00 20.00     0.015 C 
ENDBRANCH   7   8
ENDBRANCH   5   7
ENDBRANCH   3   5
TORSDOF 3
