REMARK  4 active torsions:
REMARK  status: ('A' for Active; 'I' for Inactive)
REMARK    1  A    between atoms: C3_3  and  C6_6 
REMARK    2  A    between atoms: C3_3  and  C7_7 
REMARK    3  A    between atoms: C5_5  and  C6_6 
REMARK    4  A    between atoms: C7_7  and  C8_8 
ROOT
HETATM    1  C1  UNL     1     -32.533   6.914   2.289  1.00 20.00     0.012 C 
HETATM    2  C2  UNL     1     -32.335   7.459   3.341  1.00 20.00    -0.117 C 
HETATM    3  C5  UNL     1     -32.092   8.125   4.629  1.00 20.00     0.100 C 
ENDROOT
BRANCH   3   4
HETATM    4  C6  UNL     1     -33.371   8.259   5.452  1.00 20.00     0.090 C 
BRANCH   4   5
HETATM    5  C3  UNL     1     -34.002   6.924   5.830  1.00 20.00     0.127 C 
HETATM    6  O9  UNL     1     -33.686   6.311   6.848  1.00 20.00    -0.298 OA
BRANCH   5   7
HETATM    7  C7  UNL     1     -35.067   6.411   4.873  1.00 20.00     0.078 C 
BRANCH   7   8
HETATM    8  C8  UNL     1     -35.159   4.888   4.859  1.00 20.00     0.003 C 
HETATM    9  C4  UNL     1     -33.855   4.254   4.402  1.00 20.00     0.005 C 
ENDBRANCH   7   8
ENDBRANCH   5   7
ENDBRANCH   4   5
ENDBRANCH   3   4
TORSDOF 4
