REMARK  3 active torsions:
REMARK  status: ('A' for Active; 'I' for Inactive)
REMARK    1  A    between atoms: C4_4  and  N9_9 
REMARK    2  A    between atoms: C6_6  and  N9_9 
REMARK    3  A    between atoms: C7_7  and  N9_9 
ROOT
HETATM    1  C1  UNL     1     -32.464   6.254   2.871  1.00 20.00     0.089 C 
HETATM    2  C6  UNL     1     -32.686   7.593   3.414  1.00 20.00     0.396 C 
HETATM    3  N8  UNL     1     -32.288   5.193   2.436  1.00 20.00    -0.195 NA
ENDROOT
BRANCH   2   4
HETATM    4  N9  UNL     1     -33.169   7.523   4.792  1.00 20.00     0.105 N 
BRANCH   4   5
HETATM    5  C4  UNL     1     -34.432   6.788   4.854  1.00 20.00     0.224 A 
HETATM    6  C2  UNL     1     -34.440   5.285   4.833  1.00 20.00     0.038 A 
HETATM    7  C3  UNL     1     -34.808   6.018   6.090  1.00 20.00     0.038 A 
ENDBRANCH   4   5
BRANCH   4   8
HETATM    8  C7  UNL     1     -33.331   8.867   5.346  1.00 20.00     0.269 C 
HETATM    9  C5  UNL     1     -32.051   9.630   5.290  1.00 20.00     0.037 C 
ENDBRANCH   4   8
ENDBRANCH   2   4
TORSDOF 3
