REMARK  3 active torsions:
REMARK  status: ('A' for Active; 'I' for Inactive)
REMARK    1  A    between atoms: C1_1  and  C4_4 
REMARK       I    between atoms: C1_1  and  N7_7 
REMARK    2  A    between atoms: C5_5  and  C6_6 
REMARK    3  A    between atoms: C6_6  and  N7_7 
ROOT
HETATM    1  C1  UNL     1     -33.485   6.728   4.171  1.00 20.00     0.233 C 
HETATM    2  C3  UNL     1     -32.255   8.942   4.389  1.00 20.00     0.152 C 
HETATM    3  N7  UNL     1     -32.724   7.778   3.641  1.00 20.00    -0.356 N 
HETATM    4  O8  UNL     1     -33.859   5.762   3.501  1.00 20.00    -0.272 OA
ENDROOT
BRANCH   3   5
HETATM    5  C6  UNL     1     -32.338   7.748   2.235  1.00 20.00     0.125 C 
BRANCH   5   6
HETATM    6  C5  UNL     1     -33.368   8.422   1.336  1.00 20.00     0.015 C 
HETATM    7  C2  UNL     1     -32.984   8.376  -0.136  1.00 20.00     0.006 C 
ENDBRANCH   5   6
ENDBRANCH   3   5
BRANCH   1   8
HETATM    8  C4  UNL     1     -33.829   6.847   5.642  1.00 20.00     0.217 C 
HETATM    9 CL9  UNL     1     -34.761   5.439   6.188  1.00 20.00    -0.121 Cl
ENDBRANCH   1   8
TORSDOF 3
