REMARK  0 active torsions:
REMARK  status: ('A' for Active; 'I' for Inactive)
ROOT
HETATM    1  C1  UNL     1     -34.442   6.021   5.981  1.00 20.00     0.039 A 
HETATM    2  C2  UNL     1     -34.723   4.655   5.926  1.00 20.00     0.022 A 
HETATM    3  C3  UNL     1     -33.637   4.476   3.754  1.00 20.00     0.029 A 
HETATM    4  C4  UNL     1     -33.356   5.828   3.826  1.00 20.00    -0.021 A 
HETATM    5  C5  UNL     1     -33.753   6.580   4.922  1.00 20.00     0.075 A 
HETATM    6  C6  UNL     1     -34.321   3.887   4.820  1.00 20.00     0.011 A 
HETATM    7  C7  UNL     1     -32.707   6.710   2.831  1.00 20.00     0.073 C 
HETATM    8  C8  UNL     1     -32.484   7.950   3.712  1.00 20.00     0.129 C 
HETATM    9  C9  UNL     1     -32.688   9.250   2.952  1.00 20.00     0.040 C 
HETATM   10  O10 UNL     1     -33.413   7.905   4.827  1.00 20.00    -0.345 OA
HETATM   11 BR11 UNL     1     -34.723   2.039   4.770  1.00 20.00    -0.051 Br
ENDROOT
TORSDOF 0
