REMARK  0 active torsions:
REMARK  status: ('A' for Active; 'I' for Inactive)
ROOT
HETATM    1  C1  UNL     1     -32.245   8.999   4.654  1.00 20.00     0.064 C 
HETATM    2  C2  UNL     1     -32.310   6.967   3.172  1.00 20.00     0.023 C 
HETATM    3  C3  UNL     1     -33.537   6.964   5.379  1.00 20.00     0.028 C 
HETATM    4  C4  UNL     1     -33.625   4.911   3.886  1.00 20.00     0.013 C 
HETATM    5  C5  UNL     1     -33.094   7.817   4.181  1.00 20.00     0.094 C 
HETATM    6  C6  UNL     1     -33.074   5.724   2.704  1.00 20.00    -0.017 C 
HETATM    7  C7  UNL     1     -34.365   5.723   4.979  1.00 20.00    -0.046 C 
HETATM    8  C8  UNL     1     -34.127   6.074   1.735  1.00 20.00     0.010 C 
HETATM    9  C9  UNL     1     -35.776   6.138   4.519  1.00 20.00     0.015 C 
HETATM   10  C10 UNL     1     -34.538   4.823   6.222  1.00 20.00     0.015 C 
HETATM   11  N11 UNL     1     -31.602   9.895   5.012  1.00 20.00    -0.197 NA
ENDROOT
TORSDOF 0
