REMARK  2 active torsions:
REMARK  status: ('A' for Active; 'I' for Inactive)
REMARK    1  A    between atoms: C7_7  and  C12_12 
REMARK    2  A    between atoms: C11_11  and  C12_12 
ROOT
HETATM    1  C1  UNL     1     -32.526   9.290   1.995  1.00 20.00     0.064 C 
HETATM    2  C2  UNL     1     -32.188   8.744   4.391  1.00 20.00     0.019 C 
HETATM    3  C3  UNL     1     -31.602   7.066   2.588  1.00 20.00     0.019 C 
HETATM    4  C4  UNL     1     -33.482   7.981   4.677  1.00 20.00     0.007 C 
HETATM    5  C5  UNL     1     -32.897   6.306   2.878  1.00 20.00     0.007 C 
HETATM    6  C6  UNL     1     -31.682   8.553   2.956  1.00 20.00     0.093 C 
HETATM    7  C7  UNL     1     -33.352   6.492   4.331  1.00 20.00    -0.007 C 
HETATM    8  N13 UNL     1     -33.189   9.869   1.240  1.00 20.00    -0.197 NA
ENDROOT
BRANCH   7   9
HETATM    9  C12 UNL     1     -34.671   5.763   4.581  1.00 20.00    -0.044 C 
HETATM   10  C9  UNL     1     -35.758   6.365   3.667  1.00 20.00     0.015 C 
HETATM   11  C10 UNL     1     -34.495   4.273   4.227  1.00 20.00     0.015 C 
BRANCH   9  12
HETATM   12  C11 UNL     1     -35.056   5.931   6.078  1.00 20.00     0.004 C 
HETATM   13  C8  UNL     1     -34.062   5.385   7.096  1.00 20.00     0.006 C 
ENDBRANCH   9  12
ENDBRANCH   7   9
TORSDOF 2
