REMARK  3 active torsions:
REMARK  status: ('A' for Active; 'I' for Inactive)
REMARK    1  A    between atoms: C5_5  and  C6_6 
REMARK    2  A    between atoms: C6_6  and  C7_7 
REMARK    3  A    between atoms: C7_7  and  N9_9 
ROOT
HETATM    1  C1  UNL     1     -32.983   5.871   3.039  1.00 20.00     0.095 C 
HETATM    2  C7  UNL     1     -33.820   6.743   3.880  1.00 20.00     0.327 C 
HETATM    3  N8  UNL     1     -32.326   5.186   2.372  1.00 20.00    -0.195 NA
ENDROOT
BRANCH   2   4
HETATM    4  C6  UNL     1     -35.024   5.980   4.462  1.00 20.00     0.050 C 
BRANCH   4   5
HETATM    5  C5  UNL     1     -34.699   5.077   5.660  1.00 20.00    -0.001 C 
HETATM    6  C2  UNL     1     -33.639   4.045   5.301  1.00 20.00     0.005 C 
ENDBRANCH   4   5
ENDBRANCH   2   4
BRANCH   2   7
HETATM    7  N9  UNL     1     -33.016   7.353   4.938  1.00 20.00     0.098 N 
HETATM    8  C3  UNL     1     -33.846   8.219   5.775  1.00 20.00     0.311 C 
HETATM    9  C4  UNL     1     -31.904   8.110   4.364  1.00 20.00     0.311 C 
ENDBRANCH   2   7
TORSDOF 3
