REMARK  4 active torsions:
REMARK  status: ('A' for Active; 'I' for Inactive)
REMARK    1  A    between atoms: C1_1  and  C8_8 
REMARK    2  A    between atoms: C4_4  and  C7_7 
REMARK    3  A    between atoms: C7_7  and  O10_10 
REMARK    4  A    between atoms: C8_8  and  O10_10 
ROOT
HETATM    1  C6  UNL     1     -32.104   9.302   4.858  1.00 20.00     0.048 C 
HETATM    2  C8  UNL     1     -33.072   8.293   4.267  1.00 20.00     0.186 C 
ENDROOT
BRANCH   2   3
HETATM    3  C1  UNL     1     -32.602   7.798   2.906  1.00 20.00     0.151 C 
HETATM    4  C5  UNL     1     -32.489   8.821   1.805  1.00 20.00     0.093 C 
HETATM    5  O9  UNL     1     -32.326   6.616   2.699  1.00 20.00    -0.296 OA
ENDBRANCH   2   3
BRANCH   2   6
HETATM    6  O10 UNL     1     -33.161   7.192   5.157  1.00 20.00    -0.378 OA
BRANCH   6   7
HETATM    7  C7  UNL     1     -34.004   7.480   6.266  1.00 20.00     0.173 C 
BRANCH   7   8
HETATM    8  C4  UNL     1     -34.456   6.179   6.893  1.00 20.00     0.009 A 
HETATM    9  C2  UNL     1     -34.838   5.012   6.025  1.00 20.00     0.007 A 
HETATM   10  C3  UNL     1     -33.573   4.963   6.835  1.00 20.00     0.007 A 
ENDBRANCH   7   8
ENDBRANCH   6   7
ENDBRANCH   2   6
TORSDOF 4
