REMARK  3 active torsions:
REMARK  status: ('A' for Active; 'I' for Inactive)
REMARK    1  A    between atoms: C5_5  and  C6_6 
REMARK    2  A    between atoms: C6_6  and  C7_7 
REMARK    3  A    between atoms: C7_7  and  N9_9 
ROOT
HETATM    1  C1  UNL     1     -34.070   7.871   4.783  1.00 20.00     0.095 C 
HETATM    2  C7  UNL     1     -34.248   6.827   3.761  1.00 20.00     0.327 C 
HETATM    3  N8  UNL     1     -33.929   8.698   5.585  1.00 20.00    -0.195 NA
ENDROOT
BRANCH   2   4
HETATM    4  C6  UNL     1     -35.249   5.751   4.220  1.00 20.00     0.050 C 
BRANCH   4   5
HETATM    5  C5  UNL     1     -34.661   4.669   5.136  1.00 20.00    -0.001 C 
HETATM    6  C2  UNL     1     -34.144   5.269   6.436  1.00 20.00     0.005 C 
ENDBRANCH   4   5
ENDBRANCH   2   4
BRANCH   2   7
HETATM    7  N9  UNL     1     -32.960   6.232   3.410  1.00 20.00     0.098 N 
HETATM    8  C3  UNL     1     -31.924   7.261   3.336  1.00 20.00     0.311 C 
HETATM    9  C4  UNL     1     -33.057   5.514   2.139  1.00 20.00     0.311 C 
ENDBRANCH   2   7
TORSDOF 3
