REMARK  3 active torsions:
REMARK  status: ('A' for Active; 'I' for Inactive)
REMARK    1  A    between atoms: C1_1  and  C4_4 
REMARK    2  A    between atoms: C1_1  and  C7_7 
REMARK    3  A    between atoms: C7_7  and  C8_8 
ROOT
HETATM    1  C1  UNL     1     -33.622   6.344   3.853  1.00 20.00     0.131 C 
HETATM    2  O9  UNL     1     -33.523   5.224   3.353  1.00 20.00    -0.298 OA
ENDROOT
BRANCH   1   3
HETATM    3  C4  UNL     1     -32.506   7.349   3.730  1.00 20.00     0.055 A 
HETATM    4  C2  UNL     1     -32.481   8.221   2.527  1.00 20.00     0.013 A 
HETATM    5  C3  UNL     1     -32.847   8.788   3.866  1.00 20.00     0.013 A 
ENDBRANCH   1   3
BRANCH   1   6
HETATM    6  C7  UNL     1     -34.834   6.785   4.660  1.00 20.00     0.082 C 
BRANCH   6   7
HETATM    7  C8  UNL     1     -34.752   6.425   6.150  1.00 20.00    -0.016 C 
HETATM    8  C5  UNL     1     -33.537   7.075   6.817  1.00 20.00     0.010 C 
HETATM    9  C6  UNL     1     -34.681   4.905   6.320  1.00 20.00     0.010 C 
ENDBRANCH   6   7
ENDBRANCH   1   6
TORSDOF 3
