REMARK  4 active torsions:
REMARK  status: ('A' for Active; 'I' for Inactive)
REMARK    1  A    between atoms: C3_3  and  C7_7 
REMARK    2  A    between atoms: C5_5  and  C6_6 
REMARK    3  A    between atoms: C6_6  and  C7_7 
REMARK    4  A    between atoms: C7_7  and  O8_8 
ROOT
HETATM    1  C7  UNL     1     -33.210   7.187   5.450  1.00 20.00     0.122 C 
ENDROOT
BRANCH   1   2
HETATM    2  C3  UNL     1     -34.684   6.810   5.516  1.00 20.00     0.014 A 
HETATM    3  C1  UNL     1     -35.170   5.537   4.881  1.00 20.00     0.007 A 
HETATM    4  C2  UNL     1     -35.134   5.665   6.379  1.00 20.00     0.007 A 
ENDBRANCH   1   2
BRANCH   1   5
HETATM    5  C6  UNL     1     -32.856   7.841   4.110  1.00 20.00     0.032 C 
BRANCH   5   6
HETATM    6  C5  UNL     1     -32.701   6.810   2.989  1.00 20.00    -0.002 C 
HETATM    7  C4  UNL     1     -32.393   7.479   1.658  1.00 20.00     0.005 C 
ENDBRANCH   5   6
ENDBRANCH   1   5
BRANCH   1   8
HETATM    8  O8  UNL     1     -32.917   8.078   6.522  1.00 20.00    -0.395 OA
HETATM    9  H22 UNL     1     -31.975   8.297   6.450  1.00 20.00     0.210 HD
ENDBRANCH   1   8
TORSDOF 4
