REMARK  5 active torsions:
REMARK  status: ('A' for Active; 'I' for Inactive)
REMARK    1  A    between atoms: C4_4  and  C6_6 
REMARK    2  A    between atoms: C4_4  and  C7_7 
REMARK    3  A    between atoms: C5_5  and  C8_8 
REMARK    4  A    between atoms: C5_5  and  N9_9 
REMARK    5  A    between atoms: C7_7  and  N9_9 
ROOT
HETATM    1  C3  UNL     1     -32.747   9.075   5.982  1.00 20.00     0.042 C 
HETATM    2  C7  UNL     1     -32.717   8.310   4.661  1.00 20.00     0.217 C 
ENDROOT
BRANCH   2   3
HETATM    3  C4  UNL     1     -32.560   9.275   3.476  1.00 20.00     0.039 C 
BRANCH   3   4
HETATM    4  C6  UNL     1     -33.036   8.723   2.115  1.00 20.00    -0.021 C 
HETATM    5  C1  UNL     1     -32.236   7.466   1.761  1.00 20.00     0.009 C 
HETATM    6  C2  UNL     1     -32.906   9.749   0.990  1.00 20.00     0.009 C 
ENDBRANCH   3   4
ENDBRANCH   2   3
BRANCH   2   7
HETATM    7  N9  UNL     1     -33.947   7.558   4.529  1.00 20.00     0.092 N 
HETATM    8  H28 UNL     1     -34.745   8.197   4.539  1.00 20.00     0.316 HD
BRANCH   7   9
HETATM    9  C5  UNL     1     -34.100   6.598   5.619  1.00 20.00     0.340 C 
BRANCH   9  10
HETATM   10  C8  UNL     1     -35.072   5.503   5.232  1.00 20.00     0.381 C 
HETATM   11  F10 UNL     1     -34.463   4.614   4.408  1.00 20.00    -0.213 F 
HETATM   12  F11 UNL     1     -36.094   6.047   4.522  1.00 20.00    -0.213 F 
ENDBRANCH   9  10
ENDBRANCH   7   9
ENDBRANCH   2   7
TORSDOF 5
