REMARK  1 active torsions:
REMARK  status: ('A' for Active; 'I' for Inactive)
REMARK    1  A    between atoms: C2_2  and  C3_3 
ROOT
HETATM    1  C1  UNL     1     -33.211   7.436   4.955  1.00 20.00     0.064 C 
HETATM    2  C2  UNL     1     -34.025   6.697   5.929  1.00 20.00     0.194 C 
HETATM    3  N4  UNL     1     -32.566   8.020   4.187  1.00 20.00    -0.197 NA
ENDROOT
BRANCH   2   4
HETATM    4  C3  UNL     1     -34.904   5.665   5.249  1.00 20.00     0.366 C 
HETATM    5  F5  UNL     1     -34.143   4.781   4.558  1.00 20.00    -0.213 F 
HETATM    6  F6  UNL     1     -35.730   6.264   4.357  1.00 20.00    -0.213 F 
ENDBRANCH   2   4
TORSDOF 1
