REMARK  2 active torsions:
REMARK  status: ('A' for Active; 'I' for Inactive)
REMARK    1  A    between atoms: C7_7  and  C10_10 
REMARK    2  A    between atoms: C8_8  and  C9_9 
ROOT
HETATM    1  C1  UNL     1     -34.294   5.518   3.765  1.00 20.00    -0.019 A 
HETATM    2  C3  UNL     1     -33.913   4.566   4.626  1.00 20.00    -0.087 A 
HETATM    3  C5  UNL     1     -34.149   4.944   6.059  1.00 20.00     0.039 A 
HETATM    4  C8  UNL     1     -34.859   6.711   4.458  1.00 20.00     0.021 A 
HETATM    5  C10 UNL     1     -34.747   6.352   5.977  1.00 20.00     0.005 A 
HETATM    6  C11 UNL     1     -33.310   3.252   4.279  1.00 20.00     0.043 C 
ENDROOT
BRANCH   4   7
HETATM    7  C9  UNL     1     -34.075   8.048   4.361  1.00 20.00     0.022 C 
HETATM    8  C4  UNL     1     -32.606   7.823   4.660  1.00 20.00    -0.082 C 
HETATM    9  C2  UNL     1     -32.506   7.509   5.961  1.00 20.00    -0.019 C 
HETATM   10  C12 UNL     1     -31.544   7.912   3.634  1.00 20.00     0.043 C 
HETATM   11  C7  UNL     1     -33.903   7.529   6.537  1.00 20.00     0.014 C 
HETATM   12  C6  UNL     1     -34.470   8.689   5.702  1.00 20.00     0.018 C 
ENDBRANCH   4   7
TORSDOF 2
