REMARK  1 active torsions:
REMARK  status: ('A' for Active; 'I' for Inactive)
REMARK    1  A    between atoms: C2_2  and  C7_7 
ROOT
HETATM    1  C1  UNL     1     -33.635   6.477   3.941  1.00 20.00     0.141 C 
HETATM    2  C3  UNL     1     -34.688   5.415   4.181  1.00 20.00     0.079 C 
HETATM    3  C4  UNL     1     -34.658   4.934   5.623  1.00 20.00     0.007 C 
HETATM    4  C5  UNL     1     -34.757   6.095   6.606  1.00 20.00     0.002 C 
HETATM    5  C6  UNL     1     -33.629   7.100   6.375  1.00 20.00     0.024 C 
HETATM    6  C7  UNL     1     -33.569   7.640   4.935  1.00 20.00     0.070 C 
HETATM    7  C8  UNL     1     -34.722   8.605   4.636  1.00 20.00     0.031 C 
HETATM    8  O9  UNL     1     -32.928   6.438   2.933  1.00 20.00    -0.297 OA
ENDROOT
BRANCH   6   9
HETATM    9  C2  UNL     1     -32.277   8.408   4.816  1.00 20.00     0.248 C 
HETATM   10  O10 UNL     1     -32.223   9.601   4.536  1.00 20.00    -0.306 OA
ENDBRANCH   6   9
TORSDOF 1
