REMARK  3 active torsions:
REMARK  status: ('A' for Active; 'I' for Inactive)
REMARK    1  A    between atoms: C2_2  and  C8_8 
REMARK    2  A    between atoms: C6_6  and  C7_7 
REMARK    3  A    between atoms: C6_6  and  C8_8 
ROOT
HETATM    1  C1  UNL     1     -33.116   7.638   4.804  1.00 20.00     0.063 C 
HETATM    2  C4  UNL     1     -32.473   8.024   2.467  1.00 20.00     0.025 C 
HETATM    3  C7  UNL     1     -32.421   7.048   3.644  1.00 20.00     0.089 C 
HETATM    4  N9  UNL     1     -33.660   8.102   5.718  1.00 20.00    -0.197 NA
ENDROOT
BRANCH   3   5
HETATM    5  C6  UNL     1     -33.050   5.699   3.241  1.00 20.00     0.030 C 
BRANCH   5   6
HETATM    6  C8  UNL     1     -33.503   4.834   4.433  1.00 20.00     0.052 C 
HETATM    7  C5  UNL     1     -33.677   3.377   4.008  1.00 20.00     0.018 C 
BRANCH   6   8
HETATM    8  C2  UNL     1     -34.824   5.324   5.018  1.00 20.00     0.127 C 
HETATM    9  C3  UNL     1     -35.043   5.083   6.490  1.00 20.00     0.091 C 
HETATM   10  O10 UNL     1     -35.690   5.861   4.328  1.00 20.00    -0.298 OA
ENDBRANCH   6   8
ENDBRANCH   5   6
ENDBRANCH   3   5
TORSDOF 3
