REMARK  2 active torsions:
REMARK  status: ('A' for Active; 'I' for Inactive)
REMARK    1  A    between atoms: C1_1  and  C4_4 
REMARK    2  A    between atoms: C4_4  and  N5_5 
ROOT
HETATM    1  C4  UNL     1     -34.061   7.775   5.127  1.00 20.00     0.367 C 
ENDROOT
BRANCH   1   2
HETATM    2  C1  UNL     1     -34.240   6.326   5.535  1.00 20.00     0.247 C 
HETATM    3  O6  UNL     1     -34.124   5.927   6.689  1.00 20.00    -0.278 OA
HETATM    4 CL7  UNL     1     -34.629   5.328   4.159  1.00 20.00    -0.042 Cl
ENDBRANCH   1   2
BRANCH   1   5
HETATM    5  N5  UNL     1     -32.660   8.006   4.776  1.00 20.00     0.088 N 
HETATM    6  C2  UNL     1     -32.346   9.433   4.839  1.00 20.00     0.310 C 
HETATM    7  C3  UNL     1     -32.374   7.478   3.443  1.00 20.00     0.310 C 
ENDBRANCH   1   5
TORSDOF 2
