REMARK  0 active torsions:
REMARK  status: ('A' for Active; 'I' for Inactive)
ROOT
HETATM    1  C1  UNL     1     -33.579   6.938   5.198  1.00 20.00     0.092 C 
HETATM    2  C2  UNL     1     -32.837   6.056   2.674  1.00 20.00     0.023 C 
HETATM    3  C3  UNL     1     -33.328   4.981   3.628  1.00 20.00     0.016 C 
HETATM    4  C4  UNL     1     -31.976   7.044   3.441  1.00 20.00     0.148 C 
HETATM    5  C5  UNL     1     -34.153   5.600   4.764  1.00 20.00    -0.014 C 
HETATM    6  C6  UNL     1     -34.162   4.660   5.976  1.00 20.00     0.020 C 
HETATM    7  C7  UNL     1     -35.600   5.856   4.314  1.00 20.00     0.020 C 
HETATM    8  N8  UNL     1     -32.640   7.600   4.618  1.00 20.00    -0.305 NA
ENDROOT
TORSDOF 0
