REMARK  0 active torsions:
REMARK  status: ('A' for Active; 'I' for Inactive)
ROOT
HETATM    1  C1  UNL     1     -32.147   7.460   1.753  1.00 20.00     0.015 C 
HETATM    2  C2  UNL     1     -32.311   7.692   2.919  1.00 20.00    -0.082 C 
HETATM    3  C3  UNL     1     -34.582   5.006   6.365  1.00 20.00     0.000 C 
HETATM    4  C4  UNL     1     -34.614   5.143   4.840  1.00 20.00     0.003 C 
HETATM    5  C5  UNL     1     -33.502   5.894   6.989  1.00 20.00     0.003 C 
HETATM    6  C6  UNL     1     -34.778   6.602   4.414  1.00 20.00     0.042 C 
HETATM    7  C7  UNL     1     -33.662   7.353   6.563  1.00 20.00     0.042 C 
HETATM    8  C8  UNL     1     -32.506   7.967   4.308  1.00 20.00     0.235 A 
HETATM    9  C9  UNL     1     -33.715   7.446   5.063  1.00 20.00     0.099 A 
HETATM   10  O10 UNL     1     -33.657   8.788   4.563  1.00 20.00    -0.356 OA
ENDROOT
TORSDOF 0
