REMARK  1 active torsions:
REMARK  status: ('A' for Active; 'I' for Inactive)
REMARK    1  A    between atoms: C2_2  and  C3_3 
ROOT
HETATM    1  C1  UNL     1     -33.877   6.095   3.932  1.00 20.00    -0.077 C 
HETATM    2  C2  UNL     1     -32.923   6.375   3.032  1.00 20.00     0.044 C 
HETATM    3  C4  UNL     1     -34.346   4.689   4.202  1.00 20.00     0.034 C 
HETATM    4  C5  UNL     1     -34.541   7.160   4.764  1.00 20.00     0.034 C 
HETATM    5  C6  UNL     1     -34.253   4.363   5.693  1.00 20.00     0.004 C 
HETATM    6  C7  UNL     1     -34.447   6.822   6.253  1.00 20.00     0.004 C 
HETATM    7  C8  UNL     1     -34.963   5.413   6.550  1.00 20.00     0.001 C 
ENDROOT
BRANCH   2   8
HETATM    8  C3  UNL     1     -32.547   7.788   2.855  1.00 20.00     0.259 C 
HETATM    9  O9  UNL     1     -31.405   8.187   3.053  1.00 20.00    -0.302 OA
ENDBRANCH   2   8
TORSDOF 1
