REMARK  4 active torsions:
REMARK  status: ('A' for Active; 'I' for Inactive)
REMARK    1  A    between atoms: C2_2  and  C6_6 
REMARK    2  A    between atoms: C3_3  and  C7_7 
REMARK    3  A    between atoms: C3_3  and  O9_9 
REMARK    4  A    between atoms: C6_6  and  C8_8 
ROOT
HETATM    1  C1  UNL     1     -33.553   8.214   4.329  1.00 20.00     0.045 A 
HETATM    2  C2  UNL     1     -32.488   7.205   3.983  1.00 20.00     0.023 A 
HETATM    3  C3  UNL     1     -33.503   6.897   5.062  1.00 20.00     0.062 A 
ENDROOT
BRANCH   3   4
HETATM    4  C7  UNL     1     -34.592   5.894   4.870  1.00 20.00     0.034 C 
HETATM    5  C4  UNL     1     -34.383   4.639   5.676  1.00 20.00     0.008 C 
ENDBRANCH   3   4
BRANCH   3   6
HETATM    6  O9  UNL     1     -33.005   6.949   6.412  1.00 20.00    -0.389 OA
HETATM    7  H25 UNL     1     -32.106   7.294   6.346  1.00 20.00     0.210 HD
ENDBRANCH   3   6
BRANCH   2   8
HETATM    8  C6  UNL     1     -32.501   6.524   2.658  1.00 20.00     0.007 C 
BRANCH   8   9
HETATM    9  C8  UNL     1     -31.950   7.416   1.531  1.00 20.00    -0.004 C 
HETATM   10  C5  UNL     1     -32.771   8.680   1.334  1.00 20.00     0.005 C 
ENDBRANCH   8   9
ENDBRANCH   2   8
TORSDOF 4
