REMARK  2 active torsions:
REMARK  status: ('A' for Active; 'I' for Inactive)
REMARK    1  A    between atoms: C4_4  and  O6_6 
REMARK    2  A    between atoms: C4_4  and  O7_7 
ROOT
HETATM    1  C1  UNL     1     -33.624   5.568   3.540  1.00 20.00     0.120 C 
HETATM    2  C4  UNL     1     -34.077   6.724   4.328  1.00 20.00     0.369 C 
HETATM    3  N5  UNL     1     -33.266   4.657   2.917  1.00 20.00    -0.192 NA
ENDROOT
BRANCH   2   4
HETATM    4  O6  UNL     1     -32.946   7.373   4.916  1.00 20.00    -0.354 OA
HETATM    5  C2  UNL     1     -33.219   8.715   5.302  1.00 20.00     0.206 C 
ENDBRANCH   2   4
BRANCH   2   6
HETATM    6  O7  UNL     1     -34.972   6.243   5.339  1.00 20.00    -0.354 OA
HETATM    7  C3  UNL     1     -34.282   5.689   6.452  1.00 20.00     0.206 C 
ENDBRANCH   2   6
TORSDOF 2
