REMARK  1 active torsions:
REMARK  status: ('A' for Active; 'I' for Inactive)
REMARK    1  A    between atoms: C3_3  and  C6_6 
ROOT
HETATM    1  C1  UNL     1     -32.276   7.559   1.952  1.00 20.00    -0.154 C 
HETATM    2  C5  UNL     1     -32.176   8.759   1.466  1.00 20.00     0.096 C 
HETATM    3  C6  UNL     1     -32.372   6.357   2.433  1.00 20.00     0.058 C 
ENDROOT
BRANCH   3   4
HETATM    4  C3  UNL     1     -33.142   6.066   3.607  1.00 20.00    -0.041 A 
HETATM    5  C2  UNL     1     -33.216   6.815   4.715  1.00 20.00    -0.009 A 
HETATM    6  C4  UNL     1     -34.130   6.088   5.620  1.00 20.00     0.156 A 
HETATM    7  C9  UNL     1     -32.587   8.101   5.098  1.00 20.00     0.052 C 
HETATM    8  C8  UNL     1     -34.634   4.816   5.005  1.00 20.00     0.088 A 
HETATM    9  O10 UNL     1     -34.434   6.484   6.736  1.00 20.00    -0.293 OA
HETATM   10  C7  UNL     1     -33.960   4.808   3.640  1.00 20.00     0.047 A 
ENDBRANCH   3   4
TORSDOF 1
