REMARK  1 active torsions:
REMARK  status: ('A' for Active; 'I' for Inactive)
REMARK    1  A    between atoms: C1_1  and  C6_6 
ROOT
HETATM    1  C1  UNL     1     -33.081   7.384   4.240  1.00 20.00     0.149 C 
HETATM    2  C2  UNL     1     -34.274   6.968   6.028  1.00 20.00     0.209 C 
HETATM    3  C3  UNL     1     -34.521   5.916   4.953  1.00 20.00     0.070 C 
HETATM    4  C4  UNL     1     -34.330   4.498   5.480  1.00 20.00     0.042 C 
HETATM    5  C5  UNL     1     -35.904   6.070   4.312  1.00 20.00     0.042 C 
HETATM    6  N7  UNL     1     -33.501   6.201   3.924  1.00 20.00    -0.257 NA
HETATM    7  O8  UNL     1     -33.548   7.989   5.355  1.00 20.00    -0.335 OA
ENDROOT
BRANCH   1   8
HETATM    8  C6  UNL     1     -32.089   8.174   3.469  1.00 20.00     0.200 C 
HETATM    9 CL9  UNL     1     -32.228   7.687   1.776  1.00 20.00    -0.122 Cl
ENDBRANCH   1   8
TORSDOF 1
