REMARK  0 active torsions:
REMARK  status: ('A' for Active; 'I' for Inactive)
ROOT
HETATM    1  C1  UNL     1     -33.143   8.947   2.870  1.00 20.00     0.097 C 
HETATM    2  C2  UNL     1     -34.337   4.553   5.597  1.00 20.00     0.008 C 
HETATM    3  C3  UNL     1     -34.345   5.629   6.400  1.00 20.00     0.029 C 
HETATM    4  C4  UNL     1     -33.863   5.802   3.560  1.00 20.00    -0.004 C 
HETATM    5  C5  UNL     1     -32.935   8.677   5.282  1.00 20.00     0.136 C 
HETATM    6  C6  UNL     1     -33.376   8.269   4.088  1.00 20.00     0.053 C 
HETATM    7  C7  UNL     1     -33.938   4.614   4.193  1.00 20.00    -0.065 C 
HETATM    8  C8  UNL     1     -33.934   6.886   5.749  1.00 20.00     0.047 C 
HETATM    9  C9  UNL     1     -34.237   7.065   4.267  1.00 20.00     0.106 C 
HETATM   10  C10 UNL     1     -33.639   3.312   3.517  1.00 20.00     0.048 C 
HETATM   11  N11 UNL     1     -32.951   9.504   1.870  1.00 20.00    -0.192 NA
HETATM   12  N12 UNL     1     -33.280   7.851   6.320  1.00 20.00    -0.263 NA
ENDROOT
TORSDOF 0
