REMARK  1 active torsions:
REMARK  status: ('A' for Active; 'I' for Inactive)
REMARK    1  A    between atoms: C4_4  and  C6_6 
ROOT
HETATM    1  C1  UNL     1     -32.321   9.198   4.930  1.00 20.00     0.135 A 
HETATM    2  C2  UNL     1     -32.336   8.434   3.784  1.00 20.00     0.136 A 
HETATM    3  C3  UNL     1     -33.565   7.609   6.005  1.00 20.00     0.149 A 
HETATM    4  C4  UNL     1     -33.580   6.845   4.859  1.00 20.00     0.122 A 
HETATM    5  N7  UNL     1     -32.935   8.799   6.061  1.00 20.00    -0.269 NA
HETATM    6  N8  UNL     1     -32.966   7.244   3.728  1.00 20.00    -0.256 NA
ENDROOT
BRANCH   4   7
HETATM    7  C6  UNL     1     -34.287   5.535   4.834  1.00 20.00     0.285 C 
HETATM    8  C5  UNL     1     -34.291   4.859   6.205  1.00 20.00     0.097 C 
HETATM    9  F9  UNL     1     -33.734   4.641   3.951  1.00 20.00    -0.200 F 
HETATM   10  F10 UNL     1     -35.596   5.636   4.435  1.00 20.00    -0.200 F 
ENDBRANCH   4   7
TORSDOF 1
