REMARK  3 active torsions:
REMARK  status: ('A' for Active; 'I' for Inactive)
REMARK    1  A    between atoms: C6_6  and  C8_8 
REMARK    2  A    between atoms: C7_7  and  O11_11 
REMARK    3  A    between atoms: C9_9  and  C10_10 
ROOT
HETATM    1  C1  UNL     1     -32.709   4.769   3.836  1.00 20.00    -0.023 C 
HETATM    2  C2  UNL     1     -33.920   4.356   4.274  1.00 20.00     0.001 C 
HETATM    3  C6  UNL     1     -32.867   6.171   3.374  1.00 20.00     0.019 C 
HETATM    4  C7  UNL     1     -34.922   5.511   4.319  1.00 20.00     0.145 C 
HETATM    5  C10 UNL     1     -33.890   6.610   4.430  1.00 20.00     0.030 C 
ENDROOT
BRANCH   4   6
HETATM    6  O11 UNL     1     -35.725   5.439   5.479  1.00 20.00    -0.391 OA
HETATM    7  H25 UNL     1     -36.200   4.590   5.449  1.00 20.00     0.210 HD
ENDBRANCH   4   6
BRANCH   5   8
HETATM    8  C9  UNL     1     -33.964   8.132   4.217  1.00 20.00    -0.007 C 
HETATM    9  C4  UNL     1     -32.866   8.707   5.151  1.00 20.00     0.005 C 
HETATM   10  C3  UNL     1     -31.575   8.068   4.573  1.00 20.00     0.005 C 
HETATM   11  C8  UNL     1     -32.039   7.452   3.237  1.00 20.00    -0.006 C 
HETATM   12  C5  UNL     1     -33.232   8.382   2.885  1.00 20.00     0.010 C 
ENDBRANCH   5   8
TORSDOF 3
