REMARK  2 active torsions:
REMARK  status: ('A' for Active; 'I' for Inactive)
REMARK    1  A    between atoms: C1_1  and  C4_4 
REMARK    2  A    between atoms: C2_2  and  C3_3 
ROOT
HETATM    1  C1  UNL     1     -34.049   5.555   4.005  1.00 20.00     0.015 C 
HETATM    2  C3  UNL     1     -33.366   6.635   3.598  1.00 20.00     0.069 C 
HETATM    3 CL6  UNL     1     -32.412   6.699   2.170  1.00 20.00    -0.081 Cl
ENDROOT
BRANCH   2   4
HETATM    4  C2  UNL     1     -33.436   7.866   4.420  1.00 20.00     0.282 C 
HETATM    5  O5  UNL     1     -33.597   7.859   5.635  1.00 20.00    -0.301 OA
ENDBRANCH   2   4
BRANCH   1   6
HETATM    6  C4  UNL     1     -34.900   5.442   5.231  1.00 20.00     0.143 C 
HETATM    7 CL7  UNL     1     -33.916   4.870   6.595  1.00 20.00    -0.126 Cl
ENDBRANCH   1   6
TORSDOF 2
