REMARK  3 active torsions:
REMARK  status: ('A' for Active; 'I' for Inactive)
REMARK    1  A    between atoms: C3_3  and  C7_7 
REMARK    2  A    between atoms: C7_7  and  C8_8 
REMARK    3  A    between atoms: C8_8  and  C9_9 
ROOT
HETATM    1  C1  UNL     1     -33.873   5.722   5.210  1.00 20.00     0.088 C 
HETATM    2  C2  UNL     1     -33.371   6.493   4.126  1.00 20.00     0.096 C 
HETATM    3  C3  UNL     1     -33.089   7.807   4.203  1.00 20.00    -0.074 C 
HETATM    4  C4  UNL     1     -33.301   8.552   5.495  1.00 20.00     0.044 C 
HETATM    5  N10 UNL     1     -34.285   5.088   6.091  1.00 20.00    -0.192 NA
ENDROOT
BRANCH   3   6
HETATM    6  C7  UNL     1     -32.578   8.643   3.046  1.00 20.00     0.034 C 
BRANCH   6   7
HETATM    7  C8  UNL     1     -32.360   7.804   1.780  1.00 20.00     0.008 C 
BRANCH   7   8
HETATM    8  C9  UNL     1     -31.904   8.637   0.567  1.00 20.00    -0.023 C 
HETATM    9  C5  UNL     1     -32.961   9.694   0.236  1.00 20.00     0.009 C 
HETATM   10  C6  UNL     1     -31.635   7.773  -0.666  1.00 20.00     0.009 C 
ENDBRANCH   7   8
ENDBRANCH   6   7
ENDBRANCH   3   6
TORSDOF 3
