REMARK  4 active torsions:
REMARK  status: ('A' for Active; 'I' for Inactive)
REMARK    1  A    between atoms: C7_7  and  C9_9 
REMARK    2  A    between atoms: C9_9  and  C11_11 
REMARK    3  A    between atoms: C10_10  and  C12_12 
REMARK    4  A    between atoms: C11_11  and  C12_12 
ROOT
HETATM    1  C1  UNL     1     -34.255   7.687   6.637  1.00 20.00     0.004 C 
HETATM    2  C2  UNL     1     -34.084   6.182   6.809  1.00 20.00     0.008 C 
HETATM    3  C3  UNL     1     -33.495   7.996   5.355  1.00 20.00     0.038 C 
HETATM    4  C4  UNL     1     -35.136   4.862   4.883  1.00 20.00     0.034 C 
HETATM    5  C5  UNL     1     -36.009   5.970   4.343  1.00 20.00     0.169 C 
HETATM    6  C6  UNL     1     -33.917   5.598   5.395  1.00 20.00     0.022 C 
HETATM    7  C7  UNL     1     -33.822   6.805   4.454  1.00 20.00     0.064 C 
HETATM    8  O13 UNL     1     -35.125   6.990   3.864  1.00 20.00    -0.380 OA
ENDROOT
BRANCH   7   9
HETATM    9  C9  UNL     1     -32.818   6.631   3.324  1.00 20.00     0.038 C 
BRANCH   9  10
HETATM   10  C11 UNL     1     -32.744   7.879   2.446  1.00 20.00     0.003 C 
BRANCH  10  11
HETATM   11  C12 UNL     1     -31.758   7.688   1.291  1.00 20.00    -0.000 C 
BRANCH  11  12
HETATM   12  C10 UNL     1     -31.658   8.948   0.432  1.00 20.00    -0.005 C 
HETATM   13  C8  UNL     1     -32.995   9.300  -0.200  1.00 20.00     0.005 C 
ENDBRANCH  11  12
ENDBRANCH  10  11
ENDBRANCH   9  10
ENDBRANCH   7   9
TORSDOF 4
