REMARK  2 active torsions:
REMARK  status: ('A' for Active; 'I' for Inactive)
REMARK    1  A    between atoms: C1_1  and  C5_5 
REMARK    2  A    between atoms: C1_1  and  C6_6 
ROOT
HETATM    1  C2  UNL     1     -34.574   6.334   6.729  1.00 20.00     0.029 C 
HETATM    2  C3  UNL     1     -33.647   7.418   6.241  1.00 20.00     0.042 C 
HETATM    3  C4  UNL     1     -34.474   5.314   5.618  1.00 20.00     0.168 C 
HETATM    4  C5  UNL     1     -33.866   7.380   4.740  1.00 20.00     0.192 C 
HETATM    5  O8  UNL     1     -34.310   6.060   4.405  1.00 20.00    -0.378 OA
ENDROOT
BRANCH   4   6
HETATM    6  C1  UNL     1     -32.611   7.608   3.966  1.00 20.00     0.169 C 
HETATM    7  O7  UNL     1     -31.750   8.382   4.382  1.00 20.00    -0.294 OA
BRANCH   6   8
HETATM    8  C6  UNL     1     -32.490   6.838   2.671  1.00 20.00     0.195 C 
HETATM    9 CL9  UNL     1     -32.344   7.944   1.297  1.00 20.00    -0.122 Cl
ENDBRANCH   6   8
ENDBRANCH   4   6
TORSDOF 2
