REMARK  0 active torsions:
REMARK  status: ('A' for Active; 'I' for Inactive)
ROOT
HETATM    1  C1  UNL     1     -34.801   5.444   6.205  1.00 20.00     0.002 C 
HETATM    2  C2  UNL     1     -34.734   4.923   4.969  1.00 20.00     0.030 C 
HETATM    3  C3  UNL     1     -34.073   6.642   6.590  1.00 20.00    -0.001 C 
HETATM    4  C4  UNL     1     -33.544   7.463   5.666  1.00 20.00     0.006 C 
HETATM    5  C5  UNL     1     -32.409   6.323   2.701  1.00 20.00     0.228 C 
HETATM    6  C6  UNL     1     -33.888   5.685   4.038  1.00 20.00     0.064 C 
HETATM    7  C7  UNL     1     -33.739   7.172   4.215  1.00 20.00     0.184 C 
HETATM    8  N8  UNL     1     -32.583   7.440   3.345  1.00 20.00    -0.268 NA
HETATM    9  N9  UNL     1     -33.173   5.240   3.066  1.00 20.00    -0.244 NA
ENDROOT
TORSDOF 0
