REMARK  2 active torsions:
REMARK  status: ('A' for Active; 'I' for Inactive)
REMARK    1  A    between atoms: C5_5  and  C6_6 
REMARK    2  A    between atoms: C6_6  and  N7_7 
ROOT
HETATM    1  C1  UNL     1     -32.165   9.657   4.710  1.00 20.00     0.012 C 
HETATM    2  C2  UNL     1     -32.534   8.526   4.872  1.00 20.00    -0.116 C 
HETATM    3  C5  UNL     1     -32.983   7.139   5.070  1.00 20.00     0.123 C 
ENDROOT
BRANCH   3   4
HETATM    4  C6  UNL     1     -34.504   7.026   5.081  1.00 20.00     0.283 C 
BRANCH   4   5
HETATM    5  N7  UNL     1     -34.922   5.634   5.240  1.00 20.00     0.080 N 
HETATM    6  C3  UNL     1     -34.466   5.107   6.526  1.00 20.00     0.309 C 
HETATM    7  C4  UNL     1     -34.409   4.817   4.142  1.00 20.00     0.309 C 
ENDBRANCH   4   5
ENDBRANCH   3   4
TORSDOF 2
