REMARK  1 active torsions:
REMARK  status: ('A' for Active; 'I' for Inactive)
REMARK    1  A    between atoms: C6_6  and  N12_12 
ROOT
HETATM    1  C1  UNL     1     -32.854   5.238   2.758  1.00 20.00     0.026 A 
HETATM    2  C2  UNL     1     -32.403   6.490   2.396  1.00 20.00     0.097 A 
HETATM    3  C3  UNL     1     -33.471   5.364   4.026  1.00 20.00    -0.034 A 
HETATM    4  C4  UNL     1     -33.378   6.692   4.392  1.00 20.00     0.022 A 
HETATM    5  C7  UNL     1     -34.142   4.345   4.879  1.00 20.00     0.040 C 
HETATM    6  C8  UNL     1     -33.868   7.292   5.661  1.00 20.00     0.058 C 
HETATM    7  C9  UNL     1     -34.327   4.862   6.319  1.00 20.00     0.005 C 
HETATM    8  C10 UNL     1     -34.837   6.316   6.355  1.00 20.00     0.006 C 
HETATM    9  N12 UNL     1     -32.726   7.369   3.400  1.00 20.00    -0.330 N 
ENDROOT
BRANCH   9  10
HETATM   10  C6  UNL     1     -32.435   8.722   3.382  1.00 20.00     0.003 C 
HETATM   11  C5  UNL     1     -32.201   9.465   4.481  1.00 20.00     0.038 C 
HETATM   12  C11 UNL     1     -32.369   9.439   2.049  1.00 20.00     0.068 C 
ENDBRANCH   9  10
TORSDOF 1
