REMARK  1 active torsions:
REMARK  status: ('A' for Active; 'I' for Inactive)
REMARK    1  A    between atoms: C7_7  and  N8_8 
ROOT
HETATM    1  C1  UNL     1     -32.982   9.557   1.406  1.00 20.00     0.013 C 
HETATM    2  C2  UNL     1     -32.803   9.073   2.490  1.00 20.00    -0.087 C 
HETATM    3  C7  UNL     1     -32.581   8.486   3.814  1.00 20.00     0.364 C 
ENDROOT
BRANCH   3   4
HETATM    4  N8  UNL     1     -33.428   7.294   4.003  1.00 20.00     0.100 N 
HETATM    5  C3  UNL     1     -32.799   6.151   3.327  1.00 20.00     0.283 C 
HETATM    6  C5  UNL     1     -33.675   4.901   3.359  1.00 20.00     0.104 C 
HETATM    7  S9  UNL     1     -33.975   4.338   5.056  1.00 20.00    -0.166 SA
HETATM    8  C6  UNL     1     -34.566   5.912   5.736  1.00 20.00     0.104 C 
HETATM    9  C4  UNL     1     -33.592   7.052   5.444  1.00 20.00     0.283 C 
ENDBRANCH   3   4
TORSDOF 1
