REMARK  0 active torsions:
REMARK  status: ('A' for Active; 'I' for Inactive)
ROOT
HETATM    1  C1  UNL     1     -33.099   8.170   4.954  1.00 20.00     0.011 A 
HETATM    2  C2  UNL     1     -32.526   8.427   3.709  1.00 20.00     0.024 A 
HETATM    3  C3  UNL     1     -33.040   6.174   3.003  1.00 20.00     0.031 A 
HETATM    4  C4  UNL     1     -33.653   6.914   5.231  1.00 20.00    -0.028 A 
HETATM    5  C5  UNL     1     -33.607   5.904   4.255  1.00 20.00    -0.046 A 
HETATM    6  C6  UNL     1     -32.499   7.431   2.734  1.00 20.00     0.034 A 
HETATM    7  C7  UNL     1     -34.225   4.561   4.538  1.00 20.00     0.065 C 
HETATM    8  C8  UNL     1     -34.244   6.631   6.588  1.00 20.00     0.206 C 
HETATM    9  C9  UNL     1     -34.382   4.336   6.037  1.00 20.00     0.172 C 
HETATM   10  O10 UNL     1     -35.060   5.454   6.610  1.00 20.00    -0.386 OA
HETATM   11 CL11 UNL     1     -31.798   7.753   1.196  1.00 20.00    -0.084 Cl
ENDROOT
TORSDOF 0
