REMARK  0 active torsions:
REMARK  status: ('A' for Active; 'I' for Inactive)
ROOT
HETATM    1  C1  UNL     1     -33.113   7.458   4.318  1.00 20.00     0.131 C 
HETATM    2  C2  UNL     1     -33.716   4.857   3.872  1.00 20.00     0.059 C 
HETATM    3  C3  UNL     1     -33.271   5.695   2.691  1.00 20.00     0.179 C 
HETATM    4  C4  UNL     1     -34.611   5.684   4.800  1.00 20.00     0.051 C 
HETATM    5  C5  UNL     1     -32.420   8.751   4.604  1.00 20.00     0.099 C 
HETATM    6  C6  UNL     1     -35.972   6.005   4.167  1.00 20.00     0.040 C 
HETATM    7  C7  UNL     1     -34.837   4.916   6.109  1.00 20.00     0.040 C 
HETATM    8  N8  UNL     1     -33.956   6.950   5.146  1.00 20.00    -0.261 NA
HETATM    9  O9  UNL     1     -32.715   6.945   3.125  1.00 20.00    -0.338 OA
ENDROOT
TORSDOF 0
