REMARK  1 active torsions:
REMARK  status: ('A' for Active; 'I' for Inactive)
REMARK    1  A    between atoms: C4_4  and  C10_10 
ROOT
HETATM    1  C1  UNL     1     -33.980   7.171   4.761  1.00 20.00     0.092 C 
HETATM    2  C2  UNL     1     -32.376   5.968   2.835  1.00 20.00     0.029 C 
HETATM    3  C3  UNL     1     -33.786   5.413   2.963  1.00 20.00     0.016 C 
HETATM    4  C4  UNL     1     -32.366   7.483   3.022  1.00 20.00     0.110 C 
HETATM    5  C5  UNL     1     -34.393   5.778   4.323  1.00 20.00    -0.014 C 
HETATM    6  C6  UNL     1     -35.923   5.729   4.240  1.00 20.00     0.020 C 
HETATM    7  C7  UNL     1     -33.917   4.805   5.414  1.00 20.00     0.020 C 
HETATM    8  N11 UNL     1     -33.083   7.919   4.221  1.00 20.00    -0.299 NA
ENDROOT
BRANCH   4   9
HETATM    9  C10 UNL     1     -32.940   8.235   1.822  1.00 20.00     0.002 C 
HETATM   10  C8  UNL     1     -32.937   9.741   2.078  1.00 20.00     0.011 C 
HETATM   11  C9  UNL     1     -32.153   7.906   0.554  1.00 20.00     0.011 C 
ENDBRANCH   4   9
TORSDOF 1
