REMARK  3 active torsions:
REMARK  status: ('A' for Active; 'I' for Inactive)
REMARK    1  A    between atoms: C2_2  and  C6_6 
REMARK    2  A    between atoms: C3_3  and  C5_5 
REMARK    3  A    between atoms: C3_3  and  O10_10 
ROOT
HETATM    1  C4  UNL     1     -33.851   6.861   2.557  1.00 20.00     0.033 A 
HETATM    2  C5  UNL     1     -32.717   6.798   3.543  1.00 20.00     0.101 A 
HETATM    3  C6  UNL     1     -33.682   5.630   3.419  1.00 20.00     0.023 A 
HETATM    4  C7  UNL     1     -33.178   4.374   2.760  1.00 20.00     0.023 C 
ENDROOT
BRANCH   2   5
HETATM    5  C3  UNL     1     -32.736   7.683   4.715  1.00 20.00     0.263 C 
HETATM    6  O9  UNL     1     -33.116   7.341   5.827  1.00 20.00    -0.265 OA
BRANCH   5   7
HETATM    7  O10 UNL     1     -32.270   8.915   4.363  1.00 20.00    -0.326 OA
HETATM    8  C8  UNL     1     -32.234   9.884   5.417  1.00 20.00     0.213 C 
ENDBRANCH   5   7
ENDBRANCH   2   5
BRANCH   3   9
HETATM    9  C2  UNL     1     -34.678   5.425   4.478  1.00 20.00     0.093 C 
HETATM   10  C1  UNL     1     -34.459   4.809   5.646  1.00 20.00     0.052 C 
HETATM   11  F11 UNL     1     -35.925   5.902   4.253  1.00 20.00    -0.211 F 
ENDBRANCH   3   9
TORSDOF 3
