REMARK  1 active torsions:
REMARK  status: ('A' for Active; 'I' for Inactive)
REMARK    1  A    between atoms: C5_5  and  C9_9 
ROOT
HETATM    1  C1  UNL     1     -33.743   4.599   6.008  1.00 20.00    -0.021 C 
HETATM    2  C2  UNL     1     -33.782   5.806   6.595  1.00 20.00    -0.024 C 
HETATM    3  C3  UNL     1     -33.901   5.607   3.766  1.00 20.00    -0.065 C 
HETATM    4  C4  UNL     1     -33.436   5.242   2.566  1.00 20.00     0.016 C 
HETATM    5  C6  UNL     1     -35.666   5.644   5.286  1.00 20.00     0.023 C 
HETATM    6  C7  UNL     1     -34.592   4.684   4.762  1.00 20.00     0.038 C 
HETATM    7  C8  UNL     1     -34.645   6.707   5.724  1.00 20.00     0.028 C 
HETATM    8  C9  UNL     1     -33.915   7.015   4.376  1.00 20.00     0.046 C 
HETATM    9  C11 UNL     1     -34.670   8.035   3.520  1.00 20.00     0.029 C 
ENDROOT
BRANCH   8  10
HETATM   10  C5  UNL     1     -32.507   7.511   4.601  1.00 20.00     0.136 C 
HETATM   11  C10 UNL     1     -32.361   8.884   5.200  1.00 20.00     0.092 C 
HETATM   12  O12 UNL     1     -31.528   6.826   4.310  1.00 20.00    -0.297 OA
ENDBRANCH   8  10
TORSDOF 1
