REMARK  2 active torsions:
REMARK  status: ('A' for Active; 'I' for Inactive)
REMARK    1  A    between atoms: C2_2  and  C8_8 
REMARK    2  A    between atoms: C3_3  and  C7_7 
ROOT
HETATM    1  C1  UNL     1     -33.503   7.267   4.026  1.00 20.00    -0.062 A 
HETATM    2  C2  UNL     1     -33.987   6.048   4.118  1.00 20.00    -0.076 C 
HETATM    3  C4  UNL     1     -33.513   8.569   4.561  1.00 20.00     0.055 A 
HETATM    4  C7  UNL     1     -32.626   8.134   3.335  1.00 20.00     0.120 A 
HETATM    5  C9  UNL     1     -33.578   4.932   3.180  1.00 20.00     0.044 C 
ENDROOT
BRANCH   2   6
HETATM    6  C8  UNL     1     -34.999   5.646   5.170  1.00 20.00     0.014 A 
HETATM    7  C5  UNL     1     -34.648   4.500   6.033  1.00 20.00     0.010 A 
HETATM    8  C6  UNL     1     -34.636   5.896   6.579  1.00 20.00     0.010 A 
ENDBRANCH   2   6
BRANCH   4   9
HETATM    9  C3  UNL     1     -33.073   8.534   2.020  1.00 20.00     0.181 C 
HETATM   10  O10 UNL     1     -33.145   9.780   1.831  1.00 20.00    -0.647 OA
HETATM   11  O11 UNL     1     -33.331   7.579   1.235  1.00 20.00    -0.647 OA
ENDBRANCH   4   9
TORSDOF 2
