REMARK  0 active torsions:
REMARK  status: ('A' for Active; 'I' for Inactive)
ROOT
HETATM    1  C1  UNL     1     -32.115   8.420   0.444  1.00 20.00     0.012 C 
HETATM    2  C2  UNL     1     -32.315   7.781   1.441  1.00 20.00    -0.112 C 
HETATM    3  C3  UNL     1     -33.776   4.991   3.568  1.00 20.00    -0.015 C 
HETATM    4  C4  UNL     1     -33.906   5.551   4.780  1.00 20.00    -0.020 C 
HETATM    5  C5  UNL     1     -33.642   7.015   4.929  1.00 20.00     0.156 C 
HETATM    6  C6  UNL     1     -33.318   5.709   2.334  1.00 20.00     0.045 C 
HETATM    7  C7  UNL     1     -33.335   7.825   3.686  1.00 20.00     0.101 C 
HETATM    8  C8  UNL     1     -32.561   6.998   2.663  1.00 20.00     0.075 C 
HETATM    9  C9  UNL     1     -34.335   4.793   5.996  1.00 20.00     0.052 C 
HETATM   10  O10 UNL     1     -33.733   7.558   6.029  1.00 20.00    -0.293 OA
ENDROOT
TORSDOF 0
