REMARK  2 active torsions:
REMARK  status: ('A' for Active; 'I' for Inactive)
REMARK    1  A    between atoms: C6_6  and  C7_7 
REMARK    2  A    between atoms: C6_6  and  N8_8 
ROOT
HETATM    1  C1  UNL     1     -35.227   6.303   4.567  1.00 20.00     0.283 C 
HETATM    2  C2  UNL     1     -34.951   4.829   4.841  1.00 20.00     0.105 C 
HETATM    3  C3  UNL     1     -33.592   6.603   6.237  1.00 20.00     0.346 C 
HETATM    4  N8  UNL     1     -34.052   7.111   4.937  1.00 20.00     0.098 N 
HETATM    5  S9  UNL     1     -34.002   4.840   6.378  1.00 20.00    -0.138 SA
ENDROOT
BRANCH   4   6
HETATM    6  C6  UNL     1     -33.000   7.037   3.924  1.00 20.00     0.277 C 
BRANCH   6   7
HETATM    7  C7  UNL     1     -33.258   8.005   2.763  1.00 20.00     0.006 C 
HETATM    8  C4  UNL     1     -33.324   9.462   3.225  1.00 20.00     0.011 C 
HETATM    9  C5  UNL     1     -32.232   7.842   1.640  1.00 20.00     0.011 C 
ENDBRANCH   6   7
ENDBRANCH   4   6
TORSDOF 2
