REMARK  1 active torsions:
REMARK  status: ('A' for Active; 'I' for Inactive)
REMARK    1  A    between atoms: C8_8  and  C9_9 
ROOT
HETATM    1  C1  UNL     1     -33.026   9.559   1.887  1.00 20.00     0.218 C 
HETATM    2  C8  UNL     1     -33.189   9.341   3.159  1.00 20.00     0.044 C 
HETATM    3  O10 UNL     1     -32.878   9.756   0.737  1.00 20.00    -0.284 OA
ENDROOT
BRANCH   2   4
HETATM    4  C9  UNL     1     -32.425   8.328   3.961  1.00 20.00     0.057 C 
HETATM    5  C6  UNL     1     -33.195   7.911   5.188  1.00 20.00    -0.014 C 
HETATM    6  C4  UNL     1     -33.952   6.825   5.395  1.00 20.00    -0.003 C 
HETATM    7  C2  UNL     1     -34.286   5.794   4.448  1.00 20.00    -0.000 C 
HETATM    8  C3  UNL     1     -33.607   5.438   3.351  1.00 20.00    -0.000 C 
HETATM    9  C5  UNL     1     -32.378   6.001   2.854  1.00 20.00    -0.003 C 
HETATM   10  C7  UNL     1     -31.889   7.228   3.083  1.00 20.00    -0.014 C 
ENDBRANCH   2   4
TORSDOF 1
