REMARK  1 active torsions:
REMARK  status: ('A' for Active; 'I' for Inactive)
REMARK    1  A    between atoms: C1_1  and  C4_4 
ROOT
HETATM    1  C2  UNL     1     -33.663   8.197   3.277  1.00 20.00     0.037 C 
HETATM    2  C3  UNL     1     -31.717   7.864   4.101  1.00 20.00     0.037 C 
HETATM    3  C4  UNL     1     -33.112   8.115   4.720  1.00 20.00     0.058 C 
HETATM    4  C5  UNL     1     -32.412   7.417   2.786  1.00 20.00     0.035 C 
HETATM    5  C7  UNL     1     -31.778   8.018   1.533  1.00 20.00     0.032 C 
HETATM    6 CL9  UNL     1     -32.634   5.640   2.592  1.00 20.00    -0.120 Cl
ENDROOT
BRANCH   3   7
HETATM    7  C1  UNL     1     -33.689   7.034   5.644  1.00 20.00     0.127 C 
HETATM    8  C6  UNL     1     -34.882   6.273   5.133  1.00 20.00     0.091 C 
HETATM    9  O8  UNL     1     -33.199   6.800   6.747  1.00 20.00    -0.298 OA
ENDBRANCH   3   7
TORSDOF 1
