REMARK  1 active torsions:
REMARK  status: ('A' for Active; 'I' for Inactive)
REMARK    1  A    between atoms: C2_2  and  C3_3 
ROOT
HETATM    1  C1  UNL     1     -33.222   6.245   3.588  1.00 20.00     0.050 C 
HETATM    2  C2  UNL     1     -32.789   7.137   2.693  1.00 20.00     0.082 C 
HETATM    3  C4  UNL     1     -33.569   6.548   5.009  1.00 20.00     0.071 C 
HETATM    4  C5  UNL     1     -33.889   4.284   4.456  1.00 20.00     0.179 C 
HETATM    5  C6  UNL     1     -34.491   5.386   5.312  1.00 20.00     0.012 C 
HETATM    6  C8  UNL     1     -34.578   5.034   6.785  1.00 20.00     0.012 C 
HETATM    7  O10 UNL     1     -33.454   4.919   3.242  1.00 20.00    -0.355 OA
ENDROOT
BRANCH   2   8
HETATM    8  C3  UNL     1     -32.614   8.566   3.067  1.00 20.00     0.147 C 
HETATM    9  C7  UNL     1     -32.812   9.581   1.972  1.00 20.00     0.096 C 
HETATM   10  O9  UNL     1     -32.345   8.913   4.214  1.00 20.00    -0.294 OA
ENDBRANCH   2   8
TORSDOF 1
