REMARK  1 active torsions:
REMARK  status: ('A' for Active; 'I' for Inactive)
REMARK    1  A    between atoms: C8_8  and  N10_10 
ROOT
HETATM    1  C1  UNL     1     -32.715   8.844   3.931  1.00 20.00     0.089 C 
HETATM    2  C8  UNL     1     -33.658   8.450   4.975  1.00 20.00     0.396 C 
HETATM    3  N9  UNL     1     -31.967   9.160   3.102  1.00 20.00    -0.195 NA
ENDROOT
BRANCH   2   4
HETATM    4  N10 UNL     1     -33.584   7.016   5.228  1.00 20.00     0.110 N 
HETATM    5  C5  UNL     1     -33.427   6.227   3.964  1.00 20.00     0.283 C 
HETATM    6  C6  UNL     1     -34.586   5.212   4.044  1.00 20.00     0.038 C 
HETATM    7  C2  UNL     1     -34.354   4.314   5.238  1.00 20.00    -0.022 C 
HETATM    8  C4  UNL     1     -35.678   6.105   4.624  1.00 20.00     0.050 C 
HETATM    9  C3  UNL     1     -34.503   5.081   6.330  1.00 20.00     0.005 C 
HETATM   10  C7  UNL     1     -34.831   6.476   5.839  1.00 20.00     0.247 C 
ENDBRANCH   2   4
TORSDOF 1
