REMARK  1 active torsions:
REMARK  status: ('A' for Active; 'I' for Inactive)
REMARK    1  A    between atoms: C1_1  and  C4_4 
ROOT
HETATM    1  C1  UNL     1     -33.482   6.673   4.990  1.00 20.00    -0.049 C 
HETATM    2  C2  UNL     1     -32.975   7.747   4.821  1.00 20.00     0.008 C 
HETATM    3 CL8  UNL     1     -32.233   9.317   4.574  1.00 20.00    -0.023 Cl
ENDROOT
BRANCH   1   4
HETATM    4  C4  UNL     1     -34.089   5.390   5.192  1.00 20.00     0.147 A 
HETATM    5  C3  UNL     1     -33.966   4.309   4.137  1.00 20.00     0.166 A 
HETATM    6  C5  UNL     1     -33.223   4.489   2.861  1.00 20.00     0.044 C 
HETATM    7  O7  UNL     1     -35.144   5.114   4.256  1.00 20.00    -0.356 OA
HETATM    8  C6  UNL     1     -34.423   5.004   6.597  1.00 20.00     0.063 C 
ENDBRANCH   1   4
TORSDOF 1
