REMARK  2 active torsions:
REMARK  status: ('A' for Active; 'I' for Inactive)
REMARK    1  A    between atoms: C1_1  and  C7_7 
REMARK    2  A    between atoms: C4_4  and  C7_7 
ROOT
HETATM    1  C6  UNL     1     -33.655   8.073   4.066  1.00 20.00     0.018 C 
HETATM    2  C7  UNL     1     -33.525   6.646   4.593  1.00 20.00     0.055 C 
ENDROOT
BRANCH   2   3
HETATM    3  C1  UNL     1     -34.198   6.503   5.955  1.00 20.00     0.127 C 
HETATM    4  C5  UNL     1     -34.726   5.136   6.314  1.00 20.00     0.091 C 
HETATM    5  O8  UNL     1     -34.337   7.453   6.726  1.00 20.00    -0.298 OA
ENDBRANCH   2   3
BRANCH   2   6
HETATM    6  C4  UNL     1     -34.123   5.648   3.610  1.00 20.00    -0.004 A 
HETATM    7  C2  UNL     1     -33.327   5.184   2.422  1.00 20.00     0.006 A 
HETATM    8  C3  UNL     1     -33.606   4.237   3.555  1.00 20.00     0.006 A 
ENDBRANCH   2   6
TORSDOF 2
