REMARK  0 active torsions:
REMARK  status: ('A' for Active; 'I' for Inactive)
ROOT
HETATM    1  C1  UNL     1     -31.941   7.624   1.034  1.00 20.00     0.017 C 
HETATM    2  C2  UNL     1     -32.257   7.076   2.054  1.00 20.00    -0.057 C 
HETATM    3  C3  UNL     1     -33.533   6.797   5.447  1.00 20.00     0.182 C 
HETATM    4  C4  UNL     1     -34.019   4.705   4.173  1.00 20.00     0.182 C 
HETATM    5  C5  UNL     1     -32.642   6.407   3.300  1.00 20.00     0.341 C 
HETATM    6  C6  UNL     1     -34.574   5.685   5.223  1.00 20.00    -0.004 C 
HETATM    7  C7  UNL     1     -35.887   6.305   4.707  1.00 20.00     0.019 C 
HETATM    8  C8  UNL     1     -34.848   4.947   6.539  1.00 20.00     0.019 C 
HETATM    9  O9  UNL     1     -33.150   7.390   4.205  1.00 20.00    -0.350 OA
HETATM   10  O10 UNL     1     -33.613   5.403   2.994  1.00 20.00    -0.350 OA
ENDROOT
TORSDOF 0
