REMARK  1 active torsions:
REMARK  status: ('A' for Active; 'I' for Inactive)
REMARK    1  A    between atoms: C2_2  and  C8_8 
ROOT
HETATM    1  C1  UNL     1     -33.233   6.020   3.896  1.00 20.00     0.136 C 
HETATM    2  C3  UNL     1     -34.524   5.310   4.227  1.00 20.00     0.079 C 
HETATM    3  C4  UNL     1     -34.703   5.157   5.734  1.00 20.00     0.007 C 
HETATM    4  C5  UNL     1     -34.580   6.496   6.460  1.00 20.00     0.002 C 
HETATM    5  C6  UNL     1     -33.219   7.137   6.193  1.00 20.00     0.018 C 
HETATM    6  C7  UNL     1     -31.868   8.195   4.264  1.00 20.00     0.030 A 
HETATM    7  C8  UNL     1     -33.298   8.608   4.057  1.00 20.00     0.064 A 
HETATM    8  C9  UNL     1     -32.980   7.263   4.700  1.00 20.00     0.031 A 
HETATM    9  O10 UNL     1     -32.478   5.657   3.002  1.00 20.00    -0.297 OA
ENDROOT
BRANCH   7  10
HETATM   10  C2  UNL     1     -33.838   8.677   2.693  1.00 20.00     0.236 C 
HETATM   11  O11 UNL     1     -33.138   8.815   1.695  1.00 20.00    -0.306 OA
ENDBRANCH   7  10
TORSDOF 1
