REMARK  0 active torsions:
REMARK  status: ('A' for Active; 'I' for Inactive)
ROOT
HETATM    1  C1  UNL     1     -34.899   5.034   7.153  1.00 20.00     0.015 C 
HETATM    2  C2  UNL     1     -34.855   5.525   6.058  1.00 20.00    -0.075 C 
HETATM    3  C3  UNL     1     -32.589   9.237   4.979  1.00 20.00     0.001 C 
HETATM    4  C4  UNL     1     -32.067   8.129   4.037  1.00 20.00     0.005 C 
HETATM    5  C5  UNL     1     -33.907   8.695   5.577  1.00 20.00     0.009 C 
HETATM    6  C6  UNL     1     -33.580   5.739   3.817  1.00 20.00     0.060 C 
HETATM    7  C7  UNL     1     -32.845   6.921   4.507  1.00 20.00    -0.003 C 
HETATM    8  C8  UNL     1     -34.257   7.574   4.619  1.00 20.00     0.040 C 
HETATM    9  C9  UNL     1     -34.803   6.117   4.743  1.00 20.00     0.162 C 
HETATM   10  O10 UNL     1     -36.033   5.943   4.089  1.00 20.00    -0.214 OA
ENDROOT
TORSDOF 0
