REMARK  2 active torsions:
REMARK  status: ('A' for Active; 'I' for Inactive)
REMARK    1  A    between atoms: C3_3  and  C7_7 
REMARK    2  A    between atoms: C6_6  and  O11_11 
ROOT
HETATM    1  C1  UNL     1     -32.793   5.911   2.176  1.00 20.00    -0.028 C 
HETATM    2  C2  UNL     1     -32.495   6.956   2.960  1.00 20.00     0.002 C 
HETATM    3  C4  UNL     1     -33.524   4.698   2.665  1.00 20.00     0.028 C 
HETATM    4  C5  UNL     1     -33.630   4.633   4.192  1.00 20.00     0.023 C 
HETATM    5  C6  UNL     1     -32.882   7.036   4.411  1.00 20.00     0.158 C 
HETATM    6  C7  UNL     1     -33.964   6.001   4.822  1.00 20.00     0.039 C 
HETATM    7  C8  UNL     1     -35.388   6.447   4.446  1.00 20.00     0.026 C 
ENDROOT
BRANCH   6   8
HETATM    8  C3  UNL     1     -33.926   5.818   6.319  1.00 20.00     0.243 C 
HETATM    9  O10 UNL     1     -34.650   5.033   6.923  1.00 20.00    -0.306 OA
ENDBRANCH   6   8
BRANCH   5  10
HETATM   10  O11 UNL     1     -33.333   8.366   4.669  1.00 20.00    -0.386 OA
HETATM   11  C9  UNL     1     -32.241   9.254   4.848  1.00 20.00     0.202 C 
ENDBRANCH   5  10
TORSDOF 2
