REMARK  2 active torsions:
REMARK  status: ('A' for Active; 'I' for Inactive)
REMARK    1  A    between atoms: C4_4  and  C10_10 
REMARK    2  A    between atoms: C5_5  and  C10_10 
ROOT
HETATM    1  C1  UNL     1     -34.677   7.199   6.499  1.00 20.00    -0.026 C 
HETATM    2  C2  UNL     1     -33.339   7.115   6.520  1.00 20.00    -0.024 C 
HETATM    3  C6  UNL     1     -34.112   5.155   5.586  1.00 20.00     0.018 C 
HETATM    4  C7  UNL     1     -34.785   6.849   4.049  1.00 20.00     0.030 C 
HETATM    5  C8  UNL     1     -35.165   6.255   5.428  1.00 20.00     0.010 C 
HETATM    6  C9  UNL     1     -32.933   6.130   5.443  1.00 20.00     0.028 C 
HETATM    7  C10 UNL     1     -33.223   6.754   4.048  1.00 20.00     0.044 C 
ENDROOT
BRANCH   7   8
HETATM    8  C4  UNL     1     -32.698   5.924   2.917  1.00 20.00    -0.019 C 
HETATM    9  C3  UNL     1     -33.377   4.925   2.343  1.00 20.00     0.008 C 
ENDBRANCH   7   8
BRANCH   7  10
HETATM   10  C5  UNL     1     -32.570   8.095   3.863  1.00 20.00     0.136 C 
HETATM   11  C11 UNL     1     -32.850   8.812   2.570  1.00 20.00     0.092 C 
HETATM   12  O12 UNL     1     -31.843   8.583   4.727  1.00 20.00    -0.297 OA
ENDBRANCH   7  10
TORSDOF 2
