REMARK  0 active torsions:
REMARK  status: ('A' for Active; 'I' for Inactive)
ROOT
HETATM    1  C1  UNL     1     -33.676   5.734   6.719  1.00 20.00     0.012 A 
HETATM    2  C2  UNL     1     -32.561   6.742   3.122  1.00 20.00     0.006 A 
HETATM    3  C3  UNL     1     -34.221   4.255   4.904  1.00 20.00     0.101 C 
HETATM    4  C4  UNL     1     -34.643   5.094   6.057  1.00 20.00     0.016 A 
HETATM    5  C5  UNL     1     -33.545   6.066   3.737  1.00 20.00     0.035 A 
HETATM    6  C6  UNL     1     -32.222   8.594   4.873  1.00 20.00     0.015 A 
HETATM    7  C7  UNL     1     -34.604   6.551   5.999  1.00 20.00     0.017 A 
HETATM    8  C8  UNL     1     -32.537   8.175   3.464  1.00 20.00     0.015 A 
HETATM    9  C9  UNL     1     -34.373   7.035   4.592  1.00 20.00     0.048 A 
HETATM   10  C10 UNL     1     -33.658   8.370   4.474  1.00 20.00     0.004 A 
HETATM   11  N11 UNL     1     -33.716   4.705   3.792  1.00 20.00    -0.269 NA
ENDROOT
TORSDOF 0
