REMARK  0 active torsions:
REMARK  status: ('A' for Active; 'I' for Inactive)
ROOT
HETATM    1  C1  UNL     1     -35.011   5.591   6.307  1.00 20.00     0.003 A 
HETATM    2  C2  UNL     1     -34.720   6.870   6.595  1.00 20.00     0.013 A 
HETATM    3  C3  UNL     1     -34.400   5.222   5.040  1.00 20.00     0.030 A 
HETATM    4  C4  UNL     1     -33.311   8.536   5.358  1.00 20.00    -0.011 C 
HETATM    5  C5  UNL     1     -33.901   7.346   5.507  1.00 20.00    -0.013 A 
HETATM    6  C6  UNL     1     -33.735   6.276   4.534  1.00 20.00     0.039 A 
HETATM    7  C7  UNL     1     -32.443   8.810   4.160  1.00 20.00     0.048 C 
HETATM    8  C8  UNL     1     -32.687   7.866   2.967  1.00 20.00     0.126 C 
HETATM    9  C9  UNL     1     -32.829   5.455   2.372  1.00 20.00     0.149 C 
HETATM   10  N10 UNL     1     -33.007   6.490   3.383  1.00 20.00    -0.384 N 
ENDROOT
TORSDOF 0
