REMARK  1 active torsions:
REMARK  status: ('A' for Active; 'I' for Inactive)
REMARK    1  A    between atoms: C1_1  and  C5_5 
ROOT
HETATM    1  C2  UNL     1     -34.062   7.818   5.463  1.00 20.00     0.015 C 
HETATM    2  C3  UNL     1     -32.606   8.219   5.242  1.00 20.00     0.021 C 
HETATM    3  C4  UNL     1     -33.102   6.616   3.549  1.00 20.00     0.033 C 
HETATM    4  C5  UNL     1     -34.326   6.679   4.472  1.00 20.00     0.073 C 
HETATM    5  C6  UNL     1     -32.356   7.929   3.768  1.00 20.00     0.083 C 
HETATM    6 CL9  UNL     1     -33.038   9.222   2.740  1.00 20.00    -0.125 Cl
ENDROOT
BRANCH   4   7
HETATM    7  C1  UNL     1     -34.504   5.376   5.188  1.00 20.00     0.223 C 
HETATM    8  O7  UNL     1     -34.986   5.321   6.316  1.00 20.00    -0.279 OA
HETATM    9 CL8  UNL     1     -33.959   4.027   4.238  1.00 20.00    -0.043 Cl
ENDBRANCH   4   7
TORSDOF 1
