REMARK  1 active torsions:
REMARK  status: ('A' for Active; 'I' for Inactive)
REMARK    1  A    between atoms: C1_1  and  C5_5 
ROOT
HETATM    1  C1  UNL     1     -33.045   8.032   2.586  1.00 20.00    -0.068 C 
HETATM    2  C2  UNL     1     -32.981   8.767   1.638  1.00 20.00    -0.108 C 
HETATM    3  C6  UNL     1     -32.904   9.661   0.484  1.00 20.00     0.112 C 
ENDROOT
BRANCH   1   4
HETATM    4  C5  UNL     1     -33.121   7.144   3.730  1.00 20.00     0.126 C 
HETATM    5  C3  UNL     1     -34.449   7.247   4.536  1.00 20.00     0.057 C 
HETATM    6  C4  UNL     1     -33.519   7.512   5.738  1.00 20.00     0.127 C 
HETATM    7  C7  UNL     1     -35.367   6.044   4.646  1.00 20.00     0.016 C 
HETATM    8  C8  UNL     1     -33.804   8.748   6.565  1.00 20.00     0.040 C 
HETATM    9  O10 UNL     1     -32.390   7.730   4.847  1.00 20.00    -0.362 OA
HETATM   10  C9  UNL     1     -32.562   5.764   3.412  1.00 20.00     0.061 C 
ENDBRANCH   1   4
TORSDOF 1
