REMARK  2 active torsions:
REMARK  status: ('A' for Active; 'I' for Inactive)
REMARK    1  A    between atoms: C5_5  and  C7_7 
REMARK    2  A    between atoms: C7_7  and  O8_8 
ROOT
HETATM    1  C1  UNL     1     -33.634   7.295   4.681  1.00 20.00     0.013 C 
HETATM    2  C2  UNL     1     -33.613   5.700   2.716  1.00 20.00     0.013 C 
HETATM    3  C3  UNL     1     -32.449   8.049   4.082  1.00 20.00     0.079 C 
HETATM    4  C4  UNL     1     -32.428   6.454   2.117  1.00 20.00     0.079 C 
HETATM    5  C5  UNL     1     -33.646   5.822   4.246  1.00 20.00     0.009 C 
HETATM    6  C6  UNL     1     -32.404   7.904   2.570  1.00 20.00     0.243 C 
HETATM    7  F9  UNL     1     -33.462   8.560   2.026  1.00 20.00    -0.206 F 
HETATM    8  F10 UNL     1     -31.289   8.509   2.091  1.00 20.00    -0.206 F 
ENDROOT
BRANCH   5   9
HETATM    9  C7  UNL     1     -34.866   5.102   4.818  1.00 20.00     0.168 C 
BRANCH   9  10
HETATM   10  O8  UNL     1     -36.032   5.750   4.345  1.00 20.00    -0.400 OA
HETATM   11  H22 UNL     1     -36.794   5.276   4.720  1.00 20.00     0.209 HD
ENDBRANCH   9  10
ENDBRANCH   5   9
TORSDOF 2
