REMARK  4 active torsions:
REMARK  status: ('A' for Active; 'I' for Inactive)
REMARK    1  A    between atoms: C2_2  and  C5_5 
REMARK    2  A    between atoms: C4_4  and  C8_8 
REMARK    3  A    between atoms: C7_7  and  C9_9 
REMARK    4  A    between atoms: C8_8  and  C9_9 
ROOT
HETATM    1  C1  UNL     1     -32.949   8.610  -0.486  1.00 20.00     0.012 C 
HETATM    2  C3  UNL     1     -32.672   8.372   0.658  1.00 20.00    -0.117 C 
HETATM    3  C7  UNL     1     -32.332   8.077   2.057  1.00 20.00     0.094 C 
ENDROOT
BRANCH   3   4
HETATM    4  C9  UNL     1     -32.835   9.183   2.990  1.00 20.00     0.024 C 
BRANCH   4   5
HETATM    5  C8  UNL     1     -32.572   8.881   4.466  1.00 20.00     0.095 C 
BRANCH   5   6
HETATM    6  C4  UNL     1     -33.168   7.605   4.888  1.00 20.00    -0.098 C 
HETATM    7  C2  UNL     1     -33.656   6.563   5.231  1.00 20.00    -0.029 C 
BRANCH   7   8
HETATM    8  C5  UNL     1     -34.246   5.310   5.638  1.00 20.00     0.198 C 
HETATM    9  C6  UNL     1     -34.945   4.527   4.567  1.00 20.00     0.106 C 
HETATM   10  O10 UNL     1     -34.157   4.945   6.803  1.00 20.00    -0.284 OA
ENDBRANCH   7   8
ENDBRANCH   5   6
ENDBRANCH   4   5
ENDBRANCH   3   4
TORSDOF 4
