REMARK  2 active torsions:
REMARK  status: ('A' for Active; 'I' for Inactive)
REMARK    1  A    between atoms: C3_3  and  C5_5 
REMARK    2  A    between atoms: C5_5  and  C9_9 
ROOT
HETATM    1  C1  UNL     1     -32.794   8.475   5.546  1.00 20.00    -0.012 A 
HETATM    2  C2  UNL     1     -31.912   9.346   3.353  1.00 20.00    -0.020 A 
HETATM    3  C3  UNL     1     -33.332   7.431   4.899  1.00 20.00    -0.003 A 
HETATM    4  C4  UNL     1     -32.450   8.300   2.700  1.00 20.00    -0.083 A 
HETATM    5  C6  UNL     1     -32.023   9.549   4.837  1.00 20.00     0.055 A 
HETATM    6  C7  UNL     1     -33.226   7.221   3.418  1.00 20.00     0.075 A 
HETATM    7  C8  UNL     1     -32.314   8.137   1.214  1.00 20.00     0.043 C 
ENDROOT
BRANCH   3   8
HETATM    8  C5  UNL     1     -34.066   6.442   5.692  1.00 20.00     0.261 C 
HETATM    9  O10 UNL     1     -34.180   6.569   6.912  1.00 20.00    -0.283 OA
BRANCH   8  10
HETATM   10  C9  UNL     1     -34.664   5.276   4.955  1.00 20.00     0.455 C 
HETATM   11  F11 UNL     1     -34.420   5.328   3.621  1.00 20.00    -0.163 F 
HETATM   12  F12 UNL     1     -36.012   5.223   5.106  1.00 20.00    -0.163 F 
HETATM   13  F13 UNL     1     -34.170   4.092   5.399  1.00 20.00    -0.163 F 
ENDBRANCH   8  10
ENDBRANCH   3   8
TORSDOF 2
