REMARK  3 active torsions:
REMARK  status: ('A' for Active; 'I' for Inactive)
REMARK    1  A    between atoms: C1_1  and  C7_7 
REMARK    2  A    between atoms: C2_2  and  C9_9 
REMARK    3  A    between atoms: C9_9  and  C10_10 
ROOT
HETATM    1  C3  UNL     1     -34.616   5.444   5.101  1.00 20.00     0.128 C 
HETATM    2  C4  UNL     1     -34.215   4.152   4.438  1.00 20.00     0.079 C 
HETATM    3  C5  UNL     1     -33.984   6.643   4.442  1.00 20.00     0.095 C 
HETATM    4  C6  UNL     1     -33.557   4.651   3.157  1.00 20.00     0.025 C 
HETATM    5  C7  UNL     1     -32.931   5.989   3.547  1.00 20.00     0.072 C 
HETATM    6  O11 UNL     1     -35.368   5.511   6.064  1.00 20.00    -0.298 OA
ENDROOT
BRANCH   5   7
HETATM    7  C1  UNL     1     -32.606   6.814   2.379  1.00 20.00    -0.101 C 
HETATM    8  C2  UNL     1     -32.340   7.491   1.424  1.00 20.00    -0.106 C 
BRANCH   8   9
HETATM    9  C9  UNL     1     -32.012   8.317   0.254  1.00 20.00     0.093 C 
BRANCH   9  10
HETATM   10  C10 UNL     1     -33.043   9.420   0.016  1.00 20.00     0.007 C 
HETATM   11  C8  UNL     1     -33.174  10.377   1.193  1.00 20.00     0.006 C 
ENDBRANCH   9  10
ENDBRANCH   8   9
ENDBRANCH   5   7
TORSDOF 3
