REMARK  3 active torsions:
REMARK  status: ('A' for Active; 'I' for Inactive)
REMARK    1  A    between atoms: C3_3  and  C8_8 
REMARK    2  A    between atoms: C6_6  and  C9_9 
REMARK    3  A    between atoms: C7_7  and  C10_10 
ROOT
HETATM    1  C5  UNL     1     -32.790   9.125   4.225  1.00 20.00     0.019 C 
HETATM    2  C8  UNL     1     -31.953   7.829   3.783  1.00 20.00     0.078 C 
HETATM    3  C9  UNL     1     -33.834   8.090   4.741  1.00 20.00    -0.001 C 
HETATM    4  C10 UNL     1     -32.529   7.247   5.106  1.00 20.00     0.010 C 
ENDROOT
BRANCH   2   5
HETATM    5  C3  UNL     1     -32.292   7.141   2.455  1.00 20.00     0.223 C 
HETATM    6  O11 UNL     1     -32.045   7.668   1.374  1.00 20.00    -0.279 OA
HETATM    7 CL12 UNL     1     -33.036   5.590   2.693  1.00 20.00    -0.043 Cl
ENDBRANCH   2   5
BRANCH   4   8
HETATM    8  C7  UNL     1     -33.111   6.099   5.928  1.00 20.00     0.014 C 
HETATM    9  C2  UNL     1     -34.289   5.444   5.257  1.00 20.00    -0.025 C 
HETATM   10  C1  UNL     1     -35.318   6.308   5.306  1.00 20.00    -0.025 C 
HETATM   11  C6  UNL     1     -34.774   7.614   5.874  1.00 20.00     0.013 C 
HETATM   12  C4  UNL     1     -33.882   6.982   6.944  1.00 20.00     0.017 C 
ENDBRANCH   4   8
TORSDOF 3
