REMARK  1 active torsions:
REMARK  status: ('A' for Active; 'I' for Inactive)
REMARK    1  A    between atoms: C1_1  and  C7_7 
ROOT
HETATM    1  C2  UNL     1     -32.343   5.886   2.914  1.00 20.00     0.004 C 
HETATM    2  C3  UNL     1     -32.319   7.317   2.385  1.00 20.00     0.037 C 
HETATM    3  C4  UNL     1     -33.759   5.448   3.288  1.00 20.00     0.016 C 
HETATM    4  C5  UNL     1     -34.360   7.868   3.784  1.00 20.00     0.053 C 
HETATM    5  C6  UNL     1     -32.951   8.288   3.371  1.00 20.00     0.171 C 
HETATM    6  C7  UNL     1     -34.443   6.409   4.276  1.00 20.00     0.012 C 
HETATM    7  C8  UNL     1     -35.913   6.007   4.462  1.00 20.00     0.023 C 
HETATM    8  F10 UNL     1     -32.165   8.349   4.482  1.00 20.00    -0.249 F 
ENDROOT
BRANCH   6   9
HETATM    9  C1  UNL     1     -33.802   6.285   5.637  1.00 20.00     0.240 C 
HETATM   10  O9  UNL     1     -34.155   6.939   6.613  1.00 20.00    -0.306 OA
ENDBRANCH   6   9
TORSDOF 1
