REMARK  3 active torsions:
REMARK  status: ('A' for Active; 'I' for Inactive)
REMARK    1  A    between atoms: C1_1  and  C3_3 
REMARK    2  A    between atoms: C2_2  and  C7_7 
REMARK    3  A    between atoms: C7_7  and  C8_8 
ROOT
HETATM    1  C1  UNL     1     -33.649   6.037   4.121  1.00 20.00    -0.029 C 
HETATM    2  C2  UNL     1     -33.173   6.708   3.247  1.00 20.00    -0.098 C 
ENDROOT
BRANCH   2   3
HETATM    3  C7  UNL     1     -32.591   7.532   2.177  1.00 20.00     0.098 C 
BRANCH   3   4
HETATM    4  C8  UNL     1     -33.402   8.801   1.862  1.00 20.00    -0.012 C 
HETATM    5  C5  UNL     1     -33.528   9.726   3.074  1.00 20.00     0.010 C 
HETATM    6  C6  UNL     1     -32.845   9.563   0.657  1.00 20.00     0.010 C 
ENDBRANCH   3   4
ENDBRANCH   2   3
BRANCH   1   7
HETATM    7  C3  UNL     1     -34.226   5.235   5.173  1.00 20.00     0.198 C 
HETATM    8  C4  UNL     1     -35.120   5.953   6.140  1.00 20.00     0.106 C 
HETATM    9  O9  UNL     1     -33.973   4.039   5.236  1.00 20.00    -0.284 OA
ENDBRANCH   1   7
TORSDOF 3
