REMARK  1 active torsions:
REMARK  status: ('A' for Active; 'I' for Inactive)
REMARK    1  A    between atoms: C1_1  and  C4_4 
ROOT
HETATM    1  C1  UNL     1     -33.207   7.304   4.362  1.00 20.00    -0.068 C 
HETATM    2  C2  UNL     1     -32.633   8.213   3.828  1.00 20.00    -0.108 C 
HETATM    3  C6  UNL     1     -31.935   9.321   3.177  1.00 20.00     0.112 C 
ENDROOT
BRANCH   1   4
HETATM    4  C4  UNL     1     -33.900   6.204   5.008  1.00 20.00     0.129 C 
HETATM    5  C5  UNL     1     -33.814   4.808   4.285  1.00 20.00     0.016 C 
HETATM    6  C3  UNL     1     -35.354   4.857   4.387  1.00 20.00     0.182 C 
HETATM    7  C8  UNL     1     -33.170   3.659   5.056  1.00 20.00     0.021 C 
HETATM    8  C9  UNL     1     -33.338   4.810   2.827  1.00 20.00     0.021 C 
HETATM    9  O10 UNL     1     -35.323   6.276   4.691  1.00 20.00    -0.366 OA
HETATM   10  C7  UNL     1     -33.712   6.265   6.523  1.00 20.00     0.061 C 
ENDBRANCH   1   4
TORSDOF 1
