REMARK  1 active torsions:
REMARK  status: ('A' for Active; 'I' for Inactive)
REMARK    1  A    between atoms: C3_3  and  C9_9 
ROOT
HETATM    1  C1  UNL     1     -32.577   8.485   5.188  1.00 20.00    -0.030 C 
HETATM    2  C2  UNL     1     -33.213   8.731   4.024  1.00 20.00    -0.029 C 
HETATM    3  C4  UNL     1     -32.944   7.355   6.131  1.00 20.00     0.032 C 
HETATM    4  C5  UNL     1     -34.350   7.885   3.478  1.00 20.00     0.044 C 
HETATM    5  C6  UNL     1     -34.948   5.452   5.905  1.00 20.00     0.007 C 
HETATM    6  C7  UNL     1     -35.584   5.672   4.494  1.00 20.00     0.018 C 
HETATM    7  C8  UNL     1     -34.304   6.842   5.698  1.00 20.00     0.005 C 
HETATM    8  C9  UNL     1     -34.301   6.514   4.164  1.00 20.00     0.027 C 
ENDROOT
BRANCH   8   9
HETATM    9  C3  UNL     1     -33.144   5.631   3.566  1.00 20.00     0.132 C 
HETATM   10  C10 UNL     1     -33.215   5.329   2.093  1.00 20.00     0.091 C 
HETATM   11  O11 UNL     1     -32.224   5.211   4.266  1.00 20.00    -0.298 OA
ENDBRANCH   8   9
TORSDOF 1
