REMARK  0 active torsions:
REMARK  status: ('A' for Active; 'I' for Inactive)
ROOT
HETATM    1  C1  UNL     1     -31.891   8.319   0.868  1.00 20.00     0.017 C 
HETATM    2  C2  UNL     1     -32.260   7.824   1.896  1.00 20.00    -0.082 C 
HETATM    3  C3  UNL     1     -32.700   7.236   3.120  1.00 20.00     0.000 C 
HETATM    4  C4  UNL     1     -32.752   7.945   4.266  1.00 20.00    -0.041 C 
HETATM    5  C5  UNL     1     -33.130   5.789   3.091  1.00 20.00     0.083 C 
HETATM    6  C6  UNL     1     -33.207   7.297   5.558  1.00 20.00     0.307 C 
HETATM    7  C7  UNL     1     -33.958   5.356   4.320  1.00 20.00     0.223 C 
HETATM    8  C8  UNL     1     -32.394   9.403   4.398  1.00 20.00     0.046 C 
HETATM    9  C9  UNL     1     -34.152   3.835   4.263  1.00 20.00     0.043 C 
HETATM   10  C10 UNL     1     -33.876   5.339   6.775  1.00 20.00     0.310 C 
HETATM   11  N11 UNL     1     -33.266   5.823   5.535  1.00 20.00     0.092 N 
ENDROOT
TORSDOF 0
