REMARK  1 active torsions:
REMARK  status: ('A' for Active; 'I' for Inactive)
REMARK    1  A    between atoms: C4_4  and  C10_10 
ROOT
HETATM    1  C1  UNL     1     -33.581   8.563   4.898  1.00 20.00     0.174 C 
HETATM    2  C2  UNL     1     -33.555   8.224   3.449  1.00 20.00     0.025 A 
HETATM    3  C3  UNL     1     -33.240   6.779   3.354  1.00 20.00     0.030 A 
HETATM    4  C4  UNL     1     -33.076   6.280   4.756  1.00 20.00     0.130 C 
HETATM    5  C5  UNL     1     -32.308   7.786   2.703  1.00 20.00    -0.035 A 
HETATM    6  C6  UNL     1     -32.346   7.878   1.197  1.00 20.00     0.016 C 
HETATM    7  C7  UNL     1     -30.942   8.047   3.280  1.00 20.00     0.016 C 
HETATM    8  O11 UNL     1     -33.038   7.439   5.614  1.00 20.00    -0.385 OA
ENDROOT
BRANCH   4   9
HETATM    9  C10 UNL     1     -34.232   5.394   5.195  1.00 20.00     0.007 C 
HETATM   10  C8  UNL     1     -34.009   4.877   6.617  1.00 20.00     0.012 C 
HETATM   11  C9  UNL     1     -35.558   6.149   5.105  1.00 20.00     0.012 C 
ENDBRANCH   4   9
TORSDOF 1
