REMARK  1 active torsions:
REMARK  status: ('A' for Active; 'I' for Inactive)
REMARK    1  A    between atoms: C2_2  and  C4_4 
ROOT
HETATM    1  C1  UNL     1     -32.981   5.763   2.509  1.00 20.00     0.065 C 
HETATM    2  C3  UNL     1     -32.821   6.420   3.775  1.00 20.00     0.113 A 
HETATM    3  C4  UNL     1     -34.057   6.896   4.504  1.00 20.00     0.082 A 
HETATM    4  C5  UNL     1     -33.090   7.908   3.917  1.00 20.00    -0.019 A 
HETATM    5  C7  UNL     1     -32.173   8.684   4.831  1.00 20.00     0.017 C 
HETATM    6  C8  UNL     1     -33.571   8.713   2.734  1.00 20.00     0.017 C 
HETATM    7  N9  UNL     1     -33.109   5.232   1.486  1.00 20.00    -0.197 NA
ENDROOT
BRANCH   3   8
HETATM    8  C2  UNL     1     -34.153   6.700   5.957  1.00 20.00     0.129 C 
HETATM    9  C6  UNL     1     -33.949   5.299   6.466  1.00 20.00     0.091 C 
HETATM   10  O10 UNL     1     -34.388   7.636   6.721  1.00 20.00    -0.298 OA
ENDBRANCH   3   8
TORSDOF 1
