REMARK  1 active torsions:
REMARK  status: ('A' for Active; 'I' for Inactive)
REMARK    1  A    between atoms: C2_2  and  C6_6 
ROOT
HETATM    1  C1  UNL     1     -33.988   5.774   4.037  1.00 20.00     0.139 C 
HETATM    2  C3  UNL     1     -35.100   5.270   4.933  1.00 20.00     0.089 C 
HETATM    3  C4  UNL     1     -34.746   5.412   6.404  1.00 20.00     0.081 C 
HETATM    4  C5  UNL     1     -33.125   7.497   5.647  1.00 20.00     0.093 C 
HETATM    5  C6  UNL     1     -33.579   7.228   4.215  1.00 20.00     0.133 C 
HETATM    6  O8  UNL     1     -33.498   5.052   3.169  1.00 20.00    -0.297 OA
HETATM    7  S10 UNL     1     -34.444   7.147   6.850  1.00 20.00    -0.168 SA
ENDROOT
BRANCH   5   8
HETATM    8  C2  UNL     1     -32.480   7.636   3.280  1.00 20.00     0.135 C 
HETATM    9  C7  UNL     1     -31.581   8.752   3.739  1.00 20.00     0.091 C 
HETATM   10  O9  UNL     1     -32.321   7.084   2.192  1.00 20.00    -0.298 OA
ENDBRANCH   5   8
TORSDOF 1
