REMARK  2 active torsions:
REMARK  status: ('A' for Active; 'I' for Inactive)
REMARK    1  A    between atoms: C1_1  and  C4_4 
REMARK    2  A    between atoms: C2_2  and  N10_10 
ROOT
HETATM    1  C5  UNL     1     -34.927   6.092   6.451  1.00 20.00     0.003 C 
HETATM    2  C6  UNL     1     -34.389   5.065   5.460  1.00 20.00     0.029 C 
HETATM    3  C7  UNL     1     -33.965   7.266   6.612  1.00 20.00     0.029 C 
HETATM    4  C8  UNL     1     -34.038   5.703   4.122  1.00 20.00     0.251 C 
HETATM    5  C9  UNL     1     -33.616   7.896   5.270  1.00 20.00     0.251 C 
HETATM    6  N10 UNL     1     -33.071   6.834   4.352  1.00 20.00    -0.006 N 
HETATM    7  H24 UNL     1     -32.222   6.444   4.784  1.00 20.00     0.297 HD
ENDROOT
BRANCH   6   8
HETATM    8  C2  UNL     1     -32.631   7.420   3.071  1.00 20.00     0.118 C 
HETATM    9  C1  UNL     1     -32.273   7.897   2.029  1.00 20.00    -0.049 C 
BRANCH   9  10
HETATM   10  C4  UNL     1     -31.844   8.457   0.797  1.00 20.00     0.056 C 
HETATM   11  C3  UNL     1     -32.605   9.314   0.108  1.00 20.00     0.021 C 
ENDBRANCH   9  10
ENDBRANCH   6   8
TORSDOF 2
