REMARK  0 active torsions:
REMARK  status: ('A' for Active; 'I' for Inactive)
ROOT
HETATM    1  C1  UNL     1     -34.179   5.549   4.252  1.00 20.00     0.223 C 
HETATM    2  C2  UNL     1     -32.699   7.295   3.660  1.00 20.00     0.130 C 
HETATM    3  C3  UNL     1     -34.417   6.682   5.238  1.00 20.00     0.079 C 
HETATM    4  C4  UNL     1     -33.820   7.897   4.498  1.00 20.00     0.012 C 
HETATM    5  C5  UNL     1     -33.764   6.336   6.570  1.00 20.00     0.020 C 
HETATM    6  C6  UNL     1     -33.351   9.049   5.371  1.00 20.00     0.012 C 
HETATM    7  C7  UNL     1     -32.571   5.143   2.352  1.00 20.00     0.152 C 
HETATM    8  N8  UNL     1     -33.179   5.963   3.376  1.00 20.00    -0.356 N 
HETATM    9  O9  UNL     1     -34.747   4.466   4.287  1.00 20.00    -0.273 OA
ENDROOT
TORSDOF 0
