REMARK  1 active torsions:
REMARK  status: ('A' for Active; 'I' for Inactive)
REMARK    1  A    between atoms: C2_2  and  C3_3 
ROOT
HETATM    1  C1  UNL     1     -33.831   7.913   5.694  1.00 20.00    -0.009 C 
HETATM    2  C2  UNL     1     -33.364   7.709   4.426  1.00 20.00    -0.007 C 
HETATM    3  C4  UNL     1     -34.460   4.256   5.297  1.00 20.00     0.002 C 
HETATM    4  C5  UNL     1     -34.785   5.371   6.331  1.00 20.00     0.009 C 
HETATM    5  C6  UNL     1     -33.732   4.982   4.123  1.00 20.00     0.015 C 
HETATM    6  C7  UNL     1     -33.812   6.420   5.878  1.00 20.00     0.021 C 
HETATM    7  C8  UNL     1     -34.166   6.424   4.332  1.00 20.00    -0.007 C 
HETATM    8  C10 UNL     1     -35.565   6.670   3.728  1.00 20.00     0.021 C 
ENDROOT
BRANCH   2   9
HETATM    9  C3  UNL     1     -32.838   8.696   3.496  1.00 20.00     0.152 C 
HETATM   10  C9  UNL     1     -32.376   8.228   2.134  1.00 20.00     0.096 C 
HETATM   11  O11 UNL     1     -32.762   9.892   3.810  1.00 20.00    -0.293 OA
ENDBRANCH   2   9
TORSDOF 1
