REMARK  1 active torsions:
REMARK  status: ('A' for Active; 'I' for Inactive)
REMARK    1  A    between atoms: C1_1  and  C4_4 
ROOT
HETATM    1  C2  UNL     1     -33.098   8.274   3.879  1.00 20.00     0.180 C 
HETATM    2  C3  UNL     1     -32.742   7.350   2.729  1.00 20.00     0.103 C 
HETATM    3  C4  UNL     1     -34.362   6.427   4.533  1.00 20.00     0.165 C 
HETATM    4  C6  UNL     1     -35.763   5.928   4.212  1.00 20.00     0.067 C 
HETATM    5  O8  UNL     1     -34.350   7.853   4.436  1.00 20.00    -0.362 OA
HETATM    6  S9  UNL     1     -33.140   5.729   3.396  1.00 20.00    -0.122 SA
ENDROOT
BRANCH   3   7
HETATM    7  C1  UNL     1     -33.979   6.049   5.931  1.00 20.00     0.167 C 
HETATM    8  C5  UNL     1     -33.955   4.579   6.252  1.00 20.00     0.095 C 
HETATM    9  O7  UNL     1     -33.696   6.898   6.775  1.00 20.00    -0.294 OA
ENDBRANCH   3   7
TORSDOF 1
