REMARK  1 active torsions:
REMARK  status: ('A' for Active; 'I' for Inactive)
REMARK    1  A    between atoms: C3_3  and  C7_7 
ROOT
HETATM    1  C1  UNL     1     -34.001   4.767   4.291  1.00 20.00    -0.020 C 
HETATM    2  C2  UNL     1     -33.235   5.119   3.244  1.00 20.00    -0.086 C 
HETATM    3  C4  UNL     1     -32.708   6.521   3.069  1.00 20.00     0.045 C 
HETATM    4  C5  UNL     1     -34.209   7.189   4.987  1.00 20.00     0.020 C 
HETATM    5  C6  UNL     1     -34.442   5.718   5.373  1.00 20.00     0.005 C 
HETATM    6  C7  UNL     1     -32.849   7.397   4.320  1.00 20.00     0.059 C 
HETATM    7  C8  UNL     1     -32.858   4.135   2.174  1.00 20.00     0.043 C 
HETATM    8  C10 UNL     1     -33.745   5.364   6.689  1.00 20.00     0.014 C 
ENDROOT
BRANCH   6   9
HETATM    9  C3  UNL     1     -32.667   8.841   3.956  1.00 20.00     0.127 C 
HETATM   10  C9  UNL     1     -32.054   9.731   5.003  1.00 20.00     0.091 C 
HETATM   11  O11 UNL     1     -33.001   9.276   2.855  1.00 20.00    -0.298 OA
ENDBRANCH   6   9
TORSDOF 1
