REMARK  0 active torsions:
REMARK  status: ('A' for Active; 'I' for Inactive)
ROOT
HETATM    1  C1  UNL     1     -32.674   6.562   2.647  1.00 20.00     0.053 A 
HETATM    2  C2  UNL     1     -32.891   5.335   3.150  1.00 20.00    -0.070 A 
HETATM    3  C3  UNL     1     -32.952   7.517   3.741  1.00 20.00     0.155 A 
HETATM    4  C4  UNL     1     -33.315   6.768   4.975  1.00 20.00     0.082 A 
HETATM    5  C5  UNL     1     -33.254   5.283   4.598  1.00 20.00    -0.002 A 
HETATM    6  C6  UNL     1     -34.564   5.913   5.089  1.00 20.00    -0.024 A 
HETATM    7  C7  UNL     1     -32.816   4.077   2.350  1.00 20.00     0.044 C 
HETATM    8  C8  UNL     1     -32.470   4.339   5.466  1.00 20.00     0.021 C 
HETATM    9  C9  UNL     1     -35.054   5.603   6.487  1.00 20.00     0.016 C 
HETATM   10  C10 UNL     1     -35.713   6.106   4.122  1.00 20.00     0.016 C 
HETATM   11  O11 UNL     1     -32.898   8.732   3.664  1.00 20.00    -0.293 OA
ENDROOT
TORSDOF 0
