REMARK  2 active torsions:
REMARK  status: ('A' for Active; 'I' for Inactive)
REMARK    1  A    between atoms: C5_5  and  O10_10 
REMARK    2  A    between atoms: C9_9  and  O10_10 
ROOT
HETATM    1  C1  UNL     1     -33.336   9.686   1.105  1.00 20.00     0.012 C 
HETATM    2  C2  UNL     1     -33.086   9.164   2.157  1.00 20.00    -0.110 C 
HETATM    3  C3  UNL     1     -31.730   7.471   3.459  1.00 20.00     0.053 A 
HETATM    4  C4  UNL     1     -32.788   8.542   3.413  1.00 20.00     0.095 A 
HETATM    5  C5  UNL     1     -33.176   7.099   3.617  1.00 20.00     0.139 A 
ENDROOT
BRANCH   5   6
HETATM    6  O10 UNL     1     -33.586   6.745   4.928  1.00 20.00    -0.375 OA
BRANCH   6   7
HETATM    7  C9  UNL     1     -34.571   5.711   4.902  1.00 20.00     0.050 C 
HETATM    8  C6  UNL     1     -33.969   4.484   4.219  1.00 20.00     0.045 C 
HETATM    9  C7  UNL     1     -34.943   5.393   6.348  1.00 20.00     0.045 C 
HETATM   10  C8  UNL     1     -35.790   6.220   4.132  1.00 20.00     0.045 C 
ENDBRANCH   6   7
ENDBRANCH   5   6
TORSDOF 2
