REMARK  0 active torsions:
REMARK  status: ('A' for Active; 'I' for Inactive)
ROOT
HETATM    1  C1  UNL     1     -34.017   5.467   6.480  1.00 20.00    -0.014 C 
HETATM    2  C2  UNL     1     -33.293   6.600   6.472  1.00 20.00    -0.004 C 
HETATM    3  C3  UNL     1     -33.115   6.101   3.449  1.00 20.00     0.203 A 
HETATM    4  C4  UNL     1     -34.684   5.191   5.160  1.00 20.00     0.126 C 
HETATM    5  C5  UNL     1     -32.262   7.184   4.139  1.00 20.00     0.126 A 
HETATM    6  C6  UNL     1     -33.416   7.292   5.160  1.00 20.00     0.042 A 
HETATM    7  C7  UNL     1     -34.182   8.601   5.202  1.00 20.00     0.038 C 
HETATM    8  N8  UNL     1     -34.128   6.267   4.354  1.00 20.00    -0.237 NA
HETATM    9  O9  UNL     1     -32.944   5.308   2.550  1.00 20.00    -0.280 OA
ENDROOT
TORSDOF 0
