REMARK  1 active torsions:
REMARK  status: ('A' for Active; 'I' for Inactive)
REMARK    1  A    between atoms: CA_2  and  C_3 
ROOT
ATOM      1  N   GLY A   1     -33.736   7.698   6.106  1.00 20.00    -0.249 NA
ATOM      2  CA  GLY A   1     -33.375   7.161   4.886  1.00 20.00     0.122 A 
HETATM    3  C1  UNK A   1     -34.383   6.785   6.797  1.00 20.00     0.168 A 
HETATM    4  C2  UNK A   1     -33.753   5.853   4.667  1.00 20.00     0.104 A 
HETATM    5  S3  UNK A   1     -33.433   4.971   3.256  1.00 20.00    -0.070 SA
HETATM    6  S4  UNK A   1     -34.593   5.260   6.039  1.00 20.00    -0.069 SA
ENDROOT
BRANCH   2   7
ATOM      7  C   GLY A   1     -32.650   8.003   3.966  1.00 20.00     0.292 C 
ATOM      8  O   GLY A   1     -32.335   9.177   4.214  1.00 20.00    -0.300 OA
ENDBRANCH   2   7
TORSDOF 1
