REMARK  2 active torsions:
REMARK  status: ('A' for Active; 'I' for Inactive)
REMARK    1  A    between atoms: C1_1  and  C8_8 
REMARK    2  A    between atoms: C2_2  and  C9_9 
ROOT
HETATM    1  C3  UNL     1     -34.216   6.246   4.601  1.00 20.00     0.142 C 
HETATM    2  C4  UNL     1     -34.506   7.036   5.891  1.00 20.00     0.081 C 
HETATM    3  C5  UNL     1     -33.280   7.911   5.537  1.00 20.00     0.032 C 
HETATM    4  C8  UNL     1     -32.815   6.885   4.463  1.00 20.00     0.135 C 
HETATM    5  O10 UNL     1     -34.849   5.438   3.955  1.00 20.00    -0.297 OA
ENDROOT
BRANCH   4   6
HETATM    6  C1  UNL     1     -32.557   7.427   3.151  1.00 20.00    -0.094 C 
HETATM    7  C2  UNL     1     -32.342   7.878   2.059  1.00 20.00    -0.101 C 
BRANCH   7   8
HETATM    8  C9  UNL     1     -32.080   8.427   0.730  1.00 20.00     0.065 A 
HETATM    9  C6  UNL     1     -32.945   9.545   0.255  1.00 20.00     0.018 A 
HETATM   10  C7  UNL     1     -33.089   8.175  -0.339  1.00 20.00     0.018 A 
ENDBRANCH   7   8
ENDBRANCH   4   6
TORSDOF 2
