REMARK  1 active torsions:
REMARK  status: ('A' for Active; 'I' for Inactive)
REMARK    1  A    between atoms: C3_3  and  C6_6 
ROOT
HETATM    1  C1  UNL     1     -34.143   7.520   6.461  1.00 20.00     0.005 C 
HETATM    2  C2  UNL     1     -33.473   7.912   5.364  1.00 20.00     0.040 C 
HETATM    3  C4  UNL     1     -34.843   6.202   6.551  1.00 20.00     0.033 C 
HETATM    4  C5  UNL     1     -34.413   5.281   5.414  1.00 20.00     0.049 C 
HETATM    5  C6  UNL     1     -34.286   6.050   4.095  1.00 20.00     0.116 C 
HETATM    6  C7  UNL     1     -32.741   9.214   5.294  1.00 20.00     0.076 C 
HETATM    7  C8  UNL     1     -35.630   6.498   3.519  1.00 20.00     0.054 C 
HETATM    8  O10 UNL     1     -33.397   7.173   4.199  1.00 20.00    -0.338 OA
ENDROOT
BRANCH   5   9
HETATM    9  C3  UNL     1     -33.586   5.190   3.082  1.00 20.00     0.269 C 
HETATM   10  O9  UNL     1     -32.528   5.502   2.545  1.00 20.00    -0.304 OA
ENDBRANCH   5   9
TORSDOF 1
