REMARK  1 active torsions:
REMARK  status: ('A' for Active; 'I' for Inactive)
REMARK    1  A    between atoms: C2_2  and  C4_4 
ROOT
HETATM    1  C1  UNL     1     -33.363   7.740   5.524  1.00 20.00     0.131 C 
HETATM    2  C3  UNL     1     -34.142   5.985   6.538  1.00 20.00     0.191 C 
HETATM    3  C4  UNL     1     -34.587   5.976   5.090  1.00 20.00     0.219 C 
HETATM    4  C5  UNL     1     -32.677   9.001   5.144  1.00 20.00     0.099 C 
HETATM    5  N7  UNL     1     -33.216   7.122   6.651  1.00 20.00    -0.268 NA
HETATM    6  O9  UNL     1     -34.185   7.233   4.578  1.00 20.00    -0.323 OA
ENDROOT
BRANCH   3   7
HETATM    7  C2  UNL     1     -33.889   4.931   4.279  1.00 20.00     0.153 C 
HETATM    8  C6  UNL     1     -32.976   5.420   3.188  1.00 20.00     0.093 C 
HETATM    9  O8  UNL     1     -34.053   3.731   4.494  1.00 20.00    -0.295 OA
ENDBRANCH   3   7
TORSDOF 1
