REMARK  1 active torsions:
REMARK  status: ('A' for Active; 'I' for Inactive)
REMARK    1  A    between atoms: C5_5  and  C7_7 
ROOT
HETATM    1  C1  UNL     1     -34.436   4.576   5.329  1.00 20.00    -0.026 A 
HETATM    2  C2  UNL     1     -34.379   5.322   4.216  1.00 20.00    -0.013 A 
HETATM    3  C3  UNL     1     -34.101   6.642   6.727  1.00 20.00    -0.019 A 
HETATM    4  C4  UNL     1     -34.043   7.406   5.620  1.00 20.00    -0.071 A 
HETATM    5  C6  UNL     1     -34.265   5.150   6.704  1.00 20.00     0.054 A 
HETATM    6  C7  UNL     1     -34.127   6.802   4.237  1.00 20.00     0.123 A 
HETATM    7  C8  UNL     1     -33.935   8.903   5.707  1.00 20.00     0.044 C 
ENDROOT
BRANCH   6   8
HETATM    8  C5  UNL     1     -32.805   7.000   3.558  1.00 20.00     0.230 C 
HETATM    9  O9  UNL     1     -31.870   7.564   4.118  1.00 20.00    -0.279 OA
HETATM   10 CL10 UNL     1     -32.793   6.349   1.947  1.00 20.00    -0.043 Cl
ENDBRANCH   6   8
TORSDOF 1
