REMARK  1 active torsions:
REMARK  status: ('A' for Active; 'I' for Inactive)
REMARK    1  A    between atoms: C3_3  and  C7_7 
ROOT
HETATM    1  C1  UNL     1     -34.072   5.364   5.187  1.00 20.00     0.218 C 
HETATM    2  C4  UNL     1     -33.800   4.549   3.938  1.00 20.00     0.103 C 
HETATM    3  C5  UNL     1     -33.529   5.376   2.691  1.00 20.00     0.012 C 
HETATM    4  C6  UNL     1     -32.492   6.446   2.993  1.00 20.00     0.029 C 
HETATM    5  C7  UNL     1     -33.033   7.364   4.076  1.00 20.00     0.106 C 
HETATM    6  N8  UNL     1     -33.546   6.636   5.224  1.00 20.00    -0.353 N 
HETATM    7  O9  UNL     1     -34.662   4.864   6.146  1.00 20.00    -0.274 OA
HETATM    8  H20 UNL     1     -33.514   7.100   6.121  1.00 20.00     0.163 HD
ENDROOT
BRANCH   5   9
HETATM    9  C3  UNL     1     -31.903   8.293   4.466  1.00 20.00    -0.012 C 
HETATM   10  C2  UNL     1     -32.076   9.560   4.856  1.00 20.00     0.009 C 
ENDBRANCH   5   9
TORSDOF 1
