REMARK  1 active torsions:
REMARK  status: ('A' for Active; 'I' for Inactive)
REMARK    1  A    between atoms: C3_3  and  C7_7 
ROOT
HETATM    1  C1  UNL     1     -34.173   4.298   5.116  1.00 20.00     0.006 C 
HETATM    2  C2  UNL     1     -34.210   5.262   6.047  1.00 20.00     0.007 C 
HETATM    3  C4  UNL     1     -33.109   5.791   3.446  1.00 20.00     0.054 C 
HETATM    4  C5  UNL     1     -34.374   4.979   3.786  1.00 20.00     0.244 C 
HETATM    5  C6  UNL     1     -34.425   6.560   5.310  1.00 20.00     0.255 C 
HETATM    6  C7  UNL     1     -33.128   6.892   4.544  1.00 20.00     0.094 C 
HETATM    7  N9  UNL     1     -35.256   6.112   4.159  1.00 20.00     0.100 N 
HETATM    8  H21 UNL     1     -35.286   6.814   3.420  1.00 20.00     0.317 HD
ENDROOT
BRANCH   6   9
HETATM    9  C3  UNL     1     -33.130   8.272   3.956  1.00 20.00     0.129 C 
HETATM   10  C8  UNL     1     -32.501   9.360   4.783  1.00 20.00     0.091 C 
HETATM   11  O10 UNL     1     -33.620   8.502   2.852  1.00 20.00    -0.298 OA
ENDBRANCH   6   9
TORSDOF 1
