REMARK  3 active torsions:
REMARK  status: ('A' for Active; 'I' for Inactive)
REMARK    1  A    between atoms: C2_2  and  C5_5 
REMARK    2  A    between atoms: C3_3  and  C6_6 
REMARK    3  A    between atoms: C3_3  and  O10_10 
ROOT
HETATM    1  C4  UNL     1     -33.755   5.906   6.863  1.00 20.00     0.025 A 
HETATM    2  C5  UNL     1     -35.007   5.805   6.036  1.00 20.00     0.028 A 
HETATM    3  C6  UNL     1     -34.522   7.152   6.516  1.00 20.00     0.094 A 
ENDROOT
BRANCH   3   4
HETATM    4  C3  UNL     1     -33.929   8.125   5.589  1.00 20.00     0.263 C 
HETATM    5  O9  UNL     1     -34.053   9.338   5.697  1.00 20.00    -0.265 OA
BRANCH   4   6
HETATM    6  O10 UNL     1     -33.239   7.466   4.615  1.00 20.00    -0.326 OA
HETATM    7  C8  UNL     1     -32.607   8.299   3.638  1.00 20.00     0.213 C 
ENDBRANCH   4   6
ENDBRANCH   3   4
BRANCH   2   8
HETATM    8  C2  UNL     1     -34.896   5.431   4.635  1.00 20.00    -0.088 C 
HETATM    9  C1  UNL     1     -35.433   6.175   3.657  1.00 20.00     0.014 C 
HETATM   10  C7  UNL     1     -34.146   4.164   4.346  1.00 20.00     0.043 C 
ENDBRANCH   2   8
TORSDOF 3
