REMARK  1 active torsions:
REMARK  status: ('A' for Active; 'I' for Inactive)
REMARK    1  A    between atoms: C3_3  and  C6_6 
ROOT
HETATM    1  C1  UNL     1     -34.463   5.159   6.532  1.00 20.00    -0.003 C 
HETATM    2  C2  UNL     1     -34.142   6.430   6.801  1.00 20.00     0.131 C 
HETATM    3  C4  UNL     1     -34.947   4.742   5.183  1.00 20.00     0.032 C 
HETATM    4  C5  UNL     1     -35.369   5.957   4.360  1.00 20.00     0.045 C 
HETATM    5  C6  UNL     1     -34.416   7.136   4.551  1.00 20.00     0.214 C 
HETATM    6  O8  UNL     1     -34.165   7.473   5.915  1.00 20.00    -0.349 OA
ENDROOT
BRANCH   5   7
HETATM    7  C3  UNL     1     -33.103   6.898   3.864  1.00 20.00     0.248 C 
HETATM    8  O7  UNL     1     -32.866   5.850   3.270  1.00 20.00    -0.277 OA
HETATM    9 CL9  UNL     1     -32.025   8.251   4.025  1.00 20.00    -0.041 Cl
ENDBRANCH   5   7
TORSDOF 1
