REMARK  1 active torsions:
REMARK  status: ('A' for Active; 'I' for Inactive)
REMARK    1  A    between atoms: C1_1  and  C4_4 
ROOT
HETATM    1  C2  UNL     1     -32.866   6.137   2.831  1.00 20.00     0.016 C 
HETATM    2  C3  UNL     1     -32.079   7.462   2.822  1.00 20.00     0.022 C 
HETATM    3  C4  UNL     1     -33.693   6.715   4.010  1.00 20.00     0.090 C 
HETATM    4  C5  UNL     1     -32.451   7.605   4.315  1.00 20.00     0.094 C 
HETATM    5 CL8  UNL     1     -32.710   9.244   4.975  1.00 20.00    -0.124 Cl
ENDROOT
BRANCH   3   6
HETATM    6  C1  UNL     1     -34.154   5.744   5.100  1.00 20.00     0.224 C 
HETATM    7  O6  UNL     1     -34.537   4.609   4.832  1.00 20.00    -0.279 OA
HETATM    8 CL7  UNL     1     -34.061   6.447   6.686  1.00 20.00    -0.043 Cl
ENDBRANCH   3   6
TORSDOF 1
