REMARK  5 active torsions:
REMARK  status: ('A' for Active; 'I' for Inactive)
REMARK    1  A    between atoms: C1_1  and  C5_5 
REMARK    2  A    between atoms: C5_5  and  C8_8 
REMARK    3  A    between atoms: C6_6  and  N9_9 
REMARK    4  A    between atoms: C7_7  and  N9_9 
REMARK    5  A    between atoms: C8_8  and  N9_9 
ROOT
HETATM    1  C1  UNL     1     -32.469   8.253   0.772  1.00 20.00    -0.092 C 
HETATM    2  C2  UNL     1     -32.586   8.717  -0.329  1.00 20.00    -0.022 C 
HETATM    3  S10 UNL     1     -32.764   9.411  -1.969  1.00 20.00     0.008 SA
ENDROOT
BRANCH   1   4
HETATM    4  C5  UNL     1     -32.324   7.684   2.120  1.00 20.00     0.122 C 
BRANCH   4   5
HETATM    5  C8  UNL     1     -33.646   7.634   2.871  1.00 20.00     0.246 C 
BRANCH   5   6
HETATM    6  N9  UNL     1     -33.455   6.990   4.215  1.00 20.00    -0.071 N 
HETATM    7  H25 UNL     1     -33.103   6.039   4.043  1.00 20.00     0.279 HD
BRANCH   6   8
HETATM    8  C6  UNL     1     -32.413   7.698   5.034  1.00 20.00     0.230 C 
HETATM    9  C3  UNL     1     -32.878   9.109   5.320  1.00 20.00     0.034 C 
ENDBRANCH   6   8
BRANCH   6  10
HETATM   10  C7  UNL     1     -34.752   6.847   4.959  1.00 20.00     0.230 C 
HETATM   11  C4  UNL     1     -35.726   6.056   4.113  1.00 20.00     0.034 C 
ENDBRANCH   6  10
ENDBRANCH   5   6
ENDBRANCH   4   5
ENDBRANCH   1   4
TORSDOF 5
