REMARK  0 active torsions:
REMARK  status: ('A' for Active; 'I' for Inactive)
ROOT
HETATM    1  C1  UNL     1     -32.699   9.075   5.039  1.00 20.00     0.017 C 
HETATM    2  C2  UNL     1     -33.351   8.068   5.000  1.00 20.00    -0.050 C 
HETATM    3  C3  UNL     1     -33.944   4.050   5.378  1.00 20.00     0.053 C 
HETATM    4  C4  UNL     1     -34.023   4.642   3.981  1.00 20.00     0.174 C 
HETATM    5  C5  UNL     1     -34.656   4.959   6.364  1.00 20.00     0.174 C 
HETATM    6  C6  UNL     1     -34.153   6.829   4.952  1.00 20.00     0.227 C 
HETATM    7  C7  UNL     1     -35.577   7.206   4.522  1.00 20.00     0.095 C 
HETATM    8  O8  UNL     1     -33.528   5.978   3.983  1.00 20.00    -0.345 OA
HETATM    9  O9  UNL     1     -34.138   6.284   6.277  1.00 20.00    -0.345 OA
ENDROOT
TORSDOF 0
