REMARK  4 active torsions:
REMARK  status: ('A' for Active; 'I' for Inactive)
REMARK    1  A    between atoms: C1_1  and  C4_4 
REMARK    2  A    between atoms: C5_5  and  C8_8 
REMARK    3  A    between atoms: C8_8  and  C10_10 
REMARK    4  A    between atoms: C9_9  and  C10_10 
ROOT
HETATM    1  C2  UNL     1     -34.095   8.144   4.568  1.00 20.00     0.016 C 
HETATM    2  C3  UNL     1     -32.457   7.490   5.798  1.00 20.00     0.016 C 
HETATM    3  C4  UNL     1     -33.956   7.124   5.720  1.00 20.00     0.055 C 
HETATM    4  C5  UNL     1     -32.559   8.125   4.393  1.00 20.00    -0.013 C 
ENDROOT
BRANCH   4   5
HETATM    5  C8  UNL     1     -32.025   7.291   3.239  1.00 20.00     0.005 C 
BRANCH   5   6
HETATM    6  C10 UNL     1     -32.594   7.754   1.895  1.00 20.00     0.000 C 
BRANCH   6   7
HETATM    7  C9  UNL     1     -32.204   9.199   1.589  1.00 20.00    -0.005 C 
HETATM    8  C7  UNL     1     -32.741   9.647   0.239  1.00 20.00     0.005 C 
ENDBRANCH   6   7
ENDBRANCH   5   6
ENDBRANCH   4   5
BRANCH   3   9
HETATM    9  C1  UNL     1     -34.250   5.708   5.358  1.00 20.00     0.127 C 
HETATM   10  C6  UNL     1     -33.912   4.662   6.386  1.00 20.00     0.091 C 
HETATM   11  O11 UNL     1     -34.746   5.409   4.273  1.00 20.00    -0.298 OA
ENDBRANCH   3   9
TORSDOF 4
