REMARK  1 active torsions:
REMARK  status: ('A' for Active; 'I' for Inactive)
REMARK    1  A    between atoms: C1_1  and  C2_2 
ROOT
HETATM    1  C2  UNL     1     -33.076   6.523   4.308  1.00 20.00     0.084 A 
HETATM    2  C3  UNL     1     -33.845   7.739   4.765  1.00 20.00     0.018 A 
HETATM    3  C4  UNL     1     -34.378   6.350   5.070  1.00 20.00     0.048 A 
HETATM    4  C6  UNL     1     -33.283   8.630   5.819  1.00 20.00     0.012 C 
HETATM    5  C7  UNL     1     -34.328   5.792   6.462  1.00 20.00     0.034 C 
HETATM    6 CL9  UNL     1     -35.842   5.876   4.168  1.00 20.00    -0.118 Cl
ENDROOT
BRANCH   1   7
HETATM    7  C1  UNL     1     -32.991   6.228   2.871  1.00 20.00     0.129 C 
HETATM    8  C5  UNL     1     -32.501   7.338   1.980  1.00 20.00     0.091 C 
HETATM    9  O8  UNL     1     -33.303   5.128   2.419  1.00 20.00    -0.298 OA
ENDBRANCH   1   7
TORSDOF 1
