REMARK  1 active torsions:
REMARK  status: ('A' for Active; 'I' for Inactive)
REMARK    1  A    between atoms: C4_4  and  C7_7 
ROOT
HETATM    1  C1  UNL     1     -34.897   7.970   4.874  1.00 20.00    -0.024 C 
HETATM    2  C2  UNL     1     -34.650   7.255   3.763  1.00 20.00    -0.013 C 
HETATM    3  C3  UNL     1     -34.103   5.353   5.076  1.00 20.00     0.140 C 
HETATM    4  C5  UNL     1     -34.352   6.095   6.393  1.00 20.00     0.088 C 
HETATM    5  C6  UNL     1     -33.917   7.511   5.941  1.00 20.00     0.027 C 
HETATM    6  C7  UNL     1     -32.689   7.182   5.069  1.00 20.00     0.074 C 
HETATM    7  C8  UNL     1     -33.490   6.333   4.066  1.00 20.00     0.045 C 
HETATM    8  C9  UNL     1     -32.730   5.732   2.914  1.00 20.00     0.029 C 
HETATM    9  O10 UNL     1     -34.379   4.182   4.867  1.00 20.00    -0.297 OA
ENDROOT
BRANCH   6  10
HETATM   10  C4  UNL     1     -31.992   8.398   4.526  1.00 20.00     0.237 C 
HETATM   11  O11 UNL     1     -32.318   9.547   4.806  1.00 20.00    -0.306 OA
ENDBRANCH   6  10
TORSDOF 1
