REMARK  0 active torsions:
REMARK  status: ('A' for Active; 'I' for Inactive)
ROOT
HETATM    1  C1  UNL     1     -34.935   5.967   6.832  1.00 20.00     0.004 A 
HETATM    2  C2  UNL     1     -34.538   7.213   6.518  1.00 20.00     0.031 A 
HETATM    3  C3  UNL     1     -34.686   4.869   5.924  1.00 20.00     0.017 A 
HETATM    4  C4  UNL     1     -32.301   7.092   2.164  1.00 20.00     0.044 A 
HETATM    5  C5  UNL     1     -33.465   8.741   4.936  1.00 20.00     0.146 A 
HETATM    6  C6  UNL     1     -34.051   5.115   4.768  1.00 20.00     0.093 A 
HETATM    7  C7  UNL     1     -33.847   7.482   5.256  1.00 20.00     0.053 A 
HETATM    8  C8  UNL     1     -32.979   6.525   3.161  1.00 20.00     0.136 A 
HETATM    9  C9  UNL     1     -32.637   8.012   3.100  1.00 20.00     0.069 A 
HETATM   10  N10 UNL     1     -32.802   9.044   3.765  1.00 20.00    -0.260 NA
HETATM   11  N11 UNL     1     -33.602   6.379   4.377  1.00 20.00    -0.333 N 
ENDROOT
TORSDOF 0
