REMARK  1 active torsions:
REMARK  status: ('A' for Active; 'I' for Inactive)
REMARK    1  A    between atoms: C1_1  and  C5_5 
ROOT
HETATM    1  C2  UNL     1     -33.032   6.686   3.392  1.00 20.00     0.013 C 
HETATM    2  C3  UNL     1     -31.882   7.652   3.661  1.00 20.00     0.009 C 
HETATM    3  C4  UNL     1     -33.628   8.288   5.156  1.00 20.00     0.021 C 
HETATM    4  C5  UNL     1     -34.107   7.022   4.433  1.00 20.00     0.055 C 
HETATM    5  C6  UNL     1     -32.553   8.901   4.247  1.00 20.00    -0.047 C 
HETATM    6  C8  UNL     1     -33.188   9.767   3.146  1.00 20.00     0.015 C 
HETATM    7  C9  UNL     1     -31.558   9.750   5.042  1.00 20.00     0.015 C 
ENDROOT
BRANCH   4   8
HETATM    8  C1  UNL     1     -34.311   5.892   5.396  1.00 20.00     0.127 C 
HETATM    9  C7  UNL     1     -34.758   4.579   4.813  1.00 20.00     0.091 C 
HETATM   10  O10 UNL     1     -34.120   6.031   6.603  1.00 20.00    -0.298 OA
ENDBRANCH   4   8
TORSDOF 1
