REMARK  1 active torsions:
REMARK  status: ('A' for Active; 'I' for Inactive)
REMARK    1  A    between atoms: C3_3  and  C6_6 
ROOT
HETATM    1  C1  UNL     1     -32.541   8.800   3.909  1.00 20.00    -0.030 C 
HETATM    2  C2  UNL     1     -33.354   8.882   4.971  1.00 20.00    -0.026 C 
HETATM    3  C4  UNL     1     -32.393   7.565   3.074  1.00 20.00     0.032 C 
HETATM    4  C5  UNL     1     -34.221   7.742   5.445  1.00 20.00     0.018 C 
HETATM    5  C6  UNL     1     -34.378   6.663   4.348  1.00 20.00     0.098 C 
HETATM    6  C7  UNL     1     -33.034   6.305   3.693  1.00 20.00    -0.000 C 
HETATM    7  C8  UNL     1     -33.650   7.224   6.772  1.00 20.00     0.015 C 
HETATM    8  C9  UNL     1     -33.174   5.225   2.615  1.00 20.00     0.011 C 
ENDROOT
BRANCH   5   9
HETATM    9  C3  UNL     1     -35.068   5.446   4.943  1.00 20.00     0.178 C 
HETATM   10  O10 UNL     1     -34.413   4.836   5.832  1.00 20.00    -0.648 OA
HETATM   11  O11 UNL     1     -36.213   5.202   4.469  1.00 20.00    -0.648 OA
ENDBRANCH   5   9
TORSDOF 1
