REMARK  0 active torsions:
REMARK  status: ('A' for Active; 'I' for Inactive)
ROOT
HETATM    1  C1  UNL     1     -34.905   5.843   6.197  1.00 20.00     0.148 A 
HETATM    2  C2  UNL     1     -33.854   7.610   5.529  1.00 20.00     0.218 A 
HETATM    3  C3  UNL     1     -34.327   5.522   5.004  1.00 20.00     0.061 A 
HETATM    4  C4  UNL     1     -34.110   4.556   4.015  1.00 20.00     0.037 A 
HETATM    5  C5  UNL     1     -33.343   5.070   3.033  1.00 20.00     0.077 A 
HETATM    6  C6  UNL     1     -33.033   6.475   3.401  1.00 20.00     0.253 A 
HETATM    7  N7  UNL     1     -34.603   7.158   6.521  1.00 20.00    -0.253 NA
HETATM    8  N8  UNL     1     -33.674   6.638   4.601  1.00 20.00    -0.272 N 
HETATM    9  O9  UNL     1     -32.388   7.340   2.852  1.00 20.00    -0.268 OA
ENDROOT
TORSDOF 0
