REMARK  1 active torsions:
REMARK  status: ('A' for Active; 'I' for Inactive)
REMARK    1  A    between atoms: C3_3  and  C8_8 
ROOT
HETATM    1  C1  UNL     1     -35.319   6.032   3.449  1.00 20.00    -0.024 C 
HETATM    2  C2  UNL     1     -35.685   5.924   4.736  1.00 20.00    -0.021 C 
HETATM    3  C4  UNL     1     -33.542   4.354   3.693  1.00 20.00     0.010 C 
HETATM    4  C5  UNL     1     -33.940   4.232   5.184  1.00 20.00     0.014 C 
HETATM    5  C6  UNL     1     -33.469   6.673   5.530  1.00 20.00     0.026 C 
HETATM    6  C7  UNL     1     -33.847   5.781   3.185  1.00 20.00     0.019 C 
HETATM    7  C8  UNL     1     -33.017   6.764   4.049  1.00 20.00     0.063 C 
HETATM    8  C9  UNL     1     -34.554   5.569   5.688  1.00 20.00    -0.026 C 
HETATM    9  C11 UNL     1     -35.027   5.455   7.134  1.00 20.00     0.019 C 
ENDROOT
BRANCH   7  10
HETATM   10  C3  UNL     1     -33.123   8.175   3.549  1.00 20.00     0.128 C 
HETATM   11  C10 UNL     1     -32.671   8.427   2.136  1.00 20.00     0.091 C 
HETATM   12  O12 UNL     1     -33.559   9.080   4.258  1.00 20.00    -0.298 OA
ENDBRANCH   7  10
TORSDOF 1
