REMARK  1 active torsions:
REMARK  status: ('A' for Active; 'I' for Inactive)
REMARK    1  A    between atoms: C1_1  and  C3_3 
ROOT
HETATM    1  C2  UNL     1     -33.902   3.975   4.327  1.00 20.00     0.056 A 
HETATM    2  C3  UNL     1     -32.964   5.136   4.326  1.00 20.00     0.067 A 
HETATM    3  C4  UNL     1     -34.296   5.264   4.996  1.00 20.00     0.122 A 
HETATM    4 CL7  UNL     1     -35.594   6.203   4.267  1.00 20.00    -0.101 Cl
HETATM    5 CL8  UNL     1     -34.306   5.311   6.758  1.00 20.00    -0.101 Cl
ENDROOT
BRANCH   2   6
HETATM    6  C1  UNL     1     -32.701   5.836   3.030  1.00 20.00     0.090 C 
HETATM    7  N6  UNL     1     -32.268   7.048   3.014  1.00 20.00    -0.310 NA
HETATM    8  C5  UNL     1     -32.071   7.573   1.666  1.00 20.00     0.176 C 
ENDBRANCH   2   6
TORSDOF 1
