REMARK  1 active torsions:
REMARK  status: ('A' for Active; 'I' for Inactive)
REMARK    1  A    between atoms: C6_6  and  N10_10 
ROOT
HETATM    1  C1  UNL     1     -33.887   4.589   4.282  1.00 20.00    -0.017 A 
HETATM    2  C2  UNL     1     -33.224   4.971   3.236  1.00 20.00     0.079 A 
HETATM    3  C3  UNL     1     -32.882   6.377   3.173  1.00 20.00     0.047 A 
HETATM    4  C4  UNL     1     -33.940   7.045   5.368  1.00 20.00     0.057 A 
HETATM    5  C5  UNL     1     -34.458   5.888   5.845  1.00 20.00     0.129 A 
HETATM    6  C6  UNL     1     -33.206   7.287   4.120  1.00 20.00     0.135 A 
HETATM    7  N9  UNL     1     -34.451   4.609   5.309  1.00 20.00    -0.218 NA
ENDROOT
BRANCH   6   8
HETATM    8  N10 UNL     1     -32.774   8.619   3.860  1.00 20.00    -0.049 N 
HETATM    9  C7  UNL     1     -33.961   9.526   3.733  1.00 20.00     0.276 C 
HETATM   10  C8  UNL     1     -31.808   9.058   4.919  1.00 20.00     0.276 C 
HETATM   11  H21 UNL     1     -32.274   8.637   2.960  1.00 20.00     0.285 HD
ENDBRANCH   6   8
TORSDOF 1
