REMARK  1 active torsions:
REMARK  status: ('A' for Active; 'I' for Inactive)
REMARK    1  A    between atoms: C1_1  and  C9_9 
ROOT
HETATM    1  C2  UNL     1     -33.120   4.969   2.976  1.00 20.00     0.002 C 
HETATM    2  C3  UNL     1     -33.581   4.464   4.348  1.00 20.00     0.005 C 
HETATM    3  C4  UNL     1     -35.479   6.165   4.412  1.00 20.00     0.006 C 
HETATM    4  C5  UNL     1     -32.561   6.396   3.023  1.00 20.00     0.018 C 
HETATM    5  C6  UNL     1     -34.871   7.315   3.593  1.00 20.00     0.019 C 
HETATM    6  C7  UNL     1     -33.372   6.737   5.364  1.00 20.00     0.023 C 
HETATM    7  C8  UNL     1     -34.303   5.542   5.177  1.00 20.00    -0.013 C 
HETATM    8  C9  UNL     1     -33.374   7.319   3.949  1.00 20.00     0.036 C 
ENDROOT
BRANCH   8   9
HETATM    9  C1  UNL     1     -32.802   8.703   3.926  1.00 20.00     0.227 C 
HETATM   10  O10 UNL     1     -32.378   9.243   4.944  1.00 20.00    -0.279 OA
HETATM   11 CL11 UNL     1     -32.827   9.395   2.332  1.00 20.00    -0.043 Cl
ENDBRANCH   8   9
TORSDOF 1
