REMARK  1 active torsions:
REMARK  status: ('A' for Active; 'I' for Inactive)
REMARK    1  A    between atoms: C4_4  and  C5_5 
ROOT
HETATM    1  C1  UNL     1     -34.219   5.644   6.924  1.00 20.00     0.014 C 
HETATM    2  C2  UNL     1     -33.304   6.814   6.588  1.00 20.00     0.062 C 
HETATM    3  C3  UNL     1     -34.158   4.694   5.739  1.00 20.00     0.077 C 
HETATM    4  C4  UNL     1     -33.724   7.290   5.203  1.00 20.00     0.209 C 
HETATM    5  F6  UNL     1     -34.872   8.012   5.319  1.00 20.00    -0.225 F 
HETATM    6  S9  UNL     1     -34.079   5.765   4.277  1.00 20.00    -0.121 SA
ENDROOT
BRANCH   4   7
HETATM    7  C5  UNL     1     -32.680   8.149   4.518  1.00 20.00     0.403 C 
HETATM    8  F7  UNL     1     -32.466   9.263   5.255  1.00 20.00    -0.210 F 
HETATM    9  F8  UNL     1     -33.153   8.551   3.316  1.00 20.00    -0.210 F 
ENDBRANCH   4   7
TORSDOF 1
