REMARK  4 active torsions:
REMARK  status: ('A' for Active; 'I' for Inactive)
REMARK    1  A    between atoms: C1_1  and  C7_7 
REMARK    2  A    between atoms: C2_2  and  C9_9 
REMARK    3  A    between atoms: C4_4  and  C9_9 
REMARK    4  A    between atoms: C9_9  and  O10_10 
ROOT
HETATM    1  C1  UNL     1     -33.332   7.240   4.022  1.00 20.00    -0.094 C 
HETATM    2  C2  UNL     1     -34.019   6.259   4.106  1.00 20.00    -0.070 C 
ENDROOT
BRANCH   2   3
HETATM    3  C9  UNL     1     -34.866   5.064   4.209  1.00 20.00     0.219 C 
BRANCH   3   4
HETATM    4  C4  UNL     1     -34.122   3.865   3.706  1.00 20.00     0.007 C 
HETATM    5  C3  UNL     1     -32.951   3.450   4.205  1.00 20.00     0.010 C 
ENDBRANCH   3   4
BRANCH   3   6
HETATM    6  O10 UNL     1     -35.212   4.828   5.571  1.00 20.00    -0.380 OA
HETATM    7  H22 UNL     1     -34.379   4.699   6.050  1.00 20.00     0.211 HD
ENDBRANCH   3   6
ENDBRANCH   2   3
BRANCH   1   8
HETATM    8  C7  UNL     1     -32.507   8.417   3.921  1.00 20.00     0.020 A 
HETATM    9  C5  UNL     1     -31.519   8.474   2.778  1.00 20.00     0.024 A 
HETATM   10  C6  UNL     1     -32.749   9.333   2.742  1.00 20.00     0.024 A 
HETATM   11  C8  UNL     1     -32.112   9.039   5.230  1.00 20.00     0.029 C 
ENDBRANCH   1   8
TORSDOF 4
