REMARK  3 active torsions:
REMARK  status: ('A' for Active; 'I' for Inactive)
REMARK    1  A    between atoms: C1_1  and  C2_2 
REMARK    2  A    between atoms: C4_4  and  C8_8 
REMARK    3  A    between atoms: C8_8  and  N9_9 
ROOT
HETATM    1  C1  UNL     1     -33.666   6.423   3.897  1.00 20.00    -0.015 C 
HETATM    2  C3  UNL     1     -34.247   6.049   4.879  1.00 20.00    -0.097 C 
HETATM    3  C5  UNL     1     -34.955   5.592   6.074  1.00 20.00     0.113 C 
ENDROOT
BRANCH   1   4
HETATM    4  C2  UNL     1     -33.001   6.850   2.775  1.00 20.00    -0.013 C 
HETATM    5  C4  UNL     1     -32.421   7.224   1.793  1.00 20.00    -0.062 C 
BRANCH   5   6
HETATM    6  C8  UNL     1     -31.706   7.679   0.597  1.00 20.00     0.365 C 
BRANCH   6   7
HETATM    7  N9  UNL     1     -32.623   8.295  -0.354  1.00 20.00     0.090 N 
HETATM    8  C6  UNL     1     -32.037   8.316  -1.696  1.00 20.00     0.310 C 
HETATM    9  C7  UNL     1     -32.969   9.654   0.069  1.00 20.00     0.310 C 
ENDBRANCH   6   7
ENDBRANCH   5   6
ENDBRANCH   1   4
TORSDOF 3
