REMARK  1 active torsions:
REMARK  status: ('A' for Active; 'I' for Inactive)
REMARK    1  A    between atoms: C2_2  and  C3_3 
ROOT
HETATM    1  C1  UNL     1     -33.790   6.811   5.652  1.00 20.00     0.011 C 
HETATM    2  C2  UNL     1     -33.355   7.122   4.423  1.00 20.00     0.004 C 
HETATM    3  C4  UNL     1     -34.420   5.478   5.937  1.00 20.00     0.195 C 
HETATM    4  C5  UNL     1     -33.440   6.156   3.284  1.00 20.00     0.069 C 
HETATM    5  C6  UNL     1     -33.699   4.741   3.798  1.00 20.00     0.172 C 
HETATM    6  O8  UNL     1     -34.768   4.762   4.745  1.00 20.00    -0.387 OA
ENDROOT
BRANCH   2   7
HETATM    7  C3  UNL     1     -32.756   8.438   4.205  1.00 20.00     0.248 C 
HETATM    8  O7  UNL     1     -32.160   8.989   5.138  1.00 20.00    -0.274 OA
HETATM    9 CL9  UNL     1     -32.933   9.141   2.611  1.00 20.00    -0.039 Cl
ENDBRANCH   2   7
TORSDOF 1
