REMARK  0 active torsions:
REMARK  status: ('A' for Active; 'I' for Inactive)
ROOT
HETATM    1  C1  UNL     1     -33.147   6.603   3.493  1.00 20.00    -0.054 C 
HETATM    2  C2  UNL     1     -33.692   6.888   5.749  1.00 20.00     0.226 C 
HETATM    3  C3  UNL     1     -32.945   5.957   2.337  1.00 20.00     0.017 C 
HETATM    4  C4  UNL     1     -34.288   6.370   4.454  1.00 20.00     0.104 C 
HETATM    5  C5  UNL     1     -32.182   7.604   4.061  1.00 20.00     0.109 C 
HETATM    6  C6  UNL     1     -34.766   4.933   4.601  1.00 20.00     0.025 C 
HETATM    7  C7  UNL     1     -32.358   8.996   3.471  1.00 20.00     0.037 C 
HETATM    8  N8  UNL     1     -32.529   7.584   5.457  1.00 20.00    -0.352 N 
HETATM    9  O9  UNL     1     -34.179   6.735   6.861  1.00 20.00    -0.273 OA
HETATM   10  H20 UNL     1     -31.968   8.042   6.169  1.00 20.00     0.163 HD
ENDROOT
TORSDOF 0
