REMARK  1 active torsions:
REMARK  status: ('A' for Active; 'I' for Inactive)
REMARK    1  A    between atoms: C3_3  and  C7_7 
ROOT
HETATM    1  C1  UNL     1     -31.745   8.729   4.276  1.00 20.00    -0.030 C 
HETATM    2  C2  UNL     1     -32.291   9.293   5.358  1.00 20.00    -0.026 C 
HETATM    3  C4  UNL     1     -32.670   7.792   3.558  1.00 20.00     0.033 C 
HETATM    4  C5  UNL     1     -33.832   7.537   6.398  1.00 20.00     0.021 C 
HETATM    5  C6  UNL     1     -33.673   8.812   5.540  1.00 20.00     0.013 C 
HETATM    6  C7  UNL     1     -34.598   6.876   5.230  1.00 20.00     0.060 C 
HETATM    7  C8  UNL     1     -34.013   7.964   4.284  1.00 20.00     0.008 C 
ENDROOT
BRANCH   6   8
HETATM    8  C3  UNL     1     -34.310   5.406   4.915  1.00 20.00     0.127 C 
HETATM    9  C9  UNL     1     -34.069   4.497   6.090  1.00 20.00     0.091 C 
HETATM   10  O10 UNL     1     -34.280   4.988   3.759  1.00 20.00    -0.298 OA
ENDBRANCH   6   8
TORSDOF 1
