REMARK  0 active torsions:
REMARK  status: ('A' for Active; 'I' for Inactive)
ROOT
HETATM    1  C1  UNL     1     -32.567   8.568   4.613  1.00 20.00     0.089 C 
HETATM    2  C2  UNL     1     -33.350   6.329   4.192  1.00 20.00     0.017 C 
HETATM    3  C3  UNL     1     -32.727   7.438   3.772  1.00 20.00     0.118 C 
HETATM    4  C4  UNL     1     -33.923   6.197   5.582  1.00 20.00     0.059 C 
HETATM    5  C5  UNL     1     -34.903   5.030   5.430  1.00 20.00     0.026 C 
HETATM    6  C6  UNL     1     -34.316   4.174   4.306  1.00 20.00     0.122 C 
HETATM    7  C7  UNL     1     -33.098   4.791   2.199  1.00 20.00     0.149 C 
HETATM    8  N8  UNL     1     -32.432   9.496   5.297  1.00 20.00    -0.192 NA
HETATM    9  N9  UNL     1     -33.602   5.156   3.503  1.00 20.00    -0.388 N 
ENDROOT
TORSDOF 0
