REMARK  1 active torsions:
REMARK  status: ('A' for Active; 'I' for Inactive)
REMARK    1  A    between atoms: C3_3  and  C7_7 
ROOT
HETATM    1  C1  UNL     1     -34.216   7.486   6.430  1.00 20.00    -0.020 C 
HETATM    2  C2  UNL     1     -33.381   8.304   5.766  1.00 20.00    -0.086 C 
HETATM    3  C4  UNL     1     -32.688   7.885   4.493  1.00 20.00     0.045 C 
HETATM    4  C5  UNL     1     -34.162   5.834   4.517  1.00 20.00     0.020 C 
HETATM    5  C6  UNL     1     -34.577   6.095   5.975  1.00 20.00     0.005 C 
HETATM    6  C7  UNL     1     -32.766   6.378   4.216  1.00 20.00     0.059 C 
HETATM    7  C8  UNL     1     -33.088   9.695   6.247  1.00 20.00     0.043 C 
HETATM    8  C10 UNL     1     -33.969   5.063   6.927  1.00 20.00     0.014 C 
ENDROOT
BRANCH   6   9
HETATM    9  C3  UNL     1     -32.411   6.118   2.784  1.00 20.00     0.127 C 
HETATM   10  C9  UNL     1     -32.398   4.680   2.340  1.00 20.00     0.091 C 
HETATM   11  O11 UNL     1     -32.146   7.035   2.008  1.00 20.00    -0.298 OA
ENDBRANCH   6   9
TORSDOF 1
