REMARK  2 active torsions:
REMARK  status: ('A' for Active; 'I' for Inactive)
REMARK    1  A    between atoms: C5_5  and  C7_7 
REMARK    2  A    between atoms: C5_5  and  O11_11 
ROOT
HETATM    1  C1  UNL     1     -33.125   5.680   3.365  1.00 20.00     0.003 A 
HETATM    2  C2  UNL     1     -32.234   6.664   3.221  1.00 20.00    -0.007 A 
HETATM    3  C3  UNL     1     -34.232   6.105   4.179  1.00 20.00    -0.066 A 
HETATM    4  C4  UNL     1     -35.317   5.379   4.461  1.00 20.00     0.019 C 
HETATM    5  C6  UNL     1     -33.954   7.507   4.657  1.00 20.00     0.061 A 
HETATM    6  C7  UNL     1     -32.657   7.919   3.927  1.00 20.00     0.066 A 
HETATM    7  C8  UNL     1     -31.591   8.443   4.883  1.00 20.00     0.031 C 
ENDROOT
BRANCH   6   8
HETATM    8  C5  UNL     1     -32.935   8.937   2.854  1.00 20.00     0.271 C 
HETATM    9  O10 UNL     1     -33.304  10.083   3.075  1.00 20.00    -0.264 OA
BRANCH   8  10
HETATM   10  O11 UNL     1     -32.712   8.381   1.629  1.00 20.00    -0.326 OA
HETATM   11  C9  UNL     1     -32.940   9.244   0.511  1.00 20.00     0.213 C 
ENDBRANCH   8  10
ENDBRANCH   6   8
TORSDOF 2
