REMARK  3 active torsions:
REMARK  status: ('A' for Active; 'I' for Inactive)
REMARK    1  A    between atoms: C1_1  and  C4_4 
REMARK    2  A    between atoms: C3_3  and  C10_10 
REMARK    3  A    between atoms: C5_5  and  C10_10 
ROOT
HETATM    1  C1  UNL     1     -32.353   7.852   2.155  1.00 20.00    -0.101 C 
HETATM    2  C2  UNL     1     -32.646   8.176   1.036  1.00 20.00    -0.111 C 
HETATM    3  C7  UNL     1     -33.003   8.569  -0.326  1.00 20.00     0.112 C 
ENDROOT
BRANCH   1   4
HETATM    4  C4  UNL     1     -32.003   7.465   3.491  1.00 20.00     0.078 A 
HETATM    5  C5  UNL     1     -32.687   6.294   4.162  1.00 20.00     0.017 A 
HETATM    6  C6  UNL     1     -32.963   7.707   4.649  1.00 20.00    -0.028 A 
HETATM    7  C8  UNL     1     -34.313   8.339   4.408  1.00 20.00     0.016 C 
HETATM    8  C9  UNL     1     -32.356   8.102   5.974  1.00 20.00     0.016 C 
BRANCH   5   9
HETATM    9  C10 UNL     1     -33.718   5.458   3.481  1.00 20.00     0.076 C 
BRANCH   9  10
HETATM   10  C3  UNL     1     -34.640   4.730   4.443  1.00 20.00     0.231 C 
HETATM   11  O11 UNL     1     -34.590   4.851   5.663  1.00 20.00    -0.307 OA
ENDBRANCH   9  10
ENDBRANCH   5   9
ENDBRANCH   1   4
TORSDOF 3
