REMARK  2 active torsions:
REMARK  status: ('A' for Active; 'I' for Inactive)
REMARK    1  A    between atoms: C1_1  and  C4_4 
REMARK    2  A    between atoms: C2_2  and  C5_5 
ROOT
HETATM    1  C5  UNL     1     -32.856   7.617   4.757  1.00 20.00     0.235 A 
HETATM    2  C6  UNL     1     -33.967   6.734   5.280  1.00 20.00     0.092 A 
HETATM    3  C8  UNL     1     -34.984   6.116   4.370  1.00 20.00     0.049 C 
HETATM    4  C9  UNL     1     -34.354   6.858   6.721  1.00 20.00     0.049 C 
HETATM    5  O10 UNL     1     -32.637   6.239   5.081  1.00 20.00    -0.357 OA
ENDROOT
BRANCH   1   6
HETATM    6  C2  UNL     1     -32.716   7.886   3.349  1.00 20.00    -0.066 C 
HETATM    7  C1  UNL     1     -32.598   8.111   2.175  1.00 20.00    -0.070 C 
BRANCH   7   8
HETATM    8  C4  UNL     1     -32.461   8.384   0.781  1.00 20.00    -0.018 C 
HETATM    9  C3  UNL     1     -32.157   7.383  -0.058  1.00 20.00     0.028 C 
HETATM   10  C7  UNL     1     -32.661   9.790   0.294  1.00 20.00     0.057 C 
ENDBRANCH   7   8
ENDBRANCH   1   6
TORSDOF 2
