REMARK  2 active torsions:
REMARK  status: ('A' for Active; 'I' for Inactive)
REMARK    1  A    between atoms: C3_3  and  C4_4 
REMARK    2  A    between atoms: C5_5  and  C7_7 
ROOT
HETATM    1  C1  UNL     1     -34.393   6.334   6.523  1.00 20.00    -0.007 C 
HETATM    2  C2  UNL     1     -34.062   5.042   6.574  1.00 20.00     0.042 C 
HETATM    3  C4  UNL     1     -34.723   6.855   5.158  1.00 20.00     0.084 C 
HETATM    4  C5  UNL     1     -34.240   5.829   4.113  1.00 20.00     0.065 C 
HETATM    5  S9  UNL     1     -34.082   4.246   5.040  1.00 20.00    -0.136 SA
ENDROOT
BRANCH   3   6
HETATM    6  C3  UNL     1     -34.116   8.218   5.022  1.00 20.00     0.240 C 
HETATM    7  O8  UNL     1     -32.910   8.431   5.091  1.00 20.00    -0.306 OA
ENDBRANCH   3   6
BRANCH   4   8
HETATM    8  C7  UNL     1     -32.902   6.124   3.440  1.00 20.00     0.012 C 
HETATM    9  C6  UNL     1     -32.458   4.998   2.561  1.00 20.00     0.006 C 
ENDBRANCH   4   8
TORSDOF 2
