REMARK  1 active torsions:
REMARK  status: ('A' for Active; 'I' for Inactive)
REMARK    1  A    between atoms: C2_2  and  C3_3 
ROOT
HETATM    1  C1  UNL     1     -33.527   5.666   3.324  1.00 20.00    -0.015 C 
HETATM    2  C2  UNL     1     -33.725   6.351   4.454  1.00 20.00    -0.012 C 
HETATM    3  C4  UNL     1     -32.483   6.319   2.477  1.00 20.00     0.032 C 
HETATM    4  C5  UNL     1     -32.851   7.563   4.554  1.00 20.00     0.022 C 
HETATM    5  C6  UNL     1     -32.383   7.734   3.082  1.00 20.00    -0.007 C 
HETATM    6  C8  UNL     1     -33.514   8.790   5.170  1.00 20.00     0.015 C 
HETATM    7  C9  UNL     1     -33.209   8.726   2.254  1.00 20.00     0.011 C 
ENDROOT
BRANCH   2   8
HETATM    8  C3  UNL     1     -34.655   5.891   5.473  1.00 20.00     0.151 C 
HETATM    9  C7  UNL     1     -35.860   5.085   5.038  1.00 20.00     0.096 C 
HETATM   10  O10 UNL     1     -34.474   6.156   6.670  1.00 20.00    -0.293 OA
ENDBRANCH   2   8
TORSDOF 1
