REMARK  2 active torsions:
REMARK  status: ('A' for Active; 'I' for Inactive)
REMARK    1  A    between atoms: C3_3  and  C5_5 
REMARK    2  A    between atoms: C3_3  and  O11_11 
ROOT
HETATM    1  C1  UNL     1     -32.216   9.496   5.247  1.00 20.00     0.012 C 
HETATM    2  C2  UNL     1     -33.211   8.831   5.340  1.00 20.00    -0.111 C 
HETATM    3  C4  UNL     1     -34.401   8.035   5.452  1.00 20.00     0.087 A 
HETATM    4  C5  UNL     1     -34.610   6.836   4.555  1.00 20.00     0.111 A 
HETATM    5  C6  UNL     1     -34.344   6.635   6.037  1.00 20.00    -0.019 A 
HETATM    6  C7  UNL     1     -35.508   6.199   6.893  1.00 20.00     0.017 C 
HETATM    7  C8  UNL     1     -33.025   6.054   6.490  1.00 20.00     0.017 C 
ENDROOT
BRANCH   4   8
HETATM    8  C3  UNL     1     -33.613   6.451   3.546  1.00 20.00     0.264 C 
HETATM    9  O10 UNL     1     -32.795   7.221   3.062  1.00 20.00    -0.265 OA
BRANCH   8  10
HETATM   10  O11 UNL     1     -33.752   5.127   3.250  1.00 20.00    -0.326 OA
HETATM   11  C9  UNL     1     -32.838   4.616   2.274  1.00 20.00     0.213 C 
ENDBRANCH   8  10
ENDBRANCH   4   8
TORSDOF 2
