REMARK  1 active torsions:
REMARK  status: ('A' for Active; 'I' for Inactive)
REMARK    1  A    between atoms: C3_3  and  C7_7 
ROOT
HETATM    1  C1  UNL     1     -34.235   4.855   4.730  1.00 20.00     0.346 C 
HETATM    2  C2  UNL     1     -33.882   7.187   4.919  1.00 20.00     0.233 C 
HETATM    3  C3  UNL     1     -32.919   6.912   3.744  1.00 20.00     0.081 C 
HETATM    4  C4  UNL     1     -33.373   8.354   5.771  1.00 20.00     0.044 C 
HETATM    5  C6  UNL     1     -34.944   5.941   6.756  1.00 20.00     0.311 C 
HETATM    6  N8  UNL     1     -33.948   5.926   5.689  1.00 20.00     0.098 N 
HETATM    7  S9  UNL     1     -33.334   5.227   3.205  1.00 20.00    -0.132 SA
ENDROOT
BRANCH   3   8
HETATM    8  C7  UNL     1     -33.071   7.893   2.590  1.00 20.00     0.013 C 
HETATM    9  C5  UNL     1     -32.202   7.526   1.429  1.00 20.00     0.006 C 
ENDBRANCH   3   8
TORSDOF 1
