REMARK  2 active torsions:
REMARK  status: ('A' for Active; 'I' for Inactive)
REMARK    1  A    between atoms: C1_1  and  C4_4 
REMARK    2  A    between atoms: C1_1  and  C6_6 
ROOT
HETATM    1  C1  UNL     1     -33.721   6.963   5.233  1.00 20.00     0.145 C 
HETATM    2  O7  UNL     1     -33.297   6.989   6.382  1.00 20.00    -0.296 OA
ENDROOT
BRANCH   1   3
HETATM    3  C4  UNL     1     -33.536   8.152   4.348  1.00 20.00     0.057 A 
HETATM    4  C2  UNL     1     -32.414   9.090   4.642  1.00 20.00     0.013 A 
HETATM    5  C3  UNL     1     -32.348   8.188   3.447  1.00 20.00     0.013 A 
ENDBRANCH   1   3
BRANCH   1   6
HETATM    6  C6  UNL     1     -34.422   5.774   4.618  1.00 20.00     0.123 C 
HETATM    7  C5  UNL     1     -34.468   4.581   5.551  1.00 20.00     0.030 C 
HETATM    8 BR8  UNL     1     -33.389   5.324   3.029  1.00 20.00    -0.084 Br
ENDBRANCH   1   6
TORSDOF 2
