REMARK  1 active torsions:
REMARK  status: ('A' for Active; 'I' for Inactive)
REMARK    1  A    between atoms: C4_4  and  C6_6 
ROOT
HETATM    1  C1  UNL     1     -33.119   8.281   5.570  1.00 20.00     0.009 A 
HETATM    2  C2  UNL     1     -33.871   7.218   5.871  1.00 20.00     0.082 A 
HETATM    3  C3  UNL     1     -32.582   8.451   4.252  1.00 20.00     0.037 A 
HETATM    4  C4  UNL     1     -32.849   7.522   3.329  1.00 20.00     0.079 A 
HETATM    5  C5  UNL     1     -34.164   6.194   4.847  1.00 20.00     0.288 A 
HETATM    6  O10 UNL     1     -34.854   5.217   5.120  1.00 20.00    -0.260 OA
HETATM    7  O11 UNL     1     -33.636   6.385   3.597  1.00 20.00    -0.276 OA
ENDROOT
BRANCH   4   8
HETATM    8  C6  UNL     1     -32.357   7.590   1.952  1.00 20.00     0.039 C 
HETATM    9  C7  UNL     1     -32.628   8.584   1.088  1.00 20.00    -0.085 C 
HETATM   10  C8  UNL     1     -32.142   8.689  -0.331  1.00 20.00     0.043 C 
HETATM   11  C9  UNL     1     -33.499   9.734   1.523  1.00 20.00     0.043 C 
ENDBRANCH   4   8
TORSDOF 1
