REMARK  4 active torsions:
REMARK  status: ('A' for Active; 'I' for Inactive)
REMARK    1  A    between atoms: C1_1  and  C7_7 
REMARK    2  A    between atoms: C6_6  and  O10_10 
REMARK    3  A    between atoms: C7_7  and  C8_8 
REMARK    4  A    between atoms: C7_7  and  O10_10 
ROOT
HETATM    1  C7  UNL     1     -32.746   6.725   3.800  1.00 20.00     0.193 C 
ENDROOT
BRANCH   1   2
HETATM    2  C1  UNL     1     -33.508   7.846   4.500  1.00 20.00     0.152 C 
HETATM    3  C2  UNL     1     -32.701   9.000   5.037  1.00 20.00     0.093 C 
HETATM    4  O9  UNL     1     -34.733   7.823   4.626  1.00 20.00    -0.296 OA
ENDBRANCH   1   2
BRANCH   1   5
HETATM    5  C8  UNL     1     -33.676   5.622   3.263  1.00 20.00     0.014 C 
HETATM    6  C4  UNL     1     -33.016   4.783   2.163  1.00 20.00     0.012 C 
HETATM    7  C5  UNL     1     -34.128   4.700   4.400  1.00 20.00     0.012 C 
ENDBRANCH   1   5
BRANCH   1   8
HETATM    8  O10 UNL     1     -31.986   7.281   2.737  1.00 20.00    -0.378 OA
BRANCH   8   9
HETATM    9  C6  UNL     1     -32.816   7.933   1.785  1.00 20.00     0.164 C 
HETATM   10  C3  UNL     1     -31.949   8.502   0.682  1.00 20.00     0.033 C 
ENDBRANCH   8   9
ENDBRANCH   1   8
TORSDOF 4
