REMARK  0 active torsions:
REMARK  status: ('A' for Active; 'I' for Inactive)
ROOT
HETATM    1  C1  UNL     1     -34.513   5.560   5.790  1.00 20.00     0.223 A 
HETATM    2  C2  UNL     1     -35.692   7.209   4.553  1.00 20.00     0.128 A 
HETATM    3  C3  UNL     1     -33.603   6.728   5.687  1.00 20.00     0.092 A 
HETATM    4  C4  UNL     1     -34.343   7.774   4.884  1.00 20.00     0.026 A 
HETATM    5  C5  UNL     1     -33.028   7.212   4.372  1.00 20.00    -0.029 A 
HETATM    6  C6  UNL     1     -31.825   8.120   4.443  1.00 20.00     0.016 C 
HETATM    7  C7  UNL     1     -33.009   6.296   3.175  1.00 20.00     0.016 C 
HETATM    8  N8  UNL     1     -35.695   5.891   5.151  1.00 20.00    -0.360 N 
HETATM    9  O9  UNL     1     -34.214   4.523   6.358  1.00 20.00    -0.273 OA
HETATM   10  H20 UNL     1     -36.485   5.256   5.088  1.00 20.00     0.162 HD
ENDROOT
TORSDOF 0
