REMARK  2 active torsions:
REMARK  status: ('A' for Active; 'I' for Inactive)
REMARK    1  A    between atoms: C4_4  and  C6_6 
REMARK    2  A    between atoms: C7_7  and  C9_9 
ROOT
HETATM    1  C1  UNL     1     -33.637   8.556   6.317  1.00 20.00    -0.003 C 
HETATM    2  C2  UNL     1     -34.160   7.218   6.411  1.00 20.00     0.011 C 
HETATM    3  C3  UNL     1     -33.016   8.990   5.213  1.00 20.00    -0.021 C 
HETATM    4  C4  UNL     1     -34.179   6.404   5.346  1.00 20.00    -0.012 C 
HETATM    5  C8  UNL     1     -32.806   8.122   3.995  1.00 20.00     0.016 C 
HETATM    6  C9  UNL     1     -33.651   6.804   3.986  1.00 20.00     0.051 C 
HETATM    7  C10 UNL     1     -33.068   8.931   2.718  1.00 20.00     0.015 C 
ENDROOT
BRANCH   4   8
HETATM    8  C6  UNL     1     -34.823   5.098   5.539  1.00 20.00     0.266 C 
HETATM    9  O11 UNL     1     -34.907   4.266   4.645  1.00 20.00    -0.302 OA
ENDBRANCH   4   8
BRANCH   6  10
HETATM   10  C7  UNL     1     -32.837   5.710   3.348  1.00 20.00    -0.027 C 
HETATM   11  C5  UNL     1     -33.157   5.116   2.193  1.00 20.00     0.007 C 
ENDBRANCH   6  10
TORSDOF 2
