REMARK  1 active torsions:
REMARK  status: ('A' for Active; 'I' for Inactive)
REMARK    1  A    between atoms: C2_2  and  C9_9 
ROOT
HETATM    1  C1  UNL     1     -34.784   7.027   4.556  1.00 20.00     0.144 C 
HETATM    2  C3  UNL     1     -35.478   5.709   4.278  1.00 20.00     0.084 C 
HETATM    3  C4  UNL     1     -34.057   5.586   6.965  1.00 20.00     0.002 C 
HETATM    4  C5  UNL     1     -34.244   4.356   6.066  1.00 20.00     0.005 C 
HETATM    5  C6  UNL     1     -33.116   6.641   6.365  1.00 20.00     0.027 C 
HETATM    6  C7  UNL     1     -33.099   5.470   4.146  1.00 20.00     0.031 C 
HETATM    7  C8  UNL     1     -34.352   4.703   4.568  1.00 20.00    -0.006 C 
HETATM    8  C9  UNL     1     -33.308   6.813   4.851  1.00 20.00     0.097 C 
HETATM    9  O10 UNL     1     -35.348   8.112   4.553  1.00 20.00    -0.297 OA
ENDROOT
BRANCH   8  10
HETATM   10  C2  UNL     1     -32.401   7.858   4.285  1.00 20.00     0.234 C 
HETATM   11  O11 UNL     1     -31.679   8.543   5.004  1.00 20.00    -0.279 OA
HETATM   12 CL12 UNL     1     -32.513   7.954   2.554  1.00 20.00    -0.043 Cl
ENDBRANCH   8  10
TORSDOF 1
