REMARK  1 active torsions:
REMARK  status: ('A' for Active; 'I' for Inactive)
REMARK    1  A    between atoms: C7_7  and  C10_10 
ROOT
HETATM    1  C1  UNL     1     -32.358   8.800   0.314  1.00 20.00     0.015 C 
HETATM    2  C2  UNL     1     -32.398   8.365   1.433  1.00 20.00    -0.085 C 
HETATM    3  C3  UNL     1     -33.140   8.346   5.140  1.00 20.00    -0.018 C 
HETATM    4  C4  UNL     1     -33.395   7.037   5.307  1.00 20.00    -0.059 C 
HETATM    5  C5  UNL     1     -32.829   8.930   3.795  1.00 20.00     0.072 C 
HETATM    6  C6  UNL     1     -32.447   7.833   2.800  1.00 20.00     0.203 C 
HETATM    7  C7  UNL     1     -33.417   6.093   4.117  1.00 20.00     0.151 C 
HETATM    8  C8  UNL     1     -33.618   6.457   6.674  1.00 20.00     0.046 C 
HETATM    9  O11 UNL     1     -33.432   6.801   2.863  1.00 20.00    -0.364 OA
ENDROOT
BRANCH   7  10
HETATM   10  C10 UNL     1     -34.641   5.181   4.095  1.00 20.00     0.032 C 
HETATM   11  C9  UNL     1     -35.912   5.964   4.064  1.00 20.00     0.008 C 
ENDBRANCH   7  10
TORSDOF 1
