REMARK  1 active torsions:
REMARK  status: ('A' for Active; 'I' for Inactive)
REMARK    1  A    between atoms: C1_1  and  C3_3 
ROOT
HETATM    1  C1  UNL     1     -33.767   6.127   4.666  1.00 20.00    -0.007 C 
HETATM    2  C2  UNL     1     -33.199   6.101   3.451  1.00 20.00    -0.016 C 
HETATM    3  C4  UNL     1     -33.514   7.358   5.485  1.00 20.00     0.058 C 
HETATM    4  C5  UNL     1     -33.044   8.453   4.523  1.00 20.00     0.052 C 
HETATM    5  C6  UNL     1     -33.238   5.030   2.412  1.00 20.00     0.056 C 
HETATM    6  C7  UNL     1     -32.066   9.425   5.160  1.00 20.00     0.022 C 
HETATM    7  S9  UNL     1     -32.288   7.559   3.118  1.00 20.00    -0.129 SA
ENDROOT
BRANCH   1   8
HETATM    8  C3  UNL     1     -34.585   5.055   5.227  1.00 20.00     0.266 C 
HETATM    9  O8  UNL     1     -35.087   5.119   6.345  1.00 20.00    -0.302 OA
ENDBRANCH   1   8
TORSDOF 1
