REMARK  3 active torsions:
REMARK  status: ('A' for Active; 'I' for Inactive)
REMARK    1  A    between atoms: C7_7  and  C8_8 
REMARK    2  A    between atoms: C8_8  and  N10_10 
REMARK    3  A    between atoms: C9_9  and  N10_10 
ROOT
HETATM    1  C1  UNL     1     -33.110   5.752   2.044  1.00 20.00     0.015 C 
HETATM    2  C2  UNL     1     -33.648   5.661   3.114  1.00 20.00    -0.076 C 
HETATM    3  C4  UNL     1     -35.821   5.749   4.262  1.00 20.00     0.063 C 
HETATM    4  C5  UNL     1     -34.032   4.169   5.034  1.00 20.00     0.063 C 
HETATM    5  C9  UNL     1     -34.310   5.549   4.429  1.00 20.00     0.213 C 
ENDROOT
BRANCH   5   6
HETATM    6  N10 UNL     1     -33.783   6.571   5.312  1.00 20.00     0.104 N 
HETATM    7  C6  UNL     1     -34.414   6.497   6.634  1.00 20.00     0.312 C 
BRANCH   6   8
HETATM    8  C8  UNL     1     -33.976   7.908   4.740  1.00 20.00     0.273 C 
BRANCH   8   9
HETATM    9  C7  UNL     1     -32.978   8.922   5.286  1.00 20.00     0.026 C 
HETATM   10  C3  UNL     1     -31.534   8.552   4.979  1.00 20.00     0.007 C 
ENDBRANCH   8   9
ENDBRANCH   6   8
ENDBRANCH   5   6
TORSDOF 3
