REMARK  2 active torsions:
REMARK  status: ('A' for Active; 'I' for Inactive)
REMARK    1  A    between atoms: C3_3  and  C4_4 
REMARK    2  A    between atoms: C3_3  and  O10_10 
ROOT
HETATM    1  C1  UNL     1     -32.510   8.844   4.255  1.00 20.00    -0.066 A 
HETATM    2  C2  UNL     1     -31.691   9.349   5.153  1.00 20.00     0.016 C 
HETATM    3  C4  UNL     1     -33.765   8.239   4.024  1.00 20.00     0.126 A 
HETATM    4  C5  UNL     1     -32.709   8.559   2.881  1.00 20.00    -0.008 A 
HETATM    5  C6  UNL     1     -31.922   7.438   2.258  1.00 20.00     0.021 C 
HETATM    6  C7  UNL     1     -33.024   9.696   1.948  1.00 20.00     0.021 C 
ENDROOT
BRANCH   3   7
HETATM    7  C3  UNL     1     -33.921   6.875   4.531  1.00 20.00     0.267 C 
HETATM    8  O9  UNL     1     -33.785   5.870   3.846  1.00 20.00    -0.264 OA
BRANCH   7   9
HETATM    9  O10 UNL     1     -34.234   6.914   5.857  1.00 20.00    -0.326 OA
HETATM   10  C8  UNL     1     -34.416   5.641   6.484  1.00 20.00     0.213 C 
ENDBRANCH   7   9
ENDBRANCH   3   7
TORSDOF 2
