REMARK  2 active torsions:
REMARK  status: ('A' for Active; 'I' for Inactive)
REMARK    1  A    between atoms: C3_3  and  C10_10 
REMARK    2  A    between atoms: C7_7  and  O11_11 
ROOT
HETATM    1  C1  UNL     1     -32.309   7.680   0.908  1.00 20.00     0.012 C 
HETATM    2  C2  UNL     1     -32.338   7.733   2.108  1.00 20.00    -0.113 C 
HETATM    3  C10 UNL     1     -32.366   7.808   3.570  1.00 20.00     0.127 C 
ENDROOT
BRANCH   3   4
HETATM    4  C3  UNL     1     -33.156   6.672   4.123  1.00 20.00    -0.060 C 
HETATM    5  C4  UNL     1     -33.399   6.364   5.408  1.00 20.00    -0.052 C 
HETATM    6  C7  UNL     1     -34.238   5.121   5.518  1.00 20.00     0.147 C 
HETATM    7  C8  UNL     1     -32.906   7.046   6.638  1.00 20.00     0.046 C 
HETATM    8  C5  UNL     1     -34.791   4.960   4.102  1.00 20.00     0.045 C 
HETATM    9  C6  UNL     1     -33.800   5.683   3.182  1.00 20.00     0.014 C 
HETATM   10  C9  UNL     1     -32.787   4.726   2.561  1.00 20.00     0.015 C 
BRANCH   6  11
HETATM   11  O11 UNL     1     -35.313   5.275   6.428  1.00 20.00    -0.391 OA
HETATM   12  H25 UNL     1     -35.798   4.433   6.437  1.00 20.00     0.210 HD
ENDBRANCH   6  11
ENDBRANCH   3   4
TORSDOF 2
