REMARK  1 active torsions:
REMARK  status: ('A' for Active; 'I' for Inactive)
REMARK    1  A    between atoms: C4_4  and  C5_5 
ROOT
HETATM    1  C1  UNL     1     -33.439   5.833   3.347  1.00 20.00    -0.021 C 
HETATM    2  C2  UNL     1     -33.830   4.653   3.844  1.00 20.00    -0.025 C 
HETATM    3  C3  UNL     1     -33.625   7.276   6.362  1.00 20.00    -0.015 C 
HETATM    4  C4  UNL     1     -33.560   7.607   5.061  1.00 20.00    -0.009 C 
HETATM    5  C6  UNL     1     -34.409   6.152   6.988  1.00 20.00     0.028 C 
HETATM    6  C7  UNL     1     -34.516   4.805   6.252  1.00 20.00     0.012 C 
HETATM    7  C8  UNL     1     -35.536   6.169   4.315  1.00 20.00     0.022 C 
HETATM    8  C9  UNL     1     -34.275   6.949   3.910  1.00 20.00     0.045 C 
HETATM    9  C10 UNL     1     -34.991   4.820   4.790  1.00 20.00     0.009 C 
ENDROOT
BRANCH   4  10
HETATM   10  C5  UNL     1     -32.713   8.767   4.737  1.00 20.00     0.152 C 
HETATM   11  C11 UNL     1     -32.607   9.179   3.293  1.00 20.00     0.096 C 
HETATM   12  O12 UNL     1     -32.111   9.366   5.627  1.00 20.00    -0.293 OA
ENDBRANCH   4  10
TORSDOF 1
