REMARK  1 active torsions:
REMARK  status: ('A' for Active; 'I' for Inactive)
REMARK    1  A    between atoms: C5_5  and  C7_7 
ROOT
HETATM    1  C1  UNL     1     -33.867   6.182   6.763  1.00 20.00    -0.026 A 
HETATM    2  C2  UNL     1     -33.757   7.351   6.117  1.00 20.00    -0.013 A 
HETATM    3  C3  UNL     1     -34.380   5.032   4.585  1.00 20.00    -0.019 A 
HETATM    4  C4  UNL     1     -34.275   6.198   3.921  1.00 20.00    -0.071 A 
HETATM    5  C6  UNL     1     -34.171   4.891   6.065  1.00 20.00     0.054 A 
HETATM    6  C7  UNL     1     -33.933   7.486   4.631  1.00 20.00     0.123 A 
HETATM    7  C8  UNL     1     -34.551   6.283   2.446  1.00 20.00     0.044 C 
ENDROOT
BRANCH   6   8
HETATM    8  C5  UNL     1     -32.611   7.968   4.114  1.00 20.00     0.230 C 
HETATM    9  O9  UNL     1     -31.987   7.347   3.260  1.00 20.00    -0.279 OA
HETATM   10 CL10 UNL     1     -32.120   9.457   4.863  1.00 20.00    -0.043 Cl
ENDBRANCH   6   8
TORSDOF 1
