REMARK  1 active torsions:
REMARK  status: ('A' for Active; 'I' for Inactive)
REMARK    1  A    between atoms: C2_2  and  C3_3 
ROOT
HETATM    1  C1  UNL     1     -33.592   7.488   6.376  1.00 20.00    -0.015 C 
HETATM    2  C2  UNL     1     -33.367   7.364   5.065  1.00 20.00    -0.012 C 
HETATM    3  C4  UNL     1     -34.683   6.571   6.822  1.00 20.00     0.032 C 
HETATM    4  C5  UNL     1     -34.267   6.355   4.419  1.00 20.00     0.022 C 
HETATM    5  C6  UNL     1     -34.796   5.572   5.652  1.00 20.00    -0.007 C 
HETATM    6  C8  UNL     1     -33.610   5.499   3.341  1.00 20.00     0.015 C 
HETATM    7  C9  UNL     1     -34.027   4.285   5.977  1.00 20.00     0.011 C 
ENDROOT
BRANCH   2   8
HETATM    8  C3  UNL     1     -32.388   8.189   4.376  1.00 20.00     0.151 C 
HETATM    9  C7  UNL     1     -32.121   9.582   4.902  1.00 20.00     0.096 C 
HETATM   10  O10 UNL     1     -31.788   7.769   3.376  1.00 20.00    -0.293 OA
ENDBRANCH   2   8
TORSDOF 1
