REMARK  1 active torsions:
REMARK  status: ('A' for Active; 'I' for Inactive)
REMARK    1  A    between atoms: C1_1  and  C4_4 
ROOT
HETATM    1  C1  UNL     1     -32.408   7.429   2.010  1.00 20.00    -0.047 C 
HETATM    2  C2  UNL     1     -32.421   8.198   1.088  1.00 20.00    -0.106 C 
HETATM    3  C6  UNL     1     -32.437   9.134  -0.035  1.00 20.00     0.112 C 
ENDROOT
BRANCH   1   4
HETATM    4  C4  UNL     1     -32.392   6.492   3.135  1.00 20.00     0.343 C 
HETATM    5  O8  UNL     1     -33.150   5.318   2.808  1.00 20.00    -0.348 OA
HETATM    6  C3  UNL     1     -33.931   5.061   3.975  1.00 20.00     0.203 C 
HETATM    7  C5  UNL     1     -34.188   6.443   4.524  1.00 20.00     0.145 C 
HETATM    8  C7  UNL     1     -34.556   6.464   5.992  1.00 20.00     0.042 C 
HETATM    9  O9  UNL     1     -32.943   7.113   4.307  1.00 20.00    -0.343 OA
ENDBRANCH   1   4
TORSDOF 1
