REMARK  0 active torsions:
REMARK  status: ('A' for Active; 'I' for Inactive)
ROOT
HETATM    1  C1  UNL     1     -33.332   6.148   2.534  1.00 20.00     0.029 C 
HETATM    2  C2  UNL     1     -33.496   5.137   3.668  1.00 20.00     0.046 C 
HETATM    3  C3  UNL     1     -32.737   7.448   3.058  1.00 20.00     0.167 C 
HETATM    4  C4  UNL     1     -33.583   7.098   5.249  1.00 20.00     0.209 C 
HETATM    5  C5  UNL     1     -34.208   5.751   4.878  1.00 20.00     0.134 C 
HETATM    6  O6  UNL     1     -33.529   7.976   4.121  1.00 20.00    -0.388 OA
HETATM    7 CL7  UNL     1     -35.952   5.991   4.506  1.00 20.00    -0.099 Cl
HETATM    8 CL8  UNL     1     -34.098   4.632   6.273  1.00 20.00    -0.099 Cl
ENDROOT
TORSDOF 0
