REMARK  0 active torsions:
REMARK  status: ('A' for Active; 'I' for Inactive)
ROOT
HETATM    1  C1  UNL     1     -33.112   5.550   3.154  1.00 20.00     0.095 C 
HETATM    2  C2  UNL     1     -34.683   6.950   7.039  1.00 20.00     0.007 C 
HETATM    3  C3  UNL     1     -34.104   7.936   6.019  1.00 20.00     0.008 C 
HETATM    4  C4  UNL     1     -34.451   4.653   5.820  1.00 20.00     0.276 C 
HETATM    5  C5  UNL     1     -34.097   6.159   4.063  1.00 20.00     0.330 C 
HETATM    6  C6  UNL     1     -33.767   5.845   6.463  1.00 20.00     0.021 C 
HETATM    7  C7  UNL     1     -33.408   6.766   5.288  1.00 20.00     0.038 C 
HETATM    8  N8  UNL     1     -32.335   5.070   2.438  1.00 20.00    -0.195 NA
HETATM    9  N9  UNL     1     -35.029   5.130   4.557  1.00 20.00     0.102 N 
HETATM   10  H19 UNL     1     -35.151   4.369   3.892  1.00 20.00     0.317 HD
ENDROOT
TORSDOF 0
