REMARK  1 active torsions:
REMARK  status: ('A' for Active; 'I' for Inactive)
REMARK    1  A    between atoms: C1_1  and  C3_3 
ROOT
HETATM    1  C2  UNL     1     -34.259   7.423   6.094  1.00 20.00     0.080 C 
HETATM    2  C3  UNL     1     -34.036   7.760   4.602  1.00 20.00     0.310 C 
HETATM    3  C4  UNL     1     -34.973   6.157   5.564  1.00 20.00     0.222 C 
HETATM    4  C5  UNL     1     -34.678   4.862   6.295  1.00 20.00     0.043 C 
HETATM    5  C6  UNL     1     -34.985   6.071   3.141  1.00 20.00     0.311 C 
HETATM    6  N7  UNL     1     -34.162   6.302   4.324  1.00 20.00     0.101 N 
ENDROOT
BRANCH   2   7
HETATM    7  C1  UNL     1     -32.665   8.278   4.160  1.00 20.00     0.252 C 
HETATM    8  O8  UNL     1     -32.281   9.409   4.443  1.00 20.00    -0.277 OA
HETATM    9 CL9  UNL     1     -31.781   7.092   3.249  1.00 20.00    -0.042 Cl
ENDBRANCH   2   7
TORSDOF 1
