REMARK  0 active torsions:
REMARK  status: ('A' for Active; 'I' for Inactive)
ROOT
HETATM    1  C1  UNL     1     -34.527   4.675   4.347  1.00 20.00     0.011 C 
HETATM    2  C2  UNL     1     -33.870   5.726   6.640  1.00 20.00     0.011 C 
HETATM    3  C3  UNL     1     -33.814   5.222   3.341  1.00 20.00     0.007 C 
HETATM    4  C4  UNL     1     -33.317   6.949   6.769  1.00 20.00     0.007 C 
HETATM    5  C5  UNL     1     -32.929   7.864   3.348  1.00 20.00     0.042 C 
HETATM    6  C6  UNL     1     -32.809   8.598   4.722  1.00 20.00     0.042 C 
HETATM    7  C7  UNL     1     -34.782   5.685   5.444  1.00 20.00     0.270 C 
HETATM    8  C8  UNL     1     -33.297   6.504   3.859  1.00 20.00     0.247 C 
HETATM    9  C9  UNL     1     -33.795   7.875   5.678  1.00 20.00     0.247 C 
HETATM   10  N10 UNL     1     -34.429   6.938   4.742  1.00 20.00     0.116 N 
ENDROOT
TORSDOF 0
