REMARK  1 active torsions:
REMARK  status: ('A' for Active; 'I' for Inactive)
REMARK    1  A    between atoms: C1_1  and  C4_4 
ROOT
HETATM    1  C2  UNL     1     -35.281   5.475   4.344  1.00 20.00     0.041 A 
HETATM    2  C3  UNL     1     -33.977   4.739   4.375  1.00 20.00     0.100 A 
HETATM    3  C4  UNL     1     -34.173   5.948   5.266  1.00 20.00     0.050 A 
HETATM    4  C5  UNL     1     -34.350   5.685   6.740  1.00 20.00     0.026 C 
HETATM    5 CL8  UNL     1     -32.936   4.786   2.975  1.00 20.00    -0.124 Cl
ENDROOT
BRANCH   3   6
HETATM    6  C1  UNL     1     -33.502   7.218   4.903  1.00 20.00     0.228 C 
HETATM    7  O6  UNL     1     -32.913   7.354   3.835  1.00 20.00    -0.279 OA
HETATM    8 CL7  UNL     1     -33.664   8.421   6.147  1.00 20.00    -0.043 Cl
ENDBRANCH   3   6
TORSDOF 1
