REMARK  1 active torsions:
REMARK  status: ('A' for Active; 'I' for Inactive)
REMARK    1  A    between atoms: C1_1  and  C6_6 
ROOT
HETATM    1  C1  UNL     1     -32.326   7.548   2.013  1.00 20.00    -0.100 C 
HETATM    2  C2  UNL     1     -32.240   8.315   1.093  1.00 20.00    -0.111 C 
HETATM    3  C7  UNL     1     -32.136   9.249  -0.026  1.00 20.00     0.112 C 
ENDROOT
BRANCH   1   4
HETATM    4  C6  UNL     1     -32.431   6.612   3.134  1.00 20.00     0.090 C 
HETATM    5  C4  UNL     1     -33.277   7.150   4.270  1.00 20.00     0.072 C 
HETATM    6  C3  UNL     1     -33.810   5.859   4.807  1.00 20.00     0.004 C 
HETATM    7  C8  UNL     1     -34.402   5.792   6.177  1.00 20.00     0.065 C 
HETATM    8  N9  UNL     1     -33.764   4.829   4.018  1.00 20.00    -0.297 NA
HETATM    9  C5  UNL     1     -33.161   5.327   2.764  1.00 20.00     0.166 C 
ENDBRANCH   1   4
TORSDOF 1
