REMARK  0 active torsions:
REMARK  status: ('A' for Active; 'I' for Inactive)
ROOT
HETATM    1  C1  UNL     1     -32.330   7.752   0.622  1.00 20.00     0.017 C 
HETATM    2  C2  UNL     1     -32.308   7.371   1.761  1.00 20.00    -0.057 C 
HETATM    3  C3  UNL     1     -32.280   6.908   3.149  1.00 20.00     0.342 C 
HETATM    4  C4  UNL     1     -33.905   7.637   4.561  1.00 20.00     0.150 C 
HETATM    5  C5  UNL     1     -33.872   6.122   4.556  1.00 20.00     0.150 C 
HETATM    6  C6  UNL     1     -34.096   8.254   5.931  1.00 20.00     0.042 C 
HETATM    7  C7  UNL     1     -35.237   5.466   4.585  1.00 20.00     0.042 C 
HETATM    8  O8  UNL     1     -32.617   7.984   4.039  1.00 20.00    -0.343 OA
HETATM    9  O9  UNL     1     -33.207   5.826   3.323  1.00 20.00    -0.343 OA
ENDROOT
TORSDOF 0
