REMARK  3 active torsions:
REMARK  status: ('A' for Active; 'I' for Inactive)
REMARK    1  A    between atoms: C8_8  and  C9_9 
REMARK    2  A    between atoms: C8_8  and  O11_11 
REMARK    3  A    between atoms: N10_10  and  O11_11 
ROOT
HETATM    1  C1  UNL     1     -31.806   7.721   3.585  1.00 20.00     0.107 A 
HETATM    2  C2  UNL     1     -32.511   9.051   3.822  1.00 20.00     0.049 A 
HETATM    3  C3  UNL     1     -31.678   7.110   2.234  1.00 20.00     0.031 C 
HETATM    4  C4  UNL     1     -33.185   9.765   2.678  1.00 20.00     0.036 C 
HETATM    5  C5  UNL     1     -31.921   9.977   4.854  1.00 20.00     0.036 C 
HETATM    6  N10 UNL     1     -33.118   7.766   4.219  1.00 20.00    -0.180 NA
ENDROOT
BRANCH   6   7
HETATM    7  O11 UNL     1     -32.944   7.549   5.644  1.00 20.00    -0.302 OA
BRANCH   7   8
HETATM    8  C8  UNL     1     -34.229   7.595   6.247  1.00 20.00     0.197 C 
BRANCH   8   9
HETATM    9  C9  UNL     1     -34.947   6.257   6.049  1.00 20.00     0.003 C 
HETATM   10  C6  UNL     1     -35.125   5.934   4.564  1.00 20.00     0.011 C 
HETATM   11  C7  UNL     1     -34.183   5.135   6.748  1.00 20.00     0.011 C 
ENDBRANCH   8   9
ENDBRANCH   7   8
ENDBRANCH   6   7
TORSDOF 3
