REMARK  2 active torsions:
REMARK  status: ('A' for Active; 'I' for Inactive)
REMARK    1  A    between atoms: C4_4  and  C6_6 
REMARK    2  A    between atoms: C7_7  and  O10_10 
ROOT
HETATM    1  C1  UNL     1     -32.887   9.339   2.073  1.00 20.00     0.218 C 
HETATM    2  C4  UNL     1     -32.938   8.766   3.239  1.00 20.00     0.043 C 
HETATM    3  O9  UNL     1     -32.841   9.858   1.018  1.00 20.00    -0.284 OA
ENDROOT
BRANCH   2   4
HETATM    4  C6  UNL     1     -32.379   7.413   3.553  1.00 20.00     0.064 C 
HETATM    5  C3  UNL     1     -32.385   6.524   2.343  1.00 20.00    -0.020 C 
HETATM    6  C2  UNL     1     -33.269   5.527   2.445  1.00 20.00    -0.027 C 
HETATM    7  C5  UNL     1     -34.002   5.562   3.741  1.00 20.00     0.059 C 
HETATM    8  C7  UNL     1     -33.181   6.560   4.565  1.00 20.00     0.135 C 
BRANCH   8   9
HETATM    9  O10 UNL     1     -34.008   7.319   5.431  1.00 20.00    -0.389 OA
HETATM   10  C8  UNL     1     -34.339   6.586   6.600  1.00 20.00     0.202 C 
ENDBRANCH   8   9
ENDBRANCH   2   4
TORSDOF 2
