REMARK  1 active torsions:
REMARK  status: ('A' for Active; 'I' for Inactive)
REMARK    1  A    between atoms: C5_5  and  C8_8 
ROOT
HETATM    1  C1  UNL     1     -35.181   5.648   6.472  1.00 20.00    -0.027 C 
HETATM    2  C2  UNL     1     -34.166   6.469   6.783  1.00 20.00    -0.029 C 
HETATM    3  C3  UNL     1     -34.456   4.823   4.162  1.00 20.00    -0.020 C 
HETATM    4  C4  UNL     1     -33.507   5.707   3.800  1.00 20.00    -0.076 C 
HETATM    5  C6  UNL     1     -35.567   5.063   5.143  1.00 20.00     0.054 C 
HETATM    6  C7  UNL     1     -33.158   7.109   5.870  1.00 20.00     0.043 C 
HETATM    7  C8  UNL     1     -33.509   7.104   4.379  1.00 20.00     0.086 C 
HETATM    8  C9  UNL     1     -32.431   5.301   2.830  1.00 20.00     0.044 C 
ENDROOT
BRANCH   7   9
HETATM    9  C5  UNL     1     -32.560   8.009   3.643  1.00 20.00     0.131 C 
HETATM   10  C10 UNL     1     -33.124   8.777   2.478  1.00 20.00     0.091 C 
HETATM   11  O11 UNL     1     -31.382   8.117   3.977  1.00 20.00    -0.298 OA
ENDBRANCH   7   9
TORSDOF 1
