REMARK  1 active torsions:
REMARK  status: ('A' for Active; 'I' for Inactive)
REMARK    1  A    between atoms: C2_2  and  C3_3 
ROOT
HETATM    1  C1  UNL     1     -33.705   5.441   3.054  1.00 20.00    -0.011 C 
HETATM    2  C2  UNL     1     -33.122   6.537   3.562  1.00 20.00    -0.019 C 
HETATM    3  C4  UNL     1     -35.819   5.955   4.155  1.00 20.00     0.010 C 
HETATM    4  C5  UNL     1     -35.135   7.230   4.732  1.00 20.00     0.011 C 
HETATM    5  C6  UNL     1     -34.655   4.933   4.125  1.00 20.00     0.017 C 
HETATM    6  C7  UNL     1     -33.673   6.761   4.951  1.00 20.00     0.030 C 
HETATM    7  C8  UNL     1     -33.849   5.286   5.407  1.00 20.00    -0.033 C 
HETATM    8  C9  UNL     1     -32.524   4.503   5.567  1.00 20.00     0.016 C 
HETATM    9  C10 UNL     1     -34.619   5.103   6.728  1.00 20.00     0.016 C 
ENDROOT
BRANCH   2  10
HETATM   10  C3  UNL     1     -32.147   7.368   2.888  1.00 20.00     0.265 C 
HETATM   11  O11 UNL     1     -31.642   8.370   3.403  1.00 20.00    -0.302 OA
ENDBRANCH   2  10
TORSDOF 1
