REMARK  1 active torsions:
REMARK  status: ('A' for Active; 'I' for Inactive)
REMARK    1  A    between atoms: C3_3  and  N9_9 
ROOT
HETATM    1  C1  UNL     1     -32.397   7.508   2.655  1.00 20.00     0.096 C 
HETATM    2  C2  UNL     1     -32.789   7.538   4.023  1.00 20.00     0.040 A 
HETATM    3  C3  UNL     1     -33.706   6.836   4.727  1.00 20.00     0.005 A 
HETATM    4  C4  UNL     1     -32.325   8.360   5.195  1.00 20.00     0.057 A 
HETATM    5  C5  UNL     1     -33.361   7.585   6.017  1.00 20.00     0.057 A 
HETATM    6  N8  UNL     1     -32.078   7.484   1.540  1.00 20.00    -0.192 NA
ENDROOT
BRANCH   3   7
HETATM    7  N9  UNL     1     -34.599   5.884   4.544  1.00 20.00    -0.283 NA
HETATM    8  C6  UNL     1     -34.105   4.584   4.059  1.00 20.00     0.110 A 
HETATM    9  C7  UNL     1     -34.553   4.735   5.463  1.00 20.00     0.110 A 
ENDBRANCH   3   7
TORSDOF 1
