REMARK  1 active torsions:
REMARK  status: ('A' for Active; 'I' for Inactive)
REMARK    1  A    between atoms: C1_1  and  C7_7 
ROOT
HETATM    1  C2  UNL     1     -34.273   6.503   6.459  1.00 20.00     0.001 C 
HETATM    2  C3  UNL     1     -32.515   5.467   2.531  1.00 20.00     0.014 C 
HETATM    3  C4  UNL     1     -34.369   5.154   5.758  1.00 20.00     0.005 C 
HETATM    4  C5  UNL     1     -33.183   7.225   5.680  1.00 20.00     0.006 C 
HETATM    5  C6  UNL     1     -33.172   4.553   3.556  1.00 20.00     0.006 C 
HETATM    6  C7  UNL     1     -32.285   6.763   3.306  1.00 20.00     0.076 C 
HETATM    7  C8  UNL     1     -34.145   5.476   4.281  1.00 20.00    -0.010 C 
HETATM    8  C9  UNL     1     -33.503   6.877   4.228  1.00 20.00     0.002 C 
ENDROOT
BRANCH   6   9
HETATM    9  C1  UNL     1     -32.197   7.938   2.385  1.00 20.00     0.223 C 
HETATM   10  O10 UNL     1     -32.279   7.810   1.167  1.00 20.00    -0.279 OA
HETATM   11 CL11 UNL     1     -31.973   9.429   3.247  1.00 20.00    -0.043 Cl
ENDBRANCH   6   9
TORSDOF 1
