REMARK  1 active torsions:
REMARK  status: ('A' for Active; 'I' for Inactive)
REMARK    1  A    between atoms: C3_3  and  C4_4 
ROOT
HETATM    1  C1  UNL     1     -33.887   5.667   3.013  1.00 20.00     0.061 C 
HETATM    2  C2  UNL     1     -32.953   6.574   2.708  1.00 20.00     0.087 C 
HETATM    3  C4  UNL     1     -34.582   6.047   4.280  1.00 20.00     0.376 C 
HETATM    4  C5  UNL     1     -32.938   7.650   3.738  1.00 20.00     0.463 C 
HETATM    5  C6  UNL     1     -34.136   7.920   5.881  1.00 20.00     0.324 C 
HETATM    6  N7  UNL     1     -34.163   7.436   4.517  1.00 20.00     0.211 N 
HETATM    7  F9  UNL     1     -35.932   5.994   4.144  1.00 20.00    -0.195 F 
HETATM    8  F10 UNL     1     -31.827   7.566   4.514  1.00 20.00    -0.169 F 
HETATM    9  F11 UNL     1     -32.949   8.888   3.183  1.00 20.00    -0.169 F 
ENDROOT
BRANCH   3  10
HETATM   10  C3  UNL     1     -34.099   5.109   5.339  1.00 20.00     0.312 C 
HETATM   11  O8  UNL     1     -34.479   5.152   6.505  1.00 20.00    -0.301 OA
ENDBRANCH   3  10
TORSDOF 1
