REMARK  1 active torsions:
REMARK  status: ('A' for Active; 'I' for Inactive)
REMARK    1  A    between atoms: C2_2  and  C5_5 
ROOT
HETATM    1  C1  UNL     1     -34.325   5.598   5.184  1.00 20.00     0.270 A 
HETATM    2  C2  UNL     1     -33.933   6.680   4.210  1.00 20.00     0.181 A 
HETATM    3  O6  UNL     1     -35.300   6.271   4.379  1.00 20.00    -0.336 OA
HETATM    4 CL7  UNL     1     -34.351   5.846   6.908  1.00 20.00    -0.091 Cl
HETATM    5 CL8  UNL     1     -33.496   8.286   4.790  1.00 20.00    -0.084 Cl
ENDROOT
BRANCH   2   6
HETATM    6  C5  UNL     1     -33.347   6.290   2.856  1.00 20.00     0.032 C 
HETATM    7  C3  UNL     1     -32.284   7.296   2.420  1.00 20.00     0.014 C 
HETATM    8  C4  UNL     1     -32.761   4.880   2.911  1.00 20.00     0.014 C 
ENDBRANCH   2   6
TORSDOF 1
