REMARK  1 active torsions:
REMARK  status: ('A' for Active; 'I' for Inactive)
REMARK    1  A    between atoms: C3_3  and  C9_9 
ROOT
HETATM    1  C1  UNL     1     -32.412   8.233   4.316  1.00 20.00    -0.067 A 
HETATM    2  C2  UNL     1     -31.579   8.743   5.199  1.00 20.00     0.016 C 
HETATM    3  C4  UNL     1     -33.811   4.157   4.044  1.00 20.00     0.000 C 
HETATM    4  C5  UNL     1     -33.114   4.786   2.834  1.00 20.00     0.001 C 
HETATM    5  C6  UNL     1     -34.054   5.145   5.187  1.00 20.00     0.001 C 
HETATM    6  C7  UNL     1     -32.240   5.972   3.231  1.00 20.00     0.015 C 
HETATM    7  C8  UNL     1     -34.275   6.565   4.676  1.00 20.00     0.015 C 
HETATM    8  C9  UNL     1     -33.227   8.491   3.197  1.00 20.00     0.096 A 
HETATM    9  C10 UNL     1     -33.079   7.057   3.883  1.00 20.00    -0.003 A 
ENDROOT
BRANCH   8  10
HETATM   10  C3  UNL     1     -32.527   8.804   1.950  1.00 20.00     0.132 C 
HETATM   11  C11 UNL     1     -33.150   9.852   1.069  1.00 20.00     0.091 C 
HETATM   12  O12 UNL     1     -31.480   8.238   1.639  1.00 20.00    -0.298 OA
ENDBRANCH   8  10
TORSDOF 1
