REMARK  1 active torsions:
REMARK  status: ('A' for Active; 'I' for Inactive)
REMARK    1  A    between atoms: C3_3  and  C7_7 
ROOT
HETATM    1  C1  UNL     1     -34.226   5.852   6.251  1.00 20.00    -0.029 C 
HETATM    2  C2  UNL     1     -33.526   6.959   6.531  1.00 20.00    -0.026 C 
HETATM    3  C4  UNL     1     -34.862   5.589   4.917  1.00 20.00     0.039 C 
HETATM    4  C5  UNL     1     -34.258   7.977   4.328  1.00 20.00     0.020 C 
HETATM    5  C6  UNL     1     -33.322   8.083   5.549  1.00 20.00     0.004 C 
HETATM    6  C7  UNL     1     -34.390   6.542   3.811  1.00 20.00     0.059 C 
HETATM    7  C9  UNL     1     -33.505   9.440   6.232  1.00 20.00     0.014 C 
ENDROOT
BRANCH   6   8
HETATM    8  C3  UNL     1     -33.095   6.073   3.208  1.00 20.00     0.127 C 
HETATM    9  C8  UNL     1     -33.087   4.691   2.612  1.00 20.00     0.091 C 
HETATM   10  O10 UNL     1     -32.092   6.784   3.200  1.00 20.00    -0.298 OA
ENDBRANCH   6   8
TORSDOF 1
