REMARK  3 active torsions:
REMARK  status: ('A' for Active; 'I' for Inactive)
REMARK    1  A    between atoms: C7_7  and  C8_8 
REMARK    2  A    between atoms: C8_8  and  C9_9 
REMARK    3  A    between atoms: C9_9  and  N10_10 
ROOT
HETATM    1  C1  UNL     1     -32.530   8.389   1.537  1.00 20.00     0.012 C 
HETATM    2  C3  UNL     1     -32.608   8.682   2.699  1.00 20.00    -0.117 C 
HETATM    3  C7  UNL     1     -32.702   9.046   4.120  1.00 20.00     0.096 C 
ENDROOT
BRANCH   3   4
HETATM    4  C8  UNL     1     -32.668   7.819   5.040  1.00 20.00     0.061 C 
BRANCH   4   5
HETATM    5  C9  UNL     1     -33.771   6.779   4.763  1.00 20.00     0.300 C 
HETATM    6  C4  UNL     1     -33.452   5.951   3.587  1.00 20.00    -0.081 C 
HETATM    7  C2  UNL     1     -33.198   5.278   2.626  1.00 20.00     0.014 C 
BRANCH   5   8
HETATM    8  N10 UNL     1     -33.916   5.917   5.939  1.00 20.00     0.095 N 
HETATM    9  C5  UNL     1     -34.621   4.687   5.584  1.00 20.00     0.310 C 
HETATM   10  C6  UNL     1     -34.623   6.625   7.005  1.00 20.00     0.310 C 
ENDBRANCH   5   8
ENDBRANCH   4   5
ENDBRANCH   3   4
TORSDOF 3
