REMARK  2 active torsions:
REMARK  status: ('A' for Active; 'I' for Inactive)
REMARK    1  A    between atoms: C1_1  and  C6_6 
REMARK    2  A    between atoms: C7_7  and  C9_9 
ROOT
HETATM    1  C2  UNL     1     -33.959   8.028   5.326  1.00 20.00     0.012 C 
HETATM    2  C3  UNL     1     -34.597   6.311   3.548  1.00 20.00     0.012 C 
HETATM    3  C4  UNL     1     -32.486   7.841   4.955  1.00 20.00     0.005 C 
HETATM    4  C5  UNL     1     -33.117   6.142   3.204  1.00 20.00     0.005 C 
HETATM    5  C6  UNL     1     -34.839   6.838   4.958  1.00 20.00     0.047 C 
HETATM    6  C7  UNL     1     -32.279   7.391   3.504  1.00 20.00    -0.015 C 
ENDROOT
BRANCH   5   7
HETATM    7  C1  UNL     1     -34.607   5.710   5.951  1.00 20.00     0.235 C 
HETATM    8  O10 UNL     1     -34.757   4.524   5.673  1.00 20.00    -0.306 OA
ENDBRANCH   5   7
BRANCH   6   9
HETATM    9  C9  UNL     1     -32.568   8.521   2.512  1.00 20.00     0.000 C 
HETATM   10  C8  UNL     1     -32.313   8.096   1.104  1.00 20.00     0.005 C 
ENDBRANCH   6   9
TORSDOF 2
