REMARK  1 active torsions:
REMARK  status: ('A' for Active; 'I' for Inactive)
REMARK    1  A    between atoms: C1_1  and  C6_6 
ROOT
HETATM    1  C2  UNL     1     -33.781   4.555   3.730  1.00 20.00     0.002 C 
HETATM    2  C3  UNL     1     -33.354   5.643   2.748  1.00 20.00     0.013 C 
HETATM    3  C4  UNL     1     -34.563   5.133   4.908  1.00 20.00     0.020 C 
HETATM    4  C5  UNL     1     -33.360   7.340   4.624  1.00 20.00     0.033 C 
HETATM    5  C6  UNL     1     -32.574   6.758   3.447  1.00 20.00     0.073 C 
HETATM    6  C7  UNL     1     -33.775   6.242   5.605  1.00 20.00     0.083 C 
HETATM    7 CL10 UNL     1     -34.753   6.944   6.925  1.00 20.00    -0.125 Cl
ENDROOT
BRANCH   5   8
HETATM    8  C1  UNL     1     -32.264   7.838   2.457  1.00 20.00     0.223 C 
HETATM    9  O8  UNL     1     -32.133   7.599   1.260  1.00 20.00    -0.279 OA
HETATM   10 CL9  UNL     1     -32.125   9.397   3.212  1.00 20.00    -0.043 Cl
ENDBRANCH   5   8
TORSDOF 1
