REMARK  2 active torsions:
REMARK  status: ('A' for Active; 'I' for Inactive)
REMARK    1  A    between atoms: C4_4  and  C5_5 
REMARK    2  A    between atoms: C5_5  and  C8_8 
ROOT
HETATM    1  C1  UNL     1     -34.309   4.447   5.907  1.00 20.00    -0.027 A 
HETATM    2  C2  UNL     1     -34.011   4.450   4.600  1.00 20.00    -0.026 A 
HETATM    3  C3  UNL     1     -33.582   6.853   6.085  1.00 20.00    -0.012 A 
HETATM    4  C4  UNL     1     -33.287   6.848   4.776  1.00 20.00    -0.003 A 
HETATM    5  C6  UNL     1     -34.130   5.646   6.794  1.00 20.00     0.054 A 
HETATM    6  C7  UNL     1     -33.468   5.655   3.885  1.00 20.00     0.069 A 
ENDROOT
BRANCH   4   7
HETATM    7  C5  UNL     1     -32.759   8.082   4.189  1.00 20.00     0.261 C 
HETATM    8  O9  UNL     1     -32.593   9.089   4.879  1.00 20.00    -0.283 OA
BRANCH   7   9
HETATM    9  C8  UNL     1     -32.433   8.061   2.723  1.00 20.00     0.455 C 
HETATM   10  F10 UNL     1     -32.690   6.857   2.152  1.00 20.00    -0.163 F 
HETATM   11  F11 UNL     1     -31.123   8.333   2.493  1.00 20.00    -0.163 F 
HETATM   12  F12 UNL     1     -33.153   8.983   2.033  1.00 20.00    -0.163 F 
ENDBRANCH   7   9
ENDBRANCH   4   7
TORSDOF 2
