REMARK  2 active torsions:
REMARK  status: ('A' for Active; 'I' for Inactive)
REMARK    1  A    between atoms: C1_1  and  C5_5 
REMARK    2  A    between atoms: C5_5  and  O8_8 
ROOT
HETATM    1  C2  UNL     1     -34.710   4.880   5.387  1.00 20.00     0.007 C 
HETATM    2  C3  UNL     1     -33.757   5.994   5.851  1.00 20.00     0.047 C 
HETATM    3  C4  UNL     1     -35.244   5.852   4.322  1.00 20.00     0.047 C 
HETATM    4  C5  UNL     1     -33.907   6.649   4.442  1.00 20.00     0.136 C 
ENDROOT
BRANCH   4   5
HETATM    5  C1  UNL     1     -32.805   6.285   3.412  1.00 20.00     0.253 C 
HETATM    6  O7  UNL     1     -31.779   6.949   3.303  1.00 20.00    -0.276 OA
HETATM    7 CL9  UNL     1     -33.216   4.874   2.485  1.00 20.00    -0.041 Cl
ENDBRANCH   4   5
BRANCH   4   8
HETATM    8  O8  UNL     1     -34.087   8.083   4.492  1.00 20.00    -0.376 OA
HETATM    9  C6  UNL     1     -33.084   8.682   5.286  1.00 20.00     0.203 C 
ENDBRANCH   4   8
TORSDOF 2
