REMARK  2 active torsions:
REMARK  status: ('A' for Active; 'I' for Inactive)
REMARK    1  A    between atoms: C1_1  and  C3_3 
REMARK    2  A    between atoms: C2_2  and  C7_7 
ROOT
HETATM    1  C4  UNL     1     -32.075   8.056   1.013  1.00 20.00     0.002 C 
HETATM    2  C5  UNL     1     -31.162   8.168   2.246  1.00 20.00     0.013 C 
HETATM    3  C6  UNL     1     -33.237   8.554   1.888  1.00 20.00     0.013 C 
HETATM    4  C7  UNL     1     -32.435   8.102   3.149  1.00 20.00    -0.026 C 
HETATM    5  C9  UNL     1     -32.455   9.100   4.340  1.00 20.00     0.019 C 
ENDROOT
BRANCH   4   6
HETATM    6  C2  UNL     1     -32.779   6.685   3.615  1.00 20.00    -0.014 C 
HETATM    7  C1  UNL     1     -33.829   6.402   4.396  1.00 20.00     0.046 C 
BRANCH   7   8
HETATM    8  C3  UNL     1     -34.108   5.001   4.815  1.00 20.00     0.145 C 
HETATM    9  C8  UNL     1     -34.784   4.811   6.147  1.00 20.00     0.096 C 
HETATM   10  O10 UNL     1     -33.793   4.036   4.121  1.00 20.00    -0.294 OA
ENDBRANCH   7   8
ENDBRANCH   4   6
TORSDOF 2
