REMARK  3 active torsions:
REMARK  status: ('A' for Active; 'I' for Inactive)
REMARK    1  A    between atoms: C1_1  and  C4_4 
REMARK    2  A    between atoms: C2_2  and  C8_8 
REMARK    3  A    between atoms: C8_8  and  O10_10 
ROOT
HETATM    1  C1  UNL     1     -34.233   6.839   4.629  1.00 20.00    -0.069 C 
HETATM    2  C2  UNL     1     -33.470   7.679   4.235  1.00 20.00    -0.066 C 
ENDROOT
BRANCH   2   3
HETATM    3  C8  UNL     1     -32.535   8.710   3.750  1.00 20.00     0.116 C 
HETATM    4  C5  UNL     1     -31.275   8.065   3.172  1.00 20.00     0.060 C 
HETATM    5  C6  UNL     1     -32.173   9.671   4.881  1.00 20.00     0.060 C 
BRANCH   3   6
HETATM    6  O10 UNL     1     -33.164   9.477   2.723  1.00 20.00    -0.373 OA
HETATM    7  C7  UNL     1     -33.543   8.659   1.628  1.00 20.00     0.204 C 
ENDBRANCH   3   6
ENDBRANCH   2   3
BRANCH   1   8
HETATM    8  C4  UNL     1     -35.161   5.817   5.109  1.00 20.00     0.224 A 
HETATM    9  C3  UNL     1     -34.673   4.814   6.093  1.00 20.00     0.214 A 
HETATM   10  O9  UNL     1     -34.773   4.514   4.696  1.00 20.00    -0.368 OA
ENDBRANCH   1   8
TORSDOF 3
