REMARK  1 active torsions:
REMARK  status: ('A' for Active; 'I' for Inactive)
REMARK    1  A    between atoms: C1_1  and  N7_7 
ROOT
HETATM    1  C2  UNL     1     -33.957   6.414   4.629  1.00 20.00     0.159 C 
HETATM    2  C3  UNL     1     -34.195   7.674   5.436  1.00 20.00     0.138 C 
HETATM    3  C4  UNL     1     -32.561   8.179   3.882  1.00 20.00     0.221 C 
HETATM    4  C5  UNL     1     -34.373   7.423   6.920  1.00 20.00     0.041 C 
HETATM    5  C6  UNL     1     -33.041   9.269   2.934  1.00 20.00     0.063 C 
HETATM    6  N7  UNL     1     -33.107   6.879   3.563  1.00 20.00    -0.330 N 
HETATM    7  O9  UNL     1     -33.014   8.472   5.216  1.00 20.00    -0.360 OA
ENDROOT
BRANCH   6   8
HETATM    8  C1  UNL     1     -32.752   6.117   2.476  1.00 20.00     0.352 C 
HETATM    9  O8  UNL     1     -33.084   4.961   2.241  1.00 20.00    -0.283 OA
ENDBRANCH   6   8
TORSDOF 1
