REMARK  1 active torsions:
REMARK  status: ('A' for Active; 'I' for Inactive)
REMARK    1  A    between atoms: C2_2  and  C6_6 
ROOT
HETATM    1  C1  UNL     1     -33.608   6.158   3.857  1.00 20.00    -0.067 C 
HETATM    2  C3  UNL     1     -32.842   5.957   2.778  1.00 20.00    -0.085 C 
HETATM    3  C4  UNL     1     -34.206   5.046   4.673  1.00 20.00     0.036 C 
HETATM    4  C5  UNL     1     -35.300   5.753   5.466  1.00 20.00     0.009 C 
HETATM    5  C6  UNL     1     -34.054   7.497   4.390  1.00 20.00     0.080 C 
HETATM    6  C7  UNL     1     -34.745   7.160   5.724  1.00 20.00    -0.004 C 
HETATM    7  C8  UNL     1     -32.264   7.096   1.989  1.00 20.00     0.043 C 
HETATM    8  C9  UNL     1     -32.512   4.579   2.283  1.00 20.00     0.043 C 
HETATM    9  C10 UNL     1     -33.838   7.173   6.958  1.00 20.00     0.011 C 
ENDROOT
BRANCH   5  10
HETATM   10  C2  UNL     1     -32.911   8.460   4.507  1.00 20.00     0.240 C 
HETATM   11  O11 UNL     1     -31.751   8.112   4.701  1.00 20.00    -0.306 OA
ENDBRANCH   5  10
TORSDOF 1
