REMARK  3 active torsions:
REMARK  status: ('A' for Active; 'I' for Inactive)
REMARK    1  A    between atoms: C8_8  and  C9_9 
REMARK    2  A    between atoms: C9_9  and  C10_10 
REMARK    3  A    between atoms: C10_10  and  O11_11 
ROOT
HETATM    1  C1  UNL     1     -31.669   7.975  -0.257  1.00 20.00     0.017 C 
HETATM    2  C2  UNL     1     -31.976   7.786   0.888  1.00 20.00    -0.083 C 
HETATM    3  C3  UNL     1     -32.359   6.301   2.719  1.00 20.00    -0.010 C 
HETATM    4  C4  UNL     1     -32.340   7.559   2.248  1.00 20.00    -0.009 C 
HETATM    5  C5  UNL     1     -32.736   5.947   4.129  1.00 20.00     0.033 C 
HETATM    6  C6  UNL     1     -32.675   8.743   3.120  1.00 20.00     0.048 C 
HETATM    7  C7  UNL     1     -32.686   8.417   4.617  1.00 20.00     0.010 C 
HETATM    8  C8  UNL     1     -33.418   7.098   4.886  1.00 20.00    -0.009 C 
ENDROOT
BRANCH   8   9
HETATM    9  C9  UNL     1     -33.484   6.799   6.382  1.00 20.00     0.031 C 
BRANCH   9  10
HETATM   10  C10 UNL     1     -34.230   5.507   6.659  1.00 20.00     0.164 C 
BRANCH  10  11
HETATM   11  O11 UNL     1     -35.548   5.625   6.140  1.00 20.00    -0.401 OA
HETATM   12  H25 UNL     1     -36.001   4.788   6.331  1.00 20.00     0.209 HD
ENDBRANCH  10  11
ENDBRANCH   9  10
ENDBRANCH   8   9
TORSDOF 3
