REMARK  1 active torsions:
REMARK  status: ('A' for Active; 'I' for Inactive)
REMARK    1  A    between atoms: C1_1  and  C4_4 
ROOT
HETATM    1  C2  UNL     1     -33.793   8.318   3.343  1.00 20.00     0.038 C 
HETATM    2  C3  UNL     1     -32.030   7.951   4.499  1.00 20.00     0.038 C 
HETATM    3  C4  UNL     1     -33.518   8.174   4.859  1.00 20.00     0.076 C 
HETATM    4  C5  UNL     1     -32.466   7.563   3.059  1.00 20.00     0.035 C 
HETATM    5  C6  UNL     1     -31.616   8.219   1.973  1.00 20.00     0.032 C 
HETATM    6 CL9  UNL     1     -32.632   5.795   2.751  1.00 20.00    -0.120 Cl
ENDROOT
BRANCH   3   7
HETATM    7  C1  UNL     1     -34.246   7.053   5.612  1.00 20.00     0.223 C 
HETATM    8  O7  UNL     1     -33.970   6.771   6.774  1.00 20.00    -0.279 OA
HETATM    9 CL8  UNL     1     -35.455   6.282   4.630  1.00 20.00    -0.043 Cl
ENDBRANCH   3   7
TORSDOF 1
