REMARK  2 active torsions:
REMARK  status: ('A' for Active; 'I' for Inactive)
REMARK    1  A    between atoms: C1_1  and  N9_9 
REMARK    2  A    between atoms: C4_4  and  C8_8 
ROOT
HETATM    1  C2  UNL     1     -32.828   5.594   2.668  1.00 20.00     0.031 C 
HETATM    2  C3  UNL     1     -32.290   7.654   3.790  1.00 20.00     0.130 C 
HETATM    3  C4  UNL     1     -32.364   7.033   2.399  1.00 20.00     0.005 C 
HETATM    4  C5  UNL     1     -33.655   5.660   3.957  1.00 20.00     0.083 C 
HETATM    5  C6  UNL     1     -35.159   5.634   3.700  1.00 20.00     0.032 C 
HETATM    6  N9  UNL     1     -33.222   6.893   4.604  1.00 20.00    -0.355 N 
ENDROOT
BRANCH   3   7
HETATM    7  C8  UNL     1     -33.308   7.801   1.478  1.00 20.00     0.002 C 
HETATM    8  C7  UNL     1     -32.861   9.214   1.268  1.00 20.00     0.005 C 
ENDBRANCH   3   7
BRANCH   6   9
HETATM    9  C1  UNL     1     -33.536   7.239   5.900  1.00 20.00     0.351 C 
HETATM   10  O10 UNL     1     -34.307   6.655   6.653  1.00 20.00    -0.284 OA
ENDBRANCH   6   9
TORSDOF 2
