REMARK  1 active torsions:
REMARK  status: ('A' for Active; 'I' for Inactive)
REMARK    1  A    between atoms: C3_3  and  C8_8 
ROOT
HETATM    1  C1  UNL     1     -35.053   5.243   6.329  1.00 20.00    -0.025 C 
HETATM    2  C2  UNL     1     -34.632   6.399   6.862  1.00 20.00    -0.024 C 
HETATM    3  C4  UNL     1     -32.786   5.365   5.959  1.00 20.00     0.018 C 
HETATM    4  C5  UNL     1     -34.049   4.845   5.270  1.00 20.00     0.013 C 
HETATM    5  C6  UNL     1     -33.354   6.781   6.150  1.00 20.00     0.024 C 
HETATM    6  C7  UNL     1     -34.207   5.829   4.071  1.00 20.00     0.005 C 
HETATM    7  C8  UNL     1     -33.669   7.186   4.675  1.00 20.00     0.027 C 
HETATM    8  C10 UNL     1     -33.479   5.322   2.829  1.00 20.00     0.012 C 
HETATM    9  C11 UNL     1     -34.698   8.317   4.555  1.00 20.00     0.024 C 
ENDROOT
BRANCH   7  10
HETATM   10  C3  UNL     1     -32.407   7.684   4.011  1.00 20.00     0.132 C 
HETATM   11  C9  UNL     1     -31.742   8.882   4.633  1.00 20.00     0.091 C 
HETATM   12  O12 UNL     1     -31.944   7.136   3.012  1.00 20.00    -0.298 OA
ENDBRANCH   7  10
TORSDOF 1
