REMARK  2 active torsions:
REMARK  status: ('A' for Active; 'I' for Inactive)
REMARK    1  A    between atoms: C1_1  and  N9_9 
REMARK    2  A    between atoms: C4_4  and  C8_8 
ROOT
HETATM    1  C2  UNL     1     -32.978   8.401   5.480  1.00 20.00     0.031 C 
HETATM    2  C3  UNL     1     -32.134   7.442   3.462  1.00 20.00     0.130 C 
HETATM    3  C4  UNL     1     -32.393   8.796   4.118  1.00 20.00     0.005 C 
HETATM    4  C5  UNL     1     -33.785   7.126   5.198  1.00 20.00     0.083 C 
HETATM    5  C6  UNL     1     -33.753   6.167   6.381  1.00 20.00     0.032 C 
HETATM    6  N9  UNL     1     -33.178   6.578   3.988  1.00 20.00    -0.355 N 
ENDROOT
BRANCH   3   7
HETATM    7  C8  UNL     1     -33.363   9.648   3.303  1.00 20.00     0.002 C 
HETATM    8  C7  UNL     1     -32.819   9.977   1.948  1.00 20.00     0.005 C 
ENDBRANCH   3   7
BRANCH   6   9
HETATM    9  C1  UNL     1     -33.620   5.452   3.331  1.00 20.00     0.351 C 
HETATM   10  O10 UNL     1     -33.224   5.022   2.253  1.00 20.00    -0.284 OA
ENDBRANCH   6   9
TORSDOF 2
