REMARK  3 active torsions:
REMARK  status: ('A' for Active; 'I' for Inactive)
REMARK    1  A    between atoms: C2_2  and  C6_6 
REMARK    2  A    between atoms: C3_3  and  C7_7 
REMARK    3  A    between atoms: C6_6  and  C7_7 
ROOT
HETATM    1  C7  UNL     1     -32.953   7.585   4.584  1.00 20.00     0.242 C 
HETATM    2  F9  UNL     1     -32.694   8.725   5.288  1.00 20.00    -0.241 F 
ENDROOT
BRANCH   1   3
HETATM    3  C3  UNL     1     -32.674   7.796   3.109  1.00 20.00     0.157 C 
HETATM    4  C5  UNL     1     -32.955   9.159   2.534  1.00 20.00     0.094 C 
HETATM    5  O8  UNL     1     -32.238   6.885   2.404  1.00 20.00    -0.295 OA
ENDBRANCH   1   3
BRANCH   1   6
HETATM    6  C6  UNL     1     -34.385   7.148   4.884  1.00 20.00     0.072 C 
BRANCH   6   7
HETATM    7  C2  UNL     1     -34.743   5.841   4.232  1.00 20.00    -0.028 C 
HETATM    8  C1  UNL     1     -34.549   4.644   4.803  1.00 20.00    -0.035 C 
HETATM    9  C4  UNL     1     -33.953   4.457   6.158  1.00 20.00     0.036 C 
ENDBRANCH   6   7
ENDBRANCH   1   6
TORSDOF 3
