REMARK  0 active torsions:
REMARK  status: ('A' for Active; 'I' for Inactive)
ROOT
HETATM    1  C1  UNL     1     -33.111   5.472   2.825  1.00 20.00     0.012 C 
HETATM    2  C2  UNL     1     -32.334   6.766   2.577  1.00 20.00     0.077 C 
HETATM    3  C3  UNL     1     -33.278   5.204   4.320  1.00 20.00     0.082 C 
HETATM    4  C4  UNL     1     -33.698   7.677   4.613  1.00 20.00     0.264 A 
HETATM    5  C5  UNL     1     -32.850   7.910   3.391  1.00 20.00     0.237 A 
HETATM    6  C6  UNL     1     -34.112   6.296   4.973  1.00 20.00     0.274 C 
HETATM    7  O7  UNL     1     -32.301   7.956   4.723  1.00 20.00    -0.332 OA
HETATM    8  F8  UNL     1     -32.986   9.133   2.750  1.00 20.00    -0.209 F 
HETATM    9  F9  UNL     1     -34.073   6.147   6.322  1.00 20.00    -0.203 F 
HETATM   10  F10 UNL     1     -35.413   6.131   4.608  1.00 20.00    -0.203 F 
ENDROOT
TORSDOF 0
