REMARK  1 active torsions:
REMARK  status: ('A' for Active; 'I' for Inactive)
REMARK    1  A    between atoms: C3_3  and  C8_8 
ROOT
HETATM    1  C1  UNL     1     -34.709   6.310   6.717  1.00 20.00    -0.025 C 
HETATM    2  C2  UNL     1     -34.815   7.415   5.964  1.00 20.00    -0.022 C 
HETATM    3  C4  UNL     1     -35.207   5.616   4.568  1.00 20.00     0.021 C 
HETATM    4  C5  UNL     1     -32.945   5.352   5.269  1.00 20.00     0.063 C 
HETATM    5  C6  UNL     1     -34.392   5.164   5.785  1.00 20.00     0.012 C 
HETATM    6  C7  UNL     1     -34.558   7.006   4.531  1.00 20.00     0.059 C 
HETATM    7  C8  UNL     1     -33.061   6.637   4.402  1.00 20.00     0.202 C 
HETATM    8  F11 UNL     1     -32.290   7.625   4.925  1.00 20.00    -0.231 F 
ENDROOT
BRANCH   7   9
HETATM    9  C3  UNL     1     -32.685   6.405   2.971  1.00 20.00     0.338 C 
HETATM   10  O9  UNL     1     -32.824   5.349   2.372  1.00 20.00    -0.256 OA
HETATM   11  F10 UNL     1     -32.194   7.444   2.281  1.00 20.00    -0.161 F 
ENDBRANCH   7   9
TORSDOF 1
