REMARK  1 active torsions:
REMARK  status: ('A' for Active; 'I' for Inactive)
REMARK    1  A    between atoms: C9_9  and  O10_10 
ROOT
HETATM    1  C1  UNL     1     -32.736   5.713   1.514  1.00 20.00     0.012 C 
HETATM    2  C2  UNL     1     -33.322   5.385   2.510  1.00 20.00    -0.112 C 
HETATM    3  C3  UNL     1     -35.082   5.303   6.447  1.00 20.00     0.007 C 
HETATM    4  C4  UNL     1     -33.850   4.432   6.162  1.00 20.00     0.009 C 
HETATM    5  C5  UNL     1     -35.246   5.906   4.018  1.00 20.00     0.024 C 
HETATM    6  C6  UNL     1     -34.039   4.985   3.729  1.00 20.00     0.071 C 
HETATM    7  C7  UNL     1     -34.939   6.451   5.428  1.00 20.00     0.016 C 
HETATM    8  C8  UNL     1     -33.167   5.175   4.994  1.00 20.00     0.030 C 
HETATM    9  C9  UNL     1     -33.424   6.645   5.349  1.00 20.00     0.127 C 
ENDROOT
BRANCH   9  10
HETATM   10  O10 UNL     1     -32.854   7.039   6.580  1.00 20.00    -0.395 OA
HETATM   11  H22 UNL     1     -31.897   7.138   6.437  1.00 20.00     0.210 HD
ENDBRANCH   9  10
TORSDOF 1
