REMARK  1 active torsions:
REMARK  status: ('A' for Active; 'I' for Inactive)
REMARK    1  A    between atoms: C8_8  and  O11_11 
ROOT
HETATM    1  C1  UNL     1     -34.051   7.461   6.567  1.00 20.00     0.005 C 
HETATM    2  C2  UNL     1     -34.568   6.236   6.365  1.00 20.00     0.005 C 
HETATM    3  C3  UNL     1     -33.206   8.140   5.588  1.00 20.00    -0.063 C 
HETATM    4  C4  UNL     1     -32.843   9.421   5.752  1.00 20.00     0.019 C 
HETATM    5  C5  UNL     1     -32.514   6.818   2.059  1.00 20.00     0.001 C 
HETATM    6  C6  UNL     1     -32.358   7.935   3.102  1.00 20.00     0.010 C 
HETATM    7  C7  UNL     1     -33.372   5.726   2.711  1.00 20.00     0.008 C 
HETATM    8  C8  UNL     1     -34.381   5.456   5.086  1.00 20.00     0.145 C 
HETATM    9  C9  UNL     1     -32.774   7.283   4.422  1.00 20.00     0.024 C 
HETATM   10  C10 UNL     1     -33.931   6.390   3.964  1.00 20.00     0.026 C 
ENDROOT
BRANCH   8  11
HETATM   11  O11 UNL     1     -35.622   4.855   4.733  1.00 20.00    -0.391 OA
HETATM   12  H25 UNL     1     -35.867   4.271   5.468  1.00 20.00     0.210 HD
ENDBRANCH   8  11
TORSDOF 1
