REMARK  2 active torsions:
REMARK  status: ('A' for Active; 'I' for Inactive)
REMARK    1  A    between atoms: C1_1  and  C5_5 
REMARK    2  A    between atoms: C1_1  and  O10_10 
ROOT
HETATM    1  C2  UNL     1     -34.979   5.251   4.468  1.00 20.00     0.015 C 
HETATM    2  C3  UNL     1     -34.331   4.449   5.608  1.00 20.00     0.006 C 
HETATM    3  C4  UNL     1     -34.836   6.561   7.091  1.00 20.00     0.011 A 
HETATM    4  C5  UNL     1     -34.301   6.633   4.515  1.00 20.00     0.090 C 
HETATM    5  C6  UNL     1     -33.907   5.475   6.618  1.00 20.00    -0.009 A 
HETATM    6  C7  UNL     1     -33.882   6.808   5.951  1.00 20.00     0.004 A 
ENDROOT
BRANCH   4   7
HETATM    7  C1  UNL     1     -33.132   6.678   3.579  1.00 20.00     0.263 C 
HETATM    8  O9  UNL     1     -32.789   5.745   2.866  1.00 20.00    -0.265 OA
BRANCH   7   9
HETATM    9  O10 UNL     1     -32.533   7.900   3.657  1.00 20.00    -0.326 OA
HETATM   10  C8  UNL     1     -31.393   8.082   2.810  1.00 20.00     0.213 C 
ENDBRANCH   7   9
ENDBRANCH   4   7
TORSDOF 2
