REMARK  0 active torsions:
REMARK  status: ('A' for Active; 'I' for Inactive)
ROOT
HETATM    1  C1  UNL     1     -34.369   4.881   6.751  1.00 20.00     0.015 C 
HETATM    2  C2  UNL     1     -34.243   5.349   5.652  1.00 20.00    -0.073 C 
HETATM    3  C3  UNL     1     -33.304   4.961   3.408  1.00 20.00     0.225 C 
HETATM    4  C4  UNL     1     -32.601   7.090   2.970  1.00 20.00     0.442 C 
HETATM    5  C5  UNL     1     -34.088   5.924   4.305  1.00 20.00     0.240 C 
HETATM    6  C6  UNL     1     -35.472   6.217   3.702  1.00 20.00     0.066 C 
HETATM    7  C7  UNL     1     -33.697   8.346   4.733  1.00 20.00     0.315 C 
HETATM    8  N8  UNL     1     -33.159   7.061   4.317  1.00 20.00     0.130 N 
HETATM    9  O9  UNL     1     -32.668   5.773   2.410  1.00 20.00    -0.359 OA
ENDROOT
TORSDOF 0
