REMARK  1 active torsions:
REMARK  status: ('A' for Active; 'I' for Inactive)
REMARK    1  A    between atoms: C1_1  and  C2_2 
ROOT
HETATM    1  C2  UNL     1     -34.267   7.335   4.824  1.00 20.00     0.154 A 
HETATM    2  C3  UNL     1     -34.222   6.326   5.960  1.00 20.00     0.073 A 
HETATM    3  C4  UNL     1     -34.709   5.928   4.614  1.00 20.00     0.259 A 
HETATM    4  C5  UNL     1     -32.939   5.779   6.483  1.00 20.00     0.017 C 
HETATM    5  F7  UNL     1     -36.041   5.641   4.413  1.00 20.00    -0.205 F 
HETATM    6  F8  UNL     1     -33.983   5.067   3.821  1.00 20.00    -0.205 F 
ENDROOT
BRANCH   1   7
HETATM    7  C1  UNL     1     -33.031   7.812   4.196  1.00 20.00     0.229 C 
HETATM    8  O6  UNL     1     -32.579   7.289   3.181  1.00 20.00    -0.279 OA
HETATM    9 CL9  UNL     1     -32.337   9.154   5.054  1.00 20.00    -0.043 Cl
ENDBRANCH   1   7
TORSDOF 1
