REMARK  1 active torsions:
REMARK  status: ('A' for Active; 'I' for Inactive)
REMARK    1  A    between atoms: C2_2  and  C3_3 
ROOT
HETATM    1  C1  UNL     1     -33.159   7.229   4.055  1.00 20.00    -0.043 C 
HETATM    2  C2  UNL     1     -33.980   7.051   5.090  1.00 20.00     0.055 C 
HETATM    3  C4  UNL     1     -32.544   8.456   3.421  1.00 20.00     0.040 C 
HETATM    4  C5  UNL     1     -32.331   7.532   2.206  1.00 20.00     0.046 C 
HETATM    5  C6  UNL     1     -32.491   6.269   3.087  1.00 20.00     0.199 C 
HETATM    6  F9  UNL     1     -33.221   5.272   2.536  1.00 20.00    -0.245 F 
ENDROOT
BRANCH   2   7
HETATM    7  C3  UNL     1     -34.424   5.686   5.487  1.00 20.00     0.145 C 
HETATM    8  C7  UNL     1     -34.072   5.237   6.880  1.00 20.00     0.096 C 
HETATM    9  O8  UNL     1     -35.068   4.964   4.729  1.00 20.00    -0.294 OA
ENDBRANCH   2   7
TORSDOF 1
