REMARK  2 active torsions:
REMARK  status: ('A' for Active; 'I' for Inactive)
REMARK    1  A    between atoms: C1_1  and  C10_10 
REMARK    2  A    between atoms: C1_1  and  C11_11 
ROOT
HETATM    1  C2  UNL     1     -34.279   4.409   5.794  1.00 20.00     0.009 C 
HETATM    2  C3  UNL     1     -34.704   6.848   6.281  1.00 20.00     0.010 C 
HETATM    3  C4  UNL     1     -35.620   5.850   4.214  1.00 20.00     0.010 C 
HETATM    4  C5  UNL     1     -32.551   6.243   5.623  1.00 20.00     0.022 C 
HETATM    5  C6  UNL     1     -33.469   5.245   3.553  1.00 20.00     0.022 C 
HETATM    6  C7  UNL     1     -33.711   5.698   6.460  1.00 20.00    -0.013 C 
HETATM    7  C8  UNL     1     -34.666   4.657   4.305  1.00 20.00    -0.013 C 
HETATM    8  C9  UNL     1     -34.725   6.978   4.750  1.00 20.00     0.002 C 
HETATM    9  C10 UNL     1     -33.276   6.565   4.311  1.00 20.00     0.026 C 
ENDROOT
BRANCH   9  10
HETATM   10  C1  UNL     1     -32.582   7.600   3.488  1.00 20.00     0.149 C 
HETATM   11  O12 UNL     1     -31.533   8.111   3.878  1.00 20.00    -0.296 OA
BRANCH  10  12
HETATM   12  C11 UNL     1     -33.254   7.959   2.183  1.00 20.00     0.193 C 
HETATM   13 CL13 UNL     1     -32.930   9.646   1.755  1.00 20.00    -0.123 Cl
ENDBRANCH  10  12
ENDBRANCH   9  10
TORSDOF 2
