REMARK  2 active torsions:
REMARK  status: ('A' for Active; 'I' for Inactive)
REMARK    1  A    between atoms: C1_1  and  C4_4 
REMARK    2  A    between atoms: C3_3  and  C5_5 
ROOT
HETATM    1  C4  UNL     1     -33.300   7.581   4.420  1.00 20.00     0.029 A 
HETATM    2  C5  UNL     1     -32.096   7.520   3.509  1.00 20.00     0.089 A 
HETATM    3  C6  UNL     1     -32.676   8.866   3.908  1.00 20.00    -0.028 A 
HETATM    4  C8  UNL     1     -31.839   9.729   4.823  1.00 20.00     0.016 C 
HETATM    5  C9  UNL     1     -33.477   9.662   2.906  1.00 20.00     0.016 C 
ENDROOT
BRANCH   1   6
HETATM    6  C1  UNL     1     -33.151   7.178   5.812  1.00 20.00    -0.025 C 
HETATM    7  C2  UNL     1     -33.735   6.094   6.342  1.00 20.00    -0.034 C 
HETATM    8  C7  UNL     1     -34.612   5.162   5.573  1.00 20.00     0.036 C 
ENDBRANCH   1   6
BRANCH   2   9
HETATM    9  C3  UNL     1     -32.256   7.005   2.142  1.00 20.00     0.224 C 
HETATM   10  O10 UNL     1     -31.893   7.650   1.163  1.00 20.00    -0.279 OA
HETATM   11 CL11 UNL     1     -32.995   5.433   2.118  1.00 20.00    -0.043 Cl
ENDBRANCH   2   9
TORSDOF 2
