REMARK  0 active torsions:
REMARK  status: ('A' for Active; 'I' for Inactive)
ROOT
HETATM    1  C1  UNL     1     -32.203   6.993   1.895  1.00 20.00     0.015 C 
HETATM    2  C2  UNL     1     -32.831   6.873   2.911  1.00 20.00    -0.076 C 
HETATM    3  C3  UNL     1     -34.445   4.967   5.714  1.00 20.00     0.004 C 
HETATM    4  C4  UNL     1     -34.805   6.087   6.683  1.00 20.00     0.003 C 
HETATM    5  C5  UNL     1     -34.402   5.475   4.275  1.00 20.00     0.055 C 
HETATM    6  C6  UNL     1     -33.716   7.156   6.708  1.00 20.00     0.042 C 
HETATM    7  C7  UNL     1     -33.580   6.730   4.126  1.00 20.00     0.154 A 
HETATM    8  C8  UNL     1     -33.272   7.605   5.340  1.00 20.00     0.102 A 
HETATM    9  C9  UNL     1     -32.155   8.606   5.317  1.00 20.00     0.050 C 
HETATM   10  O10 UNL     1     -34.336   7.920   4.441  1.00 20.00    -0.350 OA
ENDROOT
TORSDOF 0
