REMARK  1 active torsions:
REMARK  status: ('A' for Active; 'I' for Inactive)
REMARK    1  A    between atoms: C1_1  and  C5_5 
ROOT
HETATM    1  C2  UNL     1     -34.124   7.420   5.882  1.00 20.00     0.015 C 
HETATM    2  C3  UNL     1     -33.842   5.977   6.294  1.00 20.00     0.026 C 
HETATM    3  C4  UNL     1     -33.510   6.052   3.937  1.00 20.00     0.038 C 
HETATM    4  C5  UNL     1     -33.814   7.490   4.380  1.00 20.00     0.074 C 
HETATM    5  C6  UNL     1     -34.115   5.165   5.028  1.00 20.00     0.034 C 
HETATM    6  C7  UNL     1     -35.610   4.918   4.805  1.00 20.00     0.032 C 
HETATM    7 CL10 UNL     1     -33.286   3.585   5.099  1.00 20.00    -0.120 Cl
ENDROOT
BRANCH   4   8
HETATM    8  C1  UNL     1     -32.657   8.399   4.098  1.00 20.00     0.223 C 
HETATM    9  O8  UNL     1     -32.083   9.010   4.995  1.00 20.00    -0.279 OA
HETATM   10 CL9  UNL     1     -32.270   8.459   2.406  1.00 20.00    -0.043 Cl
ENDBRANCH   4   8
TORSDOF 1
