REMARK  1 active torsions:
REMARK  status: ('A' for Active; 'I' for Inactive)
REMARK    1  A    between atoms: C3_3  and  C7_7 
ROOT
HETATM    1  C1  UNL     1     -34.023   6.960   4.967  1.00 20.00    -0.019 C 
HETATM    2  C2  UNL     1     -34.112   5.620   4.912  1.00 20.00    -0.087 C 
HETATM    3  C4  UNL     1     -33.566   4.831   3.751  1.00 20.00     0.034 C 
HETATM    4  C5  UNL     1     -33.269   5.694   2.525  1.00 20.00     0.017 C 
HETATM    5  C6  UNL     1     -33.343   7.810   3.919  1.00 20.00     0.015 C 
HETATM    6  C7  UNL     1     -32.523   6.970   2.916  1.00 20.00     0.062 C 
HETATM    7  C8  UNL     1     -34.764   4.824   6.004  1.00 20.00     0.043 C 
HETATM    8  C10 UNL     1     -32.450   8.855   4.599  1.00 20.00     0.015 C 
ENDROOT
BRANCH   6   9
HETATM    9  C3  UNL     1     -32.251   7.770   1.676  1.00 20.00     0.127 C 
HETATM   10  C9  UNL     1     -32.119   7.001   0.390  1.00 20.00     0.091 C 
HETATM   11  O11 UNL     1     -32.142   8.995   1.710  1.00 20.00    -0.298 OA
ENDBRANCH   6   9
TORSDOF 1
