REMARK  1 active torsions:
REMARK  status: ('A' for Active; 'I' for Inactive)
REMARK    1  A    between atoms: C3_3  and  C9_9 
ROOT
HETATM    1  C1  UNL     1     -33.813   4.208   4.684  1.00 20.00    -0.030 C 
HETATM    2  C2  UNL     1     -34.944   4.812   4.291  1.00 20.00    -0.026 C 
HETATM    3  C4  UNL     1     -33.086   4.587   5.945  1.00 20.00     0.031 C 
HETATM    4  C5  UNL     1     -35.169   7.293   4.581  1.00 20.00     0.022 C 
HETATM    5  C6  UNL     1     -35.205   5.781   6.579  1.00 20.00     0.013 C 
HETATM    6  C7  UNL     1     -33.147   7.161   6.177  1.00 20.00     0.018 C 
HETATM    7  C8  UNL     1     -35.591   5.907   5.100  1.00 20.00     0.009 C 
HETATM    8  C9  UNL     1     -33.692   7.627   4.823  1.00 20.00     0.073 C 
HETATM    9  C10 UNL     1     -33.679   5.805   6.688  1.00 20.00    -0.010 C 
ENDROOT
BRANCH   8  10
HETATM   10  C3  UNL     1     -32.827   7.136   3.694  1.00 20.00     0.223 C 
HETATM   11  O11 UNL     1     -32.708   5.940   3.446  1.00 20.00    -0.279 OA
HETATM   12 CL12 UNL     1     -32.065   8.442   2.838  1.00 20.00    -0.043 Cl
ENDBRANCH   8  10
TORSDOF 1
