REMARK  0 active torsions:
REMARK  status: ('A' for Active; 'I' for Inactive)
ROOT
HETATM    1  C1  UNL     1     -33.878   4.245   5.641  1.00 20.00    -0.013 C 
HETATM    2  C2  UNL     1     -34.382   5.241   6.404  1.00 20.00     0.004 C 
HETATM    3  C3  UNL     1     -33.477   6.745   4.077  1.00 20.00     0.341 C 
HETATM    4  C4  UNL     1     -33.860   4.356   4.119  1.00 20.00     0.127 C 
HETATM    5  C5  UNL     1     -35.600   6.043   4.411  1.00 20.00     0.137 C 
HETATM    6  C6  UNL     1     -34.993   6.463   5.731  1.00 20.00     0.169 C 
HETATM    7  N7  UNL     1     -34.359   5.689   3.764  1.00 20.00    -0.222 NA
HETATM    8  O8  UNL     1     -32.440   7.052   3.508  1.00 20.00    -0.245 OA
HETATM    9  O9  UNL     1     -33.923   7.322   5.258  1.00 20.00    -0.298 OA
ENDROOT
TORSDOF 0
