REMARK  6 active torsions:
REMARK  status: ('A' for Active; 'I' for Inactive)
REMARK    1  A    between atoms: C2_2  and  C5_5 
REMARK    2  A    between atoms: C5_5  and  C8_8 
REMARK    3  A    between atoms: C6_6  and  C8_8 
REMARK    4  A    between atoms: C7_7  and  C9_9 
REMARK    5  A    between atoms: C9_9  and  C10_10 
REMARK    6  A    between atoms: C10_10  and  N11_11 
ROOT
HETATM    1  C1  UNL     1     -32.470   8.873   4.932  1.00 20.00     0.308 A 
HETATM    2  C2  UNL     1     -32.980   7.813   3.985  1.00 20.00     0.251 A 
HETATM    3  N11 UNL     1     -32.815   7.536   5.406  1.00 20.00     0.097 N 
ENDROOT
BRANCH   2   4
HETATM    4  C5  UNL     1     -32.055   7.167   3.015  1.00 20.00     0.037 C 
BRANCH   4   5
HETATM    5  C8  UNL     1     -31.850   8.033   1.772  1.00 20.00     0.002 C 
BRANCH   5   6
HETATM    6  C6  UNL     1     -33.176   8.314   1.066  1.00 20.00    -0.004 C 
HETATM    7  C3  UNL     1     -32.982   9.204  -0.151  1.00 20.00     0.005 C 
ENDBRANCH   5   6
ENDBRANCH   4   5
ENDBRANCH   2   4
BRANCH   3   8
HETATM    8  C10 UNL     1     -34.080   7.496   6.131  1.00 20.00     0.273 C 
BRANCH   8   9
HETATM    9  C9  UNL     1     -34.463   6.082   6.555  1.00 20.00     0.030 C 
BRANCH   9  10
HETATM   10  C7  UNL     1     -34.594   5.127   5.366  1.00 20.00    -0.003 C 
HETATM   11  C4  UNL     1     -35.702   5.566   4.421  1.00 20.00     0.005 C 
ENDBRANCH   9  10
ENDBRANCH   8   9
ENDBRANCH   3   8
TORSDOF 6
