REMARK  0 active torsions:
REMARK  status: ('A' for Active; 'I' for Inactive)
ROOT
HETATM    1  C1  UNL     1     -33.696   6.474   5.392  1.00 20.00     0.036 C 
HETATM    2  C2  UNL     1     -31.956   7.425   3.514  1.00 20.00     0.297 C 
HETATM    3  C3  UNL     1     -33.826   5.897   3.984  1.00 20.00     0.263 C 
HETATM    4  C4  UNL     1     -32.834   8.354   4.355  1.00 20.00     0.132 C 
HETATM    5  C5  UNL     1     -34.161   5.684   6.587  1.00 20.00     0.067 C 
HETATM    6  C6  UNL     1     -34.179   4.414   3.931  1.00 20.00     0.049 C 
HETATM    7  C7  UNL     1     -32.081   9.623   4.737  1.00 20.00     0.036 C 
HETATM    8  N8  UNL     1     -33.229   7.665   5.591  1.00 20.00    -0.290 NA
HETATM    9  N9  UNL     1     -32.556   6.109   3.283  1.00 20.00     0.095 N 
HETATM   10  H23 UNL     1     -32.702   5.974   2.269  1.00 20.00     0.316 HD
ENDROOT
TORSDOF 0
