REMARK  2 active torsions:
REMARK  status: ('A' for Active; 'I' for Inactive)
REMARK    1  A    between atoms: C2_2  and  C5_5 
REMARK    2  A    between atoms: C4_4  and  C8_8 
ROOT
HETATM    1  C1  UNL     1     -32.319   6.003   2.935  1.00 20.00    -0.015 C 
HETATM    2  C2  UNL     1     -32.885   6.998   3.624  1.00 20.00    -0.009 C 
HETATM    3  C6  UNL     1     -33.039   4.716   3.168  1.00 20.00     0.028 C 
HETATM    4  C7  UNL     1     -34.347   5.172   3.825  1.00 20.00     0.017 C 
HETATM    5  C8  UNL     1     -34.069   6.562   4.424  1.00 20.00     0.044 C 
ENDROOT
BRANCH   2   6
HETATM    6  C5  UNL     1     -32.392   8.365   3.574  1.00 20.00     0.152 C 
HETATM    7  C9  UNL     1     -32.574   9.241   4.793  1.00 20.00     0.096 C 
HETATM    8  O10 UNL     1     -31.841   8.809   2.557  1.00 20.00    -0.293 OA
ENDBRANCH   2   6
BRANCH   5   9
HETATM    9  C4  UNL     1     -33.783   6.497   5.891  1.00 20.00    -0.027 C 
HETATM   10  C3  UNL     1     -34.715   6.626   6.841  1.00 20.00     0.007 C 
ENDBRANCH   5   9
TORSDOF 2
