REMARK  1 active torsions:
REMARK  status: ('A' for Active; 'I' for Inactive)
REMARK    1  A    between atoms: C8_8  and  O11_11 
ROOT
HETATM    1  C1  UNL     1     -34.765   6.769   6.830  1.00 20.00    -0.023 C 
HETATM    2  C2  UNL     1     -33.540   6.240   6.677  1.00 20.00    -0.022 C 
HETATM    3  C3  UNL     1     -33.758   4.617   3.210  1.00 20.00     0.011 A 
HETATM    4  C4  UNL     1     -33.937   3.825   4.476  1.00 20.00     0.011 A 
HETATM    5  C5  UNL     1     -35.572   5.915   4.633  1.00 20.00     0.021 C 
HETATM    6  C6  UNL     1     -35.256   7.199   5.459  1.00 20.00     0.038 C 
HETATM    7  C7  UNL     1     -33.224   6.278   5.194  1.00 20.00     0.046 C 
HETATM    8  C8  UNL     1     -33.913   7.610   4.829  1.00 20.00     0.136 C 
HETATM    9  C9  UNL     1     -34.167   5.313   4.481  1.00 20.00    -0.030 A 
ENDROOT
BRANCH   8  10
HETATM   10  O11 UNL     1     -33.331   8.755   5.419  1.00 20.00    -0.389 OA
HETATM   11  C10 UNL     1     -32.093   9.096   4.804  1.00 20.00     0.202 C 
ENDBRANCH   8  10
TORSDOF 1
