REMARK  1 active torsions:
REMARK  status: ('A' for Active; 'I' for Inactive)
REMARK    1  A    between atoms: C1_1  and  C3_3 
ROOT
HETATM    1  C1  UNL     1     -33.435   7.461   5.036  1.00 20.00    -0.010 C 
HETATM    2  C2  UNL     1     -33.648   6.437   4.194  1.00 20.00    -0.066 C 
HETATM    3  C4  UNL     1     -34.049   7.487   6.406  1.00 20.00     0.042 C 
HETATM    4  C5  UNL     1     -32.896   6.110   2.931  1.00 20.00     0.035 C 
HETATM    5  C6  UNL     1     -34.248   6.065   6.942  1.00 20.00     0.005 C 
HETATM    6  C7  UNL     1     -33.132   4.607   2.747  1.00 20.00     0.005 C 
HETATM    7  C8  UNL     1     -35.065   5.212   5.973  1.00 20.00     0.009 C 
HETATM    8  C9  UNL     1     -33.707   4.114   4.075  1.00 20.00     0.009 C 
HETATM    9  C10 UNL     1     -34.568   5.288   4.528  1.00 20.00     0.015 C 
ENDROOT
BRANCH   1  10
HETATM   10  C3  UNL     1     -32.508   8.540   4.681  1.00 20.00     0.152 C 
HETATM   11  C11 UNL     1     -32.801   9.343   3.440  1.00 20.00     0.096 C 
HETATM   12  O12 UNL     1     -31.519   8.770   5.378  1.00 20.00    -0.293 OA
ENDBRANCH   1  10
TORSDOF 1
