REMARK  1 active torsions:
REMARK  status: ('A' for Active; 'I' for Inactive)
REMARK    1  A    between atoms: C3_3  and  C4_4 
ROOT
HETATM    1  C1  UNL     1     -34.535   7.840   5.848  1.00 20.00     0.061 C 
HETATM    2  C2  UNL     1     -33.720   8.726   5.271  1.00 20.00     0.087 C 
HETATM    3  C4  UNL     1     -34.333   6.491   5.246  1.00 20.00     0.376 C 
HETATM    4  C5  UNL     1     -32.901   8.058   4.223  1.00 20.00     0.463 C 
HETATM    5  C6  UNL     1     -33.167   5.855   3.172  1.00 20.00     0.324 C 
HETATM    6  N7  UNL     1     -33.124   6.614   4.410  1.00 20.00     0.211 N 
HETATM    7  F9  UNL     1     -35.420   6.127   4.515  1.00 20.00    -0.195 F 
HETATM    8  F10 UNL     1     -33.273   8.475   2.985  1.00 20.00    -0.169 F 
HETATM    9  F11 UNL     1     -31.580   8.339   4.358  1.00 20.00    -0.169 F 
ENDROOT
BRANCH   3  10
HETATM   10  C3  UNL     1     -34.046   5.511   6.333  1.00 20.00     0.312 C 
HETATM   11  O8  UNL     1     -34.744   4.528   6.559  1.00 20.00    -0.301 OA
ENDBRANCH   3  10
TORSDOF 1
