REMARK  2 active torsions:
REMARK  status: ('A' for Active; 'I' for Inactive)
REMARK    1  A    between atoms: C3_3  and  C8_8 
REMARK    2  A    between atoms: C9_9  and  N11_11 
ROOT
HETATM    1  C1  UNL     1     -32.366   8.449   0.595  1.00 20.00     0.089 C 
HETATM    2  C9  UNL     1     -31.462   8.224   1.721  1.00 20.00     0.395 C 
HETATM    3  N10 UNL     1     -33.081   8.630  -0.301  1.00 20.00    -0.195 NA
ENDROOT
BRANCH   2   4
HETATM    4  N11 UNL     1     -32.126   7.460   2.778  1.00 20.00     0.101 N 
HETATM    5  C6  UNL     1     -33.306   8.185   3.271  1.00 20.00     0.274 C 
HETATM    6  C4  UNL     1     -33.980   7.426   4.415  1.00 20.00     0.039 C 
HETATM    7  C8  UNL     1     -34.353   6.006   3.993  1.00 20.00     0.011 C 
HETATM    8  C5  UNL     1     -33.139   5.291   3.402  1.00 20.00     0.039 C 
HETATM    9  C7  UNL     1     -32.491   6.122   2.293  1.00 20.00     0.274 C 
BRANCH   7  10
HETATM   10  C3  UNL     1     -34.866   5.234   5.169  1.00 20.00    -0.032 C 
HETATM   11  C2  UNL     1     -34.153   4.990   6.274  1.00 20.00     0.007 C 
ENDBRANCH   7  10
ENDBRANCH   2   4
TORSDOF 2
