REMARK  1 active torsions:
REMARK  status: ('A' for Active; 'I' for Inactive)
REMARK    1  A    between atoms: C1_1  and  C2_2 
ROOT
HETATM    1  C2  UNL     1     -33.201   6.613   4.170  1.00 20.00     0.100 A 
HETATM    2  C3  UNL     1     -33.977   7.885   4.392  1.00 20.00     0.104 A 
HETATM    3  C4  UNL     1     -34.616   6.556   4.725  1.00 20.00    -0.017 A 
HETATM    4  C5  UNL     1     -34.775   6.122   6.161  1.00 20.00     0.017 C 
HETATM    5  C6  UNL     1     -35.751   6.107   3.837  1.00 20.00     0.017 C 
HETATM    6 CL9  UNL     1     -33.459   9.000   5.630  1.00 20.00    -0.123 Cl
ENDROOT
BRANCH   1   7
HETATM    7  C1  UNL     1     -32.914   6.178   2.797  1.00 20.00     0.225 C 
HETATM    8  O7  UNL     1     -33.212   5.055   2.400  1.00 20.00    -0.279 OA
HETATM    9 CL8  UNL     1     -32.131   7.420   1.867  1.00 20.00    -0.043 Cl
ENDBRANCH   1   7
TORSDOF 1
