REMARK  0 active torsions:
REMARK  status: ('A' for Active; 'I' for Inactive)
ROOT
HETATM    1  C1  UNL     1     -32.995   9.458   2.923  1.00 20.00     0.014 C 
HETATM    2  C2  UNL     1     -33.071   8.480   3.614  1.00 20.00    -0.081 C 
HETATM    3  C3  UNL     1     -35.848   6.090   4.294  1.00 20.00     0.035 C 
HETATM    4  C4  UNL     1     -34.199   4.971   5.775  1.00 20.00     0.035 C 
HETATM    5  C5  UNL     1     -34.223   7.454   5.575  1.00 20.00     0.053 C 
HETATM    6  C6  UNL     1     -34.821   6.059   3.152  1.00 20.00     0.274 C 
HETATM    7  C7  UNL     1     -33.273   4.879   4.550  1.00 20.00     0.274 C 
HETATM    8  C8  UNL     1     -33.165   7.278   4.464  1.00 20.00     0.300 C 
HETATM    9  C9  UNL     1     -35.112   6.200   5.636  1.00 20.00    -0.008 C 
HETATM   10  N10 UNL     1     -33.428   6.055   3.660  1.00 20.00     0.104 N 
ENDROOT
TORSDOF 0
