REMARK  1 active torsions:
REMARK  status: ('A' for Active; 'I' for Inactive)
REMARK    1  A    between atoms: C1_1  and  C4_4 
ROOT
HETATM    1  C1  UNL     1     -33.009   6.568   3.066  1.00 20.00    -0.068 C 
HETATM    2  C2  UNL     1     -32.410   7.188   2.229  1.00 20.00    -0.108 C 
HETATM    3  C6  UNL     1     -31.681   7.942   1.211  1.00 20.00     0.112 C 
ENDROOT
BRANCH   1   4
HETATM    4  C4  UNL     1     -33.733   5.820   4.077  1.00 20.00     0.129 C 
HETATM    5  C5  UNL     1     -33.588   6.334   5.558  1.00 20.00     0.016 C 
HETATM    6  C3  UNL     1     -35.131   6.339   5.522  1.00 20.00     0.182 C 
HETATM    7  C8  UNL     1     -33.016   7.744   5.751  1.00 20.00     0.021 C 
HETATM    8  C9  UNL     1     -32.987   5.370   6.578  1.00 20.00     0.021 C 
HETATM    9  O10 UNL     1     -35.133   6.232   4.076  1.00 20.00    -0.366 OA
HETATM   10  C7  UNL     1     -33.643   4.320   3.803  1.00 20.00     0.061 C 
ENDBRANCH   1   4
TORSDOF 1
