REMARK  3 active torsions:
REMARK  status: ('A' for Active; 'I' for Inactive)
REMARK    1  A    between atoms: C1_1  and  C7_7 
REMARK    2  A    between atoms: C7_7  and  O10_10 
REMARK    3  A    between atoms: C8_8  and  N9_9 
ROOT
HETATM    1  C1  UNL     1     -33.923   6.327   3.969  1.00 20.00     0.032 C 
HETATM    2  C2  UNL     1     -33.617   6.023   2.520  1.00 20.00     0.068 C 
HETATM    3  N9  UNL     1     -33.475   7.356   4.607  1.00 20.00    -0.287 NA
ENDROOT
BRANCH   1   4
HETATM    4  C7  UNL     1     -34.853   5.387   4.726  1.00 20.00     0.161 C 
HETATM    5  C3  UNL     1     -34.520   5.364   6.208  1.00 20.00     0.045 C 
BRANCH   4   6
HETATM    6  O10 UNL     1     -36.192   5.813   4.551  1.00 20.00    -0.390 OA
HETATM    7  H27 UNL     1     -36.755   5.194   5.046  1.00 20.00     0.210 HD
ENDBRANCH   4   6
ENDBRANCH   1   4
BRANCH   3   8
HETATM    8  C8  UNL     1     -32.612   8.292   3.903  1.00 20.00     0.043 C 
HETATM    9  C4  UNL     1     -33.385   8.858   2.713  1.00 20.00     0.039 C 
HETATM   10  C5  UNL     1     -32.235   9.406   4.879  1.00 20.00     0.039 C 
HETATM   11  C6  UNL     1     -31.366   7.542   3.435  1.00 20.00     0.039 C 
ENDBRANCH   3   8
TORSDOF 3
