REMARK  1 active torsions:
REMARK  status: ('A' for Active; 'I' for Inactive)
REMARK    1  A    between atoms: C2_2  and  C3_3 
ROOT
HETATM    1  C1  UNL     1     -33.376   7.549   5.467  1.00 20.00    -0.007 C 
HETATM    2  C2  UNL     1     -33.578   6.401   4.813  1.00 20.00    -0.012 C 
HETATM    3  C4  UNL     1     -32.470   7.817   3.298  1.00 20.00     0.022 C 
HETATM    4  C5  UNL     1     -33.271   6.501   3.353  1.00 20.00     0.019 C 
HETATM    5  C6  UNL     1     -32.891   8.633   4.542  1.00 20.00    -0.029 C 
HETATM    6  C8  UNL     1     -32.471   5.336   2.783  1.00 20.00     0.015 C 
HETATM    7  C9  UNL     1     -31.700   9.390   5.134  1.00 20.00     0.019 C 
HETATM    8  C10 UNL     1     -34.028   9.608   4.217  1.00 20.00     0.019 C 
ENDROOT
BRANCH   2   9
HETATM    9  C3  UNL     1     -34.104   5.221   5.479  1.00 20.00     0.151 C 
HETATM   10  C7  UNL     1     -33.798   5.027   6.949  1.00 20.00     0.096 C 
HETATM   11  O11 UNL     1     -34.780   4.386   4.862  1.00 20.00    -0.293 OA
ENDBRANCH   2   9
TORSDOF 1
