REMARK  3 active torsions:
REMARK  status: ('A' for Active; 'I' for Inactive)
REMARK    1  A    between atoms: C1_1  and  C3_3 
REMARK    2  A    between atoms: C2_2  and  N8_8 
REMARK    3  A    between atoms: C4_4  and  C5_5 
ROOT
HETATM    1  C1  UNL     1     -32.849   8.520   4.189  1.00 20.00    -0.056 C 
HETATM    2  C2  UNL     1     -32.756   8.867   3.044  1.00 20.00     0.012 C 
ENDROOT
BRANCH   1   3
HETATM    3  C3  UNL     1     -32.955   8.113   5.547  1.00 20.00     0.069 C 
HETATM    4  C4  UNL     1     -33.784   7.130   5.914  1.00 20.00     0.050 C 
BRANCH   4   5
HETATM    5  C5  UNL     1     -34.599   6.460   4.882  1.00 20.00     0.259 C 
HETATM    6  O9  UNL     1     -34.090   5.871   3.936  1.00 20.00    -0.302 OA
ENDBRANCH   4   5
ENDBRANCH   1   3
BRANCH   2   7
HETATM    7  N8  UNL     1     -32.644   9.283   1.672  1.00 20.00    -0.350 N 
HETATM    8  C6  UNL     1     -33.647  10.202   1.153  1.00 20.00     0.159 C 
HETATM    9  C7  UNL     1     -32.013   8.371   0.730  1.00 20.00     0.159 C 
ENDBRANCH   2   7
TORSDOF 3
