REMARK  2 active torsions:
REMARK  status: ('A' for Active; 'I' for Inactive)
REMARK    1  A    between atoms: C2_2  and  C3_3 
REMARK    2  A    between atoms: C4_4  and  C5_5 
ROOT
HETATM    1  C1  UNL     1     -32.391   7.483   1.556  1.00 20.00     0.087 C 
HETATM    2  C2  UNL     1     -32.517   7.095   2.917  1.00 20.00     0.093 C 
HETATM    3  N8  UNL     1     -32.287   7.797   0.444  1.00 20.00    -0.192 NA
ENDROOT
BRANCH   2   4
HETATM    4  C3  UNL     1     -32.696   8.000   3.890  1.00 20.00     0.012 C 
HETATM    5  C4  UNL     1     -32.828   7.641   5.284  1.00 20.00     0.017 C 
BRANCH   5   6
HETATM    6  C5  UNL     1     -33.522   6.576   5.705  1.00 20.00     0.084 C 
HETATM    7  N9  UNL     1     -34.199   5.678   4.943  1.00 20.00    -0.398 N 
HETATM    8  C6  UNL     1     -33.863   4.257   4.955  1.00 20.00     0.148 C 
HETATM    9  C7  UNL     1     -35.446   6.030   4.267  1.00 20.00     0.148 C 
ENDBRANCH   5   6
ENDBRANCH   2   4
TORSDOF 2
