REMARK  3 active torsions:
REMARK  status: ('A' for Active; 'I' for Inactive)
REMARK    1  A    between atoms: C1_1  and  C7_7 
REMARK    2  A    between atoms: C2_2  and  C8_8 
REMARK    3  A    between atoms: C4_4  and  C9_9 
ROOT
HETATM    1  C8  UNL     1     -33.881   5.332   4.410  1.00 20.00     0.233 A 
HETATM    2  C9  UNL     1     -34.117   5.811   5.805  1.00 20.00     0.186 A 
HETATM    3  O10 UNL     1     -35.109   5.947   4.777  1.00 20.00    -0.358 OA
ENDROOT
BRANCH   1   4
HETATM    4  C2  UNL     1     -33.142   6.149   3.449  1.00 20.00    -0.071 C 
HETATM    5  C1  UNL     1     -32.535   6.821   2.660  1.00 20.00    -0.099 C 
BRANCH   5   6
HETATM    6  C7  UNL     1     -31.797   7.639   1.699  1.00 20.00     0.065 A 
HETATM    7  C5  UNL     1     -32.512   8.781   1.062  1.00 20.00     0.018 A 
HETATM    8  C6  UNL     1     -32.191   7.553   0.263  1.00 20.00     0.018 A 
ENDBRANCH   5   6
ENDBRANCH   1   4
BRANCH   2   9
HETATM    9  C4  UNL     1     -33.393   6.951   6.350  1.00 20.00    -0.002 C 
HETATM   10  C3  UNL     1     -33.525   8.205   5.904  1.00 20.00     0.009 C 
ENDBRANCH   2   9
TORSDOF 3
