REMARK  1 active torsions:
REMARK  status: ('A' for Active; 'I' for Inactive)
REMARK    1  A    between atoms: C5_5  and  C8_8 
ROOT
HETATM    1  C1  UNL     1     -34.352   5.054   5.090  1.00 20.00    -0.004 C 
HETATM    2  C2  UNL     1     -33.879   4.782   3.734  1.00 20.00    -0.004 C 
HETATM    3  C3  UNL     1     -34.352   6.207   5.794  1.00 20.00    -0.026 C 
HETATM    4  C4  UNL     1     -32.974   5.514   3.053  1.00 20.00    -0.021 C 
HETATM    5  C6  UNL     1     -33.853   7.586   5.383  1.00 20.00     0.033 C 
HETATM    6  C7  UNL     1     -32.369   6.719   3.612  1.00 20.00     0.026 A 
HETATM    7  C8  UNL     1     -32.309   8.143   3.178  1.00 20.00     0.085 A 
HETATM    8  C9  UNL     1     -33.518   7.678   3.935  1.00 20.00     0.011 A 
ENDROOT
BRANCH   7   9
HETATM    9  C5  UNL     1     -32.421   8.466   1.750  1.00 20.00     0.224 C 
HETATM   10  O10 UNL     1     -32.127   7.652   0.880  1.00 20.00    -0.279 OA
HETATM   11 CL11 UNL     1     -32.997  10.084   1.488  1.00 20.00    -0.043 Cl
ENDBRANCH   7   9
TORSDOF 1
