REMARK  0 active torsions:
REMARK  status: ('A' for Active; 'I' for Inactive)
ROOT
HETATM    1  C1  UNL     1     -34.065   7.569   4.571  1.00 20.00     0.251 C 
HETATM    2  C2  UNL     1     -32.971   6.939   3.734  1.00 20.00     0.251 C 
HETATM    3  C3  UNL     1     -34.634   6.453   5.423  1.00 20.00     0.271 C 
HETATM    4  C4  UNL     1     -33.592   5.729   3.065  1.00 20.00     0.271 C 
HETATM    5  F5  UNL     1     -33.543   8.535   5.365  1.00 20.00    -0.242 F 
HETATM    6  F6  UNL     1     -32.563   7.820   2.784  1.00 20.00    -0.242 F 
HETATM    7  F7  UNL     1     -33.746   6.149   6.408  1.00 20.00    -0.235 F 
HETATM    8  F8  UNL     1     -32.623   4.835   2.748  1.00 20.00    -0.235 F 
HETATM    9  S9  UNL     1     -34.744   5.045   4.284  1.00 20.00    -0.089 SA
ENDROOT
TORSDOF 0
