REMARK  1 active torsions:
REMARK  status: ('A' for Active; 'I' for Inactive)
REMARK    1  A    between atoms: C1_1  and  C6_6 
ROOT
HETATM    1  C2  UNL     1     -33.864   8.049   5.164  1.00 20.00     0.019 C 
HETATM    2  C3  UNL     1     -32.640   6.804   3.319  1.00 20.00     0.019 C 
HETATM    3  C4  UNL     1     -33.995   6.654   5.782  1.00 20.00     0.080 C 
HETATM    4  C5  UNL     1     -33.366   5.491   3.623  1.00 20.00     0.080 C 
HETATM    5  C6  UNL     1     -33.475   8.030   3.679  1.00 20.00     0.072 C 
HETATM    6  C7  UNL     1     -34.385   5.617   4.747  1.00 20.00     0.243 C 
HETATM    7  F9  UNL     1     -35.593   5.953   4.222  1.00 20.00    -0.206 F 
HETATM    8  F10 UNL     1     -34.552   4.410   5.341  1.00 20.00    -0.206 F 
ENDROOT
BRANCH   5   9
HETATM    9  C1  UNL     1     -32.710   9.271   3.335  1.00 20.00     0.223 C 
HETATM   10  O8  UNL     1     -31.987   9.831   4.153  1.00 20.00    -0.279 OA
HETATM   11 CL11 UNL     1     -32.981   9.772   1.693  1.00 20.00    -0.043 Cl
ENDBRANCH   5   9
TORSDOF 1
