REMARK  0 active torsions:
REMARK  status: ('A' for Active; 'I' for Inactive)
ROOT
HETATM    1  C1  UNL     1     -32.196   7.527   1.541  1.00 20.00     0.012 C 
HETATM    2  C2  UNL     1     -32.451   7.380   2.705  1.00 20.00    -0.111 C 
HETATM    3  C3  UNL     1     -33.930   6.332   5.918  1.00 20.00     0.132 C 
HETATM    4  C4  UNL     1     -33.774   7.811   6.206  1.00 20.00     0.084 C 
HETATM    5  C5  UNL     1     -35.100   6.630   3.820  1.00 20.00     0.014 C 
HETATM    6  C6  UNL     1     -34.979   8.154   4.022  1.00 20.00     0.007 C 
HETATM    7  C7  UNL     1     -32.761   7.200   4.126  1.00 20.00     0.080 C 
HETATM    8  C8  UNL     1     -33.790   6.102   4.423  1.00 20.00     0.071 C 
HETATM    9  C9  UNL     1     -33.621   8.312   4.748  1.00 20.00     0.009 C 
HETATM   10  O10 UNL     1     -34.165   5.470   6.750  1.00 20.00    -0.298 OA
ENDROOT
TORSDOF 0
