REMARK  1 active torsions:
REMARK  status: ('A' for Active; 'I' for Inactive)
REMARK    1  A    between atoms: C4_4  and  C10_10 
ROOT
HETATM    1  C1  UNL     1     -32.340   8.721   5.278  1.00 20.00     0.174 C 
HETATM    2  C2  UNL     1     -31.922   8.247   3.931  1.00 20.00     0.025 A 
HETATM    3  C3  UNL     1     -32.997   7.353   3.440  1.00 20.00     0.030 A 
HETATM    4  C4  UNL     1     -34.047   7.314   4.505  1.00 20.00     0.130 C 
HETATM    5  C5  UNL     1     -32.646   8.599   2.645  1.00 20.00    -0.035 A 
HETATM    6  C6  UNL     1     -33.595   9.768   2.599  1.00 20.00     0.016 C 
HETATM    7  C7  UNL     1     -31.888   8.397   1.356  1.00 20.00     0.016 C 
HETATM    8  O11 UNL     1     -33.717   8.346   5.458  1.00 20.00    -0.385 OA
ENDROOT
BRANCH   4   9
HETATM    9  C10 UNL     1     -34.083   5.980   5.236  1.00 20.00     0.007 C 
HETATM   10  C8  UNL     1     -34.747   6.129   6.605  1.00 20.00     0.012 C 
HETATM   11  C9  UNL     1     -34.811   4.925   4.403  1.00 20.00     0.012 C 
ENDBRANCH   4   9
TORSDOF 1
