REMARK  1 active torsions:
REMARK  status: ('A' for Active; 'I' for Inactive)
REMARK    1  A    between atoms: C3_3  and  C8_8 
ROOT
HETATM    1  C1  UNL     1     -32.732   8.324   3.543  1.00 20.00    -0.079 C 
HETATM    2  C2  UNL     1     -31.850   8.214   2.547  1.00 20.00    -0.028 C 
HETATM    3  C4  UNL     1     -34.232   8.232   3.419  1.00 20.00     0.039 C 
HETATM    4  C5  UNL     1     -32.663   7.307   5.784  1.00 20.00     0.023 C 
HETATM    5  C6  UNL     1     -33.642   9.446   5.376  1.00 20.00     0.014 C 
HETATM    6  C7  UNL     1     -32.419   8.607   4.996  1.00 20.00     0.015 C 
HETATM    7  C8  UNL     1     -34.200   7.174   5.758  1.00 20.00     0.077 C 
HETATM    8  C9  UNL     1     -34.643   8.385   4.901  1.00 20.00     0.003 C 
HETATM    9  C10 UNL     1     -32.221   7.943   1.127  1.00 20.00     0.036 C 
ENDROOT
BRANCH   7  10
HETATM   10  C3  UNL     1     -34.671   5.858   5.225  1.00 20.00     0.223 C 
HETATM   11  O11 UNL     1     -35.371   5.782   4.220  1.00 20.00    -0.279 OA
HETATM   12 CL12 UNL     1     -34.110   4.524   6.187  1.00 20.00    -0.043 Cl
ENDBRANCH   7  10
TORSDOF 1
