REMARK  1 active torsions:
REMARK  status: ('A' for Active; 'I' for Inactive)
REMARK    1  A    between atoms: C2_2  and  C5_5 
ROOT
HETATM    1  C1  UNL     1     -32.708   8.390   4.047  1.00 20.00     0.016 C 
HETATM    2  C2  UNL     1     -32.678   7.311   3.251  1.00 20.00    -0.019 C 
HETATM    3  C3  UNL     1     -33.167   8.316   5.424  1.00 20.00    -0.066 C 
HETATM    4  C4  UNL     1     -33.338   9.420   6.166  1.00 20.00     0.019 C 
HETATM    5  C6  UNL     1     -33.135   5.943   3.672  1.00 20.00     0.050 C 
HETATM    6  C7  UNL     1     -33.441   6.934   5.978  1.00 20.00     0.047 C 
HETATM    7  C8  UNL     1     -34.046   5.968   4.928  1.00 20.00    -0.040 C 
HETATM    8  C9  UNL     1     -34.127   4.552   5.524  1.00 20.00     0.015 C 
HETATM    9  C10 UNL     1     -35.476   6.408   4.547  1.00 20.00     0.015 C 
ENDROOT
BRANCH   2  10
HETATM   10  C5  UNL     1     -32.192   7.491   1.880  1.00 20.00     0.265 C 
HETATM   11  O11 UNL     1     -31.822   8.576   1.450  1.00 20.00    -0.302 OA
ENDBRANCH   2  10
TORSDOF 1
