REMARK  3 active torsions:
REMARK  status: ('A' for Active; 'I' for Inactive)
REMARK    1  A    between atoms: C1_1  and  C6_6 
REMARK    2  A    between atoms: C7_7  and  C8_8 
REMARK    3  A    between atoms: C8_8  and  O10_10 
ROOT
HETATM    1  C2  UNL     1     -32.469   6.366   2.177  1.00 20.00     0.001 C 
HETATM    2  C3  UNL     1     -32.453   7.813   2.663  1.00 20.00     0.011 C 
HETATM    3  C4  UNL     1     -33.467   5.519   2.963  1.00 20.00     0.007 C 
HETATM    4  C5  UNL     1     -33.198   7.052   4.955  1.00 20.00     0.018 C 
HETATM    5  C6  UNL     1     -32.194   7.885   4.164  1.00 20.00     0.047 C 
HETATM    6  C7  UNL     1     -33.210   5.594   4.474  1.00 20.00     0.010 C 
ENDROOT
BRANCH   6   7
HETATM    7  C8  UNL     1     -34.254   4.782   5.240  1.00 20.00     0.168 C 
BRANCH   7   8
HETATM    8  O10 UNL     1     -35.533   5.321   4.963  1.00 20.00    -0.400 OA
HETATM    9  H24 UNL     1     -36.180   4.791   5.459  1.00 20.00     0.209 HD
ENDBRANCH   7   8
ENDBRANCH   6   7
BRANCH   5  10
HETATM   10  C1  UNL     1     -32.361   9.332   4.588  1.00 20.00     0.235 C 
HETATM   11  O9  UNL     1     -31.463   9.995   5.098  1.00 20.00    -0.306 OA
ENDBRANCH   5  10
TORSDOF 3
