REMARK  2 active torsions:
REMARK  status: ('A' for Active; 'I' for Inactive)
REMARK    1  A    between atoms: C1_1  and  N9_9 
REMARK    2  A    between atoms: C4_4  and  C8_8 
ROOT
HETATM    1  C2  UNL     1     -32.569   8.413   4.086  1.00 20.00     0.031 C 
HETATM    2  C3  UNL     1     -33.667   6.967   2.539  1.00 20.00     0.130 C 
HETATM    3  C4  UNL     1     -32.472   7.907   2.644  1.00 20.00     0.005 C 
HETATM    4  C5  UNL     1     -33.061   7.187   4.867  1.00 20.00     0.083 C 
HETATM    5  C6  UNL     1     -33.928   7.589   6.054  1.00 20.00     0.032 C 
HETATM    6  N9  UNL     1     -33.772   6.390   3.869  1.00 20.00    -0.355 N 
ENDROOT
BRANCH   3   7
HETATM    7  C8  UNL     1     -32.493   9.023   1.614  1.00 20.00     0.002 C 
HETATM    8  C7  UNL     1     -32.438   8.495   0.214  1.00 20.00     0.005 C 
ENDBRANCH   3   7
BRANCH   6   9
HETATM    9  C1  UNL     1     -34.352   5.165   4.111  1.00 20.00     0.351 C 
HETATM   10  O10 UNL     1     -34.479   4.610   5.197  1.00 20.00    -0.284 OA
ENDBRANCH   6   9
TORSDOF 2
