REMARK  1 active torsions:
REMARK  status: ('A' for Active; 'I' for Inactive)
REMARK    1  A    between atoms: C3_3  and  C7_7 
ROOT
HETATM    1  C1  UNL     1     -34.579   6.787   5.960  1.00 20.00    -0.020 C 
HETATM    2  C2  UNL     1     -33.922   7.837   5.438  1.00 20.00    -0.086 C 
HETATM    3  C4  UNL     1     -33.172   7.747   4.132  1.00 20.00     0.049 C 
HETATM    4  C5  UNL     1     -34.227   5.471   3.830  1.00 20.00     0.023 C 
HETATM    5  C6  UNL     1     -34.671   5.434   5.302  1.00 20.00     0.005 C 
HETATM    6  C7  UNL     1     -32.963   6.310   3.639  1.00 20.00     0.091 C 
HETATM    7  C8  UNL     1     -33.896   9.173   6.120  1.00 20.00     0.043 C 
HETATM    8  C9  UNL     1     -33.869   4.410   6.108  1.00 20.00     0.014 C 
ENDROOT
BRANCH   6   9
HETATM    9  C3  UNL     1     -32.577   6.333   2.191  1.00 20.00     0.177 C 
HETATM   10  O10 UNL     1     -31.971   7.373   1.812  1.00 20.00    -0.648 OA
HETATM   11  O11 UNL     1     -32.909   5.305   1.538  1.00 20.00    -0.648 OA
ENDBRANCH   6   9
TORSDOF 1
