REMARK  1 active torsions:
REMARK  status: ('A' for Active; 'I' for Inactive)
REMARK    1  A    between atoms: C6_6  and  C7_7 
ROOT
HETATM    1  C1  UNL     1     -33.337   4.915   3.178  1.00 20.00    -0.003 C 
HETATM    2  C2  UNL     1     -33.010   6.022   2.283  1.00 20.00     0.015 C 
HETATM    3  C3  UNL     1     -32.687   7.682   4.033  1.00 20.00     0.011 C 
HETATM    4  C4  UNL     1     -34.161   4.826   4.241  1.00 20.00    -0.026 C 
HETATM    5  C5  UNL     1     -33.920   7.932   4.506  1.00 20.00    -0.021 C 
HETATM    6  C6  UNL     1     -32.643   7.267   2.648  1.00 20.00     0.009 C 
HETATM    7  C8  UNL     1     -35.114   5.825   4.868  1.00 20.00     0.035 C 
HETATM    8  C9  UNL     1     -34.516   7.066   5.588  1.00 20.00     0.007 C 
HETATM    9  C11 UNL     1     -33.593   6.686   6.746  1.00 20.00     0.014 C 
ENDROOT
BRANCH   6  10
HETATM   10  C7  UNL     1     -32.263   8.220   1.603  1.00 20.00     0.155 C 
HETATM   11  C10 UNL     1     -31.642   7.677   0.343  1.00 20.00     0.096 C 
HETATM   12  O12 UNL     1     -32.444   9.428   1.763  1.00 20.00    -0.293 OA
ENDBRANCH   6  10
TORSDOF 1
