REMARK  1 active torsions:
REMARK  status: ('A' for Active; 'I' for Inactive)
REMARK    1  A    between atoms: C1_1  and  C3_3 
ROOT
HETATM    1  C1  UNL     1     -33.032   7.854   4.550  1.00 20.00    -0.054 C 
HETATM    2  C2  UNL     1     -32.944   8.461   3.518  1.00 20.00     0.007 C 
HETATM    3 CL8  UNL     1     -32.815   9.347   2.010  1.00 20.00    -0.023 Cl
ENDROOT
BRANCH   1   4
HETATM    4  C3  UNL     1     -33.136   7.132   5.779  1.00 20.00     0.236 A 
HETATM    5  C4  UNL     1     -34.022   5.907   5.909  1.00 20.00     0.092 A 
HETATM    6  C5  UNL     1     -33.750   4.939   7.017  1.00 20.00     0.049 C 
HETATM    7  C6  UNL     1     -34.814   5.385   4.749  1.00 20.00     0.049 C 
HETATM    8  O7  UNL     1     -34.448   7.199   6.363  1.00 20.00    -0.357 OA
ENDBRANCH   1   4
TORSDOF 1
