REMARK  1 active torsions:
REMARK  status: ('A' for Active; 'I' for Inactive)
REMARK    1  A    between atoms: C1_1  and  C7_7 
ROOT
HETATM    1  C2  UNL     1     -33.541   4.208   3.576  1.00 20.00     0.001 C 
HETATM    2  C3  UNL     1     -33.567   7.078   6.399  1.00 20.00     0.014 C 
HETATM    3  C4  UNL     1     -33.889   4.050   5.047  1.00 20.00     0.005 C 
HETATM    4  C5  UNL     1     -33.302   5.704   3.454  1.00 20.00     0.006 C 
HETATM    5  C6  UNL     1     -34.494   5.910   6.710  1.00 20.00     0.006 C 
HETATM    6  C7  UNL     1     -34.097   7.595   5.067  1.00 20.00     0.076 C 
HETATM    7  C8  UNL     1     -34.776   5.260   5.354  1.00 20.00    -0.010 C 
HETATM    8  C9  UNL     1     -34.433   6.324   4.283  1.00 20.00     0.002 C 
ENDROOT
BRANCH   6   9
HETATM    9  C1  UNL     1     -33.133   8.503   4.371  1.00 20.00     0.223 C 
HETATM   10  O10 UNL     1     -33.080   8.570   3.147  1.00 20.00    -0.279 OA
HETATM   11 CL11 UNL     1     -32.153   9.399   5.492  1.00 20.00    -0.043 Cl
ENDBRANCH   6   9
TORSDOF 1
