REMARK  1 active torsions:
REMARK  status: ('A' for Active; 'I' for Inactive)
REMARK    1  A    between atoms: C3_3  and  C9_9 
ROOT
HETATM    1  C1  UNL     1     -32.539   5.153   2.420  1.00 20.00     0.013 C 
HETATM    2  C2  UNL     1     -33.002   5.891   3.245  1.00 20.00    -0.099 C 
HETATM    3  C4  UNL     1     -34.867   5.096   6.348  1.00 20.00     0.000 C 
HETATM    4  C5  UNL     1     -35.517   5.296   4.984  1.00 20.00     0.002 C 
HETATM    5  C6  UNL     1     -33.350   5.221   6.267  1.00 20.00     0.002 C 
HETATM    6  C7  UNL     1     -35.110   6.629   4.354  1.00 20.00     0.030 C 
HETATM    7  C8  UNL     1     -32.925   6.554   5.648  1.00 20.00     0.030 C 
HETATM    8  C9  UNL     1     -33.584   6.819   4.282  1.00 20.00     0.083 C 
ENDROOT
BRANCH   8   9
HETATM    9  C3  UNL     1     -33.279   8.198   3.848  1.00 20.00     0.143 C 
HETATM   10  C10 UNL     1     -33.765   9.310   4.737  1.00 20.00     0.093 C 
HETATM   11  O11 UNL     1     -32.658   8.425   2.811  1.00 20.00    -0.297 OA
ENDBRANCH   8   9
TORSDOF 1
