REMARK  1 active torsions:
REMARK  status: ('A' for Active; 'I' for Inactive)
REMARK    1  A    between atoms: C7_7  and  N11_11 
ROOT
HETATM    1  C1  UNL     1     -33.371   5.988   3.655  1.00 20.00     0.164 C 
HETATM    2  C2  UNL     1     -35.757   5.755   4.184  1.00 20.00     0.013 C 
HETATM    3  C3  UNL     1     -33.994   5.460   5.963  1.00 20.00     0.013 C 
HETATM    4  C4  UNL     1     -35.826   7.255   4.518  1.00 20.00     0.008 C 
HETATM    5  C5  UNL     1     -34.106   6.959   6.286  1.00 20.00     0.008 C 
HETATM    6  C6  UNL     1     -34.362   5.198   4.498  1.00 20.00     0.058 C 
HETATM    7  C7  UNL     1     -33.417   7.493   3.887  1.00 20.00     0.295 C 
HETATM    8  C8  UNL     1     -34.451   7.755   5.010  1.00 20.00     0.026 C 
HETATM    9  O12 UNL     1     -32.603   5.450   2.863  1.00 20.00    -0.295 OA
ENDROOT
BRANCH   7  10
HETATM   10  N11 UNL     1     -32.069   7.939   4.209  1.00 20.00     0.092 N 
HETATM   11  C9  UNL     1     -32.103   9.234   4.892  1.00 20.00     0.310 C 
HETATM   12  C10 UNL     1     -31.250   8.026   2.999  1.00 20.00     0.310 C 
ENDBRANCH   7  10
TORSDOF 1
