REMARK  0 active torsions:
REMARK  status: ('A' for Active; 'I' for Inactive)
ROOT
HETATM    1  C1  UNL     1     -33.740   5.742   4.147  1.00 20.00     0.080 A 
HETATM    2  C2  UNL     1     -33.864   5.363   6.710  1.00 20.00     0.019 A 
HETATM    3  C3  UNL     1     -34.102   7.670   5.478  1.00 20.00     0.128 A 
HETATM    4  C4  UNL     1     -34.482   5.277   5.340  1.00 20.00     0.053 A 
HETATM    5  C5  UNL     1     -34.704   6.499   6.195  1.00 20.00     0.015 A 
HETATM    6  C6  UNL     1     -32.868   7.982   3.305  1.00 20.00     0.150 C 
HETATM    7  N7  UNL     1     -33.548   7.110   4.248  1.00 20.00    -0.379 N 
HETATM    8  S8  UNL     1     -33.292   4.639   3.000  1.00 20.00    -0.065 SA
ENDROOT
TORSDOF 0
