REMARK  1 active torsions:
REMARK  status: ('A' for Active; 'I' for Inactive)
REMARK    1  A    between atoms: C1_1  and  C4_4 
ROOT
HETATM    1  C2  UNL     1     -34.591   4.759   5.611  1.00 20.00     0.014 A 
HETATM    2  C3  UNL     1     -34.215   5.979   6.397  1.00 20.00     0.014 A 
HETATM    3  C4  UNL     1     -34.549   6.103   4.935  1.00 20.00     0.066 A 
ENDROOT
BRANCH   3   4
HETATM    4  C1  UNL     1     -33.479   6.393   3.975  1.00 20.00     0.193 C 
HETATM    5  O5  UNL     1     -32.745   7.363   4.092  1.00 20.00    -0.286 OA
HETATM    6  I6  UNL     1     -33.166   5.143   2.349  1.00 20.00    -0.001 I 
ENDBRANCH   3   4
TORSDOF 1
