REMARK  1 active torsions:
REMARK  status: ('A' for Active; 'I' for Inactive)
REMARK    1  A    between atoms: C3_3  and  C8_8 
ROOT
HETATM    1  C1  UNL     1     -34.260   7.953   6.757  1.00 20.00    -0.025 C 
HETATM    2  C2  UNL     1     -34.744   8.352   5.572  1.00 20.00    -0.024 C 
HETATM    3  C4  UNL     1     -32.510   7.896   5.262  1.00 20.00     0.018 C 
HETATM    4  C5  UNL     1     -33.026   7.128   6.484  1.00 20.00     0.013 C 
HETATM    5  C6  UNL     1     -33.842   7.777   4.504  1.00 20.00     0.024 C 
HETATM    6  C7  UNL     1     -33.421   5.772   5.827  1.00 20.00     0.005 C 
HETATM    7  C8  UNL     1     -34.036   6.228   4.446  1.00 20.00     0.027 C 
HETATM    8  C10 UNL     1     -34.293   4.892   6.716  1.00 20.00     0.012 C 
HETATM    9  C11 UNL     1     -35.486   5.808   4.182  1.00 20.00     0.024 C 
ENDROOT
BRANCH   7  10
HETATM   10  C3  UNL     1     -33.217   5.693   3.294  1.00 20.00     0.132 C 
HETATM   11  C9  UNL     1     -33.268   4.207   3.061  1.00 20.00     0.091 C 
HETATM   12  O12 UNL     1     -32.544   6.435   2.581  1.00 20.00    -0.298 OA
ENDBRANCH   7  10
TORSDOF 1
