REMARK  1 active torsions:
REMARK  status: ('A' for Active; 'I' for Inactive)
REMARK    1  A    between atoms: C6_6  and  C9_9 
ROOT
HETATM    1  C1  UNL     1     -33.990   6.622   5.926  1.00 20.00     0.119 C 
HETATM    2  C2  UNL     1     -33.036   6.018   3.753  1.00 20.00     0.043 A 
HETATM    3  C3  UNL     1     -32.493   6.447   2.546  1.00 20.00     0.012 A 
HETATM    4  C4  UNL     1     -32.782   8.693   3.275  1.00 20.00     0.125 A 
HETATM    5  C5  UNL     1     -33.427   6.983   4.667  1.00 20.00     0.136 A 
HETATM    6  C6  UNL     1     -32.360   7.808   2.295  1.00 20.00    -0.036 A 
HETATM    7  N10 UNL     1     -34.449   6.328   6.951  1.00 20.00    -0.190 NA
HETATM    8  N11 UNL     1     -33.313   8.314   4.459  1.00 20.00    -0.249 NA
ENDROOT
BRANCH   6   9
HETATM    9  C9  UNL     1     -31.786   8.298   1.015  1.00 20.00     0.020 A 
HETATM   10  C7  UNL     1     -32.582   9.263   0.172  1.00 20.00     0.010 A 
HETATM   11  C8  UNL     1     -32.401   7.851  -0.288  1.00 20.00     0.010 A 
ENDBRANCH   6   9
TORSDOF 1
