REMARK  1 active torsions:
REMARK  status: ('A' for Active; 'I' for Inactive)
REMARK    1  A    between atoms: C1_1  and  C2_2 
ROOT
HETATM    1  C2  UNL     1     -33.920   7.733   4.476  1.00 20.00     0.084 A 
HETATM    2  C3  UNL     1     -32.472   7.991   4.816  1.00 20.00     0.018 A 
HETATM    3  C4  UNL     1     -32.861   7.681   3.385  1.00 20.00     0.048 A 
HETATM    4  C6  UNL     1     -32.042   9.347   5.264  1.00 20.00     0.012 C 
HETATM    5  C7  UNL     1     -32.430   6.366   2.801  1.00 20.00     0.034 C 
HETATM    6 CL9  UNL     1     -32.905   9.002   2.193  1.00 20.00    -0.118 Cl
ENDROOT
BRANCH   1   7
HETATM    7  C1  UNL     1     -34.561   6.503   4.959  1.00 20.00     0.129 C 
HETATM    8  C5  UNL     1     -34.472   6.229   6.436  1.00 20.00     0.091 C 
HETATM    9  O8  UNL     1     -35.144   5.737   4.194  1.00 20.00    -0.298 OA
ENDBRANCH   1   7
TORSDOF 1
