REMARK  0 active torsions:
REMARK  status: ('A' for Active; 'I' for Inactive)
ROOT
HETATM    1  C1  UNL     1     -32.807   8.247   3.797  1.00 20.00    -0.039 C 
HETATM    2  C2  UNL     1     -33.001   6.825   3.520  1.00 20.00     0.034 C 
HETATM    3  C3  UNL     1     -34.090   5.045   4.956  1.00 20.00     0.224 C 
HETATM    4  C4  UNL     1     -32.347   9.191   2.967  1.00 20.00     0.021 C 
HETATM    5  C5  UNL     1     -32.454   6.109   2.532  1.00 20.00     0.044 C 
HETATM    6  C6  UNL     1     -33.303   8.509   5.210  1.00 20.00     0.065 C 
HETATM    7  C7  UNL     1     -34.753   5.218   6.314  1.00 20.00     0.105 C 
HETATM    8  C8  UNL     1     -34.345   6.639   6.740  1.00 20.00     0.035 C 
HETATM    9  C9  UNL     1     -34.275   7.359   5.412  1.00 20.00     0.098 C 
HETATM   10  N10 UNL     1     -33.788   6.330   4.526  1.00 20.00    -0.313 N 
HETATM   11  O11 UNL     1     -33.879   3.973   4.415  1.00 20.00    -0.273 OA
ENDROOT
TORSDOF 0
