REMARK  2 active torsions:
REMARK  status: ('A' for Active; 'I' for Inactive)
REMARK    1  A    between atoms: C2_2  and  C7_7 
REMARK    2  A    between atoms: C3_3  and  C6_6 
ROOT
HETATM    1  C4  UNL     1     -33.508   6.896   6.549  1.00 20.00     0.014 C 
HETATM    2  C5  UNL     1     -34.655   5.875   6.430  1.00 20.00     0.015 C 
HETATM    3  C6  UNL     1     -34.099   7.631   5.320  1.00 20.00     0.067 C 
HETATM    4  C7  UNL     1     -34.795   6.277   4.929  1.00 20.00    -0.011 C 
HETATM    5  C10 UNL     1     -36.236   6.423   4.454  1.00 20.00     0.021 C 
ENDROOT
BRANCH   4   6
HETATM    6  C2  UNL     1     -34.010   5.410   4.003  1.00 20.00    -0.084 C 
HETATM    7  C1  UNL     1     -33.513   5.874   2.846  1.00 20.00     0.015 C 
HETATM    8  C8  UNL     1     -33.807   3.989   4.439  1.00 20.00     0.043 C 
ENDBRANCH   4   6
BRANCH   3   9
HETATM    9  C3  UNL     1     -33.126   8.284   4.334  1.00 20.00     0.128 C 
HETATM   10  C9  UNL     1     -33.668   9.410   3.495  1.00 20.00     0.091 C 
HETATM   11  O11 UNL     1     -31.959   7.909   4.234  1.00 20.00    -0.298 OA
ENDBRANCH   3   9
TORSDOF 2
