REMARK  1 active torsions:
REMARK  status: ('A' for Active; 'I' for Inactive)
REMARK    1  A    between atoms: C1_1  and  C6_6 
ROOT
HETATM    1  C2  UNL     1     -34.015   5.434   7.084  1.00 20.00     0.001 C 
HETATM    2  C3  UNL     1     -34.714   6.775   6.948  1.00 20.00     0.001 C 
HETATM    3  C4  UNL     1     -34.013   4.839   5.674  1.00 20.00     0.018 C 
HETATM    4  C5  UNL     1     -34.242   7.272   5.589  1.00 20.00     0.018 C 
HETATM    5  C6  UNL     1     -34.269   6.014   4.709  1.00 20.00     0.032 C 
HETATM    6  C7  UNL     1     -35.624   5.864   4.065  1.00 20.00     0.025 C 
ENDROOT
BRANCH   5   7
HETATM    7  C1  UNL     1     -33.238   6.082   3.585  1.00 20.00     0.227 C 
HETATM    8  O8  UNL     1     -33.085   5.156   2.794  1.00 20.00    -0.279 OA
HETATM    9 CL9  UNL     1     -32.362   7.582   3.591  1.00 20.00    -0.043 Cl
ENDBRANCH   5   7
TORSDOF 1
