REMARK  0 active torsions:
REMARK  status: ('A' for Active; 'I' for Inactive)
ROOT
HETATM    1  C1  UNL     1     -32.479   4.790   2.744  1.00 20.00     0.015 C 
HETATM    2  C2  UNL     1     -33.029   5.662   3.359  1.00 20.00    -0.075 C 
HETATM    3  C3  UNL     1     -34.614   5.778   6.107  1.00 20.00     0.034 C 
HETATM    4  C4  UNL     1     -32.594   8.795   3.642  1.00 20.00     0.034 C 
HETATM    5  C5  UNL     1     -35.019   6.223   4.709  1.00 20.00     0.057 C 
HETATM    6  C6  UNL     1     -33.831   7.995   3.260  1.00 20.00     0.057 C 
HETATM    7  C7  UNL     1     -33.600   6.836   6.508  1.00 20.00     0.275 C 
HETATM    8  C8  UNL     1     -32.471   8.521   5.131  1.00 20.00     0.275 C 
HETATM    9  C9  UNL     1     -33.706   6.735   4.117  1.00 20.00     0.221 C 
HETATM   10  N10 UNL     1     -32.860   7.113   5.272  1.00 20.00     0.110 N 
ENDROOT
TORSDOF 0
