REMARK  2 active torsions:
REMARK  status: ('A' for Active; 'I' for Inactive)
REMARK    1  A    between atoms: C3_3  and  C5_5 
REMARK    2  A    between atoms: C3_3  and  O8_8 
ROOT
HETATM    1  C1  UNL     1     -34.599   6.703   5.676  1.00 20.00    -0.005 C 
HETATM    2  C2  UNL     1     -34.487   5.450   6.123  1.00 20.00     0.042 C 
HETATM    3  C4  UNL     1     -34.220   5.520   3.562  1.00 20.00     0.097 C 
HETATM    4  C5  UNL     1     -34.298   6.899   4.223  1.00 20.00     0.118 C 
HETATM    5  S9  UNL     1     -34.013   4.308   4.916  1.00 20.00    -0.141 SA
ENDROOT
BRANCH   4   6
HETATM    6  C3  UNL     1     -32.992   7.628   4.138  1.00 20.00     0.267 C 
HETATM    7  O7  UNL     1     -31.998   7.190   3.575  1.00 20.00    -0.265 OA
BRANCH   6   8
HETATM    8  O8  UNL     1     -33.098   8.828   4.776  1.00 20.00    -0.326 OA
HETATM    9  C6  UNL     1     -31.914   9.633   4.772  1.00 20.00     0.213 C 
ENDBRANCH   6   8
ENDBRANCH   4   6
TORSDOF 2
