REMARK  1 active torsions:
REMARK  status: ('A' for Active; 'I' for Inactive)
REMARK    1  A    between atoms: C1_1  and  C7_7 
ROOT
HETATM    1  C2  UNL     1     -33.009   6.150   3.576  1.00 20.00     0.048 C 
HETATM    2  C3  UNL     1     -33.601   6.373   5.987  1.00 20.00     0.048 C 
HETATM    3  C4  UNL     1     -33.727   4.798   3.566  1.00 20.00     0.273 C 
HETATM    4  C5  UNL     1     -34.300   5.014   5.901  1.00 20.00     0.273 C 
HETATM    5  C6  UNL     1     -35.240   6.391   4.295  1.00 20.00     0.288 C 
HETATM    6  C7  UNL     1     -33.850   6.931   4.585  1.00 20.00     0.042 C 
HETATM    7  N8  UNL     1     -34.859   4.972   4.520  1.00 20.00     0.089 N 
ENDROOT
BRANCH   6   8
HETATM    8  C1  UNL     1     -33.725   8.413   4.488  1.00 20.00     0.242 C 
HETATM    9  O9  UNL     1     -32.665   9.013   4.633  1.00 20.00    -0.306 OA
ENDBRANCH   6   8
TORSDOF 1
