REMARK  0 active torsions:
REMARK  status: ('A' for Active; 'I' for Inactive)
ROOT
HETATM    1  C1  UNL     1     -32.952   3.814   2.885  1.00 20.00     0.015 C 
HETATM    2  C2  UNL     1     -33.202   4.855   3.428  1.00 20.00    -0.076 C 
HETATM    3  C3  UNL     1     -32.505   8.377   4.527  1.00 20.00     0.004 C 
HETATM    4  C4  UNL     1     -33.647   8.627   5.505  1.00 20.00     0.003 C 
HETATM    5  C5  UNL     1     -32.898   7.343   3.474  1.00 20.00     0.055 C 
HETATM    6  C6  UNL     1     -33.948   7.373   6.322  1.00 20.00     0.042 C 
HETATM    7  C7  UNL     1     -33.499   6.099   4.076  1.00 20.00     0.154 A 
HETATM    8  C8  UNL     1     -34.073   6.122   5.493  1.00 20.00     0.102 A 
HETATM    9  C9  UNL     1     -34.301   4.854   6.262  1.00 20.00     0.050 C 
HETATM   10  O10 UNL     1     -34.911   6.248   4.343  1.00 20.00    -0.350 OA
ENDROOT
TORSDOF 0
