REMARK  1 active torsions:
REMARK  status: ('A' for Active; 'I' for Inactive)
REMARK    1  A    between atoms: C6_6  and  N10_10 
ROOT
HETATM    1  C1  UNL     1     -32.506   7.843   1.509  1.00 20.00     0.066 C 
HETATM    2  C2  UNL     1     -33.544   5.581   3.710  1.00 20.00    -0.054 C 
HETATM    3  C3  UNL     1     -33.993   4.660   4.566  1.00 20.00     0.016 C 
HETATM    4  C4  UNL     1     -32.893   5.482   2.345  1.00 20.00     0.057 C 
HETATM    5  C5  UNL     1     -32.409   6.932   2.633  1.00 20.00     0.134 C 
HETATM    6  C6  UNL     1     -33.523   7.094   3.713  1.00 20.00     0.268 C 
HETATM    7  N9  UNL     1     -32.583   8.572   0.610  1.00 20.00    -0.197 NA
ENDROOT
BRANCH   6   8
HETATM    8  N10 UNL     1     -32.909   7.667   4.907  1.00 20.00     0.089 N 
HETATM    9  C7  UNL     1     -33.856   7.665   6.023  1.00 20.00     0.310 C 
HETATM   10  C8  UNL     1     -32.438   9.026   4.641  1.00 20.00     0.310 C 
ENDBRANCH   6   8
TORSDOF 1
