REMARK  1 active torsions:
REMARK  status: ('A' for Active; 'I' for Inactive)
REMARK    1  A    between atoms: C5_5  and  C9_9 
ROOT
HETATM    1  C1  UNL     1     -34.265   4.535   3.822  1.00 20.00    -0.029 C 
HETATM    2  C2  UNL     1     -33.212   4.407   4.653  1.00 20.00    -0.021 C 
HETATM    3  C3  UNL     1     -34.102   5.034   6.865  1.00 20.00    -0.021 C 
HETATM    4  C4  UNL     1     -35.248   5.662   6.549  1.00 20.00    -0.024 C 
HETATM    5  C6  UNL     1     -35.318   5.611   4.031  1.00 20.00     0.036 C 
HETATM    6  C7  UNL     1     -33.053   5.356   5.825  1.00 20.00     0.045 C 
HETATM    7  C8  UNL     1     -35.051   6.481   5.289  1.00 20.00     0.026 C 
HETATM    8  C9  UNL     1     -33.548   6.759   5.432  1.00 20.00     0.106 C 
ENDROOT
BRANCH   8   9
HETATM    9  C5  UNL     1     -32.875   7.392   4.227  1.00 20.00     0.178 C 
HETATM   10  O10 UNL     1     -32.959   6.733   3.155  1.00 20.00    -0.648 OA
HETATM   11  O11 UNL     1     -32.315   8.501   4.455  1.00 20.00    -0.648 OA
ENDBRANCH   8   9
TORSDOF 1
