REMARK  2 active torsions:
REMARK  status: ('A' for Active; 'I' for Inactive)
REMARK    1  A    between atoms: C1_1  and  C5_5 
REMARK    2  A    between atoms: C3_3  and  C6_6 
ROOT
HETATM    1  C1  UNL     1     -32.375   7.550   2.562  1.00 20.00    -0.053 C 
HETATM    2  C2  UNL     1     -32.331   7.817   1.393  1.00 20.00     0.106 C 
HETATM    3  F9  UNL     1     -32.282   8.115   0.090  1.00 20.00    -0.144 F 
ENDROOT
BRANCH   1   4
HETATM    4  C5  UNL     1     -32.428   7.235   3.936  1.00 20.00     0.114 A 
HETATM    5  C6  UNL     1     -33.530   7.438   4.818  1.00 20.00     0.108 A 
HETATM    6  C7  UNL     1     -32.292   8.143   4.899  1.00 20.00     0.186 A 
HETATM    7  F10 UNL     1     -32.165   9.447   4.592  1.00 20.00    -0.235 F 
BRANCH   5   8
HETATM    8  C3  UNL     1     -33.878   6.559   5.705  1.00 20.00    -0.080 C 
HETATM    9  C4  UNL     1     -34.201   5.745   6.526  1.00 20.00     0.272 C 
HETATM   10  O8  UNL     1     -34.516   4.947   7.330  1.00 20.00    -0.274 OA
ENDBRANCH   5   8
ENDBRANCH   1   4
TORSDOF 2
