REMARK  1 active torsions:
REMARK  status: ('A' for Active; 'I' for Inactive)
REMARK    1  A    between atoms: C1_1  and  C8_8 
ROOT
HETATM    1  C2  UNL     1     -34.874   5.378   6.123  1.00 20.00     0.001 C 
HETATM    2  C3  UNL     1     -34.493   4.695   4.820  1.00 20.00     0.001 C 
HETATM    3  C4  UNL     1     -33.796   6.445   6.279  1.00 20.00     0.010 C 
HETATM    4  C5  UNL     1     -34.146   5.864   3.904  1.00 20.00     0.010 C 
HETATM    5  C6  UNL     1     -32.034   7.282   4.549  1.00 20.00     0.023 C 
HETATM    6  C7  UNL     1     -33.864   8.387   4.515  1.00 20.00     0.023 C 
HETATM    7  C8  UNL     1     -32.538   8.489   3.724  1.00 20.00     0.073 C 
HETATM    8  C9  UNL     1     -33.515   6.906   4.844  1.00 20.00    -0.039 C 
ENDROOT
BRANCH   7   9
HETATM    9  C1  UNL     1     -32.603   8.336   2.198  1.00 20.00     0.223 C 
HETATM   10  O10 UNL     1     -32.126   7.360   1.627  1.00 20.00    -0.279 OA
HETATM   11 CL11 UNL     1     -33.409   9.675   1.440  1.00 20.00    -0.043 Cl
ENDBRANCH   7   9
TORSDOF 1
