REMARK  1 active torsions:
REMARK  status: ('A' for Active; 'I' for Inactive)
REMARK    1  A    between atoms: C1_1  and  C3_3 
ROOT
HETATM    1  C2  UNL     1     -34.171   5.324   4.387  1.00 20.00     0.090 C 
HETATM    2  C3  UNL     1     -34.168   8.014   4.512  1.00 20.00     0.195 C 
HETATM    3  C4  UNL     1     -34.532   5.657   5.828  1.00 20.00     0.054 C 
HETATM    4  C5  UNL     1     -33.914   4.667   6.807  1.00 20.00     0.022 C 
HETATM    5  S7  UNL     1     -34.695   6.723   3.365  1.00 20.00    -0.143 SA
HETATM    6  S8  UNL     1     -33.925   7.341   6.174  1.00 20.00    -0.139 SA
ENDROOT
BRANCH   2   7
HETATM    7  C1  UNL     1     -32.870   8.569   4.036  1.00 20.00     0.242 C 
HETATM    8  O6  UNL     1     -31.855   8.520   4.725  1.00 20.00    -0.278 OA
HETATM    9 CL9  UNL     1     -32.997   9.259   2.447  1.00 20.00    -0.042 Cl
ENDBRANCH   2   7
TORSDOF 1
