REMARK  1 active torsions:
REMARK  status: ('A' for Active; 'I' for Inactive)
REMARK    1  A    between atoms: C3_3  and  C7_7 
ROOT
HETATM    1  C1  UNL     1     -33.936   4.892   3.669  1.00 20.00    -0.029 C 
HETATM    2  C2  UNL     1     -34.787   4.903   4.704  1.00 20.00    -0.026 C 
HETATM    3  C4  UNL     1     -32.984   6.012   3.374  1.00 20.00     0.039 C 
HETATM    4  C5  UNL     1     -33.645   6.970   5.614  1.00 20.00     0.020 C 
HETATM    5  C6  UNL     1     -34.859   6.027   5.707  1.00 20.00     0.004 C 
HETATM    6  C7  UNL     1     -33.303   7.291   4.158  1.00 20.00     0.059 C 
HETATM    7  C9  UNL     1     -34.991   5.481   7.129  1.00 20.00     0.014 C 
ENDROOT
BRANCH   6   8
HETATM    8  C3  UNL     1     -32.130   8.219   4.096  1.00 20.00     0.127 C 
HETATM    9  C8  UNL     1     -32.279   9.545   4.792  1.00 20.00     0.091 C 
HETATM   10  O10 UNL     1     -31.094   7.912   3.507  1.00 20.00    -0.298 OA
ENDBRANCH   6   8
TORSDOF 1
