REMARK  2 active torsions:
REMARK  status: ('A' for Active; 'I' for Inactive)
REMARK    1  A    between atoms: C4_4  and  O11_11 
REMARK    2  A    between atoms: C10_10  and  O11_11 
ROOT
HETATM    1  C1  UNL     1     -32.328   8.687   0.323  1.00 20.00     0.014 C 
HETATM    2  C2  UNL     1     -32.391   8.335   1.469  1.00 20.00    -0.091 C 
HETATM    3  C10 UNL     1     -32.467   7.909   2.867  1.00 20.00     0.268 C 
ENDROOT
BRANCH   3   4
HETATM    4  O11 UNL     1     -33.245   6.743   2.984  1.00 20.00    -0.344 OA
BRANCH   4   5
HETATM    5  C4  UNL     1     -33.714   6.546   4.268  1.00 20.00     0.047 C 
HETATM    6  C3  UNL     1     -33.436   7.399   5.268  1.00 20.00     0.006 C 
HETATM    7  C5  UNL     1     -33.941   7.225   6.669  1.00 20.00     0.029 C 
HETATM    8  C6  UNL     1     -34.560   5.851   6.930  1.00 20.00     0.004 C 
HETATM    9  C7  UNL     1     -35.406   5.387   5.746  1.00 20.00     0.011 C 
HETATM   10  C8  UNL     1     -34.590   5.328   4.440  1.00 20.00     0.038 C 
HETATM   11  C9  UNL     1     -33.744   4.052   4.371  1.00 20.00     0.017 C 
ENDBRANCH   4   5
ENDBRANCH   3   4
TORSDOF 2
