REMARK  1 active torsions:
REMARK  status: ('A' for Active; 'I' for Inactive)
REMARK    1  A    between atoms: C1_1  and  C7_7 
ROOT
HETATM    1  C1  UNL     1     -32.900   6.877   3.096  1.00 20.00    -0.057 C 
HETATM    2  C2  UNL     1     -32.366   7.203   2.072  1.00 20.00     0.276 C 
HETATM    3  O10 UNL     1     -31.842   7.522   1.069  1.00 20.00    -0.274 OA
ENDROOT
BRANCH   1   4
HETATM    4  C7  UNL     1     -33.481   6.523   4.209  1.00 20.00     0.023 A 
HETATM    5  C5  UNL     1     -33.882   5.128   4.377  1.00 20.00     0.021 A 
HETATM    6  C3  UNL     1     -34.483   4.734   5.514  1.00 20.00     0.002 A 
HETATM    7  C4  UNL     1     -34.750   5.667   6.595  1.00 20.00     0.001 A 
HETATM    8  C6  UNL     1     -34.410   6.965   6.510  1.00 20.00     0.012 A 
HETATM    9  C8  UNL     1     -33.749   7.481   5.305  1.00 20.00    -0.027 A 
HETATM   10  C9  UNL     1     -33.421   8.785   5.247  1.00 20.00     0.025 C 
ENDBRANCH   1   4
TORSDOF 1
