REMARK  3 active torsions:
REMARK  status: ('A' for Active; 'I' for Inactive)
REMARK    1  A    between atoms: C1_1  and  C2_2 
REMARK    2  A    between atoms: C4_4  and  C9_9 
REMARK    3  A    between atoms: C5_5  and  C9_9 
ROOT
HETATM    1  C2  UNL     1     -32.534   6.613   3.019  1.00 20.00    -0.004 C 
HETATM    2  C4  UNL     1     -33.722   6.525   3.635  1.00 20.00    -0.015 C 
ENDROOT
BRANCH   2   3
HETATM    3  C9  UNL     1     -33.950   5.726   4.891  1.00 20.00     0.073 C 
HETATM    4  C8  UNL     1     -35.007   4.648   4.679  1.00 20.00     0.022 C 
BRANCH   3   5
HETATM    5  C5  UNL     1     -34.386   6.666   6.013  1.00 20.00     0.130 C 
HETATM    6  C7  UNL     1     -33.881   8.085   5.937  1.00 20.00     0.091 C 
HETATM    7  O10 UNL     1     -35.082   6.296   6.959  1.00 20.00    -0.298 OA
ENDBRANCH   3   5
ENDBRANCH   2   3
BRANCH   1   8
HETATM    8  C1  UNL     1     -32.323   7.383   1.814  1.00 20.00    -0.005 C 
HETATM    9  C3  UNL     1     -32.882   8.584   1.605  1.00 20.00    -0.031 C 
HETATM   10  C6  UNL     1     -32.673   9.390   0.365  1.00 20.00     0.036 C 
ENDBRANCH   1   8
TORSDOF 3
