REMARK  1 active torsions:
REMARK  status: ('A' for Active; 'I' for Inactive)
REMARK    1  A    between atoms: C3_3  and  C7_7 
ROOT
HETATM    1  C1  UNL     1     -33.612   6.463   6.560  1.00 20.00    -0.023 C 
HETATM    2  C2  UNL     1     -33.536   7.099   5.377  1.00 20.00    -0.075 C 
HETATM    3  C4  UNL     1     -34.219   5.105   6.744  1.00 20.00     0.027 C 
HETATM    4  C5  UNL     1     -34.445   4.353   5.434  1.00 20.00     0.005 C 
HETATM    5  C6  UNL     1     -34.993   5.274   4.345  1.00 20.00     0.018 C 
HETATM    6  C7  UNL     1     -34.093   6.495   4.110  1.00 20.00     0.100 C 
HETATM    7  C8  UNL     1     -32.936   8.474   5.268  1.00 20.00     0.044 C 
ENDROOT
BRANCH   6   8
HETATM    8  C3  UNL     1     -32.929   6.118   3.239  1.00 20.00     0.227 C 
HETATM    9  O9  UNL     1     -32.430   4.997   3.277  1.00 20.00    -0.279 OA
HETATM   10 CL10 UNL     1     -32.420   7.432   2.223  1.00 20.00    -0.043 Cl
ENDBRANCH   6   8
TORSDOF 1
