REMARK  1 active torsions:
REMARK  status: ('A' for Active; 'I' for Inactive)
REMARK    1  A    between atoms: C10_10  and  O11_11 
ROOT
HETATM    1  C1  UNL     1     -33.332   5.231   2.282  1.00 20.00     0.012 C 
HETATM    2  C2  UNL     1     -33.648   6.232   6.338  1.00 20.00     0.015 C 
HETATM    3  C3  UNL     1     -32.650   6.076   2.794  1.00 20.00    -0.108 C 
HETATM    4  C4  UNL     1     -33.160   6.975   5.531  1.00 20.00    -0.078 C 
HETATM    5  C5  UNL     1     -32.347   9.004   1.788  1.00 20.00     0.002 C 
HETATM    6  C6  UNL     1     -33.078   9.761   2.891  1.00 20.00     0.004 C 
HETATM    7  C7  UNL     1     -31.268   8.077   2.350  1.00 20.00     0.021 C 
HETATM    8  C8  UNL     1     -33.639   8.818   3.958  1.00 20.00     0.053 C 
HETATM    9  C9  UNL     1     -31.808   7.116   3.425  1.00 20.00     0.111 C 
HETATM   10  C10 UNL     1     -32.559   7.888   4.539  1.00 20.00     0.134 C 
ENDROOT
BRANCH  10  11
HETATM   11  O11 UNL     1     -31.614   8.719   5.226  1.00 20.00    -0.376 OA
HETATM   12  H23 UNL     1     -30.956   8.121   5.610  1.00 20.00     0.211 HD
ENDBRANCH  10  11
TORSDOF 1
