REMARK  1 active torsions:
REMARK  status: ('A' for Active; 'I' for Inactive)
REMARK    1  A    between atoms: C2_2  and  C6_6 
ROOT
HETATM    1  C3  UNL     1     -34.104   4.216   4.932  1.00 20.00     0.031 C 
HETATM    2  C4  UNL     1     -34.254   4.857   6.315  1.00 20.00     0.032 C 
HETATM    3  C5  UNL     1     -33.214   6.388   3.996  1.00 20.00     0.040 C 
HETATM    4  C6  UNL     1     -33.307   7.012   5.404  1.00 20.00     0.042 C 
HETATM    5  C7  UNL     1     -34.297   5.306   3.870  1.00 20.00     0.131 C 
HETATM    6  C8  UNL     1     -34.506   6.360   6.128  1.00 20.00     0.139 C 
HETATM    7  N10 UNL     1     -35.604   5.958   4.127  1.00 20.00    -0.192 NA
HETATM    8  N11 UNL     1     -35.708   6.497   5.263  1.00 20.00    -0.192 NA
ENDROOT
BRANCH   4   9
HETATM    9  C2  UNL     1     -33.422   8.506   5.349  1.00 20.00    -0.087 C 
HETATM   10  C1  UNL     1     -34.471   9.156   5.873  1.00 20.00     0.014 C 
HETATM   11  C9  UNL     1     -32.295   9.231   4.675  1.00 20.00     0.043 C 
ENDBRANCH   4   9
TORSDOF 1
