REMARK  3 active torsions:
REMARK  status: ('A' for Active; 'I' for Inactive)
REMARK    1  A    between atoms: C1_1  and  C7_7 
REMARK    2  A    between atoms: C1_1  and  N8_8 
REMARK    3  A    between atoms: C6_6  and  N8_8 
ROOT
HETATM    1  C1  UNL     1     -33.891   6.536   4.270  1.00 20.00     0.078 C 
HETATM    2  S9  UNL     1     -35.523   6.067   4.314  1.00 20.00    -0.065 SA
ENDROOT
BRANCH   1   3
HETATM    3  C7  UNL     1     -33.303   7.349   5.456  1.00 20.00     0.039 C 
HETATM    4  C3  UNL     1     -33.473   8.852   5.220  1.00 20.00     0.017 C 
HETATM    5  C4  UNL     1     -33.861   6.956   6.829  1.00 20.00     0.017 C 
ENDBRANCH   1   3
BRANCH   1   6
HETATM    6  N8  UNL     1     -33.028   6.275   3.190  1.00 20.00    -0.380 N 
HETATM    7  C5  UNL     1     -33.134   5.085   2.346  1.00 20.00     0.150 C 
BRANCH   6   8
HETATM    8  C6  UNL     1     -31.927   7.167   2.817  1.00 20.00     0.118 C 
HETATM    9  C2  UNL     1     -32.367   8.172   1.808  1.00 20.00     0.026 C 
ENDBRANCH   6   8
ENDBRANCH   1   6
TORSDOF 3
