REMARK  1 active torsions:
REMARK  status: ('A' for Active; 'I' for Inactive)
REMARK    1  A    between atoms: C5_5  and  C6_6 
ROOT
HETATM    1  C1  UNL     1     -35.209   5.754   5.471  1.00 20.00    -0.003 A 
HETATM    2  C2  UNL     1     -34.307   6.023   6.570  1.00 20.00    -0.003 A 
HETATM    3  C3  UNL     1     -34.710   6.341   4.368  1.00 20.00    -0.012 A 
HETATM    4  C4  UNL     1     -33.287   6.765   6.101  1.00 20.00    -0.012 A 
HETATM    5  C6  UNL     1     -32.265   7.047   3.732  1.00 20.00     0.073 A 
HETATM    6  C7  UNL     1     -33.446   7.045   4.660  1.00 20.00     0.013 A 
HETATM    7  C8  UNL     1     -33.030   8.342   4.004  1.00 20.00    -0.021 A 
HETATM    8  C9  UNL     1     -32.324   9.398   4.826  1.00 20.00     0.017 C 
HETATM    9  C10 UNL     1     -33.903   8.940   2.924  1.00 20.00     0.017 C 
ENDROOT
BRANCH   5  10
HETATM   10  C5  UNL     1     -32.328   6.399   2.414  1.00 20.00     0.237 C 
HETATM   11  O11 UNL     1     -32.643   5.225   2.252  1.00 20.00    -0.306 OA
ENDBRANCH   5  10
TORSDOF 1
