REMARK  0 active torsions:
REMARK  status: ('A' for Active; 'I' for Inactive)
ROOT
HETATM    1  C1  UNL     1     -32.557   7.241   2.825  1.00 20.00     0.066 C 
HETATM    2  C2  UNL     1     -34.046   5.095   6.390  1.00 20.00     0.031 C 
HETATM    3  C3  UNL     1     -34.674   4.981   4.998  1.00 20.00     0.009 C 
HETATM    4  C4  UNL     1     -34.177   6.510   6.969  1.00 20.00     0.272 C 
HETATM    5  C5  UNL     1     -32.669   7.476   5.299  1.00 20.00     0.292 C 
HETATM    6  C6  UNL     1     -34.955   7.452   4.902  1.00 20.00     0.278 C 
HETATM    7  C7  UNL     1     -32.905   6.560   4.083  1.00 20.00     0.127 C 
HETATM    8  C8  UNL     1     -34.410   6.241   4.151  1.00 20.00     0.033 C 
HETATM    9  N9  UNL     1     -32.282   7.778   1.833  1.00 20.00    -0.197 NA
HETATM   10  N10 UNL     1     -33.973   7.600   5.991  1.00 20.00     0.090 N 
ENDROOT
TORSDOF 0
