REMARK  2 active torsions:
REMARK  status: ('A' for Active; 'I' for Inactive)
REMARK    1  A    between atoms: C3_3  and  C8_8 
REMARK    2  A    between atoms: C8_8  and  C10_10 
ROOT
HETATM    1  C1  UNL     1     -35.179   6.086   5.686  1.00 20.00    -0.026 C 
HETATM    2  C2  UNL     1     -33.907   5.715   5.888  1.00 20.00    -0.024 C 
HETATM    3  C4  UNL     1     -34.469   5.016   3.770  1.00 20.00     0.018 C 
HETATM    4  C5  UNL     1     -34.612   7.392   3.655  1.00 20.00     0.025 C 
HETATM    5  C6  UNL     1     -35.388   6.165   4.194  1.00 20.00     0.010 C 
HETATM    6  C7  UNL     1     -33.256   5.577   4.525  1.00 20.00     0.024 C 
HETATM    7  C8  UNL     1     -33.116   6.992   3.887  1.00 20.00     0.020 C 
ENDROOT
BRANCH   7   8
HETATM    8  C3  UNL     1     -32.419   7.961   4.806  1.00 20.00     0.241 C 
HETATM    9  O11 UNL     1     -32.970   8.938   5.302  1.00 20.00    -0.306 OA
ENDBRANCH   7   8
BRANCH   7  10
HETATM   10  C10 UNL     1     -32.321   6.970   2.579  1.00 20.00     0.013 C 
HETATM   11  C9  UNL     1     -32.271   8.321   1.946  1.00 20.00     0.006 C 
ENDBRANCH   7  10
TORSDOF 2
