REMARK  1 active torsions:
REMARK  status: ('A' for Active; 'I' for Inactive)
REMARK    1  A    between atoms: C1_1  and  C8_8 
ROOT
HETATM    1  C2  UNL     1     -32.221   7.660   4.818  1.00 20.00     0.013 A 
HETATM    2  C3  UNL     1     -34.246   8.094   4.182  1.00 20.00     0.013 A 
HETATM    3  C4  UNL     1     -33.141   6.479   3.252  1.00 20.00     0.013 A 
HETATM    4  C5  UNL     1     -32.953   8.909   4.311  1.00 20.00     0.006 A 
HETATM    5  C6  UNL     1     -31.845   7.290   3.378  1.00 20.00     0.006 A 
HETATM    6  C7  UNL     1     -33.876   7.725   2.740  1.00 20.00     0.006 A 
HETATM    7  C8  UNL     1     -33.515   6.847   4.692  1.00 20.00     0.033 A 
HETATM    8  C9  UNL     1     -32.575   8.546   2.859  1.00 20.00    -0.031 A 
HETATM    9  C11 UNL     1     -32.052   9.493   1.839  1.00 20.00     0.016 C 
ENDROOT
BRANCH   7  10
HETATM   10  C1  UNL     1     -34.044   5.897   5.721  1.00 20.00     0.133 C 
HETATM   11  C10 UNL     1     -34.353   6.471   7.077  1.00 20.00     0.091 C 
HETATM   12  O12 UNL     1     -34.220   4.706   5.469  1.00 20.00    -0.297 OA
ENDBRANCH   7  10
TORSDOF 1
