REMARK  2 active torsions:
REMARK  status: ('A' for Active; 'I' for Inactive)
REMARK    1  A    between atoms: C2_2  and  C5_5 
REMARK    2  A    between atoms: C3_3  and  C6_6 
REMARK       I    between atoms: C3_3  and  N9_9 
ROOT
HETATM    1  C4  UNL     1     -32.602   4.839   3.241  1.00 20.00     0.024 A 
HETATM    2  C5  UNL     1     -32.966   5.835   2.175  1.00 20.00     0.021 A 
HETATM    3  C6  UNL     1     -33.825   5.669   3.380  1.00 20.00     0.086 A 
ENDROOT
BRANCH   3   4
HETATM    4  C3  UNL     1     -33.840   6.733   4.450  1.00 20.00     0.224 C 
HETATM    5  N9  UNL     1     -34.173   6.318   5.740  1.00 20.00    -0.360 N 
HETATM    6  C7  UNL     1     -34.225   7.241   6.866  1.00 20.00     0.152 C 
HETATM    7  C8  UNL     1     -34.492   4.928   6.056  1.00 20.00     0.152 C 
HETATM    8  O10 UNL     1     -33.565   7.896   4.146  1.00 20.00    -0.273 OA
ENDBRANCH   3   4
BRANCH   2   9
HETATM    9  C2  UNL     1     -32.119   7.003   1.986  1.00 20.00    -0.031 C 
HETATM   10  C1  UNL     1     -32.272   7.886   0.993  1.00 20.00     0.007 C 
ENDBRANCH   2   9
TORSDOF 2
