REMARK  0 active torsions:
REMARK  status: ('A' for Active; 'I' for Inactive)
ROOT
HETATM    1  C1  UNL     1     -33.443   6.680   6.207  1.00 20.00     0.459 C 
HETATM    2  C2  UNL     1     -33.481   7.357   4.036  1.00 20.00     0.090 C 
HETATM    3  C3  UNL     1     -34.030   5.919   4.145  1.00 20.00     0.090 C 
HETATM    4  C4  UNL     1     -34.274   8.282   3.114  1.00 20.00     0.049 C 
HETATM    5  C5  UNL     1     -31.991   7.433   3.660  1.00 20.00     0.049 C 
HETATM    6  C6  UNL     1     -35.564   5.835   4.223  1.00 20.00     0.049 C 
HETATM    7  C7  UNL     1     -33.535   4.955   3.068  1.00 20.00     0.049 C 
HETATM    8  O8  UNL     1     -33.599   7.839   5.387  1.00 20.00    -0.322 OA
HETATM    9  O9  UNL     1     -33.513   5.490   5.419  1.00 20.00    -0.322 OA
HETATM   10  F10 UNL     1     -34.471   6.656   7.093  1.00 20.00    -0.189 F 
ENDROOT
TORSDOF 0
