REMARK  1 active torsions:
REMARK  status: ('A' for Active; 'I' for Inactive)
REMARK    1  A    between atoms: C3_3  and  C4_4 
ROOT
HETATM    1  C1  UNL     1     -34.183   6.664   5.898  1.00 20.00     0.142 A 
HETATM    2  C2  UNL     1     -33.271   7.610   4.014  1.00 20.00     0.087 A 
HETATM    3  C3  UNL     1     -33.708   6.430   4.576  1.00 20.00     0.052 A 
HETATM    4  N5  UNL     1     -34.131   7.915   6.351  1.00 20.00    -0.223 NA
HETATM    5  S7  UNL     1     -33.487   8.870   5.153  1.00 20.00    -0.000 SA
ENDROOT
BRANCH   3   6
HETATM    6  C4  UNL     1     -33.673   5.167   3.892  1.00 20.00     0.254 C 
HETATM    7  O6  UNL     1     -34.091   4.132   4.472  1.00 20.00    -0.274 OA
HETATM    8 CL8  UNL     1     -33.047   5.016   2.230  1.00 20.00    -0.038 Cl
ENDBRANCH   3   6
TORSDOF 1
