REMARK  2 active torsions:
REMARK  status: ('A' for Active; 'I' for Inactive)
REMARK    1  A    between atoms: C3_3  and  C5_5 
REMARK    2  A    between atoms: C4_4  and  C9_9 
ROOT
HETATM    1  C1  UNL     1     -33.514   7.756   5.802  1.00 20.00     0.005 C 
HETATM    2  C2  UNL     1     -33.348   8.779   4.973  1.00 20.00     0.132 C 
HETATM    3  C4  UNL     1     -33.054   6.514   5.127  1.00 20.00     0.050 C 
HETATM    4  C5  UNL     1     -32.375   7.119   3.883  1.00 20.00     0.204 C 
HETATM    5  O11 UNL     1     -32.800   8.488   3.743  1.00 20.00    -0.350 OA
ENDROOT
BRANCH   3   6
HETATM    6  C9  UNL     1     -34.218   5.566   4.864  1.00 20.00    -0.012 C 
HETATM    7  C7  UNL     1     -34.556   4.761   6.120  1.00 20.00     0.010 C 
HETATM    8  C8  UNL     1     -35.447   6.336   4.379  1.00 20.00     0.010 C 
ENDBRANCH   3   6
BRANCH   4   9
HETATM    9  C3  UNL     1     -32.685   6.439   2.588  1.00 20.00     0.152 C 
HETATM   10  C6  UNL     1     -33.408   7.255   1.551  1.00 20.00     0.093 C 
HETATM   11  O10 UNL     1     -32.363   5.270   2.379  1.00 20.00    -0.296 OA
ENDBRANCH   4   9
TORSDOF 2
