REMARK  2 active torsions:
REMARK  status: ('A' for Active; 'I' for Inactive)
REMARK    1  A    between atoms: C1_1  and  C2_2 
REMARK    2  A    between atoms: N7_7  and  O8_8 
ROOT
HETATM    1  C2  UNL     1     -33.776   7.337   2.923  1.00 20.00     0.115 A 
HETATM    2  C3  UNL     1     -33.122   8.568   3.551  1.00 20.00     0.033 A 
HETATM    3  C4  UNL     1     -32.386   7.730   2.558  1.00 20.00     0.260 A 
HETATM    4  C5  UNL     1     -32.664   8.523   4.985  1.00 20.00     0.022 C 
HETATM    5  C6  UNL     1     -33.620   9.917   3.107  1.00 20.00     0.022 C 
HETATM    6  F9  UNL     1     -32.113   8.206   1.294  1.00 20.00    -0.205 F 
HETATM    7  F10 UNL     1     -31.311   6.957   2.938  1.00 20.00    -0.205 F 
ENDROOT
BRANCH   1   8
HETATM    8  C1  UNL     1     -34.006   6.123   3.716  1.00 20.00     0.130 C 
HETATM    9  N7  UNL     1     -35.081   5.987   4.418  1.00 20.00    -0.152 NA
BRANCH   9  10
HETATM   10  O8  UNL     1     -35.035   4.748   5.062  1.00 20.00    -0.267 OA
HETATM   11  H19 UNL     1     -35.875   4.751   5.551  1.00 20.00     0.247 HD
ENDBRANCH   9  10
ENDBRANCH   1   8
TORSDOF 2
