REMARK  1 active torsions:
REMARK  status: ('A' for Active; 'I' for Inactive)
REMARK    1  A    between atoms: C1_1  and  C3_3 
REMARK       I    between atoms: C3_3  and  N8_8 
ROOT
HETATM    1  C3  UNL     1     -32.649   6.808   3.725  1.00 20.00     0.243 C 
HETATM    2  C4  UNL     1     -33.802   8.275   5.523  1.00 20.00     0.151 A 
HETATM    3  C5  UNL     1     -33.464   6.855   6.160  1.00 20.00     0.101 A 
HETATM    4  C7  UNL     1     -34.544   5.879   6.453  1.00 20.00     0.034 C 
HETATM    5  N8  UNL     1     -33.202   7.230   4.868  1.00 20.00    -0.341 N 
HETATM    6  O9  UNL     1     -32.185   5.689   3.531  1.00 20.00    -0.268 OA
ENDROOT
BRANCH   1   7
HETATM    7  C1  UNL     1     -32.627   7.819   2.653  1.00 20.00     0.070 C 
HETATM    8  C2  UNL     1     -32.117   7.593   1.435  1.00 20.00    -0.026 C 
HETATM    9  C6  UNL     1     -32.089   8.615   0.347  1.00 20.00     0.036 C 
ENDBRANCH   1   7
TORSDOF 1
