REMARK  1 active torsions:
REMARK  status: ('A' for Active; 'I' for Inactive)
REMARK    1  A    between atoms: C3_3  and  C7_7 
ROOT
HETATM    1  C1  UNL     1     -33.958   4.381   4.641  1.00 20.00    -0.023 C 
HETATM    2  C2  UNL     1     -34.660   4.620   5.761  1.00 20.00    -0.015 C 
HETATM    3  C4  UNL     1     -35.358   6.168   4.193  1.00 20.00     0.029 C 
HETATM    4  C5  UNL     1     -33.966   5.643   3.803  1.00 20.00     0.029 C 
HETATM    5  C6  UNL     1     -35.186   6.030   5.704  1.00 20.00     0.071 C 
HETATM    6  C7  UNL     1     -32.960   6.649   4.400  1.00 20.00     0.116 C 
HETATM    7  S9  UNL     1     -33.761   7.153   5.980  1.00 20.00    -0.148 SA
ENDROOT
BRANCH   6   8
HETATM    8  C3  UNL     1     -32.780   7.866   3.554  1.00 20.00     0.246 C 
HETATM    9  O8  UNL     1     -32.608   8.990   4.015  1.00 20.00    -0.306 OA
ENDBRANCH   6   8
TORSDOF 1
