REMARK  0 active torsions:
REMARK  status: ('A' for Active; 'I' for Inactive)
ROOT
HETATM    1  C1  UNL     1     -33.385   5.302   3.480  1.00 20.00     0.110 A 
HETATM    2  C2  UNL     1     -34.024   5.481   4.694  1.00 20.00     0.007 A 
HETATM    3  C3  UNL     1     -34.011   6.840   5.086  1.00 20.00     0.002 A 
HETATM    4  C4  UNL     1     -33.362   7.463   4.098  1.00 20.00     0.048 A 
HETATM    5  C5  UNL     1     -34.702   4.743   5.700  1.00 20.00     0.124 A 
HETATM    6  C6  UNL     1     -32.753   8.479   3.300  1.00 20.00     0.048 A 
HETATM    7  C7  UNL     1     -32.422   7.505   2.403  1.00 20.00     0.099 A 
HETATM    8  C8  UNL     1     -34.698   6.960   6.368  1.00 20.00     0.190 A 
HETATM    9  N9  UNL     1     -35.107   5.517   6.672  1.00 20.00    -0.296 NA
HETATM   10  N10 UNL     1     -33.012   6.562   3.188  1.00 20.00    -0.331 N 
ENDROOT
TORSDOF 0
