REMARK  1 active torsions:
REMARK  status: ('A' for Active; 'I' for Inactive)
REMARK    1  A    between atoms: C9_9  and  N10_10 
ROOT
HETATM    1  C1  UNL     1     -32.328   7.749   1.674  1.00 20.00     0.072 A 
HETATM    2  C2  UNL     1     -32.554   8.932   2.253  1.00 20.00    -0.002 A 
HETATM    3  C5  UNL     1     -32.516   6.719   2.714  1.00 20.00     0.243 A 
HETATM    4  C8  UNL     1     -32.905   8.820   3.695  1.00 20.00     0.154 A 
HETATM    5  N10 UNL     1     -32.853   7.391   3.880  1.00 20.00    -0.340 N 
HETATM    6  O11 UNL     1     -32.386   5.523   2.519  1.00 20.00    -0.268 OA
ENDROOT
BRANCH   5   7
HETATM    7  C9  UNL     1     -33.119   6.736   5.131  1.00 20.00     0.094 C 
HETATM    8  C6  UNL     1     -33.472   7.723   6.250  1.00 20.00     0.052 C 
HETATM    9  C3  UNL     1     -34.491   6.973   7.041  1.00 20.00    -0.029 C 
HETATM   10  C4  UNL     1     -34.941   5.900   6.384  1.00 20.00    -0.029 C 
HETATM   11  C7  UNL     1     -34.296   5.757   5.046  1.00 20.00     0.052 C 
ENDBRANCH   5   7
TORSDOF 1
