REMARK  2 active torsions:
REMARK  status: ('A' for Active; 'I' for Inactive)
REMARK    1  A    between atoms: C6_6  and  C9_9 
REMARK    2  A    between atoms: C9_9  and  N10_10 
ROOT
HETATM    1  C1  UNL     1     -34.360   6.368   6.025  1.00 20.00     0.006 C 
HETATM    2  C2  UNL     1     -34.012   7.621   6.352  1.00 20.00     0.004 C 
HETATM    3  C3  UNL     1     -34.032   5.816   4.722  1.00 20.00    -0.040 C 
HETATM    4  C4  UNL     1     -34.493   4.621   4.325  1.00 20.00     0.020 C 
HETATM    5  C7  UNL     1     -33.319   8.542   5.382  1.00 20.00     0.300 C 
HETATM    6  C8  UNL     1     -33.135   6.670   3.849  1.00 20.00     0.310 C 
HETATM    7  N10 UNL     1     -33.453   8.102   3.981  1.00 20.00     0.099 N 
ENDROOT
BRANCH   7   8
HETATM    8  C9  UNL     1     -32.614   8.913   3.101  1.00 20.00     0.299 C 
BRANCH   8   9
HETATM    9  C6  UNL     1     -33.122   8.787   1.702  1.00 20.00    -0.007 C 
HETATM   10  C5  UNL     1     -32.390   8.328   0.681  1.00 20.00     0.008 C 
ENDBRANCH   8   9
ENDBRANCH   7   8
TORSDOF 2
