REMARK  1 active torsions:
REMARK  status: ('A' for Active; 'I' for Inactive)
REMARK    1  A    between atoms: C3_3  and  C4_4 
ROOT
HETATM    1  C1  UNL     1     -33.760   5.354   3.677  1.00 20.00     0.012 A 
HETATM    2  C2  UNL     1     -32.751   5.563   2.835  1.00 20.00     0.003 A 
HETATM    3  C4  UNL     1     -34.087   6.612   4.385  1.00 20.00     0.231 A 
HETATM    4  C5  UNL     1     -32.311   6.981   2.917  1.00 20.00     0.141 A 
HETATM    5  C6  UNL     1     -32.414   7.714   1.590  1.00 20.00     0.044 C 
HETATM    6  O8  UNL     1     -33.200   7.610   3.866  1.00 20.00    -0.364 OA
ENDROOT
BRANCH   3   7
HETATM    7  C3  UNL     1     -33.796   6.452   5.841  1.00 20.00     0.251 C 
HETATM    8  O7  UNL     1     -33.377   7.384   6.522  1.00 20.00    -0.277 OA
HETATM    9 CL9  UNL     1     -34.121   4.839   6.400  1.00 20.00    -0.041 Cl
ENDBRANCH   3   7
TORSDOF 1
