REMARK  1 active torsions:
REMARK  status: ('A' for Active; 'I' for Inactive)
REMARK    1  A    between atoms: C7_7  and  O11_11 
ROOT
HETATM    1  C1  UNL     1     -34.409   5.513   6.595  1.00 20.00    -0.029 C 
HETATM    2  C2  UNL     1     -33.279   4.857   3.296  1.00 20.00    -0.022 C 
HETATM    3  C3  UNL     1     -32.782   6.060   3.000  1.00 20.00     0.002 C 
HETATM    4  C4  UNL     1     -34.743   6.626   5.936  1.00 20.00    -0.018 C 
HETATM    5  C5  UNL     1     -34.030   4.396   5.681  1.00 20.00     0.036 C 
HETATM    6  C6  UNL     1     -34.394   4.930   4.289  1.00 20.00     0.026 C 
HETATM    7  C7  UNL     1     -33.456   7.161   3.757  1.00 20.00     0.155 C 
HETATM    8  C8  UNL     1     -34.657   6.457   4.446  1.00 20.00     0.010 C 
HETATM    9  C9  UNL     1     -35.978   6.849   3.772  1.00 20.00     0.023 C 
ENDROOT
BRANCH   7  10
HETATM   10  O11 UNL     1     -32.532   7.736   4.671  1.00 20.00    -0.386 OA
HETATM   11  C10 UNL     1     -32.936   9.038   5.080  1.00 20.00     0.202 C 
ENDBRANCH   7  10
TORSDOF 1
