REMARK  1 active torsions:
REMARK  status: ('A' for Active; 'I' for Inactive)
REMARK    1  A    between atoms: C8_8  and  C9_9 
ROOT
HETATM    1  C1  UNL     1     -34.518   5.549   4.360  1.00 20.00     0.008 A 
HETATM    2  C2  UNL     1     -33.727   7.439   2.882  1.00 20.00     0.026 A 
HETATM    3  C3  UNL     1     -32.661   8.784   4.421  1.00 20.00     0.026 A 
HETATM    4  C4  UNL     1     -34.505   5.136   5.640  1.00 20.00    -0.022 A 
HETATM    5  C5  UNL     1     -33.183   7.215   6.335  1.00 20.00    -0.011 A 
HETATM    6  C6  UNL     1     -33.870   6.791   4.051  1.00 20.00    -0.026 A 
HETATM    7  C7  UNL     1     -33.207   7.610   5.056  1.00 20.00    -0.029 A 
HETATM    8  C8  UNL     1     -32.981   8.666   3.121  1.00 20.00     0.003 A 
HETATM    9  C10 UNL     1     -33.841   5.916   6.765  1.00 20.00     0.055 A 
ENDROOT
BRANCH   8  10
HETATM   10  C9  UNL     1     -32.625   9.637   2.102  1.00 20.00     0.269 C 
HETATM   11  O11 UNL     1     -32.928   9.507   0.915  1.00 20.00    -0.301 OA
ENDBRANCH   8  10
TORSDOF 1
