REMARK  2 active torsions:
REMARK  status: ('A' for Active; 'I' for Inactive)
REMARK    1  A    between atoms: C3_3  and  C6_6 
REMARK    2  A    between atoms: C3_3  and  O10_10 
ROOT
HETATM    1  C1  UNL     1     -33.828   6.298   4.522  1.00 20.00    -0.023 C 
HETATM    2  C2  UNL     1     -33.469   7.282   5.354  1.00 20.00    -0.087 C 
HETATM    3  C4  UNL     1     -32.898   6.178   3.360  1.00 20.00     0.042 C 
HETATM    4  C5  UNL     1     -32.235   7.988   4.882  1.00 20.00     0.048 C 
HETATM    5  C6  UNL     1     -32.039   7.443   3.463  1.00 20.00     0.093 C 
HETATM    6  C7  UNL     1     -34.139   7.667   6.623  1.00 20.00     0.043 C 
ENDROOT
BRANCH   5   7
HETATM    7  C3  UNL     1     -32.482   8.450   2.441  1.00 20.00     0.263 C 
HETATM    8  O9  UNL     1     -32.910   9.563   2.717  1.00 20.00    -0.265 OA
BRANCH   7   9
HETATM    9  O10 UNL     1     -32.331   7.928   1.191  1.00 20.00    -0.326 OA
HETATM   10  C8  UNL     1     -32.718   8.788   0.115  1.00 20.00     0.213 C 
ENDBRANCH   7   9
ENDBRANCH   5   7
TORSDOF 2
