REMARK  0 active torsions:
REMARK  status: ('A' for Active; 'I' for Inactive)
ROOT
HETATM    1  C1  UNL     1     -33.584   7.328   4.565  1.00 20.00     0.169 C 
HETATM    2  C2  UNL     1     -33.193   5.554   3.444  1.00 20.00     0.062 C 
HETATM    3  C3  UNL     1     -32.438   6.896   3.632  1.00 20.00     0.058 C 
HETATM    4  C4  UNL     1     -34.201   5.898   4.581  1.00 20.00     0.174 C 
HETATM    5  C5  UNL     1     -32.253   7.737   2.386  1.00 20.00     0.018 C 
HETATM    6  O6  UNL     1     -33.879   8.381   5.090  1.00 20.00    -0.294 OA
HETATM    7 CL7  UNL     1     -33.926   5.091   6.161  1.00 20.00    -0.093 Cl
HETATM    8 CL8  UNL     1     -35.932   5.909   4.118  1.00 20.00    -0.093 Cl
ENDROOT
TORSDOF 0
