REMARK  2 active torsions:
REMARK  status: ('A' for Active; 'I' for Inactive)
REMARK    1  A    between atoms: C2_2  and  C3_3 
REMARK    2  A    between atoms: C3_3  and  C6_6 
ROOT
HETATM    1  C3  UNL     1     -32.864   7.218   4.038  1.00 20.00     0.170 C 
HETATM    2  O7  UNL     1     -32.097   7.991   4.600  1.00 20.00    -0.291 OA
ENDROOT
BRANCH   1   3
HETATM    3  C2  UNL     1     -32.566   6.630   2.696  1.00 20.00     0.047 C 
HETATM    4  C1  UNL     1     -32.453   5.310   2.500  1.00 20.00     0.035 C 
HETATM    5 BR8  UNL     1     -32.325   7.833   1.279  1.00 20.00    -0.048 Br
ENDBRANCH   1   3
BRANCH   1   6
HETATM    6  C6  UNL     1     -34.137   6.831   4.714  1.00 20.00     0.061 A 
HETATM    7  C4  UNL     1     -34.161   5.580   5.527  1.00 20.00     0.013 A 
HETATM    8  C5  UNL     1     -34.208   6.917   6.202  1.00 20.00     0.013 A 
ENDBRANCH   1   6
TORSDOF 2
