REMARK  3 active torsions:
REMARK  status: ('A' for Active; 'I' for Inactive)
REMARK    1  A    between atoms: C3_3  and  C8_8 
REMARK    2  A    between atoms: C7_7  and  C8_8 
REMARK    3  A    between atoms: C8_8  and  C9_9 
ROOT
HETATM    1  C1  UNL     1     -32.344   8.325   0.929  1.00 20.00     0.012 C 
HETATM    2  C2  UNL     1     -32.357   7.605   1.890  1.00 20.00    -0.117 C 
HETATM    3  C7  UNL     1     -32.373   6.719   3.067  1.00 20.00     0.105 C 
ENDROOT
BRANCH   3   4
HETATM    4  C8  UNL     1     -33.550   7.045   4.006  1.00 20.00     0.069 C 
BRANCH   4   5
HETATM    5  C3  UNL     1     -33.932   5.825   4.853  1.00 20.00     0.128 C 
HETATM    6  C4  UNL     1     -34.293   4.565   4.106  1.00 20.00     0.091 C 
HETATM    7  O10 UNL     1     -33.962   5.858   6.083  1.00 20.00    -0.298 OA
ENDBRANCH   4   5
BRANCH   4   8
HETATM    8  C9  UNL     1     -33.305   8.262   4.937  1.00 20.00    -0.011 C 
HETATM    9  C5  UNL     1     -32.440   9.356   4.303  1.00 20.00     0.010 C 
HETATM   10  C6  UNL     1     -34.626   8.864   5.425  1.00 20.00     0.010 C 
ENDBRANCH   4   8
ENDBRANCH   3   4
TORSDOF 3
