REMARK  0 active torsions:
REMARK  status: ('A' for Active; 'I' for Inactive)
ROOT
HETATM    1  C1  UNL     1     -32.944   7.781   4.805  1.00 20.00     0.026 C 
HETATM    2  C2  UNL     1     -33.320   5.899   3.849  1.00 20.00     0.017 C 
HETATM    3  C3  UNL     1     -32.575   9.062   4.913  1.00 20.00     0.040 C 
HETATM    4  C4  UNL     1     -33.783   7.061   5.819  1.00 20.00     0.073 C 
HETATM    5  C5  UNL     1     -34.271   5.838   5.029  1.00 20.00    -0.002 C 
HETATM    6  C6  UNL     1     -33.220   4.789   2.850  1.00 20.00     0.066 C 
HETATM    7  C7  UNL     1     -34.120   4.552   5.835  1.00 20.00     0.021 C 
HETATM    8  C8  UNL     1     -35.713   6.020   4.547  1.00 20.00     0.021 C 
HETATM    9  N9  UNL     1     -32.619   6.985   3.736  1.00 20.00    -0.263 NA
ENDROOT
TORSDOF 0
