REMARK  0 active torsions:
REMARK  status: ('A' for Active; 'I' for Inactive)
ROOT
HETATM    1  C1  UNL     1     -32.550   8.339   5.051  1.00 20.00     0.095 C 
HETATM    2  C2  UNL     1     -34.912   5.701   6.512  1.00 20.00     0.005 C 
HETATM    3  C3  UNL     1     -33.254   5.168   2.038  1.00 20.00     0.032 C 
HETATM    4  C4  UNL     1     -34.290   7.071   6.232  1.00 20.00     0.051 C 
HETATM    5  C5  UNL     1     -34.631   4.689   5.405  1.00 20.00     0.036 C 
HETATM    6  C6  UNL     1     -34.215   4.387   2.914  1.00 20.00     0.037 C 
HETATM    7  C7  UNL     1     -32.526   6.038   3.044  1.00 20.00     0.275 C 
HETATM    8  C8  UNL     1     -33.129   6.994   5.227  1.00 20.00     0.329 C 
HETATM    9  C9  UNL     1     -34.580   5.365   4.034  1.00 20.00     0.224 C 
HETATM   10  N10 UNL     1     -32.094   9.397   4.913  1.00 20.00    -0.195 NA
HETATM   11  N11 UNL     1     -33.603   6.466   3.942  1.00 20.00     0.111 N 
ENDROOT
TORSDOF 0
