REMARK  2 active torsions:
REMARK  status: ('A' for Active; 'I' for Inactive)
REMARK    1  A    between atoms: C1_1  and  C5_5 
REMARK    2  A    between atoms: C5_5  and  C6_6 
ROOT
HETATM    1  C2  UNL     1     -34.316   5.287   6.409  1.00 20.00     0.003 C 
HETATM    2  C3  UNL     1     -33.117   6.195   6.085  1.00 20.00     0.026 C 
HETATM    3  C4  UNL     1     -35.174   6.174   5.491  1.00 20.00     0.026 C 
HETATM    4  C5  UNL     1     -33.864   6.659   4.794  1.00 20.00     0.110 C 
ENDROOT
BRANCH   4   5
HETATM    5  C1  UNL     1     -33.795   8.184   4.500  1.00 20.00     0.249 C 
HETATM    6  O7  UNL     1     -32.744   8.791   4.322  1.00 20.00    -0.306 OA
ENDBRANCH   4   5
BRANCH   4   7
HETATM    7  C6  UNL     1     -33.497   5.845   3.551  1.00 20.00     0.401 C 
HETATM    8  F8  UNL     1     -32.251   6.147   3.160  1.00 20.00    -0.170 F 
HETATM    9  F9  UNL     1     -33.564   4.535   3.829  1.00 20.00    -0.170 F 
HETATM   10  F10 UNL     1     -34.348   6.125   2.555  1.00 20.00    -0.170 F 
ENDBRANCH   4   7
TORSDOF 2
