REMARK  1 active torsions:
REMARK  status: ('A' for Active; 'I' for Inactive)
REMARK    1  A    between atoms: C5_5  and  O10_10 
ROOT
HETATM    1  C1  UNL     1     -33.735   5.247   3.167  1.00 20.00     0.011 A 
HETATM    2  C2  UNL     1     -34.560   4.816   4.208  1.00 20.00     0.040 A 
HETATM    3  C3  UNL     1     -33.039   6.433   3.329  1.00 20.00    -0.049 A 
HETATM    4  C4  UNL     1     -33.145   7.177   4.510  1.00 20.00    -0.010 A 
HETATM    5  C5  UNL     1     -34.667   5.562   5.392  1.00 20.00     0.104 A 
HETATM    6  C6  UNL     1     -33.951   6.751   5.553  1.00 20.00     0.156 A 
HETATM    7  C7  UNL     1     -32.075   7.073   2.381  1.00 20.00     0.039 C 
HETATM    8  C8  UNL     1     -32.262   8.383   4.461  1.00 20.00     0.042 C 
HETATM    9  C9  UNL     1     -31.998   8.497   2.953  1.00 20.00     0.009 C 
HETATM   10  F11 UNL     1     -34.039   7.459   6.686  1.00 20.00    -0.203 F 
ENDROOT
BRANCH   5  11
HETATM   11  O10 UNL     1     -35.472   5.117   6.397  1.00 20.00    -0.358 OA
HETATM   12  H20 UNL     1     -35.896   4.283   6.142  1.00 20.00     0.217 HD
ENDBRANCH   5  11
TORSDOF 1
