REMARK  2 active torsions:
REMARK  status: ('A' for Active; 'I' for Inactive)
REMARK    1  A    between atoms: C4_4  and  O11_11 
REMARK    2  A    between atoms: C10_10  and  O11_11 
ROOT
HETATM    1  C1  UNL     1     -33.704   6.675   4.403  1.00 20.00    -0.075 C 
HETATM    2  C2  UNL     1     -33.072   6.172   3.349  1.00 20.00    -0.049 C 
HETATM    3  C5  UNL     1     -34.554   5.691   5.097  1.00 20.00     0.034 C 
HETATM    4  C6  UNL     1     -33.507   8.127   4.564  1.00 20.00     0.037 C 
HETATM    5  C7  UNL     1     -33.367   4.746   3.119  1.00 20.00     0.037 C 
HETATM    6  C8  UNL     1     -34.119   4.377   4.415  1.00 20.00     0.009 C 
HETATM    7  C9  UNL     1     -32.389   8.405   3.532  1.00 20.00     0.041 C 
HETATM    8  C10 UNL     1     -32.308   7.181   2.592  1.00 20.00     0.157 C 
ENDROOT
BRANCH   8   9
HETATM    9  O11 UNL     1     -32.945   7.467   1.359  1.00 20.00    -0.354 OA
BRANCH   9  10
HETATM   10  C4  UNL     1     -32.333   8.369   0.598  1.00 20.00     0.125 C 
HETATM   11  C3  UNL     1     -32.869   9.524   0.198  1.00 20.00     0.037 C 
ENDBRANCH   9  10
ENDBRANCH   8   9
TORSDOF 2
