REMARK  1 active torsions:
REMARK  status: ('A' for Active; 'I' for Inactive)
REMARK    1  A    between atoms: C3_3  and  C9_9 
ROOT
HETATM    1  C1  UNL     1     -33.719   4.090   5.651  1.00 20.00    -0.030 C 
HETATM    2  C2  UNL     1     -34.191   5.046   6.466  1.00 20.00    -0.026 C 
HETATM    3  C4  UNL     1     -33.992   4.082   4.171  1.00 20.00     0.031 C 
HETATM    4  C5  UNL     1     -34.256   7.473   5.845  1.00 20.00     0.022 C 
HETATM    5  C6  UNL     1     -35.721   5.817   4.639  1.00 20.00     0.013 C 
HETATM    6  C7  UNL     1     -33.508   6.512   3.583  1.00 20.00     0.018 C 
HETATM    7  C8  UNL     1     -35.076   6.177   5.984  1.00 20.00     0.009 C 
HETATM    8  C9  UNL     1     -33.821   7.771   4.399  1.00 20.00     0.073 C 
HETATM    9  C10 UNL     1     -34.598   5.414   3.674  1.00 20.00    -0.010 C 
ENDROOT
BRANCH   8  10
HETATM   10  C3  UNL     1     -32.620   8.668   4.404  1.00 20.00     0.223 C 
HETATM   11  O11 UNL     1     -32.402   9.450   5.324  1.00 20.00    -0.279 OA
HETATM   12 CL12 UNL     1     -31.635   8.448   2.990  1.00 20.00    -0.043 Cl
ENDBRANCH   8  10
TORSDOF 1
