REMARK  2 active torsions:
REMARK  status: ('A' for Active; 'I' for Inactive)
REMARK    1  A    between atoms: C3_3  and  C7_7 
REMARK    2  A    between atoms: C8_8  and  C10_10 
ROOT
HETATM    1  C1  UNL     1     -32.150   7.704   1.619  1.00 20.00     0.012 C 
HETATM    2  C2  UNL     1     -32.484   6.812   2.350  1.00 20.00    -0.117 C 
HETATM    3  C10 UNL     1     -32.886   5.718   3.242  1.00 20.00     0.098 C 
ENDROOT
BRANCH   3   4
HETATM    4  C8  UNL     1     -34.254   5.990   3.871  1.00 20.00     0.008 C 
HETATM    5  C6  UNL     1     -34.886   4.707   4.413  1.00 20.00     0.006 C 
HETATM    6  C4  UNL     1     -34.244   4.523   5.782  1.00 20.00     0.001 C 
HETATM    7  C5  UNL     1     -33.949   5.934   6.289  1.00 20.00     0.013 C 
HETATM    8  C7  UNL     1     -34.221   6.879   5.118  1.00 20.00     0.060 C 
BRANCH   8   9
HETATM    9  C3  UNL     1     -33.205   8.002   5.077  1.00 20.00     0.127 C 
HETATM   10  C9  UNL     1     -33.677   9.322   4.532  1.00 20.00     0.091 C 
HETATM   11  O11 UNL     1     -32.051   7.842   5.473  1.00 20.00    -0.298 OA
ENDBRANCH   8   9
ENDBRANCH   3   4
TORSDOF 2
