REMARK  1 active torsions:
REMARK  status: ('A' for Active; 'I' for Inactive)
REMARK    1  A    between atoms: C1_1  and  C5_5 
ROOT
HETATM    1  C2  UNL     1     -33.646   6.409   6.738  1.00 20.00     0.002 C 
HETATM    2  C3  UNL     1     -32.778   6.845   5.556  1.00 20.00     0.017 C 
HETATM    3  C4  UNL     1     -35.006   6.025   6.162  1.00 20.00     0.010 C 
HETATM    4  C5  UNL     1     -33.684   6.807   4.309  1.00 20.00     0.023 C 
HETATM    5  C6  UNL     1     -34.750   5.726   4.672  1.00 20.00    -0.034 C 
HETATM    6  C8  UNL     1     -34.262   8.207   4.043  1.00 20.00     0.024 C 
HETATM    7  C9  UNL     1     -34.209   4.283   4.534  1.00 20.00     0.016 C 
HETATM    8  C10 UNL     1     -36.054   5.822   3.870  1.00 20.00     0.016 C 
ENDROOT
BRANCH   4   9
HETATM    9  C1  UNL     1     -32.880   6.441   3.089  1.00 20.00     0.132 C 
HETATM   10  C7  UNL     1     -31.744   7.360   2.727  1.00 20.00     0.091 C 
HETATM   11  O11 UNL     1     -33.138   5.440   2.423  1.00 20.00    -0.298 OA
ENDBRANCH   4   9
TORSDOF 1
