REMARK  1 active torsions:
REMARK  status: ('A' for Active; 'I' for Inactive)
REMARK    1  A    between atoms: C1_1  and  C2_2 
ROOT
HETATM    1  C2  UNL     1     -34.216   6.430   4.633  1.00 20.00     0.154 A 
HETATM    2  C3  UNL     1     -33.652   6.822   5.987  1.00 20.00     0.073 A 
HETATM    3  C4  UNL     1     -33.368   7.646   4.784  1.00 20.00     0.259 A 
HETATM    4  C5  UNL     1     -34.557   7.335   7.053  1.00 20.00     0.017 C 
HETATM    5  F7  UNL     1     -32.097   7.694   4.257  1.00 20.00    -0.205 F 
HETATM    6  F8  UNL     1     -33.919   8.900   4.635  1.00 20.00    -0.205 F 
ENDROOT
BRANCH   1   7
HETATM    7  C1  UNL     1     -33.674   5.248   3.953  1.00 20.00     0.229 C 
HETATM    8  O6  UNL     1     -34.100   4.120   4.183  1.00 20.00    -0.279 OA
HETATM    9 CL9  UNL     1     -32.409   5.659   2.835  1.00 20.00    -0.043 Cl
ENDBRANCH   1   7
TORSDOF 1
