REMARK  2 active torsions:
REMARK  status: ('A' for Active; 'I' for Inactive)
REMARK    1  A    between atoms: C2_2  and  C5_5 
REMARK    2  A    between atoms: C2_2  and  C9_9 
ROOT
HETATM    1  C1  UNL     1     -32.689   7.094   3.298  1.00 20.00     0.225 C 
HETATM    2  C2  UNL     1     -33.359   6.884   4.399  1.00 20.00    -0.014 C 
HETATM    3  O10 UNL     1     -32.087   7.282   2.305  1.00 20.00    -0.284 OA
ENDROOT
BRANCH   2   4
HETATM    4  C5  UNL     1     -32.980   7.746   5.542  1.00 20.00     0.019 A 
HETATM    5  C3  UNL     1     -32.363   9.072   5.249  1.00 20.00     0.010 A 
HETATM    6  C4  UNL     1     -33.765   8.993   5.773  1.00 20.00     0.010 A 
ENDBRANCH   2   4
BRANCH   2   7
HETATM    7  C9  UNL     1     -34.503   5.875   4.548  1.00 20.00    -0.024 C 
HETATM    8  C6  UNL     1     -35.079   5.963   5.973  1.00 20.00     0.019 C 
HETATM    9  C7  UNL     1     -34.009   4.437   4.288  1.00 20.00     0.019 C 
HETATM   10  C8  UNL     1     -35.646   6.157   3.546  1.00 20.00     0.019 C 
ENDBRANCH   2   7
TORSDOF 2
