REMARK  2 active torsions:
REMARK  status: ('A' for Active; 'I' for Inactive)
REMARK    1  A    between atoms: C1_1  and  C8_8 
REMARK    2  A    between atoms: C2_2  and  C9_9 
ROOT
HETATM    1  C3  UNL     1     -33.561   6.403   5.737  1.00 20.00     0.082 C 
HETATM    2  C6  UNL     1     -35.098   5.594   3.902  1.00 20.00     0.040 A 
HETATM    3  C7  UNL     1     -33.858   4.754   3.846  1.00 20.00     0.040 A 
HETATM    4  C9  UNL     1     -33.776   6.179   4.337  1.00 20.00     0.112 A 
HETATM    5  N10 UNL     1     -33.386   6.585   6.870  1.00 20.00    -0.195 NA
ENDROOT
BRANCH   4   6
HETATM    6  C2  UNL     1     -33.153   7.154   3.488  1.00 20.00    -0.081 C 
HETATM    7  C1  UNL     1     -32.632   7.970   2.777  1.00 20.00    -0.100 C 
BRANCH   7   8
HETATM    8  C8  UNL     1     -31.998   8.962   1.911  1.00 20.00     0.065 A 
HETATM    9  C4  UNL     1     -32.588   9.187   0.560  1.00 20.00     0.018 A 
HETATM   10  C5  UNL     1     -31.277   8.473   0.701  1.00 20.00     0.018 A 
ENDBRANCH   7   8
ENDBRANCH   4   6
TORSDOF 2
