REMARK  1 active torsions:
REMARK  status: ('A' for Active; 'I' for Inactive)
REMARK    1  A    between atoms: C3_3  and  C7_7 
ROOT
HETATM    1  C1  UNL     1     -34.975   5.161   5.954  1.00 20.00    -0.030 C 
HETATM    2  C2  UNL     1     -34.922   4.893   4.641  1.00 20.00    -0.026 C 
HETATM    3  C4  UNL     1     -34.275   6.325   6.591  1.00 20.00     0.027 C 
HETATM    4  C5  UNL     1     -33.282   7.025   5.660  1.00 20.00     0.018 C 
HETATM    5  C6  UNL     1     -34.167   5.742   3.645  1.00 20.00     0.016 C 
HETATM    6  C7  UNL     1     -33.841   7.132   4.239  1.00 20.00     0.080 C 
HETATM    7  C8  UNL     1     -32.938   4.961   3.166  1.00 20.00     0.015 C 
ENDROOT
BRANCH   6   8
HETATM    8  C3  UNL     1     -32.910   7.915   3.363  1.00 20.00     0.223 C 
HETATM    9  O9  UNL     1     -32.860   7.733   2.150  1.00 20.00    -0.279 OA
HETATM   10 CL10 UNL     1     -31.963   9.055   4.269  1.00 20.00    -0.043 Cl
ENDBRANCH   6   8
TORSDOF 1
