REMARK  1 active torsions:
REMARK  status: ('A' for Active; 'I' for Inactive)
REMARK    1  A    between atoms: C1_1  and  C8_8 
ROOT
HETATM    1  C2  UNL     1     -34.491   7.338   3.430  1.00 20.00     0.019 A 
HETATM    2  C3  UNL     1     -32.769   6.094   2.999  1.00 20.00     0.019 A 
HETATM    3  C4  UNL     1     -32.742   7.427   4.708  1.00 20.00     0.019 A 
HETATM    4  C5  UNL     1     -33.587   7.125   2.207  1.00 20.00     0.038 A 
HETATM    5  C6  UNL     1     -33.561   8.459   3.917  1.00 20.00     0.038 A 
HETATM    6  C7  UNL     1     -31.837   7.214   3.486  1.00 20.00     0.038 A 
HETATM    7  C8  UNL     1     -33.672   6.309   4.220  1.00 20.00     0.050 A 
HETATM    8  C9  UNL     1     -32.664   8.231   2.706  1.00 20.00     0.117 A 
HETATM    9  F11 UNL     1     -32.157   9.196   1.945  1.00 20.00    -0.242 F 
ENDROOT
BRANCH   7  10
HETATM   10  C1  UNL     1     -34.241   5.220   5.074  1.00 20.00     0.228 C 
HETATM   11  O10 UNL     1     -34.013   4.035   4.847  1.00 20.00    -0.279 OA
HETATM   12 CL12 UNL     1     -35.219   5.846   6.367  1.00 20.00    -0.043 Cl
ENDBRANCH   7  10
TORSDOF 1
