REMARK  0 active torsions:
REMARK  status: ('A' for Active; 'I' for Inactive)
ROOT
HETATM    1  C1  UNL     1     -32.136   7.933   1.110  1.00 20.00     0.015 C 
HETATM    2  C2  UNL     1     -32.030   9.820   5.671  1.00 20.00     0.015 C 
HETATM    3  C3  UNL     1     -32.345   7.524   2.219  1.00 20.00    -0.082 C 
HETATM    4  C4  UNL     1     -32.674   8.986   5.096  1.00 20.00    -0.082 C 
HETATM    5  C5  UNL     1     -32.598   7.026   3.572  1.00 20.00     0.243 C 
HETATM    6  C6  UNL     1     -33.459   7.969   4.393  1.00 20.00     0.243 C 
HETATM    7  C7  UNL     1     -34.175   5.826   4.700  1.00 20.00     0.160 C 
HETATM    8  C8  UNL     1     -35.620   5.546   4.311  1.00 20.00     0.078 C 
HETATM    9  C9  UNL     1     -33.646   4.771   5.663  1.00 20.00     0.078 C 
HETATM   10  O10 UNL     1     -33.373   5.824   3.512  1.00 20.00    -0.335 OA
HETATM   11  O11 UNL     1     -34.099   7.106   5.340  1.00 20.00    -0.335 OA
ENDROOT
TORSDOF 0
