REMARK  1 active torsions:
REMARK  status: ('A' for Active; 'I' for Inactive)
REMARK    1  A    between atoms: C3_3  and  C6_6 
ROOT
HETATM    1  C1  UNL     1     -34.340   8.401   3.236  1.00 20.00    -0.022 C 
HETATM    2  C2  UNL     1     -33.245   8.133   2.509  1.00 20.00    -0.022 C 
HETATM    3  C4  UNL     1     -34.209   7.648   4.540  1.00 20.00     0.053 C 
HETATM    4  C5  UNL     1     -32.377   7.204   3.328  1.00 20.00     0.047 C 
HETATM    5  C6  UNL     1     -34.381   6.143   4.208  1.00 20.00     0.062 C 
HETATM    6  C7  UNL     1     -33.054   5.808   3.444  1.00 20.00     0.003 C 
HETATM    7  C8  UNL     1     -32.691   7.753   4.721  1.00 20.00     0.186 C 
HETATM    8  C9  UNL     1     -33.290   5.106   2.114  1.00 20.00     0.011 C 
HETATM    9  F11 UNL     1     -32.279   9.030   4.877  1.00 20.00    -0.248 F 
ENDROOT
BRANCH   5  10
HETATM   10  C3  UNL     1     -34.527   5.338   5.463  1.00 20.00     0.236 C 
HETATM   11  O10 UNL     1     -34.547   5.833   6.585  1.00 20.00    -0.306 OA
ENDBRANCH   5  10
TORSDOF 1
