REMARK  1 active torsions:
REMARK  status: ('A' for Active; 'I' for Inactive)
REMARK    1  A    between atoms: C2_2  and  C3_3 
ROOT
HETATM    1  C1  UNL     1     -34.533   6.708   5.886  1.00 20.00    -0.009 C 
HETATM    2  C2  UNL     1     -33.796   6.220   4.843  1.00 20.00    -0.007 C 
HETATM    3  C4  UNL     1     -32.172   9.541   5.309  1.00 20.00     0.002 C 
HETATM    4  C5  UNL     1     -33.429   9.253   6.177  1.00 20.00     0.009 C 
HETATM    5  C6  UNL     1     -31.970   8.261   4.439  1.00 20.00     0.015 C 
HETATM    6  C7  UNL     1     -33.469   7.757   6.069  1.00 20.00     0.021 C 
HETATM    7  C8  UNL     1     -33.351   7.628   4.491  1.00 20.00    -0.007 C 
HETATM    8  C10 UNL     1     -34.295   8.282   3.460  1.00 20.00     0.021 C 
ENDROOT
BRANCH   2   9
HETATM    9  C3  UNL     1     -33.970   4.960   4.137  1.00 20.00     0.152 C 
HETATM   10  C9  UNL     1     -33.023   4.634   3.004  1.00 20.00     0.096 C 
HETATM   11  O11 UNL     1     -34.875   4.174   4.447  1.00 20.00    -0.293 OA
ENDBRANCH   2   9
TORSDOF 1
