REMARK  3 active torsions:
REMARK  status: ('A' for Active; 'I' for Inactive)
REMARK    1  A    between atoms: C3_3  and  C7_7 
REMARK    2  A    between atoms: C5_5  and  C8_8 
REMARK    3  A    between atoms: C6_6  and  C9_9 
ROOT
HETATM    1  C7  UNL     1     -33.822   7.953   4.478  1.00 20.00     0.097 A 
HETATM    2  C8  UNL     1     -33.562   6.473   4.271  1.00 20.00     0.013 A 
HETATM    3  C9  UNL     1     -33.532   7.056   5.666  1.00 20.00     0.013 A 
ENDROOT
BRANCH   1   4
HETATM    4  C3  UNL     1     -32.766   8.865   4.074  1.00 20.00     0.177 C 
HETATM    5  O10 UNL     1     -32.397   8.764   2.872  1.00 20.00    -0.648 OA
HETATM    6  O11 UNL     1     -32.359   9.639   4.985  1.00 20.00    -0.648 OA
ENDBRANCH   1   4
BRANCH   2   7
HETATM    7  C5  UNL     1     -34.622   5.365   4.367  1.00 20.00     0.014 C 
HETATM    8  C1  UNL     1     -34.100   4.274   5.292  1.00 20.00    -0.025 C 
HETATM    9  C2  UNL     1     -34.074   4.793   6.534  1.00 20.00    -0.025 C 
HETATM   10  C6  UNL     1     -34.578   6.226   6.425  1.00 20.00     0.014 C 
HETATM   11  C4  UNL     1     -35.651   5.955   5.352  1.00 20.00     0.017 C 
ENDBRANCH   2   7
TORSDOF 3
