REMARK  1 active torsions:
REMARK  status: ('A' for Active; 'I' for Inactive)
REMARK    1  A    between atoms: C3_3  and  C6_6 
ROOT
HETATM    1  C1  UNL     1     -32.917   8.932   3.295  1.00 20.00    -0.024 C 
HETATM    2  C2  UNL     1     -32.523   7.906   2.518  1.00 20.00    -0.083 C 
HETATM    3  C4  UNL     1     -33.175   8.827   4.769  1.00 20.00     0.032 C 
HETATM    4  C5  UNL     1     -32.325   6.503   3.080  1.00 20.00     0.021 C 
HETATM    5  C6  UNL     1     -32.956   6.313   4.485  1.00 20.00     0.066 C 
HETATM    6  C7  UNL     1     -32.640   7.524   5.384  1.00 20.00    -0.003 C 
HETATM    7  C8  UNL     1     -32.205   8.134   1.066  1.00 20.00     0.043 C 
HETATM    8  C10 UNL     1     -32.771   5.388   2.122  1.00 20.00     0.015 C 
HETATM    9  C11 UNL     1     -33.143   7.350   6.817  1.00 20.00     0.011 C 
ENDROOT
BRANCH   5  10
HETATM   10  C3  UNL     1     -34.443   6.078   4.412  1.00 20.00     0.128 C 
HETATM   11  C9  UNL     1     -34.947   4.762   4.940  1.00 20.00     0.091 C 
HETATM   12  O12 UNL     1     -35.207   6.921   3.945  1.00 20.00    -0.298 OA
ENDBRANCH   5  10
TORSDOF 1
