REMARK  3 active torsions:
REMARK  status: ('A' for Active; 'I' for Inactive)
REMARK    1  A    between atoms: C1_1  and  C10_10 
REMARK    2  A    between atoms: C7_7  and  C8_8 
REMARK    3  A    between atoms: C9_9  and  C10_10 
ROOT
HETATM    1  C2  UNL     1     -33.324   5.256   3.158  1.00 20.00     0.006 C 
HETATM    2  C3  UNL     1     -35.557   5.606   4.207  1.00 20.00     0.006 C 
HETATM    3  C4  UNL     1     -32.940   6.717   3.490  1.00 20.00     0.019 C 
HETATM    4  C5  UNL     1     -35.174   7.061   4.543  1.00 20.00     0.019 C 
HETATM    5  C7  UNL     1     -34.303   4.710   4.226  1.00 20.00    -0.010 C 
HETATM    6  C10 UNL     1     -33.652   7.168   4.791  1.00 20.00     0.040 C 
ENDROOT
BRANCH   6   7
HETATM    7  C1  UNL     1     -33.305   8.588   5.122  1.00 20.00     0.228 C 
HETATM    8  O11 UNL     1     -32.551   9.249   4.414  1.00 20.00    -0.279 OA
HETATM    9 CL12 UNL     1     -34.085   9.130   6.577  1.00 20.00    -0.043 Cl
ENDBRANCH   6   7
BRANCH   6  10
HETATM   10  C9  UNL     1     -33.204   6.212   5.892  1.00 20.00     0.007 A 
HETATM   11  C6  UNL     1     -34.123   5.447   6.811  1.00 20.00     0.011 A 
HETATM   12  C8  UNL     1     -33.586   4.790   5.564  1.00 20.00    -0.005 A 
ENDBRANCH   6  10
TORSDOF 3
