REMARK  1 active torsions:
REMARK  status: ('A' for Active; 'I' for Inactive)
REMARK    1  A    between atoms: C1_1  and  C9_9 
ROOT
HETATM    1  C2  UNL     1     -33.549   4.760   4.201  1.00 20.00     0.031 C 
HETATM    2  C3  UNL     1     -33.119   6.970   6.384  1.00 20.00     0.031 C 
HETATM    3  C4  UNL     1     -32.924   5.872   3.357  1.00 20.00     0.022 C 
HETATM    4  C5  UNL     1     -32.572   7.689   5.150  1.00 20.00     0.022 C 
HETATM    5  C6  UNL     1     -34.981   5.072   4.646  1.00 20.00     0.272 C 
HETATM    6  C7  UNL     1     -34.642   6.809   6.365  1.00 20.00     0.272 C 
HETATM    7  C8  UNL     1     -34.796   7.394   4.034  1.00 20.00     0.290 C 
HETATM    8  C9  UNL     1     -33.278   7.293   3.838  1.00 20.00     0.062 C 
HETATM    9  N10 UNL     1     -35.236   6.455   5.069  1.00 20.00     0.089 N 
ENDROOT
BRANCH   8  10
HETATM   10  C1  UNL     1     -32.850   8.273   2.777  1.00 20.00     0.229 C 
HETATM   11  O11 UNL     1     -32.316   7.904   1.735  1.00 20.00    -0.279 OA
HETATM   12 CL12 UNL     1     -33.205   9.915   3.221  1.00 20.00    -0.043 Cl
ENDBRANCH   8  10
TORSDOF 1
