REMARK  0 active torsions:
REMARK  status: ('A' for Active; 'I' for Inactive)
ROOT
HETATM    1  C1  UNL     1     -33.675   4.263   3.937  1.00 20.00     0.027 C 
HETATM    2  C2  UNL     1     -34.329   4.364   5.219  1.00 20.00     0.027 C 
HETATM    3  C3  UNL     1     -33.321   5.542   3.535  1.00 20.00     0.012 C 
HETATM    4  C4  UNL     1     -34.346   5.698   5.534  1.00 20.00     0.012 C 
HETATM    5  C5  UNL     1     -32.457   6.111   2.464  1.00 20.00     0.057 C 
HETATM    6  C6  UNL     1     -34.630   6.658   6.622  1.00 20.00     0.059 C 
HETATM    7  C7  UNL     1     -32.419   7.659   2.495  1.00 20.00     0.008 C 
HETATM    8  C8  UNL     1     -33.788   7.898   6.165  1.00 20.00     0.032 C 
HETATM    9  C9  UNL     1     -32.452   8.247   3.925  1.00 20.00     0.026 C 
HETATM   10  C10 UNL     1     -33.729   7.797   4.627  1.00 20.00     0.090 C 
HETATM   11  N11 UNL     1     -33.877   6.360   4.450  1.00 20.00    -0.349 N 
ENDROOT
TORSDOF 0
