REMARK  1 active torsions:
REMARK  status: ('A' for Active; 'I' for Inactive)
REMARK    1  A    between atoms: C9_9  and  C10_10 
ROOT
HETATM    1  C1  UNL     1     -34.574   4.891   5.915  1.00 20.00     0.001 A 
HETATM    2  C2  UNL     1     -34.668   6.022   6.844  1.00 20.00     0.001 A 
HETATM    3  C3  UNL     1     -34.012   5.009   4.694  1.00 20.00     0.012 A 
HETATM    4  C4  UNL     1     -34.197   7.248   6.533  1.00 20.00     0.012 A 
HETATM    5  C5  UNL     1     -32.891   6.699   3.182  1.00 20.00     0.001 A 
HETATM    6  C6  UNL     1     -33.042   8.515   4.675  1.00 20.00     0.001 A 
HETATM    7  C7  UNL     1     -33.493   6.302   4.312  1.00 20.00    -0.029 A 
HETATM    8  C8  UNL     1     -33.586   7.427   5.237  1.00 20.00    -0.029 A 
HETATM    9  C10 UNL     1     -32.540   8.160   3.299  1.00 20.00     0.094 A 
ENDROOT
BRANCH   9  10
HETATM   10  C9  UNL     1     -33.306   8.937   2.276  1.00 20.00     0.243 C 
HETATM   11  O11 UNL     1     -32.775   9.665   1.443  1.00 20.00    -0.306 OA
ENDBRANCH   9  10
TORSDOF 1
