REMARK  1 active torsions:
REMARK  status: ('A' for Active; 'I' for Inactive)
REMARK    1  A    between atoms: C4_4  and  C7_7 
ROOT
HETATM    1  C1  UNL     1     -33.004   5.125   3.098  1.00 20.00     0.047 C 
HETATM    2  C2  UNL     1     -32.339   6.201   2.660  1.00 20.00    -0.006 C 
HETATM    3  C3  UNL     1     -33.906   5.228   4.267  1.00 20.00     0.149 C 
HETATM    4  C5  UNL     1     -34.137   6.587   4.885  1.00 20.00     0.088 C 
HETATM    5  C6  UNL     1     -32.898   7.484   4.766  1.00 20.00     0.007 C 
HETATM    6  C7  UNL     1     -32.375   7.567   3.306  1.00 20.00     0.031 C 
HETATM    7  C8  UNL     1     -33.180   8.847   5.407  1.00 20.00     0.012 C 
HETATM    8  C9  UNL     1     -30.972   8.192   3.260  1.00 20.00     0.027 C 
HETATM    9  O10 UNL     1     -34.494   4.226   4.672  1.00 20.00    -0.293 OA
ENDROOT
BRANCH   6  10
HETATM   10  C4  UNL     1     -33.286   8.375   2.416  1.00 20.00     0.244 C 
HETATM   11  O11 UNL     1     -32.931   9.393   1.832  1.00 20.00    -0.306 OA
ENDBRANCH   6  10
TORSDOF 1
