REMARK  2 active torsions:
REMARK  status: ('A' for Active; 'I' for Inactive)
REMARK    1  A    between atoms: C1_1  and  C7_7 
REMARK    2  A    between atoms: C4_4  and  C7_7 
ROOT
HETATM    1  C6  UNL     1     -33.712   7.033   6.830  1.00 20.00     0.018 C 
HETATM    2  C7  UNL     1     -33.809   7.247   5.321  1.00 20.00     0.055 C 
ENDROOT
BRANCH   2   3
HETATM    3  C1  UNL     1     -34.051   5.928   4.595  1.00 20.00     0.127 C 
HETATM    4  C5  UNL     1     -34.771   4.848   5.363  1.00 20.00     0.091 C 
HETATM    5  O8  UNL     1     -33.659   5.726   3.445  1.00 20.00    -0.298 OA
ENDBRANCH   2   3
BRANCH   2   6
HETATM    6  C4  UNL     1     -32.544   7.910   4.788  1.00 20.00    -0.004 A 
HETATM    7  C2  UNL     1     -32.601   8.767   3.554  1.00 20.00     0.006 A 
HETATM    8  C3  UNL     1     -32.367   9.399   4.898  1.00 20.00     0.006 A 
ENDBRANCH   2   6
TORSDOF 2
