REMARK  1 active torsions:
REMARK  status: ('A' for Active; 'I' for Inactive)
REMARK    1  A    between atoms: C1_1  and  C8_8 
ROOT
HETATM    1  C2  UNL     1     -34.539   7.206   6.940  1.00 20.00     0.005 C 
HETATM    2  C3  UNL     1     -35.270   6.100   6.165  1.00 20.00     0.006 C 
HETATM    3  C4  UNL     1     -32.955   5.644   6.097  1.00 20.00     0.010 C 
HETATM    4  C5  UNL     1     -33.094   7.738   4.958  1.00 20.00     0.023 C 
HETATM    5  C6  UNL     1     -33.107   7.136   6.379  1.00 20.00    -0.013 C 
HETATM    6  C7  UNL     1     -34.192   5.598   5.187  1.00 20.00     0.003 C 
HETATM    7  C8  UNL     1     -33.847   6.676   4.122  1.00 20.00     0.036 C 
HETATM    8  C9  UNL     1     -35.047   7.260   3.378  1.00 20.00     0.025 C 
ENDROOT
BRANCH   7   9
HETATM    9  C1  UNL     1     -32.942   6.054   3.085  1.00 20.00     0.227 C 
HETATM   10  O10 UNL     1     -32.708   4.849   3.072  1.00 20.00    -0.279 OA
HETATM   11 CL11 UNL     1     -32.315   7.233   1.973  1.00 20.00    -0.043 Cl
ENDBRANCH   7   9
TORSDOF 1
