REMARK  1 active torsions:
REMARK  status: ('A' for Active; 'I' for Inactive)
REMARK    1  A    between atoms: C1_1  and  C5_5 
ROOT
HETATM    1  C2  UNL     1     -32.660   7.370   3.792  1.00 20.00     0.026 C 
HETATM    2  C3  UNL     1     -33.051   7.338   5.882  1.00 20.00     0.026 C 
HETATM    3  C4  UNL     1     -34.319   8.441   4.579  1.00 20.00     0.026 C 
HETATM    4  C5  UNL     1     -33.889   6.955   4.637  1.00 20.00     0.022 C 
HETATM    5  C6  UNL     1     -32.765   8.524   4.872  1.00 20.00    -0.041 C 
HETATM    6  C8  UNL     1     -31.911   9.717   5.050  1.00 20.00     0.015 C 
ENDROOT
BRANCH   4   7
HETATM    7  C1  UNL     1     -34.746   5.753   4.458  1.00 20.00     0.131 C 
HETATM    8  C7  UNL     1     -36.205   5.996   4.184  1.00 20.00     0.091 C 
HETATM    9  O9  UNL     1     -34.284   4.615   4.529  1.00 20.00    -0.298 OA
ENDBRANCH   4   7
TORSDOF 1
