REMARK  1 active torsions:
REMARK  status: ('A' for Active; 'I' for Inactive)
REMARK    1  A    between atoms: C1_1  and  C7_7 
ROOT
HETATM    1  C2  UNL     1     -33.416   5.308   3.165  1.00 20.00     0.004 C 
HETATM    2  C3  UNL     1     -33.958   4.837   4.509  1.00 20.00     0.037 C 
HETATM    3  C4  UNL     1     -32.457   6.487   3.326  1.00 20.00     0.016 C 
HETATM    4  C5  UNL     1     -33.642   7.153   5.461  1.00 20.00     0.053 C 
HETATM    5  C6  UNL     1     -34.598   5.978   5.287  1.00 20.00     0.171 C 
HETATM    6  C7  UNL     1     -33.057   7.658   4.130  1.00 20.00     0.012 C 
HETATM    7  C8  UNL     1     -34.108   8.418   3.310  1.00 20.00     0.023 C 
HETATM    8  F10 UNL     1     -34.946   5.517   6.520  1.00 20.00    -0.249 F 
ENDROOT
BRANCH   6   9
HETATM    9  C1  UNL     1     -31.954   8.638   4.438  1.00 20.00     0.240 C 
HETATM   10  O9  UNL     1     -32.128   9.675   5.070  1.00 20.00    -0.306 OA
ENDBRANCH   6   9
TORSDOF 1
