REMARK  1 active torsions:
REMARK  status: ('A' for Active; 'I' for Inactive)
REMARK    1  A    between atoms: C10_10  and  O13_13 
ROOT
HETATM    1  C1  UNL     1     -34.266   5.624   5.679  1.00 20.00     0.099 C 
HETATM    2  C2  UNL     1     -33.238   5.747   3.460  1.00 20.00     0.023 A 
HETATM    3  C3  UNL     1     -32.720   6.481   2.390  1.00 20.00     0.012 A 
HETATM    4  C4  UNL     1     -33.750   7.791   4.676  1.00 20.00     0.030 A 
HETATM    5  C5  UNL     1     -33.749   6.397   4.594  1.00 20.00     0.045 A 
HETATM    6  C6  UNL     1     -32.737   7.864   2.472  1.00 20.00    -0.023 A 
HETATM    7  C7  UNL     1     -33.246   8.512   3.605  1.00 20.00    -0.048 A 
HETATM    8  C8  UNL     1     -33.111   9.997   3.479  1.00 20.00     0.042 C 
HETATM    9  C9  UNL     1     -32.912  10.146   1.965  1.00 20.00     0.041 C 
HETATM   10  C10 UNL     1     -32.210   8.864   1.488  1.00 20.00     0.154 C 
HETATM   11  N12 UNL     1     -34.687   4.996   6.560  1.00 20.00    -0.191 NA
ENDROOT
BRANCH  10  12
HETATM   12  O13 UNL     1     -32.577   8.548   0.161  1.00 20.00    -0.386 OA
HETATM   13  C11 UNL     1     -31.735   9.193  -0.789  1.00 20.00     0.202 C 
ENDBRANCH  10  12
TORSDOF 1
