REMARK  3 active torsions:
REMARK  status: ('A' for Active; 'I' for Inactive)
REMARK    1  A    between atoms: C1_1  and  C7_7 
REMARK    2  A    between atoms: C1_1  and  O10_10 
REMARK    3  A    between atoms: C6_6  and  C7_7 
ROOT
HETATM    1  C4  UNL     1     -33.705   8.190   4.911  1.00 20.00     0.021 A 
HETATM    2  C5  UNL     1     -32.663   7.304   5.523  1.00 20.00     0.021 A 
HETATM    3  C7  UNL     1     -33.542   6.769   4.411  1.00 20.00     0.051 A 
ENDROOT
BRANCH   3   4
HETATM    4  C1  UNL     1     -32.902   6.607   3.080  1.00 20.00     0.267 C 
HETATM    5  O9  UNL     1     -32.702   5.526   2.544  1.00 20.00    -0.264 OA
BRANCH   4   6
HETATM    6  O10 UNL     1     -32.584   7.833   2.575  1.00 20.00    -0.326 OA
HETATM    7  C8  UNL     1     -31.956   7.824   1.289  1.00 20.00     0.213 C 
ENDBRANCH   4   6
ENDBRANCH   3   4
BRANCH   3   8
HETATM    8  C6  UNL     1     -34.621   5.713   4.719  1.00 20.00     0.004 A 
HETATM    9  C2  UNL     1     -34.290   4.352   5.266  1.00 20.00     0.006 A 
HETATM   10  C3  UNL     1     -35.023   5.348   6.121  1.00 20.00     0.006 A 
ENDBRANCH   3   8
TORSDOF 3
