REMARK  1 active torsions:
REMARK  status: ('A' for Active; 'I' for Inactive)
REMARK    1  A    between atoms: C6_6  and  N7_7 
ROOT
HETATM    1  C1  UNL     1     -33.750   7.234   6.046  1.00 20.00     0.284 C 
HETATM    2  C2  UNL     1     -33.801   5.901   6.778  1.00 20.00     0.106 C 
HETATM    3  C3  UNL     1     -34.144   5.859   4.160  1.00 20.00     0.280 C 
HETATM    4  C4  UNL     1     -33.415   5.047   3.096  1.00 20.00     0.055 C 
HETATM    5  N7  UNL     1     -33.303   6.950   4.676  1.00 20.00     0.102 N 
HETATM    6  S8  UNL     1     -34.550   4.778   5.578  1.00 20.00    -0.132 SA
ENDROOT
BRANCH   5   7
HETATM    7  C6  UNL     1     -33.364   8.147   3.842  1.00 20.00     0.269 C 
HETATM    8  C5  UNL     1     -32.494   9.227   4.389  1.00 20.00     0.037 C 
ENDBRANCH   5   7
TORSDOF 1
