REMARK  0 active torsions:
REMARK  status: ('A' for Active; 'I' for Inactive)
ROOT
HETATM    1  C1  UNL     1     -32.582   5.562   2.317  1.00 20.00     0.015 C 
HETATM    2  C2  UNL     1     -33.242   5.723   3.307  1.00 20.00    -0.073 C 
HETATM    3  C3  UNL     1     -33.648   4.946   5.627  1.00 20.00     0.225 C 
HETATM    4  C4  UNL     1     -34.245   6.944   6.578  1.00 20.00     0.442 C 
HETATM    5  C5  UNL     1     -34.051   5.920   4.523  1.00 20.00     0.240 C 
HETATM    6  C6  UNL     1     -35.534   5.736   4.142  1.00 20.00     0.066 C 
HETATM    7  C7  UNL     1     -32.527   7.781   5.126  1.00 20.00     0.315 C 
HETATM    8  N8  UNL     1     -33.890   7.240   5.181  1.00 20.00     0.130 N 
HETATM    9  O9  UNL     1     -34.053   5.553   6.859  1.00 20.00    -0.359 OA
ENDROOT
TORSDOF 0
