REMARK  2 active torsions:
REMARK  status: ('A' for Active; 'I' for Inactive)
REMARK    1  A    between atoms: C2_2  and  C8_8 
REMARK    2  A    between atoms: C8_8  and  N9_9 
ROOT
HETATM    1  C1  UNL     1     -32.555   8.586   0.878  1.00 20.00    -0.109 C 
HETATM    2  C2  UNL     1     -32.414   7.573   1.507  1.00 20.00    -0.077 C 
HETATM    3  C7  UNL     1     -32.728   9.819   0.111  1.00 20.00     0.112 C 
ENDROOT
BRANCH   2   4
HETATM    4  C8  UNL     1     -32.235   6.335   2.272  1.00 20.00     0.365 C 
BRANCH   4   5
HETATM    5  N9  UNL     1     -33.298   6.175   3.262  1.00 20.00     0.103 N 
HETATM    6  C3  UNL     1     -33.031   6.993   4.453  1.00 20.00     0.299 C 
HETATM    7  C5  UNL     1     -34.147   6.800   5.475  1.00 20.00     0.198 C 
HETATM    8  O10 UNL     1     -34.262   5.422   5.832  1.00 20.00    -0.388 OA
HETATM    9  C6  UNL     1     -34.555   4.624   4.685  1.00 20.00     0.198 C 
HETATM   10  C4  UNL     1     -33.448   4.764   3.643  1.00 20.00     0.299 C 
ENDBRANCH   4   5
ENDBRANCH   2   4
TORSDOF 2
