REMARK  2 active torsions:
REMARK  status: ('A' for Active; 'I' for Inactive)
REMARK    1  A    between atoms: C7_7  and  O11_11 
REMARK    2  A    between atoms: C10_10  and  O11_11 
ROOT
HETATM    1  C1  UNL     1     -34.153   4.672   3.961  1.00 20.00    -0.019 C 
HETATM    2  C2  UNL     1     -33.040   4.383   4.662  1.00 20.00    -0.019 C 
HETATM    3  C3  UNL     1     -35.319   5.260   6.049  1.00 20.00    -0.019 C 
HETATM    4  C4  UNL     1     -34.203   4.971   6.752  1.00 20.00    -0.019 C 
HETATM    5  C5  UNL     1     -34.866   5.796   4.699  1.00 20.00     0.060 C 
HETATM    6  C6  UNL     1     -33.017   5.316   5.864  1.00 20.00     0.060 C 
HETATM    7  C7  UNL     1     -33.634   6.563   5.209  1.00 20.00     0.144 C 
ENDROOT
BRANCH   7   8
HETATM    8  O11 UNL     1     -32.849   7.137   4.179  1.00 20.00    -0.379 OA
BRANCH   8   9
HETATM    9  C10 UNL     1     -33.176   8.506   3.968  1.00 20.00     0.114 C 
HETATM   10  C8  UNL     1     -32.325   9.371   4.886  1.00 20.00     0.039 C 
HETATM   11  C9  UNL     1     -32.959   8.852   2.503  1.00 20.00     0.039 C 
ENDBRANCH   8   9
ENDBRANCH   7   8
TORSDOF 2
