REMARK  0 active torsions:
REMARK  status: ('A' for Active; 'I' for Inactive)
ROOT
HETATM    1  C1  UNL     1     -33.182   5.525   3.416  1.00 20.00    -0.056 A 
HETATM    2  C2  UNL     1     -33.585   7.059   5.108  1.00 20.00     0.087 A 
HETATM    3  C3  UNL     1     -33.202   4.462   2.603  1.00 20.00     0.017 C 
HETATM    4  C4  UNL     1     -32.244   6.708   3.238  1.00 20.00     0.158 A 
HETATM    5  C5  UNL     1     -32.179   8.823   4.848  1.00 20.00     0.144 A 
HETATM    6  C6  UNL     1     -33.094   9.024   6.087  1.00 20.00     0.141 A 
HETATM    7  C7  UNL     1     -34.073   5.754   4.649  1.00 20.00     0.035 A 
HETATM    8  C8  UNL     1     -33.839   4.689   5.722  1.00 20.00     0.028 C 
HETATM    9  C9  UNL     1     -35.553   5.841   4.270  1.00 20.00     0.028 C 
HETATM   10  N10 UNL     1     -32.630   7.540   4.356  1.00 20.00    -0.365 N 
HETATM   11  N11 UNL     1     -33.937   7.808   6.125  1.00 20.00    -0.377 N 
HETATM   12  H26 UNL     1     -34.667   7.532   6.772  1.00 20.00     0.160 HD
ENDROOT
TORSDOF 0
