REMARK  2 active torsions:
REMARK  status: ('A' for Active; 'I' for Inactive)
REMARK    1  A    between atoms: C4_4  and  O10_10 
REMARK    2  A    between atoms: C5_5  and  C6_6 
ROOT
HETATM    1  C1  UNL     1     -34.539   6.557   5.796  1.00 20.00     0.040 A 
HETATM    2  C2  UNL     1     -33.781   7.716   5.666  1.00 20.00     0.034 A 
HETATM    3  C3  UNL     1     -33.400   5.662   3.910  1.00 20.00     0.153 A 
HETATM    4  C4  UNL     1     -34.351   5.506   4.905  1.00 20.00     0.083 A 
HETATM    5  C5  UNL     1     -32.855   7.772   4.636  1.00 20.00     0.056 A 
HETATM    6  N9  UNL     1     -32.644   6.772   3.752  1.00 20.00    -0.258 NA
ENDROOT
BRANCH   5   7
HETATM    7  C6  UNL     1     -32.039   8.962   4.459  1.00 20.00     0.027 C 
HETATM    8  C7  UNL     1     -31.992   9.733   3.348  1.00 20.00    -0.029 C 
HETATM    9  C8  UNL     1     -32.790   9.471   2.113  1.00 20.00     0.036 C 
ENDBRANCH   5   7
BRANCH   4  10
HETATM   10  O10 UNL     1     -35.075   4.365   5.008  1.00 20.00    -0.359 OA
HETATM   11  H19 UNL     1     -35.694   4.419   5.756  1.00 20.00     0.217 HD
ENDBRANCH   4  10
TORSDOF 2
