REMARK  0 active torsions:
REMARK  status: ('A' for Active; 'I' for Inactive)
ROOT
HETATM    1  C1  UNL     1     -32.428   7.345   3.164  1.00 20.00     0.057 C 
HETATM    2  C2  UNL     1     -34.201   4.897   5.290  1.00 20.00    -0.019 C 
HETATM    3  C3  UNL     1     -33.768   6.006   4.676  1.00 20.00    -0.051 C 
HETATM    4  C4  UNL     1     -32.959   6.153   3.487  1.00 20.00    -0.052 C 
HETATM    5  C5  UNL     1     -32.578   8.529   4.059  1.00 20.00     0.150 C 
HETATM    6  C6  UNL     1     -35.008   5.223   6.506  1.00 20.00     0.028 C 
HETATM    7  C7  UNL     1     -33.195   8.323   5.429  1.00 20.00     0.092 C 
HETATM    8  C8  UNL     1     -34.677   6.698   6.744  1.00 20.00     0.013 C 
HETATM    9  C9  UNL     1     -34.263   7.241   5.373  1.00 20.00     0.026 C 
HETATM   10  C10 UNL     1     -32.750   4.950   2.611  1.00 20.00     0.049 C 
HETATM   11  O11 UNL     1     -32.138   9.622   3.705  1.00 20.00    -0.293 OA
ENDROOT
TORSDOF 0
