REMARK  2 active torsions:
REMARK  status: ('A' for Active; 'I' for Inactive)
REMARK    1  A    between atoms: C3_3  and  C4_4 
REMARK    2  A    between atoms: C3_3  and  O10_10 
ROOT
HETATM    1  C1  UNL     1     -32.730   8.192   3.381  1.00 20.00    -0.065 A 
HETATM    2  C2  UNL     1     -32.725   8.355   2.075  1.00 20.00    -0.027 C 
HETATM    3  C4  UNL     1     -33.484   7.811   4.514  1.00 20.00     0.122 A 
HETATM    4  C5  UNL     1     -31.986   8.288   4.574  1.00 20.00     0.029 A 
HETATM    5  C6  UNL     1     -31.543   8.832   1.276  1.00 20.00     0.036 C 
HETATM    6  C7  UNL     1     -31.647   9.609   5.168  1.00 20.00     0.016 C 
ENDROOT
BRANCH   3   7
HETATM    7  C3  UNL     1     -33.779   6.383   4.628  1.00 20.00     0.267 C 
HETATM    8  O9  UNL     1     -33.798   5.609   3.681  1.00 20.00    -0.265 OA
BRANCH   7   9
HETATM    9  O10 UNL     1     -34.022   6.071   5.933  1.00 20.00    -0.326 OA
HETATM   10  C8  UNL     1     -34.327   4.696   6.190  1.00 20.00     0.213 C 
ENDBRANCH   7   9
ENDBRANCH   3   7
TORSDOF 2
