REMARK  1 active torsions:
REMARK  status: ('A' for Active; 'I' for Inactive)
REMARK    1  A    between atoms: C3_3  and  N6_6 
ROOT
HETATM    1  C1  UNL     1     -33.726   5.454   4.075  1.00 20.00     0.216 C 
HETATM    2  C4  UNL     1     -34.307   6.339   6.121  1.00 20.00     0.158 C 
HETATM    3  C5  UNL     1     -34.498   4.839   6.125  1.00 20.00     0.198 C 
HETATM    4  N6  UNL     1     -33.685   6.591   4.855  1.00 20.00    -0.327 N 
HETATM    5  O7  UNL     1     -34.286   4.418   4.767  1.00 20.00    -0.325 OA
HETATM    6  S8  UNL     1     -33.239   5.170   2.515  1.00 20.00    -0.033 SA
ENDROOT
BRANCH   4   7
HETATM    7  C3  UNL     1     -33.195   7.820   4.522  1.00 20.00     0.083 C 
HETATM    8  C2  UNL     1     -33.207   8.858   5.361  1.00 20.00     0.030 C 
ENDBRANCH   4   7
TORSDOF 1
