REMARK  1 active torsions:
REMARK  status: ('A' for Active; 'I' for Inactive)
REMARK    1  A    between atoms: C3_3  and  C7_7 
ROOT
HETATM    1  C1  UNL     1     -34.564   4.716   4.402  1.00 20.00    -0.030 C 
HETATM    2  C2  UNL     1     -33.848   5.484   3.567  1.00 20.00    -0.025 C 
HETATM    3  C4  UNL     1     -34.567   4.969   5.883  1.00 20.00     0.027 C 
HETATM    4  C5  UNL     1     -34.322   6.440   6.246  1.00 20.00     0.010 C 
HETATM    5  C6  UNL     1     -32.985   6.580   4.021  1.00 20.00     0.025 A 
HETATM    6  C7  UNL     1     -33.556   7.951   4.264  1.00 20.00     0.085 A 
HETATM    7  C8  UNL     1     -33.213   7.059   5.438  1.00 20.00     0.007 A 
ENDROOT
BRANCH   6   8
HETATM    8  C3  UNL     1     -32.722   9.130   4.004  1.00 20.00     0.224 C 
HETATM    9  O9  UNL     1     -32.075   9.672   4.895  1.00 20.00    -0.279 OA
HETATM   10 CL10 UNL     1     -32.783   9.620   2.338  1.00 20.00    -0.043 Cl
ENDBRANCH   6   8
TORSDOF 1
