REMARK  1 active torsions:
REMARK  status: ('A' for Active; 'I' for Inactive)
REMARK    1  A    between atoms: C1_1  and  C4_4 
ROOT
HETATM    1  C2  UNL     1     -35.590   5.853   4.476  1.00 20.00     0.031 A 
HETATM    2  C3  UNL     1     -34.797   5.311   5.628  1.00 20.00     0.031 A 
HETATM    3  C4  UNL     1     -34.085   5.959   4.466  1.00 20.00     0.078 A 
HETATM    4 BR7  UNL     1     -33.143   4.785   3.263  1.00 20.00    -0.077 Br
ENDROOT
BRANCH   3   5
HETATM    5  C1  UNL     1     -33.463   7.279   4.659  1.00 20.00     0.142 C 
HETATM    6  C5  UNL     1     -33.766   7.988   5.951  1.00 20.00     0.092 C 
HETATM    7  O6  UNL     1     -32.730   7.777   3.806  1.00 20.00    -0.297 OA
ENDBRANCH   3   5
TORSDOF 1
