REMARK  0 active torsions:
REMARK  status: ('A' for Active; 'I' for Inactive)
ROOT
HETATM    1  C1  UNL     1     -36.673   6.193   3.699  1.00 20.00     0.013 C 
HETATM    2  C2  UNL     1     -35.660   6.074   4.332  1.00 20.00    -0.104 C 
HETATM    3  C3  UNL     1     -32.561   7.396   4.217  1.00 20.00     0.048 C 
HETATM    4  C4  UNL     1     -33.250   6.249   4.202  1.00 20.00    -0.001 C 
HETATM    5  C5  UNL     1     -32.961   8.498   5.123  1.00 20.00     0.149 C 
HETATM    6  C6  UNL     1     -34.214   8.331   5.952  1.00 20.00     0.085 C 
HETATM    7  C7  UNL     1     -34.431   6.870   6.334  1.00 20.00     0.034 C 
HETATM    8  C8  UNL     1     -34.413   5.927   5.113  1.00 20.00     0.037 C 
HETATM    9  C9  UNL     1     -34.304   4.475   5.605  1.00 20.00     0.034 C 
HETATM   10  O10 UNL     1     -32.311   9.542   5.139  1.00 20.00    -0.293 OA
ENDROOT
TORSDOF 0
