REMARK  4 active torsions:
REMARK  status: ('A' for Active; 'I' for Inactive)
REMARK    1  A    between atoms: C1_1  and  C2_2 
REMARK    2  A    between atoms: C1_1  and  C3_3 
REMARK    3  A    between atoms: C2_2  and  C8_8 
REMARK    4  A    between atoms: C3_3  and  C6_6 
ROOT
HETATM    1  C1  UNL     1     -32.694   6.707   2.814  1.00 20.00     0.125 C 
HETATM    2 CL11 UNL     1     -32.430   5.001   2.663  1.00 20.00    -0.076 Cl
ENDROOT
BRANCH   1   3
HETATM    3  C2  UNL     1     -32.616   7.580   1.777  1.00 20.00     0.174 C 
HETATM    4  O9  UNL     1     -32.337   7.383   0.558  1.00 20.00    -0.291 OA
BRANCH   3   5
HETATM    5  C8  UNL     1     -32.938   9.065   2.003  1.00 20.00     0.080 C 
HETATM    6  C7  UNL     1     -32.800   9.901   0.732  1.00 20.00     0.013 C 
ENDBRANCH   3   5
ENDBRANCH   1   3
BRANCH   1   7
HETATM    7  C3  UNL     1     -33.091   7.181   4.179  1.00 20.00     0.178 C 
HETATM    8  O10 UNL     1     -32.474   8.041   4.794  1.00 20.00    -0.291 OA
BRANCH   7   9
HETATM    9  C6  UNL     1     -34.316   6.576   4.780  1.00 20.00     0.061 A 
HETATM   10  C4  UNL     1     -34.186   5.285   5.517  1.00 20.00     0.013 A 
HETATM   11  C5  UNL     1     -34.444   6.558   6.267  1.00 20.00     0.013 A 
ENDBRANCH   7   9
ENDBRANCH   1   7
TORSDOF 4
