REMARK  3 active torsions:
REMARK  status: ('A' for Active; 'I' for Inactive)
REMARK    1  A    between atoms: C1_1  and  C2_2 
REMARK    2  A    between atoms: C1_1  and  O10_10 
REMARK    3  A    between atoms: C7_7  and  O10_10 
ROOT
HETATM    1  C1  UNL     1     -33.680   6.271   3.635  1.00 20.00     0.291 C 
HETATM    2  O8  UNL     1     -32.868   5.943   2.780  1.00 20.00    -0.262 OA
ENDROOT
BRANCH   1   3
HETATM    3  C2  UNL     1     -34.834   5.460   4.022  1.00 20.00     0.250 A 
HETATM    4  C3  UNL     1     -34.969   4.880   5.406  1.00 20.00     0.157 A 
HETATM    5  C4  UNL     1     -33.961   5.106   6.477  1.00 20.00     0.042 C 
HETATM    6  O9  UNL     1     -34.504   4.091   4.308  1.00 20.00    -0.365 OA
ENDBRANCH   1   3
BRANCH   1   7
HETATM    7  O10 UNL     1     -33.664   7.420   4.368  1.00 20.00    -0.315 OA
BRANCH   7   8
HETATM    8  C7  UNL     1     -32.580   8.312   4.090  1.00 20.00     0.123 C 
HETATM    9  C5  UNL     1     -32.982   9.254   2.966  1.00 20.00     0.040 C 
HETATM   10  C6  UNL     1     -32.214   9.067   5.358  1.00 20.00     0.040 C 
ENDBRANCH   7   8
ENDBRANCH   1   7
TORSDOF 3
