REMARK  2 active torsions:
REMARK  status: ('A' for Active; 'I' for Inactive)
REMARK    1  A    between atoms: C3_3  and  C6_6 
REMARK    2  A    between atoms: C3_3  and  O10_10 
ROOT
HETATM    1  C1  UNL     1     -34.518   4.997   4.858  1.00 20.00    -0.002 C 
HETATM    2  C2  UNL     1     -34.795   5.194   6.153  1.00 20.00     0.130 C 
HETATM    3  C4  UNL     1     -33.964   6.087   3.999  1.00 20.00     0.046 C 
HETATM    4  C5  UNL     1     -33.739   7.300   6.180  1.00 20.00     0.189 C 
HETATM    5  C6  UNL     1     -34.090   7.441   4.700  1.00 20.00     0.113 C 
HETATM    6  O9  UNL     1     -34.574   6.349   6.856  1.00 20.00    -0.362 OA
ENDROOT
BRANCH   5   7
HETATM    7  C3  UNL     1     -33.193   8.452   4.057  1.00 20.00     0.265 C 
HETATM    8  O8  UNL     1     -32.304   9.052   4.646  1.00 20.00    -0.265 OA
BRANCH   7   9
HETATM    9  O10 UNL     1     -33.528   8.588   2.742  1.00 20.00    -0.326 OA
HETATM   10  C7  UNL     1     -32.745   9.530   2.003  1.00 20.00     0.213 C 
ENDBRANCH   7   9
ENDBRANCH   5   7
TORSDOF 2
