REMARK  0 active torsions:
REMARK  status: ('A' for Active; 'I' for Inactive)
ROOT
HETATM    1  C1  UNL     1     -35.507   5.763   4.360  1.00 20.00     0.037 C 
HETATM    2  C2  UNL     1     -34.891   5.536   5.752  1.00 20.00     0.019 C 
HETATM    3  C3  UNL     1     -34.341   7.783   3.216  1.00 20.00     0.051 C 
HETATM    4  C4  UNL     1     -32.169   7.700   4.483  1.00 20.00     0.052 C 
HETATM    5  C5  UNL     1     -34.472   6.233   3.313  1.00 20.00     0.224 C 
HETATM    6  C6  UNL     1     -32.603   6.270   4.836  1.00 20.00     0.237 C 
HETATM    7  C7  UNL     1     -33.659   6.412   5.984  1.00 20.00     0.081 C 
HETATM    8  C8  UNL     1     -33.486   8.447   4.314  1.00 20.00     0.052 C 
HETATM    9  C9  UNL     1     -32.304   5.413   2.538  1.00 20.00     0.310 C 
HETATM   10  N10 UNL     1     -33.203   5.585   3.671  1.00 20.00     0.094 N 
HETATM   11  S11 UNL     1     -34.202   8.161   5.951  1.00 20.00    -0.157 SA
ENDROOT
TORSDOF 0
