REMARK  0 active torsions:
REMARK  status: ('A' for Active; 'I' for Inactive)
ROOT
HETATM    1  C1  UNL     1     -32.427   7.058   3.721  1.00 20.00     0.185 C 
HETATM    2  C2  UNL     1     -32.605   7.544   5.156  1.00 20.00     0.087 C 
HETATM    3  C3  UNL     1     -34.044   7.161   5.396  1.00 20.00     0.340 C 
HETATM    4  C4  UNL     1     -34.101   5.816   4.734  1.00 20.00     0.420 C 
HETATM    5  C5  UNL     1     -32.303   9.017   5.350  1.00 20.00     0.019 C 
HETATM    6  O6  UNL     1     -33.279   5.902   3.567  1.00 20.00    -0.321 OA
HETATM    7  F7  UNL     1     -34.383   7.126   6.692  1.00 20.00    -0.196 F 
HETATM    8  F8  UNL     1     -34.877   8.018   4.763  1.00 20.00    -0.196 F 
HETATM    9  F9  UNL     1     -33.574   4.858   5.532  1.00 20.00    -0.169 F 
HETATM   10  F10 UNL     1     -35.353   5.447   4.407  1.00 20.00    -0.169 F 
ENDROOT
TORSDOF 0
