REMARK  1 active torsions:
REMARK  status: ('A' for Active; 'I' for Inactive)
REMARK    1  A    between atoms: C3_3  and  C9_9 
ROOT
HETATM    1  C1  UNL     1     -34.368   6.121   6.315  1.00 20.00    -0.030 C 
HETATM    2  C2  UNL     1     -35.230   6.161   5.278  1.00 20.00    -0.029 C 
HETATM    3  C4  UNL     1     -33.080   6.919   6.378  1.00 20.00     0.032 C 
HETATM    4  C5  UNL     1     -35.007   6.975   4.015  1.00 20.00     0.044 C 
HETATM    5  C6  UNL     1     -32.020   8.700   4.535  1.00 20.00     0.007 C 
HETATM    6  C7  UNL     1     -32.963   8.633   3.290  1.00 20.00     0.018 C 
HETATM    7  C8  UNL     1     -33.156   7.967   5.284  1.00 20.00     0.005 C 
HETATM    8  C9  UNL     1     -33.512   7.300   3.910  1.00 20.00     0.027 C 
ENDROOT
BRANCH   8   9
HETATM    9  C3  UNL     1     -32.699   6.039   3.432  1.00 20.00     0.132 C 
HETATM   10  C10 UNL     1     -33.065   5.468   2.089  1.00 20.00     0.091 C 
HETATM   11  O11 UNL     1     -31.807   5.547   4.121  1.00 20.00    -0.298 OA
ENDBRANCH   8   9
TORSDOF 1
