REMARK  1 active torsions:
REMARK  status: ('A' for Active; 'I' for Inactive)
REMARK    1  A    between atoms: C3_3  and  C6_6 
ROOT
HETATM    1  C1  UNL     1     -32.500   8.324   1.841  1.00 20.00    -0.154 C 
HETATM    2  C5  UNL     1     -32.400   8.349   0.546  1.00 20.00     0.096 C 
HETATM    3  C6  UNL     1     -32.598   8.304   3.136  1.00 20.00     0.061 C 
ENDROOT
BRANCH   3   4
HETATM    4  C3  UNL     1     -33.229   7.225   3.836  1.00 20.00    -0.010 A 
HETATM    5  C2  UNL     1     -33.139   5.922   3.563  1.00 20.00     0.023 A 
HETATM    6  C4  UNL     1     -34.006   5.235   4.535  1.00 20.00     0.290 A 
HETATM    7  C8  UNL     1     -32.388   5.174   2.526  1.00 20.00     0.055 C 
HETATM    8  O10 UNL     1     -34.177   4.030   4.603  1.00 20.00    -0.260 OA
HETATM    9  O11 UNL     1     -34.595   6.163   5.342  1.00 20.00    -0.308 OA
HETATM   10  C7  UNL     1     -34.133   7.476   4.988  1.00 20.00     0.162 A 
HETATM   11  C9  UNL     1     -33.450   8.086   6.205  1.00 20.00     0.045 C 
ENDBRANCH   3   4
TORSDOF 1
