REMARK  1 active torsions:
REMARK  status: ('A' for Active; 'I' for Inactive)
REMARK    1  A    between atoms: C3_3  and  C8_8 
ROOT
HETATM    1  C1  UNL     1     -33.707   5.448   4.144  1.00 20.00    -0.084 C 
HETATM    2  C2  UNL     1     -33.179   4.986   3.008  1.00 20.00     0.015 C 
HETATM    3  C4  UNL     1     -33.446   4.908   5.528  1.00 20.00     0.038 C 
HETATM    4  C5  UNL     1     -35.565   6.001   5.428  1.00 20.00     0.014 C 
HETATM    5  C6  UNL     1     -33.776   7.262   6.380  1.00 20.00     0.021 C 
HETATM    6  C7  UNL     1     -34.723   6.564   4.279  1.00 20.00     0.028 C 
HETATM    7  C8  UNL     1     -34.070   7.780   4.960  1.00 20.00     0.095 C 
HETATM    8  C9  UNL     1     -34.360   5.831   6.359  1.00 20.00    -0.009 C 
ENDROOT
BRANCH   7   9
HETATM    9  C3  UNL     1     -32.835   8.277   4.233  1.00 20.00     0.177 C 
HETATM   10  O10 UNL     1     -32.848   8.120   2.981  1.00 20.00    -0.648 OA
HETATM   11  O11 UNL     1     -31.951   8.785   4.978  1.00 20.00    -0.648 OA
ENDBRANCH   7   9
TORSDOF 1
