REMARK  0 active torsions:
REMARK  status: ('A' for Active; 'I' for Inactive)
ROOT
HETATM    1  C1  UNL     1     -32.622   8.440   3.741  1.00 20.00     0.057 C 
HETATM    2  C2  UNL     1     -34.014   6.369   6.466  1.00 20.00    -0.019 C 
HETATM    3  C3  UNL     1     -33.675   6.893   5.281  1.00 20.00    -0.051 C 
HETATM    4  C4  UNL     1     -33.119   8.190   4.965  1.00 20.00    -0.052 C 
HETATM    5  C5  UNL     1     -32.546   7.374   2.701  1.00 20.00     0.150 C 
HETATM    6  C6  UNL     1     -34.548   4.979   6.318  1.00 20.00     0.028 C 
HETATM    7  C7  UNL     1     -32.882   5.951   3.102  1.00 20.00     0.092 C 
HETATM    8  C8  UNL     1     -34.124   4.606   4.896  1.00 20.00     0.013 C 
HETATM    9  C9  UNL     1     -33.975   5.941   4.160  1.00 20.00     0.026 C 
HETATM   10  C10 UNL     1     -33.132   9.252   6.027  1.00 20.00     0.049 C 
HETATM   11  O11 UNL     1     -32.149   7.651   1.571  1.00 20.00    -0.293 OA
ENDROOT
TORSDOF 0
