REMARK  2 active torsions:
REMARK  status: ('A' for Active; 'I' for Inactive)
REMARK    1  A    between atoms: C1_1  and  C6_6 
REMARK    2  A    between atoms: C7_7  and  C8_8 
ROOT
HETATM    1  C2  UNL     1     -33.298   6.033   3.239  1.00 20.00     0.014 C 
HETATM    2  C3  UNL     1     -33.930   8.088   4.562  1.00 20.00     0.014 C 
HETATM    3  C4  UNL     1     -32.488   6.899   2.276  1.00 20.00     0.008 C 
HETATM    4  C5  UNL     1     -33.122   8.958   3.601  1.00 20.00     0.008 C 
HETATM    5  C6  UNL     1     -33.375   6.669   4.622  1.00 20.00     0.072 C 
HETATM    6  C7  UNL     1     -33.039   8.330   2.203  1.00 20.00     0.014 C 
ENDROOT
BRANCH   5   7
HETATM    7  C1  UNL     1     -34.328   5.837   5.458  1.00 20.00     0.223 C 
HETATM    8  O9  UNL     1     -34.892   4.847   5.002  1.00 20.00    -0.279 OA
HETATM    9 CL11 UNL     1     -34.496   6.460   7.072  1.00 20.00    -0.043 Cl
ENDBRANCH   5   7
BRANCH   6  10
HETATM   10  C8  UNL     1     -32.182   9.191   1.276  1.00 20.00     0.226 C 
HETATM   11  F10 UNL     1     -32.528   8.905  -0.002  1.00 20.00    -0.255 F 
ENDBRANCH   6  10
TORSDOF 2
