REMARK  1 active torsions:
REMARK  status: ('A' for Active; 'I' for Inactive)
REMARK    1  A    between atoms: C1_1  and  C4_4 
ROOT
HETATM    1  C2  UNL     1     -35.124   5.715   3.819  1.00 20.00     0.225 A 
HETATM    2  C3  UNL     1     -34.238   4.827   4.622  1.00 20.00     0.225 A 
HETATM    3  C4  UNL     1     -33.647   6.025   3.913  1.00 20.00     0.099 A 
HETATM    4  C5  UNL     1     -32.814   5.748   2.688  1.00 20.00     0.031 C 
HETATM    5  F7  UNL     1     -36.009   6.526   4.507  1.00 20.00    -0.245 F 
HETATM    6  F8  UNL     1     -34.364   4.876   5.999  1.00 20.00    -0.245 F 
ENDROOT
BRANCH   3   7
HETATM    7  C1  UNL     1     -33.247   7.181   4.751  1.00 20.00     0.233 C 
HETATM    8  O6  UNL     1     -33.505   7.229   5.950  1.00 20.00    -0.279 OA
HETATM    9 CL9  UNL     1     -32.403   8.392   3.835  1.00 20.00    -0.043 Cl
ENDBRANCH   3   7
TORSDOF 1
