REMARK  1 active torsions:
REMARK  status: ('A' for Active; 'I' for Inactive)
REMARK    1  A    between atoms: C3_3  and  C8_8 
ROOT
HETATM    1  C1  UNL     1     -33.701   5.400   4.263  1.00 20.00    -0.079 C 
HETATM    2  C2  UNL     1     -33.238   4.913   3.109  1.00 20.00    -0.028 C 
HETATM    3  C4  UNL     1     -33.337   4.911   5.642  1.00 20.00     0.039 C 
HETATM    4  C5  UNL     1     -35.483   5.952   5.650  1.00 20.00     0.014 C 
HETATM    5  C6  UNL     1     -33.667   7.284   6.441  1.00 20.00     0.019 C 
HETATM    6  C7  UNL     1     -34.734   6.496   4.431  1.00 20.00     0.027 C 
HETATM    7  C8  UNL     1     -34.066   7.748   5.029  1.00 20.00     0.081 C 
HETATM    8  C9  UNL     1     -34.216   5.840   6.503  1.00 20.00    -0.009 C 
HETATM    9  C10 UNL     1     -32.265   3.785   3.007  1.00 20.00     0.036 C 
ENDROOT
BRANCH   7  10
HETATM   10  C3  UNL     1     -32.909   8.257   4.225  1.00 20.00     0.223 C 
HETATM   11  O11 UNL     1     -32.574   7.727   3.170  1.00 20.00    -0.279 OA
HETATM   12 CL12 UNL     1     -32.153   9.634   4.967  1.00 20.00    -0.043 Cl
ENDBRANCH   7  10
TORSDOF 1
