REMARK  1 active torsions:
REMARK  status: ('A' for Active; 'I' for Inactive)
REMARK    1  A    between atoms: C3_3  and  C7_7 
ROOT
HETATM    1  C1  UNL     1     -33.514   5.109   3.642  1.00 20.00    -0.070 C 
HETATM    2  C2  UNL     1     -33.157   4.614   2.453  1.00 20.00     0.015 C 
HETATM    3  C4  UNL     1     -35.710   5.957   4.365  1.00 20.00     0.009 C 
HETATM    4  C5  UNL     1     -34.997   6.985   5.263  1.00 20.00     0.006 C 
HETATM    5  C6  UNL     1     -34.232   4.820   5.847  1.00 20.00     0.014 C 
HETATM    6  C7  UNL     1     -32.728   6.068   4.498  1.00 20.00     0.119 C 
HETATM    7  C8  UNL     1     -34.765   4.746   4.414  1.00 20.00     0.015 C 
HETATM    8  C9  UNL     1     -33.703   6.251   5.681  1.00 20.00     0.004 C 
ENDROOT
BRANCH   6   9
HETATM    9  C3  UNL     1     -32.404   7.355   3.784  1.00 20.00     0.181 C 
HETATM   10  O10 UNL     1     -32.372   8.384   4.514  1.00 20.00    -0.647 OA
HETATM   11  O11 UNL     1     -32.205   7.235   2.542  1.00 20.00    -0.647 OA
ENDBRANCH   6   9
TORSDOF 1
