REMARK  2 active torsions:
REMARK  status: ('A' for Active; 'I' for Inactive)
REMARK    1  A    between atoms: C3_3  and  C9_9 
REMARK    2  A    between atoms: C9_9  and  N10_10 
ROOT
HETATM    1  C1  UNL     1     -33.200   6.522   3.902  1.00 20.00     0.040 C 
HETATM    2  C4  UNL     1     -32.857   7.767   4.686  1.00 20.00     0.057 C 
HETATM    3  C5  UNL     1     -33.965   8.058   5.689  1.00 20.00     0.006 C 
HETATM    4  C6  UNL     1     -34.194   6.897   6.661  1.00 20.00     0.004 C 
HETATM    5  C7  UNL     1     -33.878   5.524   6.064  1.00 20.00     0.043 C 
HETATM    6  C8  UNL     1     -34.074   5.480   4.556  1.00 20.00     0.217 C 
HETATM    7  N10 UNL     1     -32.763   6.336   2.700  1.00 20.00    -0.292 NA
HETATM    8  F11 UNL     1     -33.761   4.230   4.118  1.00 20.00    -0.243 F 
ENDROOT
BRANCH   7   9
HETATM    9  C9  UNL     1     -31.930   7.416   2.191  1.00 20.00     0.175 C 
BRANCH   9  10
HETATM   10  C3  UNL     1     -32.794   8.462   1.563  1.00 20.00    -0.015 C 
HETATM   11  C2  UNL     1     -32.688   8.851   0.288  1.00 20.00     0.008 C 
ENDBRANCH   9  10
ENDBRANCH   7   9
TORSDOF 2
