REMARK  2 active torsions:
REMARK  status: ('A' for Active; 'I' for Inactive)
REMARK    1  A    between atoms: C7_7  and  O10_10 
REMARK    2  A    between atoms: C9_9  and  O10_10 
ROOT
HETATM    1  C1  UNL     1     -32.388   5.308   2.603  1.00 20.00     0.015 C 
HETATM    2  C2  UNL     1     -32.873   6.203   3.239  1.00 20.00    -0.079 C 
HETATM    3  C3  UNL     1     -35.269   6.202   5.207  1.00 20.00     0.004 C 
HETATM    4  C4  UNL     1     -34.036   6.221   6.111  1.00 20.00     0.004 C 
HETATM    5  C5  UNL     1     -34.989   7.202   4.087  1.00 20.00     0.051 C 
HETATM    6  C6  UNL     1     -33.071   7.230   5.492  1.00 20.00     0.051 C 
HETATM    7  C7  UNL     1     -33.466   7.300   4.019  1.00 20.00     0.122 C 
ENDROOT
BRANCH   7   8
HETATM    8  O10 UNL     1     -33.066   8.547   3.470  1.00 20.00    -0.368 OA
BRANCH   8   9
HETATM    9  C9  UNL     1     -33.484   8.683   2.118  1.00 20.00     0.165 C 
HETATM   10  C8  UNL     1     -33.028  10.028   1.594  1.00 20.00     0.033 C 
ENDBRANCH   8   9
ENDBRANCH   7   8
TORSDOF 2
