REMARK  1 active torsions:
REMARK  status: ('A' for Active; 'I' for Inactive)
REMARK    1  A    between atoms: C1_1  and  C8_8 
REMARK       I    between atoms: C1_1  and  N9_9 
ROOT
HETATM    1  C1  UNL     1     -33.174   8.358   4.381  1.00 20.00     0.237 C 
HETATM    2  C2  UNL     1     -34.098   4.477   6.024  1.00 20.00     0.013 A 
HETATM    3  C3  UNL     1     -34.766   6.379   4.362  1.00 20.00     0.130 A 
HETATM    4  C4  UNL     1     -33.624   7.016   6.421  1.00 20.00     0.130 A 
HETATM    5  C5  UNL     1     -35.127   5.399   5.429  1.00 20.00     0.010 A 
HETATM    6  C6  UNL     1     -34.429   5.787   6.686  1.00 20.00     0.010 A 
HETATM    7  N9  UNL     1     -33.822   7.301   5.000  1.00 20.00    -0.350 N 
HETATM    8  O10 UNL     1     -32.386   9.113   4.953  1.00 20.00    -0.272 OA
ENDROOT
BRANCH   1   9
HETATM    9  C8  UNL     1     -33.489   8.548   2.919  1.00 20.00     0.170 C 
HETATM   10  C7  UNL     1     -33.308   9.995   2.522  1.00 20.00     0.036 C 
HETATM   11 CL11 UNL     1     -32.370   7.497   2.034  1.00 20.00    -0.115 Cl
ENDBRANCH   1   9
TORSDOF 1
