REMARK  2 active torsions:
REMARK  status: ('A' for Active; 'I' for Inactive)
REMARK    1  A    between atoms: C1_1  and  C8_8 
REMARK    2  A    between atoms: C3_3  and  C8_8 
ROOT
HETATM    1  C2  UNL     1     -33.095   8.726   5.282  1.00 20.00     0.153 A 
HETATM    2  C3  UNL     1     -33.466   7.379   4.690  1.00 20.00     0.093 A 
HETATM    3  C5  UNL     1     -32.127   9.661   4.650  1.00 20.00     0.042 C 
HETATM    4  C6  UNL     1     -32.867   6.900   3.406  1.00 20.00     0.049 C 
HETATM    5  O10 UNL     1     -34.311   8.533   4.547  1.00 20.00    -0.369 OA
ENDROOT
BRANCH   2   6
HETATM    6  C8  UNL     1     -34.029   6.329   5.596  1.00 20.00     0.087 C 
HETATM    7  C7  UNL     1     -34.709   6.945   6.829  1.00 20.00     0.021 C 
BRANCH   6   8
HETATM    8  C1  UNL     1     -35.022   5.432   4.844  1.00 20.00     0.129 C 
HETATM    9  C4  UNL     1     -36.218   6.113   4.227  1.00 20.00     0.091 C 
HETATM   10  O9  UNL     1     -34.891   4.209   4.777  1.00 20.00    -0.298 OA
ENDBRANCH   6   8
ENDBRANCH   2   6
TORSDOF 2
