REMARK  1 active torsions:
REMARK  status: ('A' for Active; 'I' for Inactive)
REMARK    1  A    between atoms: C3_3  and  C6_6 
ROOT
HETATM    1  C1  UNL     1     -34.259   5.515   6.356  1.00 20.00    -0.029 C 
HETATM    2  C2  UNL     1     -34.762   5.110   5.185  1.00 20.00    -0.021 C 
HETATM    3  C4  UNL     1     -33.349   6.689   6.190  1.00 20.00     0.046 C 
HETATM    4  C5  UNL     1     -34.248   5.938   4.029  1.00 20.00    -0.015 C 
HETATM    5  C6  UNL     1     -33.727   7.214   4.785  1.00 20.00     0.046 C 
HETATM    6  C7  UNL     1     -35.364   6.214   3.013  1.00 20.00     0.020 C 
HETATM    7  C8  UNL     1     -33.132   5.137   3.329  1.00 20.00     0.020 C 
HETATM    8  C9  UNL     1     -34.777   8.335   4.932  1.00 20.00     0.026 C 
ENDROOT
BRANCH   5   9
HETATM    9  C3  UNL     1     -32.530   7.829   4.107  1.00 20.00     0.228 C 
HETATM   10  O10 UNL     1     -32.100   7.398   3.041  1.00 20.00    -0.279 OA
HETATM   11 CL11 UNL     1     -31.883   9.167   5.008  1.00 20.00    -0.043 Cl
ENDBRANCH   5   9
TORSDOF 1
