REMARK  1 active torsions:
REMARK  status: ('A' for Active; 'I' for Inactive)
REMARK    1  A    between atoms: C4_4  and  C5_5 
ROOT
HETATM    1  C1  UNL     1     -34.468   5.457   6.240  1.00 20.00    -0.022 C 
HETATM    2  C2  UNL     1     -34.222   6.776   6.373  1.00 20.00    -0.021 C 
HETATM    3  C3  UNL     1     -33.515   5.501   3.962  1.00 20.00    -0.006 C 
HETATM    4  C4  UNL     1     -33.279   6.819   4.101  1.00 20.00     0.009 C 
HETATM    5  C6  UNL     1     -35.931   5.812   4.300  1.00 20.00     0.013 C 
HETATM    6  C7  UNL     1     -35.646   7.343   4.456  1.00 20.00     0.014 C 
HETATM    7  C8  UNL     1     -34.695   5.011   4.799  1.00 20.00     0.031 C 
HETATM    8  C9  UNL     1     -34.223   7.540   5.051  1.00 20.00     0.045 C 
ENDROOT
BRANCH   4   9
HETATM    9  C5  UNL     1     -32.209   7.494   3.383  1.00 20.00     0.248 C 
HETATM   10  O10 UNL     1     -31.312   8.064   4.023  1.00 20.00    -0.274 OA
HETATM   11 CL11 UNL     1     -32.264   7.452   1.629  1.00 20.00    -0.039 Cl
ENDBRANCH   4   9
TORSDOF 1
