REMARK  1 active torsions:
REMARK  status: ('A' for Active; 'I' for Inactive)
REMARK    1  A    between atoms: C2_2  and  C3_3 
ROOT
HETATM    1  C1  UNL     1     -33.062   8.258   4.183  1.00 20.00    -0.010 A 
HETATM    2  C2  UNL     1     -32.674   7.785   2.989  1.00 20.00    -0.016 A 
HETATM    3  C4  UNL     1     -32.640   6.283   3.004  1.00 20.00     0.048 A 
HETATM    4  C5  UNL     1     -33.313   7.198   5.176  1.00 20.00     0.022 A 
HETATM    5  C6  UNL     1     -33.043   5.900   4.418  1.00 20.00     0.007 A 
HETATM    6  C7  UNL     1     -34.410   6.164   5.027  1.00 20.00    -0.036 A 
HETATM    7  C9  UNL     1     -34.768   5.373   6.263  1.00 20.00     0.016 C 
HETATM    8  C10 UNL     1     -35.600   6.433   4.139  1.00 20.00     0.016 C 
ENDROOT
BRANCH   2   9
HETATM    9  C3  UNL     1     -32.358   8.608   1.839  1.00 20.00     0.151 C 
HETATM   10  C8  UNL     1     -31.334   8.101   0.845  1.00 20.00     0.096 C 
HETATM   11  O11 UNL     1     -32.903   9.710   1.667  1.00 20.00    -0.293 OA
ENDBRANCH   2   9
TORSDOF 1
