REMARK  0 active torsions:
REMARK  status: ('A' for Active; 'I' for Inactive)
ROOT
HETATM    1  C1  UNL     1     -32.204   8.738   4.402  1.00 20.00     0.100 C 
HETATM    2  C2  UNL     1     -32.111   6.865   2.833  1.00 20.00     0.042 A 
HETATM    3  C3  UNL     1     -32.503   5.569   2.494  1.00 20.00     0.118 A 
HETATM    4  C4  UNL     1     -32.595   7.421   4.015  1.00 20.00     0.054 A 
HETATM    5  C5  UNL     1     -33.450   6.660   4.785  1.00 20.00    -0.013 A 
HETATM    6  C6  UNL     1     -33.779   5.376   4.363  1.00 20.00     0.042 A 
HETATM    7  C7  UNL     1     -34.085   6.982   6.096  1.00 20.00     0.042 C 
HETATM    8  C8  UNL     1     -34.671   4.700   5.364  1.00 20.00     0.060 C 
HETATM    9  C9  UNL     1     -35.186   5.910   6.159  1.00 20.00     0.011 C 
HETATM   10  N10 UNL     1     -31.887   9.809   4.718  1.00 20.00    -0.191 NA
HETATM   11  N11 UNL     1     -33.330   4.796   3.238  1.00 20.00    -0.265 NA
ENDROOT
TORSDOF 0
