REMARK  1 active torsions:
REMARK  status: ('A' for Active; 'I' for Inactive)
REMARK    1  A    between atoms: C2_2  and  C6_6 
ROOT
HETATM    1  C1  UNL     1     -34.035   4.218   4.661  1.00 20.00     0.074 C 
HETATM    2  C3  UNL     1     -34.329   5.692   6.637  1.00 20.00     0.031 C 
HETATM    3  C4  UNL     1     -33.271   6.754   6.359  1.00 20.00     0.025 C 
HETATM    4  C5  UNL     1     -34.884   5.237   5.290  1.00 20.00     0.154 C 
HETATM    5  C6  UNL     1     -33.899   7.749   5.396  1.00 20.00     0.117 C 
HETATM    6  N8  UNL     1     -33.365   3.411   4.164  1.00 20.00    -0.196 NA
HETATM    7  S10 UNL     1     -34.937   6.757   4.286  1.00 20.00    -0.137 SA
ENDROOT
BRANCH   5   8
HETATM    8  C2  UNL     1     -32.883   8.468   4.577  1.00 20.00     0.136 C 
HETATM    9  C7  UNL     1     -31.917   9.352   5.319  1.00 20.00     0.092 C 
HETATM   10  O9  UNL     1     -32.834   8.343   3.354  1.00 20.00    -0.297 OA
ENDBRANCH   5   8
TORSDOF 1
