REMARK  5 active torsions:
REMARK  status: ('A' for Active; 'I' for Inactive)
REMARK    1  A    between atoms: C1_1  and  C7_7 
REMARK    2  A    between atoms: C2_2  and  C9_9 
REMARK    3  A    between atoms: C4_4  and  C8_8 
REMARK    4  A    between atoms: C8_8  and  C9_9 
REMARK    5  A    between atoms: C9_9  and  O10_10 
ROOT
HETATM    1  C9  UNL     1     -32.788   5.977   3.785  1.00 20.00     0.200 C 
ENDROOT
BRANCH   1   2
HETATM    2  C2  UNL     1     -32.512   6.825   2.616  1.00 20.00    -0.074 C 
HETATM    3  C1  UNL     1     -32.285   7.518   1.662  1.00 20.00    -0.099 C 
BRANCH   3   4
HETATM    4  C7  UNL     1     -32.014   8.349   0.517  1.00 20.00     0.065 A 
HETATM    5  C5  UNL     1     -32.526   9.761   0.516  1.00 20.00     0.018 A 
HETATM    6  C6  UNL     1     -33.156   8.735  -0.378  1.00 20.00     0.018 A 
ENDBRANCH   3   4
ENDBRANCH   1   2
BRANCH   1   7
HETATM    7  C8  UNL     1     -33.564   6.760   4.850  1.00 20.00     0.071 C 
BRANCH   7   8
HETATM    8  C4  UNL     1     -33.864   5.914   6.056  1.00 20.00    -0.033 C 
HETATM    9  C3  UNL     1     -34.979   5.190   6.205  1.00 20.00     0.007 C 
ENDBRANCH   7   8
ENDBRANCH   1   7
BRANCH   1  10
HETATM   10  O10 UNL     1     -33.571   4.855   3.382  1.00 20.00    -0.383 OA
HETATM   11  H22 UNL     1     -34.392   5.212   3.010  1.00 20.00     0.211 HD
ENDBRANCH   1  10
TORSDOF 5
