REMARK  2 active torsions:
REMARK  status: ('A' for Active; 'I' for Inactive)
REMARK    1  A    between atoms: C1_1  and  C6_6 
REMARK    2  A    between atoms: C1_1  and  O10_10 
ROOT
HETATM    1  C2  UNL     1     -34.625   4.883   5.433  1.00 20.00     0.006 C 
HETATM    2  C3  UNL     1     -34.057   5.512   6.712  1.00 20.00     0.036 C 
HETATM    3  C4  UNL     1     -34.934   6.065   4.504  1.00 20.00     0.052 C 
HETATM    4  C5  UNL     1     -33.380   6.756   6.229  1.00 20.00     0.168 A 
HETATM    5  C6  UNL     1     -33.903   7.093   4.871  1.00 20.00     0.174 A 
HETATM    6  O9  UNL     1     -34.236   7.880   6.027  1.00 20.00    -0.358 OA
ENDROOT
BRANCH   5   7
HETATM    7  C1  UNL     1     -33.090   7.805   3.891  1.00 20.00     0.296 C 
HETATM    8  O8  UNL     1     -32.661   8.940   4.052  1.00 20.00    -0.262 OA
BRANCH   7   9
HETATM    9  O10 UNL     1     -32.895   7.014   2.798  1.00 20.00    -0.324 OA
HETATM   10  C7  UNL     1     -32.109   7.593   1.752  1.00 20.00     0.213 C 
ENDBRANCH   7   9
ENDBRANCH   5   7
TORSDOF 2
