REMARK  1 active torsions:
REMARK  status: ('A' for Active; 'I' for Inactive)
REMARK    1  A    between atoms: C1_1  and  C6_6 
ROOT
HETATM    1  C2  UNL     1     -33.777   4.137   5.336  1.00 20.00     0.005 A 
HETATM    2  C3  UNL     1     -34.343   5.192   6.294  1.00 20.00     0.005 A 
HETATM    3  C4  UNL     1     -33.393   5.657   3.228  1.00 20.00     0.018 C 
HETATM    4  C5  UNL     1     -34.318   7.288   4.715  1.00 20.00     0.018 C 
HETATM    5  C6  UNL     1     -33.016   6.908   4.017  1.00 20.00     0.073 C 
HETATM    6  C7  UNL     1     -34.364   4.905   4.135  1.00 20.00    -0.010 A 
HETATM    7  C8  UNL     1     -34.953   5.954   5.100  1.00 20.00    -0.010 A 
ENDROOT
BRANCH   5   8
HETATM    8  C1  UNL     1     -32.524   7.993   3.116  1.00 20.00     0.223 C 
HETATM    9  O9  UNL     1     -32.419   7.827   1.904  1.00 20.00    -0.279 OA
HETATM   10 CL10 UNL     1     -32.143   9.446   3.990  1.00 20.00    -0.043 Cl
ENDBRANCH   5   8
TORSDOF 1
