REMARK  1 active torsions:
REMARK  status: ('A' for Active; 'I' for Inactive)
REMARK    1  A    between atoms: C2_2  and  C3_3 
ROOT
HETATM    1  C1  UNL     1     -32.553   7.794   4.002  1.00 20.00    -0.015 C 
HETATM    2  C2  UNL     1     -33.269   6.728   3.601  1.00 20.00    -0.012 C 
HETATM    3  C4  UNL     1     -32.943   8.539   5.263  1.00 20.00     0.033 C 
HETATM    4  C5  UNL     1     -35.282   7.655   4.782  1.00 20.00     0.016 C 
HETATM    5  C6  UNL     1     -34.457   6.360   4.437  1.00 20.00     0.030 C 
HETATM    6  C7  UNL     1     -34.193   7.876   5.885  1.00 20.00    -0.002 C 
HETATM    7  C8  UNL     1     -34.143   6.288   6.000  1.00 20.00    -0.036 C 
HETATM    8  C10 UNL     1     -35.259   5.658   6.857  1.00 20.00     0.016 C 
HETATM    9  C11 UNL     1     -32.816   5.656   6.442  1.00 20.00     0.016 C 
ENDROOT
BRANCH   2  10
HETATM   10  C3  UNL     1     -32.890   5.993   2.398  1.00 20.00     0.151 C 
HETATM   11  C9  UNL     1     -32.206   6.750   1.284  1.00 20.00     0.096 C 
HETATM   12  O12 UNL     1     -33.129   4.785   2.292  1.00 20.00    -0.293 OA
ENDBRANCH   2  10
TORSDOF 1
