REMARK  1 active torsions:
REMARK  status: ('A' for Active; 'I' for Inactive)
REMARK    1  A    between atoms: C5_5  and  N8_8 
ROOT
HETATM    1  C1  UNL     1     -34.856   6.170   6.076  1.00 20.00     0.069 A 
HETATM    2  C2  UNL     1     -34.320   7.366   5.822  1.00 20.00     0.095 A 
HETATM    3  C3  UNL     1     -34.415   5.352   4.924  1.00 20.00     0.168 A 
HETATM    4  C6  UNL     1     -33.572   6.173   3.967  1.00 20.00     0.211 A 
HETATM    5  N8  UNL     1     -33.583   7.458   4.659  1.00 20.00    -0.354 N 
HETATM    6  O9  UNL     1     -34.703   4.174   4.781  1.00 20.00    -0.291 OA
ENDROOT
BRANCH   5   7
HETATM    7  C5  UNL     1     -32.947   8.568   4.197  1.00 20.00    -0.002 C 
HETATM    8  C4  UNL     1     -32.783   8.764   2.882  1.00 20.00     0.038 C 
HETATM    9  C7  UNL     1     -32.457   9.530   5.233  1.00 20.00     0.067 C 
ENDBRANCH   5   7
TORSDOF 1
