REMARK  3 active torsions:
REMARK  status: ('A' for Active; 'I' for Inactive)
REMARK    1  A    between atoms: C4_4  and  C5_5 
REMARK    2  A    between atoms: C6_6  and  C9_9 
REMARK    3  A    between atoms: C7_7  and  C10_10 
ROOT
HETATM    1  C1  UNL     1     -32.703   9.181   5.416  1.00 20.00    -0.029 C 
HETATM    2  C2  UNL     1     -32.749   9.183   4.081  1.00 20.00    -0.021 C 
HETATM    3  C8  UNL     1     -33.134   7.876   5.992  1.00 20.00     0.039 C 
HETATM    4  C9  UNL     1     -33.231   7.877   3.530  1.00 20.00     0.041 C 
HETATM    5  C10 UNL     1     -33.213   6.956   4.766  1.00 20.00     0.062 C 
ENDROOT
BRANCH   4   6
HETATM    6  C6  UNL     1     -32.359   7.356   2.433  1.00 20.00    -0.017 C 
HETATM    7  C5  UNL     1     -32.158   8.000   1.274  1.00 20.00    -0.004 C 
BRANCH   7   8
HETATM    8  C4  UNL     1     -32.765   9.273   0.962  1.00 20.00    -0.011 C 
HETATM    9  C3  UNL     1     -32.566   9.919  -0.193  1.00 20.00     0.011 C 
ENDBRANCH   7   8
ENDBRANCH   4   6
BRANCH   5  10
HETATM   10  C7  UNL     1     -34.447   6.107   4.812  1.00 20.00     0.236 C 
HETATM   11  O11 UNL     1     -34.978   5.744   5.856  1.00 20.00    -0.306 OA
ENDBRANCH   5  10
TORSDOF 3
