REMARK  2 active torsions:
REMARK  status: ('A' for Active; 'I' for Inactive)
REMARK    1  A    between atoms: C3_3  and  C6_6 
REMARK    2  A    between atoms: C7_7  and  O11_11 
ROOT
HETATM    1  C1  UNL     1     -32.832   8.415   3.972  1.00 20.00    -0.023 C 
HETATM    2  C2  UNL     1     -32.702   7.490   3.007  1.00 20.00    -0.085 C 
HETATM    3  C4  UNL     1     -33.415   8.132   5.324  1.00 20.00     0.042 C 
HETATM    4  C5  UNL     1     -33.162   6.068   3.202  1.00 20.00     0.071 C 
HETATM    5  C6  UNL     1     -33.585   6.635   5.622  1.00 20.00     0.084 C 
HETATM    6  C7  UNL     1     -34.118   5.854   4.399  1.00 20.00     0.068 C 
HETATM    7  C8  UNL     1     -32.081   7.810   1.680  1.00 20.00     0.043 C 
HETATM    8  C9  UNL     1     -35.556   6.235   4.016  1.00 20.00     0.047 C 
ENDROOT
BRANCH   6   9
HETATM    9  O11 UNL     1     -34.090   4.450   4.682  1.00 20.00    -0.389 OA
HETATM   10  H25 UNL     1     -34.396   4.013   3.877  1.00 20.00     0.210 HD
ENDBRANCH   6   9
BRANCH   5  11
HETATM   11  C3  UNL     1     -34.450   6.467   6.843  1.00 20.00     0.238 C 
HETATM   12  O10 UNL     1     -35.114   5.460   7.068  1.00 20.00    -0.306 OA
ENDBRANCH   5  11
TORSDOF 2
