REMARK  2 active torsions:
REMARK  status: ('A' for Active; 'I' for Inactive)
REMARK    1  A    between atoms: C4_4  and  C5_5 
REMARK    2  A    between atoms: C9_9  and  C11_11 
ROOT
HETATM    1  C1  UNL     1     -32.551   9.769   0.424  1.00 20.00     0.012 C 
HETATM    2  C2  UNL     1     -32.949   9.698   1.555  1.00 20.00    -0.117 C 
HETATM    3  C11 UNL     1     -33.444   9.616   2.932  1.00 20.00     0.098 C 
ENDROOT
BRANCH   3   4
HETATM    4  C9  UNL     1     -32.338   9.158   3.888  1.00 20.00     0.000 C 
HETATM    5  C6  UNL     1     -32.836   9.109   5.345  1.00 20.00     0.033 C 
HETATM    6  C3  UNL     1     -33.579   7.851   5.696  1.00 20.00    -0.016 C 
HETATM    7  C4  UNL     1     -33.551   6.756   4.924  1.00 20.00    -0.016 C 
HETATM    8  C7  UNL     1     -32.769   6.650   3.650  1.00 20.00     0.042 C 
HETATM    9  C8  UNL     1     -31.763   7.794   3.476  1.00 20.00     0.010 C 
BRANCH   7  10
HETATM   10  C5  UNL     1     -34.321   5.590   5.366  1.00 20.00     0.151 C 
HETATM   11  C10 UNL     1     -34.508   5.385   6.848  1.00 20.00     0.096 C 
HETATM   12  O12 UNL     1     -34.793   4.800   4.545  1.00 20.00    -0.293 OA
ENDBRANCH   7  10
ENDBRANCH   3   4
TORSDOF 2
