REMARK  1 active torsions:
REMARK  status: ('A' for Active; 'I' for Inactive)
REMARK    1  A    between atoms: C3_3  and  C6_6 
ROOT
HETATM    1  C1  UNL     1     -34.472   6.542   6.671  1.00 20.00    -0.023 C 
HETATM    2  C2  UNL     1     -34.282   7.223   5.534  1.00 20.00    -0.071 C 
HETATM    3  C4  UNL     1     -34.684   5.086   6.426  1.00 20.00     0.033 C 
HETATM    4  C5  UNL     1     -34.202   4.898   4.974  1.00 20.00     0.005 C 
HETATM    5  C6  UNL     1     -34.326   6.312   4.330  1.00 20.00     0.043 C 
HETATM    6  C7  UNL     1     -34.125   8.702   5.432  1.00 20.00     0.044 C 
HETATM    7  C9  UNL     1     -32.787   4.302   4.973  1.00 20.00     0.011 C 
HETATM    8  C10 UNL     1     -35.652   6.463   3.575  1.00 20.00     0.029 C 
ENDROOT
BRANCH   5   9
HETATM    9  C3  UNL     1     -33.184   6.640   3.402  1.00 20.00     0.136 C 
HETATM   10  C8  UNL     1     -33.078   5.823   2.143  1.00 20.00     0.092 C 
HETATM   11  O11 UNL     1     -32.379   7.533   3.661  1.00 20.00    -0.297 OA
ENDBRANCH   5   9
TORSDOF 1
