REMARK  0 active torsions:
REMARK  status: ('A' for Active; 'I' for Inactive)
ROOT
HETATM    1  C1  UNL     1     -34.435   5.862   6.782  1.00 20.00     0.352 C 
HETATM    2  C2  UNL     1     -34.355   6.147   4.552  1.00 20.00     0.451 C 
HETATM    3  C3  UNL     1     -34.154   7.462   5.226  1.00 20.00     0.451 C 
HETATM    4  O4  UNL     1     -34.097   5.185   5.564  1.00 20.00    -0.294 OA
HETATM    5  O5  UNL     1     -34.634   7.263   6.547  1.00 20.00    -0.294 OA
HETATM    6  F6  UNL     1     -33.537   5.962   3.501  1.00 20.00    -0.166 F 
HETATM    7  F7  UNL     1     -35.632   5.991   4.139  1.00 20.00    -0.166 F 
HETATM    8  F8  UNL     1     -34.814   8.468   4.627  1.00 20.00    -0.166 F 
HETATM    9  F9  UNL     1     -32.845   7.787   5.299  1.00 20.00    -0.166 F 
ENDROOT
TORSDOF 0
