REMARK  2 active torsions:
REMARK  status: ('A' for Active; 'I' for Inactive)
REMARK    1  A    between atoms: C2_2  and  C7_7 
REMARK    2  A    between atoms: C6_6  and  C7_7 
ROOT
HETATM    1  C1  UNL     1     -32.311   7.323   2.359  1.00 20.00     0.064 C 
HETATM    2  C4  UNL     1     -33.244   5.065   2.641  1.00 20.00     0.026 C 
HETATM    3  C6  UNL     1     -32.749   6.324   3.356  1.00 20.00     0.099 C 
HETATM    4  N8  UNL     1     -31.965   8.108   1.577  1.00 20.00    -0.197 NA
ENDROOT
BRANCH   3   5
HETATM    5  C7  UNL     1     -33.785   6.942   4.325  1.00 20.00     0.068 C 
HETATM    6  C5  UNL     1     -33.485   8.390   4.725  1.00 20.00     0.019 C 
BRANCH   5   7
HETATM    7  C2  UNL     1     -33.939   6.070   5.574  1.00 20.00     0.128 C 
HETATM    8  C3  UNL     1     -34.356   4.636   5.359  1.00 20.00     0.091 C 
HETATM    9  O9  UNL     1     -33.759   6.508   6.710  1.00 20.00    -0.298 OA
ENDBRANCH   5   7
ENDBRANCH   3   5
TORSDOF 2
