REMARK  0 active torsions:
REMARK  status: ('A' for Active; 'I' for Inactive)
ROOT
HETATM    1  C1  UNL     1     -32.882   9.903   1.869  1.00 20.00     0.015 C 
HETATM    2  C2  UNL     1     -32.820   9.083   2.744  1.00 20.00    -0.076 C 
HETATM    3  C3  UNL     1     -33.521   8.576   5.041  1.00 20.00     0.057 C 
HETATM    4  C4  UNL     1     -33.896   7.304   5.779  1.00 20.00     0.044 C 
HETATM    5  C5  UNL     1     -32.743   8.075   3.820  1.00 20.00     0.218 C 
HETATM    6  C6  UNL     1     -34.101   6.258   4.667  1.00 20.00     0.154 C 
HETATM    7  C7  UNL     1     -31.268   7.820   4.172  1.00 20.00     0.064 C 
HETATM    8  C8  UNL     1     -33.517   4.907   5.113  1.00 20.00     0.049 C 
HETATM    9  C9  UNL     1     -35.603   6.080   4.384  1.00 20.00     0.049 C 
HETATM   10  C10 UNL     1     -32.874   5.963   2.508  1.00 20.00     0.313 C 
HETATM   11  N11 UNL     1     -33.501   6.865   3.459  1.00 20.00     0.114 N 
ENDROOT
TORSDOF 0
