REMARK  0 active torsions:
REMARK  status: ('A' for Active; 'I' for Inactive)
ROOT
HETATM    1  C1  UNL     1     -33.488   5.351   3.683  1.00 20.00     0.007 C 
HETATM    2  C2  UNL     1     -32.663   7.095   2.429  1.00 20.00     0.226 C 
HETATM    3  C3  UNL     1     -33.729   4.077   4.006  1.00 20.00     0.038 C 
HETATM    4  C4  UNL     1     -33.808   6.571   4.503  1.00 20.00     0.043 C 
HETATM    5  C5  UNL     1     -33.058   7.706   3.762  1.00 20.00     0.083 C 
HETATM    6  C6  UNL     1     -35.313   6.839   4.542  1.00 20.00     0.017 C 
HETATM    7  C7  UNL     1     -31.802   8.144   4.507  1.00 20.00     0.020 C 
HETATM    8  N8  UNL     1     -32.898   5.734   2.514  1.00 20.00    -0.331 N 
HETATM    9  O9  UNL     1     -32.178   7.703   1.487  1.00 20.00    -0.273 OA
HETATM   10  H20 UNL     1     -32.656   5.076   1.781  1.00 20.00     0.168 HD
ENDROOT
TORSDOF 0
