REMARK  0 active torsions:
REMARK  status: ('A' for Active; 'I' for Inactive)
ROOT
HETATM    1  C1  UNL     1     -33.484   5.977   5.691  1.00 20.00     0.251 C 
HETATM    2  C2  UNL     1     -33.069   7.317   5.112  1.00 20.00     0.251 C 
HETATM    3  C3  UNL     1     -34.385   5.326   4.657  1.00 20.00     0.271 C 
HETATM    4  C4  UNL     1     -32.501   6.998   3.742  1.00 20.00     0.271 C 
HETATM    5  F5  UNL     1     -34.155   6.155   6.853  1.00 20.00    -0.242 F 
HETATM    6  F6  UNL     1     -34.176   8.097   4.965  1.00 20.00    -0.242 F 
HETATM    7  F7  UNL     1     -35.606   5.925   4.687  1.00 20.00    -0.235 F 
HETATM    8  F8  UNL     1     -32.496   8.107   2.966  1.00 20.00    -0.235 F 
HETATM    9  S9  UNL     1     -33.586   5.710   3.069  1.00 20.00    -0.089 SA
ENDROOT
TORSDOF 0
