REMARK  1 active torsions:
REMARK  status: ('A' for Active; 'I' for Inactive)
REMARK    1  A    between atoms: C1_1  and  C3_3 
ROOT
HETATM    1  C1  UNL     1     -33.818   7.101   5.146  1.00 20.00     0.163 C 
HETATM    2  C2  UNL     1     -33.043   7.833   4.328  1.00 20.00    -0.045 C 
HETATM    3  C4  UNL     1     -32.525   9.215   4.615  1.00 20.00     0.046 C 
HETATM    4  C5  UNL     1     -32.600   7.281   2.998  1.00 20.00     0.046 C 
HETATM    5  F8  UNL     1     -34.202   7.607   6.340  1.00 20.00    -0.202 F 
ENDROOT
BRANCH   1   6
HETATM    6  C3  UNL     1     -34.347   5.733   4.894  1.00 20.00     0.183 C 
HETATM    7  C6  UNL     1     -34.566   4.862   6.103  1.00 20.00     0.099 C 
HETATM    8  O7  UNL     1     -34.555   5.307   3.761  1.00 20.00    -0.290 OA
ENDBRANCH   1   6
TORSDOF 1
