REMARK  1 active torsions:
REMARK  status: ('A' for Active; 'I' for Inactive)
REMARK    1  A    between atoms: C5_5  and  C7_7 
ROOT
HETATM    1  C1  UNL     1     -34.815   5.079   6.284  1.00 20.00    -0.003 A 
HETATM    2  C2  UNL     1     -34.809   6.522   6.417  1.00 20.00    -0.003 A 
HETATM    3  C3  UNL     1     -34.490   4.774   5.014  1.00 20.00    -0.012 A 
HETATM    4  C4  UNL     1     -34.479   7.050   5.223  1.00 20.00    -0.012 A 
HETATM    5  C6  UNL     1     -34.674   6.127   2.806  1.00 20.00     0.032 A 
HETATM    6  C7  UNL     1     -33.202   6.057   3.156  1.00 20.00     0.072 A 
HETATM    7  C8  UNL     1     -34.244   5.993   4.229  1.00 20.00     0.006 A 
ENDROOT
BRANCH   6   8
HETATM    8  C5  UNL     1     -32.369   7.253   2.981  1.00 20.00     0.128 C 
HETATM    9  C9  UNL     1     -32.419   7.922   1.633  1.00 20.00     0.091 C 
HETATM   10  O10 UNL     1     -31.666   7.689   3.891  1.00 20.00    -0.298 OA
ENDBRANCH   6   8
TORSDOF 1
