REMARK  1 active torsions:
REMARK  status: ('A' for Active; 'I' for Inactive)
REMARK    1  A    between atoms: C3_3  and  C5_5 
ROOT
HETATM    1  C1  UNL     1     -33.048   8.402   4.261  1.00 20.00     0.050 A 
HETATM    2  C2  UNL     1     -33.511   7.248   4.932  1.00 20.00    -0.026 A 
HETATM    3  C3  UNL     1     -32.882   8.033   2.942  1.00 20.00     0.113 A 
HETATM    4  C4  UNL     1     -33.596   6.267   3.971  1.00 20.00     0.060 A 
HETATM    5  C6  UNL     1     -33.885   7.002   6.348  1.00 20.00     0.041 C 
HETATM    6  C7  UNL     1     -34.006   4.858   4.148  1.00 20.00     0.066 C 
HETATM    7  C8  UNL     1     -33.964   5.486   6.638  1.00 20.00     0.005 C 
HETATM    8  C9  UNL     1     -34.692   4.706   5.522  1.00 20.00     0.007 C 
HETATM    9  O11 UNL     1     -33.214   6.724   2.756  1.00 20.00    -0.311 OA
ENDROOT
BRANCH   3  10
HETATM   10  C5  UNL     1     -32.441   8.773   1.808  1.00 20.00     0.295 C 
HETATM   11  O10 UNL     1     -32.339   8.300   0.655  1.00 20.00    -0.299 OA
ENDBRANCH   3  10
TORSDOF 1
