REMARK  1 active torsions:
REMARK  status: ('A' for Active; 'I' for Inactive)
REMARK    1  A    between atoms: C1_1  and  C3_3 
ROOT
HETATM    1  C2  UNL     1     -34.744   5.341   5.445  1.00 20.00     0.103 A 
HETATM    2  C3  UNL     1     -34.007   5.952   4.279  1.00 20.00     0.073 A 
HETATM    3  C5  UNL     1     -33.533   5.025   3.192  1.00 20.00     0.036 C 
HETATM    4  S7  UNL     1     -35.731   6.218   4.344  1.00 20.00    -0.149 SA
ENDROOT
BRANCH   2   5
HETATM    5  C1  UNL     1     -33.207   7.167   4.541  1.00 20.00     0.142 C 
HETATM    6  C4  UNL     1     -33.689   8.070   5.644  1.00 20.00     0.092 C 
HETATM    7  O6  UNL     1     -32.195   7.425   3.892  1.00 20.00    -0.297 OA
ENDBRANCH   2   5
TORSDOF 1
