REMARK  1 active torsions:
REMARK  status: ('A' for Active; 'I' for Inactive)
REMARK    1  A    between atoms: C2_2  and  C3_3 
ROOT
HETATM    1  C1  UNL     1     -33.812   6.766   4.480  1.00 20.00    -0.007 C 
HETATM    2  C2  UNL     1     -33.188   6.589   3.311  1.00 20.00    -0.012 C 
HETATM    3  C4  UNL     1     -33.985   4.468   3.941  1.00 20.00     0.022 C 
HETATM    4  C5  UNL     1     -33.415   5.231   2.728  1.00 20.00     0.019 C 
HETATM    5  C6  UNL     1     -34.580   5.537   4.887  1.00 20.00    -0.029 C 
HETATM    6  C8  UNL     1     -32.168   4.551   2.177  1.00 20.00     0.015 C 
HETATM    7  C9  UNL     1     -36.079   5.737   4.639  1.00 20.00     0.019 C 
HETATM    8  C10 UNL     1     -34.331   5.175   6.353  1.00 20.00     0.019 C 
ENDROOT
BRANCH   2   9
HETATM    9  C3  UNL     1     -32.429   7.655   2.678  1.00 20.00     0.151 C 
HETATM   10  C7  UNL     1     -31.765   8.690   3.560  1.00 20.00     0.096 C 
HETATM   11  O11 UNL     1     -32.330   7.724   1.445  1.00 20.00    -0.293 OA
ENDBRANCH   2   9
TORSDOF 1
