REMARK  1 active torsions:
REMARK  status: ('A' for Active; 'I' for Inactive)
REMARK    1  A    between atoms: C2_2  and  C7_7 
ROOT
HETATM    1  C1  UNL     1     -34.319   5.807   6.220  1.00 20.00     0.132 C 
HETATM    2  C3  UNL     1     -33.431   6.979   6.589  1.00 20.00     0.084 C 
HETATM    3  C4  UNL     1     -35.214   6.817   4.211  1.00 20.00     0.013 C 
HETATM    4  C5  UNL     1     -34.338   8.054   4.500  1.00 20.00     0.007 C 
HETATM    5  C6  UNL     1     -34.341   5.658   4.710  1.00 20.00     0.068 C 
HETATM    6  C7  UNL     1     -32.912   6.120   4.421  1.00 20.00     0.088 C 
HETATM    7  C8  UNL     1     -33.075   7.454   5.160  1.00 20.00     0.006 C 
HETATM    8  O9  UNL     1     -34.943   5.117   7.011  1.00 20.00    -0.298 OA
ENDROOT
BRANCH   6   9
HETATM    9  C2  UNL     1     -32.576   6.246   2.968  1.00 20.00     0.224 C 
HETATM   10  O10 UNL     1     -32.343   7.335   2.452  1.00 20.00    -0.279 OA
HETATM   11 CL11 UNL     1     -32.567   4.707   2.163  1.00 20.00    -0.043 Cl
ENDBRANCH   6   9
TORSDOF 1
