REMARK  0 active torsions:
REMARK  status: ('A' for Active; 'I' for Inactive)
ROOT
HETATM    1  C1  UNL     1     -33.896   5.454   6.631  1.00 20.00     0.012 A 
HETATM    2  C2  UNL     1     -32.130   6.990   3.557  1.00 20.00     0.006 A 
HETATM    3  C3  UNL     1     -34.254   4.408   4.493  1.00 20.00     0.101 C 
HETATM    4  C4  UNL     1     -34.789   5.047   5.725  1.00 20.00     0.016 A 
HETATM    5  C5  UNL     1     -33.263   6.329   3.846  1.00 20.00     0.035 A 
HETATM    6  C6  UNL     1     -33.005   9.412   3.911  1.00 20.00     0.015 A 
HETATM    7  C7  UNL     1     -34.646   6.477   5.968  1.00 20.00     0.017 A 
HETATM    8  C8  UNL     1     -32.032   8.309   4.207  1.00 20.00     0.015 A 
HETATM    9  C9  UNL     1     -34.158   7.201   4.740  1.00 20.00     0.048 A 
HETATM   10  C10 UNL     1     -33.315   8.437   5.016  1.00 20.00     0.004 A 
HETATM   11  N11 UNL     1     -33.547   5.012   3.582  1.00 20.00    -0.269 NA
ENDROOT
TORSDOF 0
