REMARK  2 active torsions:
REMARK  status: ('A' for Active; 'I' for Inactive)
REMARK    1  A    between atoms: C3_3  and  C5_5 
REMARK    2  A    between atoms: C3_3  and  O11_11 
ROOT
HETATM    1  C1  UNL     1     -32.997   4.611   2.289  1.00 20.00     0.013 C 
HETATM    2  C2  UNL     1     -33.314   5.444   3.094  1.00 20.00    -0.096 C 
HETATM    3  C4  UNL     1     -35.157   6.494   4.453  1.00 20.00     0.044 A 
HETATM    4  C5  UNL     1     -33.694   6.444   4.060  1.00 20.00     0.118 A 
HETATM    5  C6  UNL     1     -34.150   5.994   5.456  1.00 20.00    -0.018 A 
HETATM    6  C7  UNL     1     -33.854   6.875   6.647  1.00 20.00     0.017 C 
HETATM    7  C8  UNL     1     -34.175   4.523   5.801  1.00 20.00     0.017 C 
ENDROOT
BRANCH   4   8
HETATM    8  C3  UNL     1     -32.981   7.731   3.920  1.00 20.00     0.280 C 
HETATM    9  O10 UNL     1     -32.283   8.226   4.794  1.00 20.00    -0.263 OA
BRANCH   8  10
HETATM   10  O11 UNL     1     -33.229   8.257   2.687  1.00 20.00    -0.325 OA
HETATM   11  C9  UNL     1     -32.598   9.512   2.416  1.00 20.00     0.213 C 
ENDBRANCH   8  10
ENDBRANCH   4   8
TORSDOF 2
