REMARK  3 active torsions:
REMARK  status: ('A' for Active; 'I' for Inactive)
REMARK    1  A    between atoms: C3_3  and  C7_7 
REMARK    2  A    between atoms: C4_4  and  C6_6 
REMARK    3  A    between atoms: C4_4  and  O11_11 
ROOT
HETATM    1  C1  UNL     1     -32.571   7.958   1.634  1.00 20.00     0.074 C 
HETATM    2  C5  UNL     1     -32.432   5.736   2.801  1.00 20.00     0.046 A 
HETATM    3  C6  UNL     1     -33.748   6.354   3.174  1.00 20.00     0.114 A 
HETATM    4  C7  UNL     1     -32.541   7.249   2.895  1.00 20.00     0.079 A 
HETATM    5  N9  UNL     1     -32.595   8.526   0.622  1.00 20.00    -0.196 NA
ENDROOT
BRANCH   4   6
HETATM    6  C3  UNL     1     -31.867   7.861   4.052  1.00 20.00    -0.012 C 
HETATM    7  C2  UNL     1     -32.218   9.035   4.589  1.00 20.00     0.008 C 
ENDBRANCH   4   6
BRANCH   3   8
HETATM    8  C4  UNL     1     -34.266   6.173   4.537  1.00 20.00     0.264 C 
HETATM    9  O10 UNL     1     -35.447   5.994   4.803  1.00 20.00    -0.265 OA
BRANCH   8  10
HETATM   10  O11 UNL     1     -33.236   6.236   5.429  1.00 20.00    -0.326 OA
HETATM   11  C8  UNL     1     -33.602   6.074   6.803  1.00 20.00     0.213 C 
ENDBRANCH   8  10
ENDBRANCH   3   8
TORSDOF 3
