REMARK  3 active torsions:
REMARK  status: ('A' for Active; 'I' for Inactive)
REMARK    1  A    between atoms: C2_2  and  C6_6 
REMARK    2  A    between atoms: C3_3  and  C7_7 
REMARK    3  A    between atoms: C7_7  and  C8_8 
ROOT
HETATM    1  C1  UNL     1     -33.520   6.050   3.352  1.00 20.00     0.100 C 
HETATM    2  C2  UNL     1     -33.115   8.443   4.163  1.00 20.00     0.172 A 
HETATM    3  C3  UNL     1     -33.731   7.070   4.335  1.00 20.00     0.175 A 
HETATM    4  N9  UNL     1     -33.348   5.224   2.555  1.00 20.00    -0.194 NA
HETATM    5  O10 UNL     1     -32.523   7.455   5.014  1.00 20.00    -0.353 OA
ENDROOT
BRANCH   3   6
HETATM    6  C7  UNL     1     -34.901   6.906   5.251  1.00 20.00     0.056 C 
BRANCH   6   7
HETATM    7  C8  UNL     1     -34.517   6.229   6.576  1.00 20.00    -0.000 C 
HETATM    8  C5  UNL     1     -33.968   4.826   6.370  1.00 20.00     0.005 C 
ENDBRANCH   6   7
ENDBRANCH   3   6
BRANCH   2   9
HETATM    9  C6  UNL     1     -32.280   8.826   2.991  1.00 20.00     0.032 C 
HETATM   10  C4  UNL     1     -33.098   9.246   1.796  1.00 20.00     0.007 C 
ENDBRANCH   2   9
TORSDOF 3
