REMARK  1 active torsions:
REMARK  status: ('A' for Active; 'I' for Inactive)
REMARK    1  A    between atoms: C2_2  and  C4_4 
ROOT
HETATM    1  C1  UNL     1     -34.311   5.370   4.805  1.00 20.00     0.171 A 
HETATM    2  C2  UNL     1     -34.340   6.840   5.180  1.00 20.00     0.175 A 
HETATM    3  C3  UNL     1     -33.693   4.861   3.552  1.00 20.00     0.044 C 
HETATM    4  O5  UNL     1     -35.480   6.175   4.613  1.00 20.00    -0.352 OA
HETATM    5 CL6  UNL     1     -34.391   7.225   6.903  1.00 20.00    -0.084 Cl
ENDROOT
BRANCH   2   6
HETATM    6  C4  UNL     1     -33.751   7.892   4.299  1.00 20.00     0.172 C 
HETATM    7 CL7  UNL     1     -31.980   7.983   4.500  1.00 20.00    -0.126 Cl
ENDBRANCH   2   6
TORSDOF 1
