REMARK  0 active torsions:
REMARK  status: ('A' for Active; 'I' for Inactive)
ROOT
HETATM    1  C1  UNL     1     -33.146   6.895   6.416  1.00 20.00    -0.028 C 
HETATM    2  C2  UNL     1     -34.201   6.256   5.881  1.00 20.00     0.003 C 
HETATM    3  C3  UNL     1     -33.590   5.866   3.595  1.00 20.00     0.154 C 
HETATM    4  C4  UNL     1     -32.349   7.906   5.625  1.00 20.00     0.032 C 
HETATM    5  C5  UNL     1     -32.431   6.802   3.304  1.00 20.00     0.085 C 
HETATM    6  C6  UNL     1     -34.339   8.018   4.095  1.00 20.00     0.043 C 
HETATM    7  C7  UNL     1     -32.806   8.040   4.149  1.00 20.00    -0.002 C 
HETATM    8  C8  UNL     1     -34.618   6.555   4.469  1.00 20.00     0.115 C 
HETATM    9  O9  UNL     1     -33.645   4.709   3.201  1.00 20.00    -0.295 OA
HETATM   10 CL10 UNL     1     -36.250   6.052   4.088  1.00 20.00    -0.106 Cl
ENDROOT
TORSDOF 0
