REMARK  1 active torsions:
REMARK  status: ('A' for Active; 'I' for Inactive)
REMARK    1  A    between atoms: C3_3  and  C9_9 
ROOT
HETATM    1  C1  UNL     1     -33.330   7.148   5.312  1.00 20.00     0.178 C 
HETATM    2  C2  UNL     1     -33.871   4.775   4.574  1.00 20.00     0.087 C 
HETATM    3  C3  UNL     1     -32.419   6.631   3.177  1.00 20.00     0.185 C 
HETATM    4  C4  UNL     1     -34.358   5.998   5.381  1.00 20.00    -0.018 C 
HETATM    5  C5  UNL     1     -34.528   5.576   6.852  1.00 20.00     0.018 C 
HETATM    6  C6  UNL     1     -35.726   6.484   4.858  1.00 20.00     0.018 C 
HETATM    7  O10 UNL     1     -33.104   7.597   3.977  1.00 20.00    -0.374 OA
HETATM    8  S11 UNL     1     -33.427   5.154   2.852  1.00 20.00    -0.136 SA
ENDROOT
BRANCH   3   9
HETATM    9  C9  UNL     1     -32.076   7.295   1.851  1.00 20.00     0.017 C 
HETATM   10  C7  UNL     1     -33.345   7.730   1.118  1.00 20.00     0.013 C 
HETATM   11  C8  UNL     1     -31.149   8.492   2.069  1.00 20.00     0.013 C 
ENDBRANCH   3   9
TORSDOF 1
