REMARK  0 active torsions:
REMARK  status: ('A' for Active; 'I' for Inactive)
ROOT
HETATM    1  C1  UNL     1     -32.084   7.462   1.867  1.00 20.00     0.100 C 
HETATM    2  C2  UNL     1     -32.646   8.400   4.039  1.00 20.00     0.067 A 
HETATM    3  C3  UNL     1     -32.634   7.307   3.179  1.00 20.00     0.056 A 
HETATM    4  C4  UNL     1     -33.151   6.088   3.605  1.00 20.00    -0.001 A 
HETATM    5  C5  UNL     1     -33.183   8.224   5.304  1.00 20.00     0.129 A 
HETATM    6  C6  UNL     1     -33.665   6.016   4.890  1.00 20.00     0.135 A 
HETATM    7  C7  UNL     1     -33.153   4.897   2.704  1.00 20.00     0.053 C 
HETATM    8  N8  UNL     1     -31.638   7.588   0.803  1.00 20.00    -0.191 NA
HETATM    9  N9  UNL     1     -33.695   7.056   5.753  1.00 20.00    -0.224 NA
HETATM   10 CL10 UNL     1     -33.240   9.516   6.432  1.00 20.00    -0.062 Cl
HETATM   11 CL11 UNL     1     -34.333   4.569   5.537  1.00 20.00    -0.062 Cl
ENDROOT
TORSDOF 0
