REMARK  1 active torsions:
REMARK  status: ('A' for Active; 'I' for Inactive)
REMARK    1  A    between atoms: C4_4  and  C7_7 
ROOT
HETATM    1  C1  UNL     1     -33.007   9.365   2.475  1.00 20.00     0.075 C 
HETATM    2  C2  UNL     1     -31.885   7.572   3.784  1.00 20.00     0.105 C 
HETATM    3  C3  UNL     1     -32.723   8.843   3.821  1.00 20.00     0.164 C 
HETATM    4  C4  UNL     1     -34.377   6.698   4.333  1.00 20.00     0.113 C 
HETATM    5  N8  UNL     1     -33.231   9.776   1.414  1.00 20.00    -0.196 NA
HETATM    6  S9  UNL     1     -32.963   6.194   3.310  1.00 20.00    -0.151 SA
HETATM    7  S10 UNL     1     -34.263   8.477   4.726  1.00 20.00    -0.133 SA
ENDROOT
BRANCH   4   8
HETATM    8  C7  UNL     1     -34.400   5.891   5.625  1.00 20.00     0.001 C 
HETATM    9  C5  UNL     1     -34.512   4.396   5.327  1.00 20.00     0.011 C 
HETATM   10  C6  UNL     1     -33.153   6.176   6.462  1.00 20.00     0.011 C 
ENDBRANCH   4   8
TORSDOF 1
