REMARK  1 active torsions:
REMARK  status: ('A' for Active; 'I' for Inactive)
REMARK    1  A    between atoms: C8_8  and  C11_11 
ROOT
HETATM    1  C1  UNL     1     -33.038   5.900   3.212  1.00 20.00     0.071 C 
HETATM    2  C2  UNL     1     -35.632   5.228   5.361  1.00 20.00    -0.004 A 
HETATM    3  C3  UNL     1     -34.484   4.765   6.113  1.00 20.00    -0.004 A 
HETATM    4  C4  UNL     1     -35.600   6.415   4.729  1.00 20.00    -0.020 A 
HETATM    5  C5  UNL     1     -33.371   5.515   6.191  1.00 20.00    -0.020 A 
HETATM    6  C6  UNL     1     -34.449   7.342   4.785  1.00 20.00     0.041 A 
HETATM    7  C7  UNL     1     -33.242   6.855   5.576  1.00 20.00     0.041 A 
HETATM    8  C8  UNL     1     -33.138   7.054   4.074  1.00 20.00     0.067 A 
HETATM    9  N12 UNL     1     -32.958   4.973   2.520  1.00 20.00    -0.196 NA
ENDROOT
BRANCH   8  10
HETATM   10  C11 UNL     1     -32.343   8.240   3.591  1.00 20.00     0.001 C 
HETATM   11  C9  UNL     1     -32.788   8.675   2.189  1.00 20.00     0.011 C 
HETATM   12  C10 UNL     1     -32.459   9.421   4.563  1.00 20.00     0.011 C 
ENDBRANCH   8  10
TORSDOF 1
