REMARK  0 active torsions:
REMARK  status: ('A' for Active; 'I' for Inactive)
ROOT
HETATM    1  C1  UNL     1     -33.352   6.943   5.075  1.00 20.00     0.117 A 
HETATM    2  C2  UNL     1     -33.670   5.839   4.396  1.00 20.00    -0.042 A 
HETATM    3  C3  UNL     1     -32.420   7.704   4.238  1.00 20.00     0.186 A 
HETATM    4  C4  UNL     1     -34.577   4.804   4.965  1.00 20.00     0.039 C 
HETATM    5  C5  UNL     1     -33.042   5.729   3.045  1.00 20.00     0.049 A 
HETATM    6  C6  UNL     1     -34.779   5.064   6.463  1.00 20.00     0.031 C 
HETATM    7  C7  UNL     1     -34.918   6.563   6.749  1.00 20.00     0.176 C 
HETATM    8  C8  UNL     1     -32.124   6.961   2.953  1.00 20.00     0.062 A 
HETATM    9  C9  UNL     1     -32.406   7.820   1.732  1.00 20.00     0.018 C 
HETATM   10  O10 UNL     1     -31.953   8.787   4.556  1.00 20.00    -0.290 OA
HETATM   11  O11 UNL     1     -33.787   7.332   6.305  1.00 20.00    -0.347 OA
ENDROOT
TORSDOF 0
