REMARK  0 active torsions:
REMARK  status: ('A' for Active; 'I' for Inactive)
ROOT
HETATM    1  C1  UNL     1     -34.131   5.676   6.270  1.00 20.00    -0.029 A 
HETATM    2  C2  UNL     1     -34.209   6.990   6.033  1.00 20.00    -0.023 A 
HETATM    3  C3  UNL     1     -33.204   6.257   3.178  1.00 20.00     0.155 C 
HETATM    4  C4  UNL     1     -34.332   4.828   5.052  1.00 20.00     0.040 A 
HETATM    5  C5  UNL     1     -34.479   7.248   4.598  1.00 20.00     0.050 A 
HETATM    6  C6  UNL     1     -34.489   5.842   3.920  1.00 20.00     0.071 A 
HETATM    7  C7  UNL     1     -33.284   7.724   3.698  1.00 20.00     0.101 C 
HETATM    8  C8  UNL     1     -33.703   8.718   2.615  1.00 20.00     0.042 C 
HETATM    9  O9  UNL     1     -32.431   5.660   2.457  1.00 20.00    -0.295 OA
HETATM   10 CL10 UNL     1     -31.754   8.237   4.487  1.00 20.00    -0.111 Cl
ENDROOT
TORSDOF 0
