REMARK  1 active torsions:
REMARK  status: ('A' for Active; 'I' for Inactive)
REMARK    1  A    between atoms: C9_9  and  N10_10 
ROOT
HETATM    1  C1  UNL     1     -34.643   5.740   6.171  1.00 20.00     0.004 A 
HETATM    2  C2  UNL     1     -34.322   5.298   4.951  1.00 20.00     0.042 A 
HETATM    3  C3  UNL     1     -34.230   7.040   6.617  1.00 20.00     0.017 A 
HETATM    4  C4  UNL     1     -33.525   7.829   5.801  1.00 20.00     0.093 A 
HETATM    5  C5  UNL     1     -33.517   6.160   4.016  1.00 20.00     0.103 A 
HETATM    6  N10 UNL     1     -33.158   7.446   4.509  1.00 20.00    -0.339 N 
HETATM    7  S11 UNL     1     -33.095   5.571   2.486  1.00 20.00    -0.060 SA
ENDROOT
BRANCH   6   8
HETATM    8  C9  UNL     1     -32.387   8.396   3.727  1.00 20.00     0.027 C 
HETATM    9  C6  UNL     1     -32.149   9.661   4.559  1.00 20.00     0.038 C 
HETATM   10  C7  UNL     1     -31.043   7.761   3.352  1.00 20.00     0.038 C 
HETATM   11  C8  UNL     1     -33.164   8.755   2.456  1.00 20.00     0.038 C 
ENDBRANCH   6   8
TORSDOF 1
