REMARK  0 active torsions:
REMARK  status: ('A' for Active; 'I' for Inactive)
ROOT
HETATM    1  C1  UNL     1     -33.892   7.548   6.155  1.00 20.00     0.147 A 
HETATM    2  C2  UNL     1     -34.034   4.291   4.183  1.00 20.00     0.168 A 
HETATM    3  C3  UNL     1     -33.992   6.279   5.517  1.00 20.00     0.061 A 
HETATM    4  C4  UNL     1     -33.526   6.398   4.238  1.00 20.00     0.134 A 
HETATM    5  N5  UNL     1     -33.402   8.590   5.479  1.00 20.00    -0.220 NA
HETATM    6  N6  UNL     1     -33.541   5.279   3.464  1.00 20.00    -0.244 NA
HETATM    7  S7  UNL     1     -34.500   4.648   5.811  1.00 20.00    -0.078 SA
HETATM    8  S8  UNL     1     -33.014   8.038   3.937  1.00 20.00     0.032 SA
ENDROOT
TORSDOF 0
