REMARK  0 active torsions:
REMARK  status: ('A' for Active; 'I' for Inactive)
ROOT
HETATM    1  C1  UNL     1     -32.815   5.729   2.963  1.00 20.00     0.050 C 
HETATM    2  C2  UNL     1     -33.485   5.375   4.066  1.00 20.00    -0.014 C 
HETATM    3  C3  UNL     1     -32.562   7.157   2.655  1.00 20.00     0.188 C 
HETATM    4  C4  UNL     1     -34.210   7.754   4.450  1.00 20.00     0.064 C 
HETATM    5  C5  UNL     1     -34.090   6.338   5.063  1.00 20.00    -0.026 C 
HETATM    6  C6  UNL     1     -32.956   8.200   3.692  1.00 20.00     0.164 C 
HETATM    7  C7  UNL     1     -33.222   6.347   6.333  1.00 20.00     0.019 C 
HETATM    8  C8  UNL     1     -35.502   5.854   5.443  1.00 20.00     0.019 C 
HETATM    9  C9  UNL     1     -33.190   9.557   3.032  1.00 20.00     0.060 C 
HETATM   10  O10 UNL     1     -31.978   7.446   1.612  1.00 20.00    -0.290 OA
HETATM   11  F11 UNL     1     -31.938   8.364   4.585  1.00 20.00    -0.235 F 
ENDROOT
TORSDOF 0
