REMARK  3 active torsions:
REMARK  status: ('A' for Active; 'I' for Inactive)
REMARK    1  A    between atoms: C1_1  and  C5_5 
REMARK    2  A    between atoms: C1_1  and  C6_6 
REMARK    3  A    between atoms: C4_4  and  C5_5 
ROOT
HETATM    1  C1  UNL     1     -34.604   6.645   5.869  1.00 20.00     0.137 C 
HETATM    2  O7  UNL     1     -34.761   5.943   6.869  1.00 20.00    -0.297 OA
ENDROOT
BRANCH   1   3
HETATM    3  C5  UNL     1     -33.921   7.999   5.924  1.00 20.00     0.083 C 
BRANCH   3   4
HETATM    4  C4  UNL     1     -32.662   8.070   5.120  1.00 20.00    -0.008 A 
HETATM    5  C2  UNL     1     -32.707   8.484   3.675  1.00 20.00     0.005 A 
HETATM    6  C3  UNL     1     -32.105   9.403   4.702  1.00 20.00     0.005 A 
ENDBRANCH   3   4
ENDBRANCH   1   3
BRANCH   1   7
HETATM    7  C6  UNL     1     -35.064   6.175   4.516  1.00 20.00     0.163 C 
HETATM    8 BR8  UNL     1     -34.185   4.485   4.184  1.00 20.00    -0.089 Br
ENDBRANCH   1   7
TORSDOF 3
