REMARK  0 active torsions:
REMARK  status: ('A' for Active; 'I' for Inactive)
ROOT
HETATM    1  C1  UNL     1     -33.378   6.434   3.870  1.00 20.00     0.076 A 
HETATM    2  C2  UNL     1     -33.723   6.142   5.160  1.00 20.00     0.123 A 
HETATM    3  C3  UNL     1     -32.710   8.259   4.778  1.00 20.00     0.073 A 
HETATM    4  C4  UNL     1     -34.327   4.424   4.158  1.00 20.00     0.097 A 
HETATM    5  C5  UNL     1     -33.745   5.300   3.020  1.00 20.00     0.109 A 
HETATM    6  C6  UNL     1     -32.134   9.610   4.962  1.00 20.00     0.079 C 
HETATM    7  N7  UNL     1     -32.797   7.633   3.615  1.00 20.00    -0.248 NA
HETATM    8  N8  UNL     1     -34.299   4.933   5.365  1.00 20.00    -0.255 NA
HETATM    9  S9  UNL     1     -33.319   7.418   6.177  1.00 20.00    -0.053 SA
ENDROOT
TORSDOF 0
