REMARK  1 active torsions:
REMARK  status: ('A' for Active; 'I' for Inactive)
REMARK    1  A    between atoms: C9_9  and  C12_12 
ROOT
HETATM    1  C1  UNL     1     -32.870   5.617   2.669  1.00 20.00     0.012 C 
HETATM    2  C2  UNL     1     -34.053   4.999   2.732  1.00 20.00     0.052 C 
HETATM    3  C3  UNL     1     -33.563   8.802   5.252  1.00 20.00    -0.025 C 
HETATM    4  C4  UNL     1     -34.306   7.683   5.303  1.00 20.00    -0.008 C 
HETATM    5  C5  UNL     1     -31.957   7.704   3.647  1.00 20.00    -0.014 C 
HETATM    6  C6  UNL     1     -32.725   6.607   3.704  1.00 20.00    -0.041 C 
HETATM    7  C7  UNL     1     -34.733   5.571   3.918  1.00 20.00     0.166 C 
HETATM    8  C8  UNL     1     -32.206   8.856   4.587  1.00 20.00     0.054 C 
HETATM    9  C9  UNL     1     -33.775   6.387   4.767  1.00 20.00     0.071 C 
HETATM   10  O13 UNL     1     -35.905   5.345   4.181  1.00 20.00    -0.292 OA
ENDROOT
BRANCH   9  11
HETATM   11  C12 UNL     1     -33.261   5.507   5.915  1.00 20.00     0.002 C 
HETATM   12  C10 UNL     1     -34.381   5.232   6.912  1.00 20.00     0.011 C 
HETATM   13  C11 UNL     1     -32.689   4.205   5.367  1.00 20.00     0.011 C 
ENDBRANCH   9  11
TORSDOF 1
