REMARK  1 active torsions:
REMARK  status: ('A' for Active; 'I' for Inactive)
REMARK    1  A    between atoms: C6_6  and  C11_11 
ROOT
HETATM    1  C1  UNL     1     -33.926   5.128   4.375  1.00 20.00     0.136 C 
HETATM    2  C2  UNL     1     -33.358   5.533   3.004  1.00 20.00     0.085 C 
HETATM    3  C3  UNL     1     -32.943   8.437   5.193  1.00 20.00     0.006 C 
HETATM    4  C4  UNL     1     -33.648   7.257   5.852  1.00 20.00     0.018 C 
HETATM    5  C5  UNL     1     -33.632   7.011   3.390  1.00 20.00     0.012 C 
HETATM    6  C6  UNL     1     -32.443   7.850   3.875  1.00 20.00    -0.006 C 
HETATM    7  C7  UNL     1     -34.382   6.574   4.692  1.00 20.00     0.021 C 
HETATM    8  C8  UNL     1     -35.886   6.782   4.704  1.00 20.00     0.024 C 
HETATM    9  O12 UNL     1     -33.990   4.075   4.974  1.00 20.00    -0.297 OA
ENDROOT
BRANCH   6  10
HETATM   10  C11 UNL     1     -32.056   8.912   2.861  1.00 20.00    -0.018 C 
HETATM   11  C9  UNL     1     -31.532   8.266   1.581  1.00 20.00     0.010 C 
HETATM   12  C10 UNL     1     -33.244   9.821   2.557  1.00 20.00     0.010 C 
ENDBRANCH   6  10
TORSDOF 1
