REMARK  1 active torsions:
REMARK  status: ('A' for Active; 'I' for Inactive)
REMARK    1  A    between atoms: C6_6  and  C8_8 
ROOT
HETATM    1  C1  UNL     1     -33.910   5.790   4.779  1.00 20.00     0.061 C 
HETATM    2  C2  UNL     1     -32.696   8.892   4.359  1.00 20.00     0.066 C 
HETATM    3  C3  UNL     1     -33.467   5.978   3.306  1.00 20.00     0.170 C 
HETATM    4  C4  UNL     1     -33.416   6.929   5.574  1.00 20.00     0.153 A 
HETATM    5  C5  UNL     1     -33.880   8.220   4.933  1.00 20.00     0.153 A 
HETATM    6  C6  UNL     1     -32.271   8.141   3.061  1.00 20.00     0.123 C 
HETATM    7  O9  UNL     1     -32.225   6.697   3.171  1.00 20.00    -0.386 OA
HETATM    8  O10 UNL     1     -34.149   7.906   6.289  1.00 20.00    -0.375 OA
ENDROOT
BRANCH   6   9
HETATM    9  C8  UNL     1     -33.058   8.596   1.831  1.00 20.00     0.027 C 
HETATM   10  C7  UNL     1     -32.980  10.076   1.639  1.00 20.00     0.007 C 
ENDBRANCH   6   9
TORSDOF 1
