REMARK  1 active torsions:
REMARK  status: ('A' for Active; 'I' for Inactive)
REMARK    1  A    between atoms: C6_6  and  C7_7 
ROOT
HETATM    1  C1  UNL     1     -33.029   8.410   3.397  1.00 20.00     0.146 C 
HETATM    2  C2  UNL     1     -33.996   8.560   4.582  1.00 20.00     0.091 C 
HETATM    3  C5  UNL     1     -32.463   7.084   3.945  1.00 20.00     0.160 C 
HETATM    4  C7  UNL     1     -33.724   7.043   4.904  1.00 20.00    -0.010 C 
HETATM    5  C8  UNL     1     -33.296   6.849   6.367  1.00 20.00     0.018 C 
HETATM    6  O9  UNL     1     -32.804   9.083   2.413  1.00 20.00    -0.296 OA
HETATM    7 CL10 UNL     1     -32.219   5.819   2.711  1.00 20.00    -0.116 Cl
ENDROOT
BRANCH   4   8
HETATM    8  C6  UNL     1     -34.867   6.085   4.538  1.00 20.00    -0.004 A 
HETATM    9  C3  UNL     1     -34.747   4.589   4.630  1.00 20.00     0.006 A 
HETATM   10  C4  UNL     1     -35.664   5.329   5.564  1.00 20.00     0.006 A 
ENDBRANCH   4   8
TORSDOF 1
