REMARK  1 active torsions:
REMARK  status: ('A' for Active; 'I' for Inactive)
REMARK    1  A    between atoms: C5_5  and  C8_8 
ROOT
HETATM    1  C1  UNL     1     -33.111   7.521   5.073  1.00 20.00     0.006 A 
HETATM    2  C2  UNL     1     -34.005   6.631   5.497  1.00 20.00     0.076 A 
HETATM    3  C3  UNL     1     -34.120   5.609   4.451  1.00 20.00     0.171 A 
HETATM    4  C4  UNL     1     -33.190   5.901   3.306  1.00 20.00     0.093 A 
HETATM    5  C5  UNL     1     -32.533   7.226   3.718  1.00 20.00     0.020 A 
HETATM    6  O9  UNL     1     -34.866   4.643   4.512  1.00 20.00    -0.291 OA
HETATM    7 CL10 UNL     1     -34.871   6.609   6.940  1.00 20.00    -0.081 Cl
ENDROOT
BRANCH   5   8
HETATM    8  C8  UNL     1     -32.827   8.347   2.728  1.00 20.00    -0.015 C 
HETATM    9  C6  UNL     1     -32.258   9.673   3.230  1.00 20.00     0.010 C 
HETATM   10  C7  UNL     1     -32.261   8.011   1.349  1.00 20.00     0.010 C 
ENDBRANCH   5   8
TORSDOF 1
