REMARK  1 active torsions:
REMARK  status: ('A' for Active; 'I' for Inactive)
REMARK    1  A    between atoms: C3_3  and  C7_7 
ROOT
HETATM    1  C1  UNL     1     -31.706   8.066   4.034  1.00 20.00     0.089 C 
HETATM    2  C2  UNL     1     -31.840   7.279   2.738  1.00 20.00     0.053 C 
HETATM    3  C3  UNL     1     -33.926   6.558   4.378  1.00 20.00     0.112 C 
HETATM    4  C4  UNL     1     -32.443   8.086   1.589  1.00 20.00     0.022 C 
HETATM    5  S8  UNL     1     -33.344   8.232   4.788  1.00 20.00    -0.152 SA
HETATM    6  S9  UNL     1     -32.869   5.817   3.090  1.00 20.00    -0.148 SA
ENDROOT
BRANCH   3   7
HETATM    7  C7  UNL     1     -33.904   5.681   5.623  1.00 20.00     0.001 C 
HETATM    8  C5  UNL     1     -34.797   6.270   6.715  1.00 20.00     0.011 C 
HETATM    9  C6  UNL     1     -34.340   4.255   5.288  1.00 20.00     0.011 C 
ENDBRANCH   3   7
TORSDOF 1
