REMARK  0 active torsions:
REMARK  status: ('A' for Active; 'I' for Inactive)
ROOT
HETATM    1  C1  UNL     1     -32.338   8.004   1.339  1.00 20.00    -0.004 C 
HETATM    2  C2  UNL     1     -31.542   7.087   2.109  1.00 20.00    -0.003 C 
HETATM    3  C3  UNL     1     -33.405   8.610   1.873  1.00 20.00    -0.025 C 
HETATM    4  C4  UNL     1     -31.949   6.640   3.305  1.00 20.00    -0.009 C 
HETATM    5  C5  UNL     1     -32.883   7.426   5.404  1.00 20.00     0.140 C 
HETATM    6  C6  UNL     1     -33.850   8.359   3.288  1.00 20.00     0.048 C 
HETATM    7  C7  UNL     1     -33.351   6.521   6.519  1.00 20.00     0.079 C 
HETATM    8  C8  UNL     1     -34.817   6.133   6.415  1.00 20.00     0.008 C 
HETATM    9  C9  UNL     1     -35.387   6.124   4.999  1.00 20.00     0.006 C 
HETATM   10  C10 UNL     1     -34.327   5.916   3.904  1.00 20.00     0.001 C 
HETATM   11  C11 UNL     1     -33.258   7.061   3.955  1.00 20.00     0.044 C 
HETATM   12  C12 UNL     1     -33.783   4.479   3.957  1.00 20.00     0.011 C 
HETATM   13  O13 UNL     1     -32.142   8.379   5.661  1.00 20.00    -0.297 OA
ENDROOT
TORSDOF 0
