REMARK  1 active torsions:
REMARK  status: ('A' for Active; 'I' for Inactive)
REMARK    1  A    between atoms: C6_6  and  C9_9 
ROOT
HETATM    1  C1  UNL     1     -35.369   5.941   4.062  1.00 20.00     0.302 C 
HETATM    2  C2  UNL     1     -34.409   6.827   3.255  1.00 20.00     0.303 C 
HETATM    3  C3  UNL     1     -33.579   4.433   4.539  1.00 20.00     0.307 C 
HETATM    4  C4  UNL     1     -34.039   6.275   6.019  1.00 20.00     0.308 C 
HETATM    5  C5  UNL     1     -32.582   5.322   3.760  1.00 20.00     0.247 C 
HETATM    6  C6  UNL     1     -33.040   7.149   5.225  1.00 20.00     0.251 C 
HETATM    7  C7  UNL     1     -32.337   4.805   2.340  1.00 20.00     0.045 C 
HETATM    8  N10 UNL     1     -34.656   5.243   5.153  1.00 20.00     0.094 N 
HETATM    9  N11 UNL     1     -33.029   6.745   3.789  1.00 20.00     0.102 N 
ENDROOT
BRANCH   6  10
HETATM   10  C9  UNL     1     -33.302   8.644   5.421  1.00 20.00     0.033 C 
HETATM   11  C8  UNL     1     -32.297   9.476   4.696  1.00 20.00     0.007 C 
ENDBRANCH   6  10
TORSDOF 1
