REMARK  0 active torsions:
REMARK  status: ('A' for Active; 'I' for Inactive)
ROOT
HETATM    1  C1  UNL     1     -34.300   6.927   5.891  1.00 20.00     0.051 C 
HETATM    2  C2  UNL     1     -35.065   6.146   6.885  1.00 20.00     0.058 C 
HETATM    3  C3  UNL     1     -34.245   4.838   6.761  1.00 20.00     0.007 C 
HETATM    4  C4  UNL     1     -33.282   5.504   2.543  1.00 20.00     0.004 C 
HETATM    5  C5  UNL     1     -32.263   6.555   3.066  1.00 20.00     0.036 C 
HETATM    6  C6  UNL     1     -33.131   5.098   5.704  1.00 20.00     0.018 C 
HETATM    7  C7  UNL     1     -34.440   5.457   3.588  1.00 20.00     0.018 C 
HETATM    8  C8  UNL     1     -33.111   7.273   4.079  1.00 20.00     0.169 C 
HETATM    9  C9  UNL     1     -33.788   6.121   4.771  1.00 20.00     0.031 C 
HETATM   10  N10 UNL     1     -33.687   8.052   6.104  1.00 20.00    -0.142 NA
HETATM   11  O11 UNL     1     -32.636   8.097   5.113  1.00 20.00    -0.250 OA
ENDROOT
TORSDOF 0
