REMARK  1 active torsions:
REMARK  status: ('A' for Active; 'I' for Inactive)
REMARK    1  A    between atoms: C4_4  and  C8_8 
ROOT
HETATM    1  C1  UNL     1     -31.926   7.736   3.633  1.00 20.00     0.302 C 
HETATM    2  C2  UNL     1     -32.491   6.619   2.754  1.00 20.00     0.302 C 
HETATM    3  C3  UNL     1     -33.769   7.467   5.152  1.00 20.00     0.307 C 
HETATM    4  C4  UNL     1     -34.346   6.324   4.286  1.00 20.00     0.250 C 
HETATM    5  C6  UNL     1     -32.478   9.503   5.174  1.00 20.00     0.310 C 
HETATM    6  C7  UNL     1     -33.752   4.583   2.667  1.00 20.00     0.310 C 
HETATM    7  N9  UNL     1     -33.007   8.424   4.342  1.00 20.00     0.088 N 
HETATM    8  N10 UNL     1     -33.260   5.646   3.546  1.00 20.00     0.092 N 
ENDROOT
BRANCH   4   9
HETATM    9  C8  UNL     1     -35.116   5.364   5.204  1.00 20.00     0.033 C 
HETATM   10  C5  UNL     1     -34.213   4.729   6.206  1.00 20.00     0.007 C 
ENDBRANCH   4   9
TORSDOF 1
