REMARK  3 active torsions:
REMARK  status: ('A' for Active; 'I' for Inactive)
REMARK    1  A    between atoms: C4_4  and  C8_8 
REMARK    2  A    between atoms: C7_7  and  C11_11 
REMARK    3  A    between atoms: C8_8  and  O12_12 
ROOT
HETATM    1  C1  UNL     1     -33.340   8.328   4.041  1.00 20.00    -0.022 C 
HETATM    2  C2  UNL     1     -34.223   7.548   4.683  1.00 20.00     0.011 C 
HETATM    3  C5  UNL     1     -32.404   6.306   2.841  1.00 20.00     0.012 C 
HETATM    4  C6  UNL     1     -33.792   5.690   3.024  1.00 20.00     0.047 C 
HETATM    5  C7  UNL     1     -32.439   7.843   2.935  1.00 20.00     0.011 C 
HETATM    6  C8  UNL     1     -34.439   6.092   4.365  1.00 20.00     0.092 C 
ENDROOT
BRANCH   6   7
HETATM    7  C4  UNL     1     -33.944   5.238   5.498  1.00 20.00     0.004 C 
HETATM    8  C3  UNL     1     -34.717   4.397   6.194  1.00 20.00     0.010 C 
ENDBRANCH   6   7
BRANCH   6   9
HETATM    9  O12 UNL     1     -35.850   5.884   4.246  1.00 20.00    -0.382 OA
HETATM   10  H30 UNL     1     -36.149   6.459   3.527  1.00 20.00     0.211 HD
ENDBRANCH   6   9
BRANCH   5  11
HETATM   11  C11 UNL     1     -32.864   8.476   1.609  1.00 20.00    -0.015 C 
HETATM   12  C9  UNL     1     -33.281   9.929   1.819  1.00 20.00     0.010 C 
HETATM   13  C10 UNL     1     -31.735   8.382   0.586  1.00 20.00     0.010 C 
ENDBRANCH   5  11
TORSDOF 3
