REMARK  0 active torsions:
REMARK  status: ('A' for Active; 'I' for Inactive)
ROOT
HETATM    1  C1  UNL     1     -33.021   6.207   3.630  1.00 20.00     0.136 C 
HETATM    2  C2  UNL     1     -33.454   4.788   3.371  1.00 20.00     0.080 C 
HETATM    3  C3  UNL     1     -34.326   4.493   4.585  1.00 20.00     0.017 C 
HETATM    4  C4  UNL     1     -34.177   6.757   7.100  1.00 20.00     0.002 C 
HETATM    5  C5  UNL     1     -33.090   6.893   6.044  1.00 20.00     0.018 C 
HETATM    6  C6  UNL     1     -35.290   5.921   6.466  1.00 20.00     0.010 C 
HETATM    7  C7  UNL     1     -33.851   6.877   4.714  1.00 20.00     0.024 C 
HETATM    8  C8  UNL     1     -34.984   5.843   4.958  1.00 20.00    -0.029 C 
HETATM    9  C9  UNL     1     -34.304   8.271   4.292  1.00 20.00     0.024 C 
HETATM   10  C10 UNL     1     -36.255   6.050   4.125  1.00 20.00     0.016 C 
HETATM   11  O11 UNL     1     -32.108   6.754   3.023  1.00 20.00    -0.297 OA
ENDROOT
TORSDOF 0
