REMARK  0 active torsions:
REMARK  status: ('A' for Active; 'I' for Inactive)
ROOT
HETATM    1  C1  UNL     1     -33.280   7.580   4.678  1.00 20.00     0.146 C 
HETATM    2  C2  UNL     1     -34.023   8.051   5.925  1.00 20.00     0.084 C 
HETATM    3  C3  UNL     1     -35.313   6.119   4.966  1.00 20.00     0.034 C 
HETATM    4  C4  UNL     1     -33.682   5.570   6.146  1.00 20.00     0.034 C 
HETATM    5  C5  UNL     1     -34.743   6.727   6.306  1.00 20.00    -0.004 C 
HETATM    6  C6  UNL     1     -33.770   6.072   4.656  1.00 20.00     0.079 C 
HETATM    7  O7  UNL     1     -32.548   8.249   3.977  1.00 20.00    -0.296 OA
HETATM    8 BR8  UNL     1     -33.119   4.993   3.256  1.00 20.00    -0.077 Br
ENDROOT
TORSDOF 0
