REMARK  0 active torsions:
REMARK  status: ('A' for Active; 'I' for Inactive)
ROOT
HETATM    1  C1  UNL     1     -34.970   5.429   6.047  1.00 20.00     0.013 C 
HETATM    2  C2  UNL     1     -34.507   6.783   6.632  1.00 20.00     0.035 C 
HETATM    3  C3  UNL     1     -35.137   5.366   4.510  1.00 20.00     0.074 C 
HETATM    4  C4  UNL     1     -32.921   6.978   3.506  1.00 20.00     0.108 C 
HETATM    5  C5  UNL     1     -33.261   7.185   5.950  1.00 20.00     0.152 A 
HETATM    6  C6  UNL     1     -33.569   7.738   4.583  1.00 20.00     0.160 A 
HETATM    7  O7  UNL     1     -32.898   8.508   5.576  1.00 20.00    -0.375 OA
HETATM    8  S8  UNL     1     -33.579   5.247   3.506  1.00 20.00    -0.166 SA
ENDROOT
TORSDOF 0
