REMARK  1 active torsions:
REMARK  status: ('A' for Active; 'I' for Inactive)
REMARK    1  A    between atoms: C2_2  and  C9_9 
ROOT
HETATM    1  C1  UNL     1     -32.998   6.351   3.470  1.00 20.00     0.057 A 
HETATM    2  C2  UNL     1     -33.671   6.284   4.622  1.00 20.00    -0.069 A 
HETATM    3  C3  UNL     1     -32.740   7.777   3.237  1.00 20.00     0.189 A 
HETATM    4  C4  UNL     1     -33.919   7.605   5.291  1.00 20.00     0.086 A 
HETATM    5  C5  UNL     1     -33.339   8.635   4.321  1.00 20.00     0.167 A 
HETATM    6  C6  UNL     1     -32.311   9.553   4.955  1.00 20.00     0.061 C 
HETATM    7  O10 UNL     1     -32.142   8.193   2.256  1.00 20.00    -0.290 OA
HETATM    8  F11 UNL     1     -34.350   9.394   3.819  1.00 20.00    -0.234 F 
ENDROOT
BRANCH   2   9
HETATM    9  C9  UNL     1     -34.155   5.030   5.263  1.00 20.00     0.006 C 
HETATM   10  C7  UNL     1     -33.808   3.816   4.400  1.00 20.00     0.014 C 
HETATM   11  C8  UNL     1     -33.576   4.871   6.670  1.00 20.00     0.014 C 
ENDBRANCH   2   9
TORSDOF 1
