REMARK  3 active torsions:
REMARK  status: ('A' for Active; 'I' for Inactive)
REMARK    1  A    between atoms: C1_1  and  C7_7 
REMARK    2  A    between atoms: C2_2  and  C8_8 
REMARK    3  A    between atoms: C7_7  and  C9_9 
ROOT
HETATM    1  C1  UNL     1     -33.523   6.263   3.850  1.00 20.00     0.062 A 
HETATM    2  C2  UNL     1     -33.295   6.893   2.506  1.00 20.00     0.064 A 
HETATM    3  S10 UNL     1     -32.761   5.258   2.670  1.00 20.00    -0.157 SA
ENDROOT
BRANCH   1   4
HETATM    4  C7  UNL     1     -34.932   5.903   4.300  1.00 20.00     0.020 C 
BRANCH   4   5
HETATM    5  C9  UNL     1     -35.050   5.658   5.814  1.00 20.00    -0.022 C 
HETATM    6  C5  UNL     1     -34.156   4.512   6.291  1.00 20.00     0.009 C 
HETATM    7  C6  UNL     1     -34.701   6.938   6.576  1.00 20.00     0.009 C 
ENDBRANCH   4   5
ENDBRANCH   1   4
BRANCH   2   8
HETATM    8  C8  UNL     1     -32.266   7.956   2.338  1.00 20.00    -0.008 C 
HETATM    9  C3  UNL     1     -32.490   8.776   1.054  1.00 20.00     0.011 C 
HETATM   10  C4  UNL     1     -32.225   8.911   3.546  1.00 20.00     0.011 C 
ENDBRANCH   2   8
TORSDOF 3
