REMARK  1 active torsions:
REMARK  status: ('A' for Active; 'I' for Inactive)
REMARK    1  A    between atoms: C6_6  and  C8_8 
ROOT
HETATM    1  C1  UNL     1     -33.472   7.536   6.308  1.00 20.00     0.061 C 
HETATM    2  C2  UNL     1     -34.733   5.805   3.966  1.00 20.00     0.066 C 
HETATM    3  C3  UNL     1     -33.681   8.309   5.012  1.00 20.00     0.170 C 
HETATM    4  C4  UNL     1     -34.545   6.515   6.523  1.00 20.00     0.153 A 
HETATM    5  C5  UNL     1     -35.133   5.686   5.405  1.00 20.00     0.153 A 
HETATM    6  C6  UNL     1     -33.294   6.274   3.721  1.00 20.00     0.123 C 
HETATM    7  O9  UNL     1     -33.124   7.686   3.858  1.00 20.00    -0.386 OA
HETATM    8  O10 UNL     1     -34.136   5.157   6.285  1.00 20.00    -0.375 OA
ENDROOT
BRANCH   6   9
HETATM    9  C8  UNL     1     -32.868   5.938   2.292  1.00 20.00     0.027 C 
HETATM   10  C7  UNL     1     -32.898   4.466   2.039  1.00 20.00     0.007 C 
ENDBRANCH   6   9
TORSDOF 1
