REMARK  1 active torsions:
REMARK  status: ('A' for Active; 'I' for Inactive)
REMARK    1  A    between atoms: C2_2  and  C10_10 
ROOT
HETATM    1  C1  UNL     1     -33.509   7.301   6.354  1.00 20.00    -0.017 C 
HETATM    2  C2  UNL     1     -33.347   7.543   5.037  1.00 20.00    -0.068 C 
HETATM    3  C3  UNL     1     -34.036   5.258   4.129  1.00 20.00     0.135 C 
HETATM    4  C4  UNL     1     -33.919   4.325   5.315  1.00 20.00     0.080 C 
HETATM    5  C5  UNL     1     -34.763   4.998   6.409  1.00 20.00     0.017 C 
HETATM    6  C6  UNL     1     -34.786   6.511   6.158  1.00 20.00     0.024 C 
HETATM    7  C7  UNL     1     -34.514   6.650   4.645  1.00 20.00     0.092 C 
HETATM    8  O11 UNL     1     -33.742   4.932   2.984  1.00 20.00    -0.297 OA
ENDROOT
BRANCH   2   9
HETATM    9  C10 UNL     1     -32.312   8.339   4.220  1.00 20.00     0.007 C 
HETATM   10  C8  UNL     1     -32.971   8.841   2.956  1.00 20.00     0.014 C 
HETATM   11  C9  UNL     1     -31.761   9.462   5.070  1.00 20.00     0.014 C 
ENDBRANCH   2   9
TORSDOF 1
