REMARK  1 active torsions:
REMARK  status: ('A' for Active; 'I' for Inactive)
REMARK    1  A    between atoms: C4_4  and  C5_5 
ROOT
HETATM    1  C1  UNL     1     -33.151   5.187   3.174  1.00 20.00     0.015 C 
HETATM    2  C2  UNL     1     -33.961   5.297   4.054  1.00 20.00    -0.083 C 
HETATM    3  C3  UNL     1     -34.925   5.427   5.100  1.00 20.00     0.229 A 
HETATM    4  C4  UNL     1     -34.707   6.368   6.260  1.00 20.00     0.177 A 
HETATM    5  O6  UNL     1     -34.442   4.966   6.373  1.00 20.00    -0.361 OA
ENDROOT
BRANCH   4   6
HETATM    6  C5  UNL     1     -33.506   7.237   6.396  1.00 20.00     0.150 C 
HETATM    7 CL7  UNL     1     -33.644   8.697   5.377  1.00 20.00    -0.128 Cl
ENDBRANCH   4   6
TORSDOF 1
