REMARK  1 active torsions:
REMARK  status: ('A' for Active; 'I' for Inactive)
REMARK    1  A    between atoms: C4_4  and  C7_7 
ROOT
HETATM    1  C1  UNL     1     -32.146   7.917   1.516  1.00 20.00     0.075 C 
HETATM    2  C2  UNL     1     -31.591   8.182   3.926  1.00 20.00     0.105 C 
HETATM    3  C3  UNL     1     -31.764   7.223   2.755  1.00 20.00     0.164 C 
HETATM    4  C4  UNL     1     -33.971   7.001   4.393  1.00 20.00     0.113 C 
HETATM    5  N8  UNL     1     -32.446   8.464   0.538  1.00 20.00    -0.196 NA
HETATM    6  S9  UNL     1     -33.237   8.658   4.517  1.00 20.00    -0.151 SA
HETATM    7  S10 UNL     1     -33.010   5.978   3.226  1.00 20.00    -0.133 SA
ENDROOT
BRANCH   4   8
HETATM    8  C7  UNL     1     -33.987   6.334   5.762  1.00 20.00     0.001 C 
HETATM    9  C5  UNL     1     -34.799   7.161   6.757  1.00 20.00     0.011 C 
HETATM   10  C6  UNL     1     -34.546   4.915   5.666  1.00 20.00     0.011 C 
ENDBRANCH   4   8
TORSDOF 1
