REMARK  0 active torsions:
REMARK  status: ('A' for Active; 'I' for Inactive)
ROOT
HETATM    1  C1  UNL     1     -32.900   8.727   3.424  1.00 20.00    -0.021 C 
HETATM    2  C2  UNL     1     -32.412   7.835   2.544  1.00 20.00    -0.087 C 
HETATM    3  C3  UNL     1     -33.611   8.331   4.688  1.00 20.00     0.068 C 
HETATM    4  C4  UNL     1     -32.515   6.347   2.777  1.00 20.00     0.036 C 
HETATM    5  C5  UNL     1     -32.793   5.966   4.236  1.00 20.00     0.045 C 
HETATM    6  C6  UNL     1     -34.793   6.370   5.916  1.00 20.00     0.153 A 
HETATM    7  C7  UNL     1     -33.850   6.851   4.829  1.00 20.00     0.090 A 
HETATM    8  C8  UNL     1     -31.751   8.262   1.267  1.00 20.00     0.043 C 
HETATM    9  C9  UNL     1     -34.756   4.997   6.485  1.00 20.00     0.042 C 
HETATM   10  O10 UNL     1     -35.197   6.439   4.542  1.00 20.00    -0.369 OA
ENDROOT
TORSDOF 0
