REMARK  2 active torsions:
REMARK  status: ('A' for Active; 'I' for Inactive)
REMARK    1  A    between atoms: C3_3  and  C5_5 
REMARK    2  A    between atoms: C3_3  and  O9_9 
ROOT
HETATM    1  C1  UNL     1     -34.383   5.891   6.968  1.00 20.00    -0.002 A 
HETATM    2  C2  UNL     1     -34.567   6.927   6.153  1.00 20.00     0.013 A 
HETATM    3  C4  UNL     1     -34.217   4.652   6.172  1.00 20.00     0.196 A 
HETATM    4  C5  UNL     1     -34.542   6.464   4.747  1.00 20.00     0.244 A 
HETATM    5  O8  UNL     1     -34.342   5.047   4.792  1.00 20.00    -0.368 OA
ENDROOT
BRANCH   4   6
HETATM    6  C3  UNL     1     -33.370   7.070   4.047  1.00 20.00     0.291 C 
HETATM    7  O7  UNL     1     -32.618   7.891   4.555  1.00 20.00    -0.262 OA
BRANCH   6   8
HETATM    8  O9  UNL     1     -33.284   6.568   2.782  1.00 20.00    -0.324 OA
HETATM    9  C6  UNL     1     -32.198   7.067   1.995  1.00 20.00     0.213 C 
ENDBRANCH   6   8
ENDBRANCH   4   6
TORSDOF 2
