REMARK  1 active torsions:
REMARK  status: ('A' for Active; 'I' for Inactive)
REMARK    1  A    between atoms: C2_2  and  C3_3 
ROOT
HETATM    1  C1  UNL     1     -33.241   7.295   5.251  1.00 20.00    -0.016 C 
HETATM    2  C2  UNL     1     -33.700   6.170   4.696  1.00 20.00    -0.020 C 
HETATM    3  C4  UNL     1     -32.533   8.141   4.245  1.00 20.00     0.032 C 
HETATM    4  C5  UNL     1     -33.378   6.067   3.238  1.00 20.00     0.021 C 
HETATM    5  C6  UNL     1     -32.285   7.153   3.095  1.00 20.00    -0.007 C 
HETATM    6  C7  UNL     1     -32.872   4.698   2.794  1.00 20.00     0.015 C 
HETATM    7  C8  UNL     1     -32.288   7.831   1.731  1.00 20.00     0.011 C 
ENDROOT
BRANCH   2   8
HETATM    8  C3  UNL     1     -34.479   5.204   5.454  1.00 20.00     0.265 C 
HETATM    9  O9  UNL     1     -34.913   4.161   4.965  1.00 20.00    -0.302 OA
ENDBRANCH   2   8
TORSDOF 1
