REMARK  0 active torsions:
REMARK  status: ('A' for Active; 'I' for Inactive)
ROOT
HETATM    1  C1  UNL     1     -32.800   7.992   4.175  1.00 20.00     0.145 C 
HETATM    2  C2  UNL     1     -33.909   7.313   4.951  1.00 20.00     0.089 C 
HETATM    3  C3  UNL     1     -34.546   4.526   5.999  1.00 20.00     0.002 C 
HETATM    4  C4  UNL     1     -35.125   4.995   4.650  1.00 20.00     0.010 C 
HETATM    5  C5  UNL     1     -33.147   4.868   5.448  1.00 20.00     0.010 C 
HETATM    6  C6  UNL     1     -33.232   5.934   3.067  1.00 20.00     0.037 C 
HETATM    7  C7  UNL     1     -32.178   7.040   3.181  1.00 20.00     0.152 C 
HETATM    8  C8  UNL     1     -33.847   5.859   4.467  1.00 20.00    -0.032 C 
HETATM    9  O9  UNL     1     -32.457   9.153   4.354  1.00 20.00    -0.296 OA
HETATM   10 CL10 UNL     1     -31.891   7.851   1.645  1.00 20.00    -0.117 Cl
ENDROOT
TORSDOF 0
