REMARK  0 active torsions:
REMARK  status: ('A' for Active; 'I' for Inactive)
ROOT
HETATM    1  C1  UNL     1     -32.787   6.312   2.556  1.00 20.00     0.024 A 
HETATM    2  C2  UNL     1     -33.424   6.194   3.828  1.00 20.00    -0.016 A 
HETATM    3  C3  UNL     1     -33.321   7.368   4.547  1.00 20.00    -0.007 A 
HETATM    4  C4  UNL     1     -32.228   7.558   2.368  1.00 20.00    -0.020 A 
HETATM    5  C5  UNL     1     -34.152   4.995   4.358  1.00 20.00     0.311 C 
HETATM    6  C6  UNL     1     -33.859   7.547   5.929  1.00 20.00     0.077 C 
HETATM    7  C7  UNL     1     -34.801   6.377   6.275  1.00 20.00     0.277 C 
HETATM    8  C8  UNL     1     -31.488   8.067   1.193  1.00 20.00     0.056 C 
HETATM    9  C9  UNL     1     -33.130   4.616   6.544  1.00 20.00     0.310 C 
HETATM   10  N10 UNL     1     -34.326   5.053   5.826  1.00 20.00     0.088 N 
HETATM   11  S11 UNL     1     -32.470   8.584   3.720  1.00 20.00    -0.099 SA
ENDROOT
TORSDOF 0
