REMARK  1 active torsions:
REMARK  status: ('A' for Active; 'I' for Inactive)
REMARK    1  A    between atoms: C3_3  and  C6_6 
ROOT
HETATM    1  C1  UNL     1     -33.982   7.431   5.378  1.00 20.00    -0.009 C 
HETATM    2  C2  UNL     1     -33.156   8.453   5.090  1.00 20.00    -0.086 C 
HETATM    3  C4  UNL     1     -32.550   8.628   3.719  1.00 20.00     0.037 C 
HETATM    4  C5  UNL     1     -33.481   6.358   3.134  1.00 20.00     0.023 C 
HETATM    5  C6  UNL     1     -34.354   6.368   4.390  1.00 20.00     0.110 C 
HETATM    6  C7  UNL     1     -33.240   7.786   2.631  1.00 20.00    -0.014 C 
HETATM    7  C8  UNL     1     -32.780   9.481   6.116  1.00 20.00     0.043 C 
HETATM    8  C9  UNL     1     -32.416   7.785   1.345  1.00 20.00     0.010 C 
ENDROOT
BRANCH   5   9
HETATM    9  C3  UNL     1     -34.155   5.029   5.071  1.00 20.00     0.180 C 
HETATM   10  O10 UNL     1     -34.290   5.038   6.326  1.00 20.00    -0.647 OA
HETATM   11  O11 UNL     1     -33.878   4.075   4.292  1.00 20.00    -0.647 OA
ENDBRANCH   5   9
TORSDOF 1
