REMARK  2 active torsions:
REMARK  status: ('A' for Active; 'I' for Inactive)
REMARK    1  A    between atoms: C3_3  and  C9_9 
REMARK    2  A    between atoms: C3_3  and  S10_10 
ROOT
HETATM    1  C1  UNL     1     -35.257   5.822   4.731  1.00 20.00     0.010 A 
HETATM    2  C2  UNL     1     -33.891   5.160   4.616  1.00 20.00    -0.025 A 
HETATM    3  C3  UNL     1     -34.016   6.615   5.131  1.00 20.00     0.019 A 
HETATM    4  C4  UNL     1     -36.100   6.160   3.550  1.00 20.00     0.012 C 
HETATM    5  C5  UNL     1     -33.610   4.025   5.582  1.00 20.00     0.017 C 
HETATM    6  C6  UNL     1     -33.273   4.898   3.261  1.00 20.00     0.017 C 
ENDROOT
BRANCH   3   7
HETATM    7  C9  UNL     1     -33.545   7.775   4.285  1.00 20.00    -0.003 C 
HETATM    8  C7  UNL     1     -34.215   9.083   4.719  1.00 20.00     0.011 C 
HETATM    9  C8  UNL     1     -32.021   7.921   4.347  1.00 20.00     0.011 C 
ENDBRANCH   3   7
BRANCH   3  10
HETATM   10  S10 UNL     1     -33.795   6.957   6.861  1.00 20.00    -0.171 SA
HETATM   11  H28 UNL     1     -32.640   7.638   6.764  1.00 20.00     0.102 HD
ENDBRANCH   3  10
TORSDOF 2
