REMARK  0 active torsions:
REMARK  status: ('A' for Active; 'I' for Inactive)
ROOT
HETATM    1  C1  UNL     1     -32.780   5.767   2.349  1.00 20.00     0.154 A 
HETATM    2  C2  UNL     1     -33.068   6.896   3.078  1.00 20.00     0.005 A 
HETATM    3  C3  UNL     1     -33.752   6.465   4.207  1.00 20.00     0.013 A 
HETATM    4  C4  UNL     1     -33.743   5.105   4.202  1.00 20.00     0.062 A 
HETATM    5  C5  UNL     1     -32.942   9.028   4.114  1.00 20.00     0.143 C 
HETATM    6  C6  UNL     1     -32.742   8.274   3.007  1.00 20.00    -0.027 C 
HETATM    7  C7  UNL     1     -34.095   4.236   5.341  1.00 20.00     0.066 C 
HETATM    8  C8  UNL     1     -34.678   5.114   6.492  1.00 20.00     0.009 C 
HETATM    9  C9  UNL     1     -34.049   6.537   6.617  1.00 20.00     0.038 C 
HETATM   10  C10 UNL     1     -34.195   7.337   5.302  1.00 20.00     0.164 C 
HETATM   11  C11 UNL     1     -32.139   8.774   1.737  1.00 20.00     0.051 C 
HETATM   12  O12 UNL     1     -33.181   4.644   3.050  1.00 20.00    -0.326 OA
HETATM   13  O13 UNL     1     -33.476   8.597   5.330  1.00 20.00    -0.352 OA
ENDROOT
TORSDOF 0
