REMARK  1 active torsions:
REMARK  status: ('A' for Active; 'I' for Inactive)
REMARK    1  A    between atoms: C7_7  and  C10_10 
ROOT
HETATM    1  C1  UNL     1     -33.356   5.368   6.756  1.00 20.00    -0.018 C 
HETATM    2  C2  UNL     1     -33.252   6.708   6.766  1.00 20.00    -0.024 C 
HETATM    3  C3  UNL     1     -33.849   5.380   4.426  1.00 20.00     0.139 C 
HETATM    4  C4  UNL     1     -35.367   6.210   5.972  1.00 20.00     0.025 C 
HETATM    5  C5  UNL     1     -34.440   5.005   5.780  1.00 20.00     0.078 C 
HETATM    6  C6  UNL     1     -34.254   7.250   5.763  1.00 20.00     0.020 C 
HETATM    7  C7  UNL     1     -33.805   6.911   4.311  1.00 20.00     0.067 C 
HETATM    8  O11 UNL     1     -33.431   4.591   3.593  1.00 20.00    -0.297 OA
ENDROOT
BRANCH   7   9
HETATM    9  C10 UNL     1     -32.443   7.445   3.914  1.00 20.00    -0.011 C 
HETATM   10  C8  UNL     1     -32.208   7.283   2.410  1.00 20.00     0.010 C 
HETATM   11  C9  UNL     1     -32.292   8.914   4.316  1.00 20.00     0.010 C 
ENDBRANCH   7   9
TORSDOF 1
