REMARK  3 active torsions:
REMARK  status: ('A' for Active; 'I' for Inactive)
REMARK    1  A    between atoms: C1_1  and  C7_7 
REMARK    2  A    between atoms: C1_1  and  N9_9 
REMARK    3  A    between atoms: C7_7  and  C8_8 
ROOT
HETATM    1  C2  UNL     1     -34.267   5.795   6.505  1.00 20.00     0.021 C 
HETATM    2  C3  UNL     1     -35.327   5.950   5.427  1.00 20.00     0.021 C 
HETATM    3  C4  UNL     1     -33.432   7.062   6.346  1.00 20.00     0.123 C 
HETATM    4  C5  UNL     1     -34.548   6.565   4.268  1.00 20.00     0.123 C 
HETATM    5  N9  UNL     1     -33.517   7.365   4.922  1.00 20.00    -0.375 N 
ENDROOT
BRANCH   5   6
HETATM    6  C1  UNL     1     -32.737   8.277   4.285  1.00 20.00     0.075 C 
HETATM    7  S10 UNL     1     -32.119   9.620   5.063  1.00 20.00    -0.066 SA
BRANCH   6   8
HETATM    8  C7  UNL     1     -32.453   7.977   2.829  1.00 20.00     0.069 C 
BRANCH   8   9
HETATM    9  C8  UNL     1     -32.974   9.099   1.929  1.00 20.00     0.002 C 
HETATM   10  C6  UNL     1     -32.666   8.826   0.465  1.00 20.00     0.005 C 
ENDBRANCH   8   9
ENDBRANCH   6   8
ENDBRANCH   5   6
TORSDOF 3
