REMARK  0 active torsions:
REMARK  status: ('A' for Active; 'I' for Inactive)
ROOT
HETATM    1  C1  UNL     1     -33.683   4.563   3.630  1.00 20.00     0.088 C 
HETATM    2  C2  UNL     1     -32.994   6.814   3.116  1.00 20.00    -0.041 C 
HETATM    3  C3  UNL     1     -33.271   7.325   4.461  1.00 20.00    -0.050 C 
HETATM    4  C4  UNL     1     -33.185   5.540   2.734  1.00 20.00     0.101 C 
HETATM    5  C5  UNL     1     -34.144   6.778   5.322  1.00 20.00    -0.081 C 
HETATM    6  C6  UNL     1     -32.440   7.831   2.137  1.00 20.00     0.044 C 
HETATM    7  C7  UNL     1     -32.529   8.592   4.808  1.00 20.00     0.040 C 
HETATM    8  C8  UNL     1     -32.799   9.719   3.805  1.00 20.00     0.009 C 
HETATM    9  C9  UNL     1     -33.050   9.223   2.367  1.00 20.00    -0.014 C 
HETATM   10  C10 UNL     1     -34.379   7.355   6.686  1.00 20.00     0.043 C 
HETATM   11  C11 UNL     1     -34.938   5.555   4.974  1.00 20.00     0.043 C 
HETATM   12  C12 UNL     1     -32.533  10.230   1.343  1.00 20.00     0.010 C 
HETATM   13  N13 UNL     1     -34.091   3.757   4.358  1.00 20.00    -0.192 NA
ENDROOT
TORSDOF 0
