REMARK  3 active torsions:
REMARK  status: ('A' for Active; 'I' for Inactive)
REMARK    1  A    between atoms: C1_1  and  C2_2 
REMARK    2  A    between atoms: C1_1  and  O11_11 
REMARK    3  A    between atoms: C8_8  and  N9_9 
ROOT
HETATM    1  C2  UNL     1     -33.958   8.188   3.666  1.00 20.00     0.355 A 
HETATM    2  C3  UNL     1     -33.413   8.769   4.955  1.00 20.00     0.264 A 
HETATM    3  C4  UNL     1     -32.143   9.547   4.995  1.00 20.00     0.046 C 
HETATM    4  N9  UNL     1     -33.353   7.339   4.691  1.00 20.00     0.115 N 
ENDROOT
BRANCH   1   5
HETATM    5  C1  UNL     1     -33.182   8.200   2.425  1.00 20.00     0.294 C 
HETATM    6  O10 UNL     1     -32.360   7.346   2.123  1.00 20.00    -0.263 OA
BRANCH   5   7
HETATM    7  O11 UNL     1     -33.520   9.295   1.686  1.00 20.00    -0.325 OA
HETATM    8  C7  UNL     1     -32.831   9.432   0.440  1.00 20.00     0.213 C 
ENDBRANCH   5   7
ENDBRANCH   1   5
BRANCH   4   9
HETATM    9  C8  UNL     1     -34.333   6.574   5.453  1.00 20.00     0.216 C 
HETATM   10  C5  UNL     1     -33.715   6.150   6.778  1.00 20.00     0.042 C 
HETATM   11  C6  UNL     1     -34.773   5.374   4.627  1.00 20.00     0.042 C 
ENDBRANCH   4   9
TORSDOF 3
