REMARK  0 active torsions:
REMARK  status: ('A' for Active; 'I' for Inactive)
ROOT
HETATM    1  C1  UNL     1     -33.925   6.161   4.244  1.00 20.00     0.082 C 
HETATM    2  C2  UNL     1     -33.769   7.420   4.640  1.00 20.00    -0.050 C 
HETATM    3  C3  UNL     1     -33.031   6.004   3.082  1.00 20.00     0.171 C 
HETATM    4  C4  UNL     1     -34.102   8.114   5.915  1.00 20.00     0.036 C 
HETATM    5  C5  UNL     1     -32.190   7.242   2.867  1.00 20.00     0.094 C 
HETATM    6  C6  UNL     1     -33.082   9.264   5.936  1.00 20.00     0.005 C 
HETATM    7  C7  UNL     1     -32.034   8.923   4.866  1.00 20.00     0.010 C 
HETATM    8  C8  UNL     1     -32.862   8.248   3.787  1.00 20.00     0.023 C 
HETATM    9  O9  UNL     1     -32.949   4.984   2.414  1.00 20.00    -0.291 OA
HETATM   10 CL10 UNL     1     -34.740   4.890   4.985  1.00 20.00    -0.080 Cl
ENDROOT
TORSDOF 0
