REMARK  1 active torsions:
REMARK  status: ('A' for Active; 'I' for Inactive)
REMARK    1  A    between atoms: C2_2  and  C4_4 
ROOT
HETATM    1  C1  UNL     1     -34.323   5.842   3.804  1.00 20.00     0.171 A 
HETATM    2  C2  UNL     1     -34.281   6.779   4.993  1.00 20.00     0.175 A 
HETATM    3  C3  UNL     1     -34.127   4.371   3.904  1.00 20.00     0.044 C 
HETATM    4  O5  UNL     1     -35.520   6.320   4.429  1.00 20.00    -0.352 OA
HETATM    5 CL6  UNL     1     -33.822   6.162   6.577  1.00 20.00    -0.084 Cl
ENDROOT
BRANCH   2   6
HETATM    6  C4  UNL     1     -34.030   8.235   4.770  1.00 20.00     0.172 C 
HETATM    7 CL7  UNL     1     -32.291   8.560   4.545  1.00 20.00    -0.126 Cl
ENDBRANCH   2   6
TORSDOF 1
