REMARK  1 active torsions:
REMARK  status: ('A' for Active; 'I' for Inactive)
REMARK    1  A    between atoms: C4_4  and  C7_7 
ROOT
HETATM    1  C1  UNL     1     -34.257   5.510   4.709  1.00 20.00     0.075 C 
HETATM    2  C2  UNL     1     -33.871   7.932   4.469  1.00 20.00     0.105 C 
HETATM    3  C3  UNL     1     -33.266   6.539   4.374  1.00 20.00     0.164 C 
HETATM    4  C4  UNL     1     -32.242   8.060   2.328  1.00 20.00     0.113 C 
HETATM    5  N8  UNL     1     -35.041   4.696   4.975  1.00 20.00    -0.196 NA
HETATM    6  S9  UNL     1     -32.662   9.082   3.771  1.00 20.00    -0.151 SA
HETATM    7  S10 UNL     1     -32.635   6.314   2.678  1.00 20.00    -0.133 SA
ENDROOT
BRANCH   4   8
HETATM    8  C7  UNL     1     -33.028   8.528   1.109  1.00 20.00     0.001 C 
HETATM    9  C5  UNL     1     -32.700   9.984   0.780  1.00 20.00     0.011 C 
HETATM   10  C6  UNL     1     -32.743   7.630  -0.095  1.00 20.00     0.011 C 
ENDBRANCH   4   8
TORSDOF 1
