REMARK  1 active torsions:
REMARK  status: ('A' for Active; 'I' for Inactive)
REMARK    1  A    between atoms: C8_8  and  C11_11 
ROOT
HETATM    1  C1  UNL     1     -32.873   8.108   3.145  1.00 20.00    -0.079 C 
HETATM    2  C2  UNL     1     -34.280   5.362   4.544  1.00 20.00     0.132 C 
HETATM    3  C3  UNL     1     -32.721   9.170   2.356  1.00 20.00     0.015 C 
HETATM    4  C4  UNL     1     -32.142   6.738   3.286  1.00 20.00     0.047 C 
HETATM    5  C5  UNL     1     -35.522   6.137   4.998  1.00 20.00     0.080 C 
HETATM    6  C6  UNL     1     -35.324   7.546   4.331  1.00 20.00     0.022 C 
HETATM    7  C7  UNL     1     -33.569   6.307   3.588  1.00 20.00     0.072 C 
HETATM    8  C8  UNL     1     -33.804   7.731   4.283  1.00 20.00    -0.004 C 
HETATM    9  O12 UNL     1     -33.987   4.233   4.904  1.00 20.00    -0.298 OA
ENDROOT
BRANCH   8  10
HETATM   10  C11 UNL     1     -33.242   8.115   5.659  1.00 20.00    -0.009 C 
HETATM   11  C9  UNL     1     -33.116   6.879   6.542  1.00 20.00     0.011 C 
HETATM   12  C10 UNL     1     -31.895   8.812   5.504  1.00 20.00     0.011 C 
ENDBRANCH   8  10
TORSDOF 1
