REMARK  1 active torsions:
REMARK  status: ('A' for Active; 'I' for Inactive)
REMARK    1  A    between atoms: C7_7  and  C10_10 
ROOT
HETATM    1  C1  UNL     1     -33.562   7.238   6.165  1.00 20.00     0.011 C 
HETATM    2  C2  UNL     1     -33.288   7.995   5.094  1.00 20.00    -0.020 C 
HETATM    3  C3  UNL     1     -33.969   5.857   6.047  1.00 20.00     0.000 C 
HETATM    4  C4  UNL     1     -33.963   5.216   4.694  1.00 20.00     0.159 C 
HETATM    5  C5  UNL     1     -34.332   5.117   7.104  1.00 20.00     0.027 C 
HETATM    6  C6  UNL     1     -33.207   5.949   3.603  1.00 20.00     0.092 C 
HETATM    7  C7  UNL     1     -33.357   7.476   3.681  1.00 20.00     0.019 C 
HETATM    8  O11 UNL     1     -34.479   4.121   4.484  1.00 20.00    -0.292 OA
ENDROOT
BRANCH   7   9
HETATM    9  C10 UNL     1     -32.298   8.146   2.804  1.00 20.00    -0.015 C 
HETATM   10  C8  UNL     1     -32.351   7.590   1.384  1.00 20.00     0.010 C 
HETATM   11  C9  UNL     1     -32.489   9.660   2.799  1.00 20.00     0.010 C 
ENDBRANCH   7   9
TORSDOF 1
