REMARK  2 active torsions:
REMARK  status: ('A' for Active; 'I' for Inactive)
REMARK    1  A    between atoms: C2_2  and  C4_4 
REMARK    2  A    between atoms: C4_4  and  C5_5 
ROOT
HETATM    1  C1  UNL     1     -34.319   5.520   3.602  1.00 20.00     0.147 A 
HETATM    2  C2  UNL     1     -34.901   5.409   4.990  1.00 20.00     0.151 A 
HETATM    3  C3  UNL     1     -32.950   6.033   3.332  1.00 20.00     0.042 C 
HETATM    4  O6  UNL     1     -34.364   4.270   4.303  1.00 20.00    -0.376 OA
ENDROOT
BRANCH   2   5
HETATM    5  C4  UNL     1     -34.160   5.801   6.218  1.00 20.00     0.049 C 
BRANCH   5   6
HETATM    6  C5  UNL     1     -34.210   7.304   6.545  1.00 20.00     0.117 C 
HETATM    7 CL7  UNL     1     -33.515   8.281   5.231  1.00 20.00    -0.130 Cl
ENDBRANCH   5   6
ENDBRANCH   2   5
TORSDOF 2
