REMARK  2 active torsions:
REMARK  status: ('A' for Active; 'I' for Inactive)
REMARK    1  A    between atoms: C7_7  and  C10_10 
REMARK    2  A    between atoms: C9_9  and  C10_10 
ROOT
HETATM    1  C1  UNL     1     -32.566   9.795   0.589  1.00 20.00     0.012 C 
HETATM    2  C2  UNL     1     -32.472   8.948   1.434  1.00 20.00    -0.117 C 
HETATM    3  C9  UNL     1     -32.354   7.909   2.466  1.00 20.00     0.093 C 
ENDROOT
BRANCH   3   4
HETATM    4  C10 UNL     1     -33.331   8.179   3.596  1.00 20.00     0.020 C 
BRANCH   4   5
HETATM    5  C7  UNL     1     -33.214   7.117   4.676  1.00 20.00     0.023 C 
HETATM    6  C4  UNL     1     -33.841   7.593   6.001  1.00 20.00     0.008 C 
HETATM    7  C3  UNL     1     -34.246   6.298   6.699  1.00 20.00     0.004 C 
HETATM    8  C5  UNL     1     -34.806   5.442   5.563  1.00 20.00     0.041 C 
HETATM    9  C8  UNL     1     -33.970   5.842   4.382  1.00 20.00     0.086 A 
HETATM   10  C6  UNL     1     -34.174   5.241   3.010  1.00 20.00     0.207 A 
HETATM   11  O11 UNL     1     -33.134   4.784   3.879  1.00 20.00    -0.375 OA
ENDBRANCH   4   5
ENDBRANCH   3   4
TORSDOF 2
