REMARK  1 active torsions:
REMARK  status: ('A' for Active; 'I' for Inactive)
REMARK    1  A    between atoms: C4_4  and  C9_9 
ROOT
HETATM    1  C1  UNL     1     -33.552   4.542   3.501  1.00 20.00     0.007 A 
HETATM    2  C2  UNL     1     -34.137   4.387   4.691  1.00 20.00     0.074 A 
HETATM    3  C3  UNL     1     -33.100   5.832   3.062  1.00 20.00     0.026 A 
HETATM    4  C4  UNL     1     -33.254   6.918   3.839  1.00 20.00     0.018 A 
HETATM    5  C5  UNL     1     -34.327   5.565   5.584  1.00 20.00     0.247 A 
HETATM    6  C8  UNL     1     -34.016   7.994   5.924  1.00 20.00     0.159 C 
HETATM    7  N10 UNL     1     -33.862   6.799   5.096  1.00 20.00    -0.322 N 
HETATM    8  O11 UNL     1     -34.870   5.389   6.674  1.00 20.00    -0.268 OA
ENDROOT
BRANCH   4   9
HETATM    9  C9  UNL     1     -32.776   8.263   3.368  1.00 20.00     0.028 C 
HETATM   10  C6  UNL     1     -31.269   8.236   3.144  1.00 20.00     0.016 C 
HETATM   11  C7  UNL     1     -33.512   8.680   2.099  1.00 20.00     0.016 C 
ENDBRANCH   4   9
TORSDOF 1
