REMARK  0 active torsions:
REMARK  status: ('A' for Active; 'I' for Inactive)
ROOT
HETATM    1  C1  UNL     1     -32.301   9.014   4.874  1.00 20.00    -0.025 A 
HETATM    2  C2  UNL     1     -33.306   8.644   5.688  1.00 20.00    -0.020 A 
HETATM    3  C3  UNL     1     -32.116   6.957   3.288  1.00 20.00     0.014 C 
HETATM    4  C4  UNL     1     -33.193   5.887   3.425  1.00 20.00     0.070 C 
HETATM    5  C5  UNL     1     -34.038   4.856   6.458  1.00 20.00     0.197 C 
HETATM    6  C6  UNL     1     -35.427   5.267   6.050  1.00 20.00     0.197 C 
HETATM    7  C7  UNL     1     -32.840   8.242   3.689  1.00 20.00     0.021 A 
HETATM    8  C8  UNL     1     -34.002   7.813   4.627  1.00 20.00     0.078 A 
HETATM    9  C9  UNL     1     -33.932   6.283   4.701  1.00 20.00     0.171 C 
HETATM   10  O10 UNL     1     -33.205   5.848   5.860  1.00 20.00    -0.352 OA
HETATM   11  O11 UNL     1     -35.250   5.725   4.711  1.00 20.00    -0.352 OA
ENDROOT
TORSDOF 0
