REMARK  1 active torsions:
REMARK  status: ('A' for Active; 'I' for Inactive)
REMARK    1  A    between atoms: C5_5  and  C9_9 
ROOT
HETATM    1  C1  UNL     1     -32.977   5.822   2.482  1.00 20.00     0.049 C 
HETATM    2  C2  UNL     1     -33.880   5.326   3.335  1.00 20.00    -0.018 C 
HETATM    3  C3  UNL     1     -32.528   7.230   2.603  1.00 20.00     0.182 C 
HETATM    4  C4  UNL     1     -34.476   7.625   4.145  1.00 20.00     0.054 C 
HETATM    5  C5  UNL     1     -34.556   6.116   4.422  1.00 20.00     0.014 C 
HETATM    6  C6  UNL     1     -33.084   8.078   3.723  1.00 20.00     0.244 C 
HETATM    7  O10 UNL     1     -31.664   7.659   1.840  1.00 20.00    -0.290 OA
HETATM    8  F11 UNL     1     -32.253   8.045   4.799  1.00 20.00    -0.241 F 
ENDROOT
BRANCH   5   9
HETATM    9  C9  UNL     1     -33.981   5.741   5.787  1.00 20.00    -0.015 C 
HETATM   10  C7  UNL     1     -34.639   6.565   6.890  1.00 20.00     0.010 C 
HETATM   11  C8  UNL     1     -34.160   4.248   6.051  1.00 20.00     0.010 C 
ENDBRANCH   5   9
TORSDOF 1
