REMARK  1 active torsions:
REMARK  status: ('A' for Active; 'I' for Inactive)
REMARK    1  A    between atoms: C4_4  and  C7_7 
ROOT
HETATM    1  C1  UNL     1     -33.925   7.799   6.201  1.00 20.00     0.268 C 
HETATM    2  C2  UNL     1     -33.675   6.403   6.680  1.00 20.00     0.184 C 
HETATM    3  C3  UNL     1     -35.273   5.925   4.457  1.00 20.00     0.107 C 
HETATM    4  C4  UNL     1     -34.230   6.901   3.937  1.00 20.00     0.144 C 
HETATM    5  O8  UNL     1     -33.938   8.749   6.981  1.00 20.00    -0.264 OA
HETATM    6  O9  UNL     1     -34.042   7.991   4.865  1.00 20.00    -0.314 OA
HETATM    7  S10 UNL     1     -34.849   5.189   6.057  1.00 20.00    -0.157 SA
ENDROOT
BRANCH   4   8
HETATM    8  C7  UNL     1     -32.903   6.292   3.501  1.00 20.00     0.008 C 
HETATM    9  C5  UNL     1     -33.120   5.260   2.395  1.00 20.00     0.012 C 
HETATM   10  C6  UNL     1     -31.937   7.380   3.035  1.00 20.00     0.012 C 
ENDBRANCH   4   8
TORSDOF 1
