REMARK  1 active torsions:
REMARK  status: ('A' for Active; 'I' for Inactive)
REMARK    1  A    between atoms: C4_4  and  C10_10 
ROOT
HETATM    1  C1  UNL     1     -33.752   7.536   4.950  1.00 20.00     0.132 C 
HETATM    2  C2  UNL     1     -34.106   7.244   6.384  1.00 20.00     0.087 C 
HETATM    3  C3  UNL     1     -34.498   5.282   5.010  1.00 20.00     0.021 C 
HETATM    4  C4  UNL     1     -33.987   6.355   4.041  1.00 20.00     0.059 C 
HETATM    5  C5  UNL     1     -34.070   5.709   6.430  1.00 20.00    -0.041 C 
HETATM    6  C6  UNL     1     -32.658   5.208   6.773  1.00 20.00     0.015 C 
HETATM    7  C7  UNL     1     -35.050   5.167   7.478  1.00 20.00     0.015 C 
HETATM    8  O11 UNL     1     -33.344   8.625   4.563  1.00 20.00    -0.298 OA
ENDROOT
BRANCH   4   9
HETATM    9  C10 UNL     1     -32.755   5.904   3.273  1.00 20.00    -0.011 C 
HETATM   10  C8  UNL     1     -33.068   4.684   2.403  1.00 20.00     0.010 C 
HETATM   11  C9  UNL     1     -32.203   7.041   2.408  1.00 20.00     0.010 C 
ENDBRANCH   4   9
TORSDOF 1
