REMARK  1 active torsions:
REMARK  status: ('A' for Active; 'I' for Inactive)
REMARK    1  A    between atoms: C7_7  and  N9_9 
ROOT
HETATM    1  C1  UNL     1     -32.437   5.936   2.369  1.00 20.00     0.004 A 
HETATM    2  C2  UNL     1     -32.168   7.120   2.929  1.00 20.00     0.042 A 
HETATM    3  C3  UNL     1     -33.428   5.062   2.928  1.00 20.00     0.018 A 
HETATM    4  C4  UNL     1     -34.096   5.429   4.027  1.00 20.00     0.097 A 
HETATM    5  C5  UNL     1     -32.903   7.565   4.166  1.00 20.00     0.106 A 
HETATM    6  N9  UNL     1     -33.861   6.646   4.653  1.00 20.00    -0.324 N 
HETATM    7  S10 UNL     1     -32.539   9.072   4.850  1.00 20.00    -0.060 SA
ENDROOT
BRANCH   6   8
HETATM    8  C7  UNL     1     -34.645   6.847   5.770  1.00 20.00     0.093 C 
HETATM    9  C6  UNL     1     -34.616   6.033   6.831  1.00 20.00    -0.013 C 
HETATM   10  C8  UNL     1     -33.739   4.828   6.925  1.00 20.00     0.037 C 
ENDBRANCH   6   8
TORSDOF 1
