REMARK  1 active torsions:
REMARK  status: ('A' for Active; 'I' for Inactive)
REMARK    1  A    between atoms: C7_7  and  C11_11 
ROOT
HETATM    1  C1  UNL     1     -33.185   5.177   2.995  1.00 20.00    -0.023 C 
HETATM    2  C2  UNL     1     -32.802   6.089   2.087  1.00 20.00     0.007 C 
HETATM    3  C3  UNL     1     -34.166   7.830   3.257  1.00 20.00     0.050 C 
HETATM    4  C4  UNL     1     -32.289   7.687   4.633  1.00 20.00     0.174 C 
HETATM    5  C5  UNL     1     -33.735   5.593   4.345  1.00 20.00     0.010 C 
HETATM    6  C6  UNL     1     -33.720   7.140   4.537  1.00 20.00     0.020 C 
HETATM    7  C7  UNL     1     -32.928   7.563   2.399  1.00 20.00     0.082 C 
HETATM    8  C8  UNL     1     -35.148   5.032   4.521  1.00 20.00     0.015 C 
HETATM    9  O12 UNL     1     -31.828   7.890   3.278  1.00 20.00    -0.375 OA
ENDROOT
BRANCH   7  10
HETATM   10  C11 UNL     1     -32.874   8.432   1.153  1.00 20.00     0.016 C 
HETATM   11  C9  UNL     1     -33.040   9.910   1.513  1.00 20.00     0.013 C 
HETATM   12  C10 UNL     1     -31.563   8.215   0.395  1.00 20.00     0.013 C 
ENDBRANCH   7  10
TORSDOF 1
