REMARK  1 active torsions:
REMARK  status: ('A' for Active; 'I' for Inactive)
REMARK    1  A    between atoms: C4_4  and  C10_10 
ROOT
HETATM    1  C1  UNL     1     -34.151   6.475   6.450  1.00 20.00    -0.003 C 
HETATM    2  C2  UNL     1     -33.501   7.449   5.604  1.00 20.00     0.011 C 
HETATM    3  C3  UNL     1     -34.404   5.179   6.227  1.00 20.00    -0.026 C 
HETATM    4  C4  UNL     1     -33.002   7.354   4.360  1.00 20.00    -0.009 C 
HETATM    5  C5  UNL     1     -33.108   6.132   3.507  1.00 20.00     0.156 C 
HETATM    6  C6  UNL     1     -34.162   4.392   4.978  1.00 20.00     0.035 C 
HETATM    7  C7  UNL     1     -34.280   5.203   3.702  1.00 20.00     0.087 C 
HETATM    8  O11 UNL     1     -32.277   5.918   2.624  1.00 20.00    -0.293 OA
ENDROOT
BRANCH   4   9
HETATM    9  C10 UNL     1     -32.266   8.504   3.729  1.00 20.00     0.014 C 
HETATM   10  C8  UNL     1     -32.957   8.921   2.436  1.00 20.00     0.015 C 
HETATM   11  C9  UNL     1     -32.165   9.675   4.700  1.00 20.00     0.015 C 
ENDBRANCH   4   9
TORSDOF 1
