REMARK  1 active torsions:
REMARK  status: ('A' for Active; 'I' for Inactive)
REMARK    1  A    between atoms: C3_3  and  C8_8 
ROOT
HETATM    1  C1  UNL     1     -34.020   5.437   4.753  1.00 20.00     0.145 C 
HETATM    2  C4  UNL     1     -33.688   5.203   3.294  1.00 20.00     0.080 C 
HETATM    3  C5  UNL     1     -32.809   6.326   2.755  1.00 20.00     0.016 C 
HETATM    4  C6  UNL     1     -33.667   7.905   4.522  1.00 20.00     0.036 C 
HETATM    5  C7  UNL     1     -34.570   6.812   5.088  1.00 20.00     0.152 C 
HETATM    6  C8  UNL     1     -33.427   7.707   3.017  1.00 20.00     0.009 C 
HETATM    7  O9  UNL     1     -33.934   4.520   5.569  1.00 20.00    -0.296 OA
HETATM    8 CL10 UNL     1     -34.713   6.994   6.852  1.00 20.00    -0.117 Cl
ENDROOT
BRANCH   6   9
HETATM    9  C3  UNL     1     -32.550   8.796   2.480  1.00 20.00    -0.032 C 
HETATM   10  C2  UNL     1     -32.928   9.661   1.533  1.00 20.00     0.007 C 
ENDBRANCH   6   9
TORSDOF 1
