REMARK  1 active torsions:
REMARK  status: ('A' for Active; 'I' for Inactive)
REMARK    1  A    between atoms: C5_5  and  C7_7 
ROOT
HETATM    1  C1  UNL     1     -34.826   6.319   6.436  1.00 20.00     0.003 C 
HETATM    2  C2  UNL     1     -35.357   5.901   5.067  1.00 20.00     0.003 C 
HETATM    3  C3  UNL     1     -33.930   7.521   6.126  1.00 20.00     0.041 C 
HETATM    4  C4  UNL     1     -34.148   6.069   4.144  1.00 20.00     0.041 C 
HETATM    5  C5  UNL     1     -32.055   7.708   4.277  1.00 20.00     0.167 A 
HETATM    6  C6  UNL     1     -33.403   7.217   4.755  1.00 20.00     0.088 A 
HETATM    7  O8  UNL     1     -33.268   8.368   3.904  1.00 20.00    -0.368 OA
ENDROOT
BRANCH   5   8
HETATM    8  C7  UNL     1     -31.327   7.067   3.151  1.00 20.00     0.120 C 
HETATM    9 BR9  UNL     1     -32.075   7.635   1.439  1.00 20.00    -0.094 Br
ENDBRANCH   5   8
TORSDOF 1
