REMARK  1 active torsions:
REMARK  status: ('A' for Active; 'I' for Inactive)
REMARK    1  A    between atoms: C7_7  and  C10_10 
ROOT
HETATM    1  C1  UNL     1     -34.489   4.566   6.008  1.00 20.00     0.003 C 
HETATM    2  C2  UNL     1     -34.157   5.773   6.470  1.00 20.00     0.004 C 
HETATM    3  C3  UNL     1     -33.784   4.595   3.611  1.00 20.00     0.036 C 
HETATM    4  C4  UNL     1     -33.112   5.951   3.320  1.00 20.00     0.010 C 
HETATM    5  C5  UNL     1     -34.953   4.724   4.597  1.00 20.00     0.145 C 
HETATM    6  C6  UNL     1     -34.391   6.773   5.382  1.00 20.00     0.149 C 
HETATM    7  C7  UNL     1     -33.131   6.951   4.506  1.00 20.00     0.022 C 
HETATM    8  O11 UNL     1     -35.391   6.103   4.575  1.00 20.00    -0.373 OA
ENDROOT
BRANCH   7   9
HETATM    9  C10 UNL     1     -33.047   8.383   3.971  1.00 20.00    -0.016 C 
HETATM   10  C8  UNL     1     -32.607   9.338   5.076  1.00 20.00     0.010 C 
HETATM   11  C9  UNL     1     -32.093   8.452   2.784  1.00 20.00     0.010 C 
ENDBRANCH   7   9
TORSDOF 1
