REMARK  1 active torsions:
REMARK  status: ('A' for Active; 'I' for Inactive)
REMARK    1  A    between atoms: C8_8  and  C11_11 
ROOT
HETATM    1  C1  UNL     1     -33.261   7.282   5.749  1.00 20.00    -0.079 C 
HETATM    2  C2  UNL     1     -32.724   8.705   2.721  1.00 20.00     0.132 C 
HETATM    3  C3  UNL     1     -33.006   6.692   6.915  1.00 20.00     0.015 C 
HETATM    4  C4  UNL     1     -33.842   8.667   5.328  1.00 20.00     0.047 C 
HETATM    5  C5  UNL     1     -32.027   7.455   2.174  1.00 20.00     0.080 C 
HETATM    6  C6  UNL     1     -31.904   6.534   3.441  1.00 20.00     0.022 C 
HETATM    7  C7  UNL     1     -32.821   8.462   4.219  1.00 20.00     0.072 C 
HETATM    8  C8  UNL     1     -33.129   6.891   4.288  1.00 20.00    -0.004 C 
HETATM    9  O12 UNL     1     -33.090   9.656   2.049  1.00 20.00    -0.298 OA
ENDROOT
BRANCH   8  10
HETATM   10  C11 UNL     1     -34.405   6.245   3.731  1.00 20.00    -0.009 C 
HETATM   11  C9  UNL     1     -34.104   4.846   3.207  1.00 20.00     0.011 C 
HETATM   12  C10 UNL     1     -35.487   6.202   4.804  1.00 20.00     0.011 C 
ENDBRANCH   8  10
TORSDOF 1
