REMARK  1 active torsions:
REMARK  status: ('A' for Active; 'I' for Inactive)
REMARK    1  A    between atoms: C3_3  and  C9_9 
ROOT
HETATM    1  C1  UNL     1     -34.077   8.130   4.395  1.00 20.00     0.069 C 
HETATM    2  C2  UNL     1     -32.726   8.117   3.694  1.00 20.00     0.069 C 
HETATM    3  C3  UNL     1     -34.310   6.655   4.693  1.00 20.00     0.076 C 
HETATM    4  C4  UNL     1     -32.730   9.004   2.448  1.00 20.00     0.042 C 
HETATM    5  C5  UNL     1     -31.568   8.515   4.609  1.00 20.00     0.042 C 
HETATM    6  C6  UNL     1     -35.736   6.228   4.343  1.00 20.00     0.043 C 
HETATM    7  N10 UNL     1     -32.542   6.717   3.269  1.00 20.00    -0.187 NA
HETATM    8  N11 UNL     1     -33.378   5.945   3.797  1.00 20.00    -0.186 NA
ENDROOT
BRANCH   3   9
HETATM    9  C9  UNL     1     -33.995   6.274   6.140  1.00 20.00     0.009 C 
HETATM   10  C7  UNL     1     -34.847   7.093   7.106  1.00 20.00     0.012 C 
HETATM   11  C8  UNL     1     -34.215   4.780   6.360  1.00 20.00     0.012 C 
ENDBRANCH   3   9
TORSDOF 1
