REMARK  3 active torsions:
REMARK  status: ('A' for Active; 'I' for Inactive)
REMARK    1  A    between atoms: C1_1  and  C7_7 
REMARK    2  A    between atoms: C1_1  and  N9_9 
REMARK    3  A    between atoms: C7_7  and  C8_8 
ROOT
HETATM    1  C1  UNL     1     -32.748   6.972   3.541  1.00 20.00     0.075 C 
HETATM    2  S10 UNL     1     -32.604   6.159   2.055  1.00 20.00    -0.066 SA
ENDROOT
BRANCH   1   3
HETATM    3  C7  UNL     1     -32.770   6.096   4.811  1.00 20.00     0.077 C 
BRANCH   3   4
HETATM    4  C8  UNL     1     -34.169   5.704   5.370  1.00 20.00    -0.045 C 
HETATM    5  C2  UNL     1     -34.208   4.166   5.497  1.00 20.00     0.015 C 
HETATM    6  C3  UNL     1     -35.321   6.133   4.451  1.00 20.00     0.015 C 
HETATM    7  C4  UNL     1     -34.407   6.301   6.768  1.00 20.00     0.015 C 
ENDBRANCH   3   4
ENDBRANCH   1   3
BRANCH   1   8
HETATM    8  N9  UNL     1     -32.864   8.362   3.669  1.00 20.00    -0.384 N 
HETATM    9  C5  UNL     1     -32.857   9.299   2.545  1.00 20.00     0.149 C 
HETATM   10  C6  UNL     1     -32.856   9.030   4.975  1.00 20.00     0.149 C 
ENDBRANCH   1   8
TORSDOF 3
