REMARK  0 active torsions:
REMARK  status: ('A' for Active; 'I' for Inactive)
ROOT
HETATM    1  C1  UNL     1     -34.489   5.276   4.286  1.00 20.00     0.098 A 
HETATM    2  C2  UNL     1     -33.445   5.891   3.628  1.00 20.00     0.136 A 
HETATM    3  C3  UNL     1     -33.980   7.521   4.994  1.00 20.00     0.253 A 
HETATM    4  N4  UNL     1     -33.152   7.179   4.033  1.00 20.00    -0.201 NA
HETATM    5  F5  UNL     1     -33.925   8.726   5.579  1.00 20.00    -0.176 F 
HETATM    6  S6  UNL     1     -35.137   6.343   5.462  1.00 20.00    -0.048 SA
HETATM    7 CL7  UNL     1     -32.534   5.152   2.378  1.00 20.00    -0.062 Cl
ENDROOT
TORSDOF 0
