REMARK  1 active torsions:
REMARK  status: ('A' for Active; 'I' for Inactive)
REMARK    1  A    between atoms: C5_5  and  C10_10 
ROOT
HETATM    1  C1  UNL     1     -33.572   5.328   3.880  1.00 20.00     0.166 C 
HETATM    2  C2  UNL     1     -32.727   6.083   2.874  1.00 20.00     0.086 C 
HETATM    3  C3  UNL     1     -33.252   8.287   4.004  1.00 20.00     0.009 C 
HETATM    4  C4  UNL     1     -33.418   7.410   5.250  1.00 20.00     0.052 C 
HETATM    5  C5  UNL     1     -33.277   7.496   2.686  1.00 20.00    -0.004 C 
HETATM    6  C6  UNL     1     -34.239   6.148   4.981  1.00 20.00     0.159 C 
HETATM    7  C7  UNL     1     -34.398   5.325   6.254  1.00 20.00     0.060 C 
HETATM    8  O11 UNL     1     -33.710   4.108   3.795  1.00 20.00    -0.294 OA
HETATM    9  F12 UNL     1     -35.487   6.528   4.580  1.00 20.00    -0.235 F 
ENDROOT
BRANCH   5  10
HETATM   10  C10 UNL     1     -32.524   8.243   1.588  1.00 20.00    -0.018 C 
HETATM   11  C8  UNL     1     -32.619   7.488   0.263  1.00 20.00     0.010 C 
HETATM   12  C9  UNL     1     -33.062   9.663   1.437  1.00 20.00     0.010 C 
ENDBRANCH   5  10
TORSDOF 1
