REMARK  1 active torsions:
REMARK  status: ('A' for Active; 'I' for Inactive)
REMARK    1  A    between atoms: C7_7  and  C10_10 
ROOT
HETATM    1  C1  UNL     1     -34.130   8.087   5.589  1.00 20.00    -0.017 C 
HETATM    2  C2  UNL     1     -34.312   8.068   4.254  1.00 20.00    -0.019 C 
HETATM    3  C3  UNL     1     -34.126   5.582   6.038  1.00 20.00     0.135 C 
HETATM    4  C4  UNL     1     -34.798   4.993   4.818  1.00 20.00     0.080 C 
HETATM    5  C5  UNL     1     -33.985   5.543   3.635  1.00 20.00     0.022 C 
HETATM    6  C6  UNL     1     -33.292   6.822   5.591  1.00 20.00     0.090 C 
HETATM    7  C7  UNL     1     -33.362   6.895   4.042  1.00 20.00    -0.006 C 
HETATM    8  O11 UNL     1     -34.289   5.144   7.172  1.00 20.00    -0.297 OA
ENDROOT
BRANCH   7   9
HETATM    9  C10 UNL     1     -32.085   7.227   3.288  1.00 20.00    -0.009 C 
HETATM   10  C8  UNL     1     -32.269   7.009   1.785  1.00 20.00     0.011 C 
HETATM   11  C9  UNL     1     -31.648   8.666   3.566  1.00 20.00     0.011 C 
ENDBRANCH   7   9
TORSDOF 1
