REMARK  1 active torsions:
REMARK  status: ('A' for Active; 'I' for Inactive)
REMARK    1  A    between atoms: C6_6  and  C10_10 
ROOT
HETATM    1  C1  UNL     1     -32.156   7.458   2.363  1.00 20.00     0.014 C 
HETATM    2  C2  UNL     1     -32.683   6.486   3.430  1.00 20.00     0.039 C 
HETATM    3  C3  UNL     1     -34.323   8.191   3.029  1.00 20.00     0.049 C 
HETATM    4  C4  UNL     1     -32.510   9.289   4.014  1.00 20.00     0.177 C 
HETATM    5  C5  UNL     1     -32.955   8.746   2.652  1.00 20.00    -0.020 C 
HETATM    6  C6  UNL     1     -33.735   7.344   4.151  1.00 20.00     0.064 C 
HETATM    7  C7  UNL     1     -32.928   9.759   1.532  1.00 20.00     0.017 C 
HETATM    8  O11 UNL     1     -33.008   8.307   4.953  1.00 20.00    -0.379 OA
ENDROOT
BRANCH   6   9
HETATM    9  C10 UNL     1     -34.720   6.571   4.992  1.00 20.00     0.012 C 
HETATM   10  C8  UNL     1     -35.538   5.598   4.135  1.00 20.00     0.012 C 
HETATM   11  C9  UNL     1     -34.010   5.807   6.116  1.00 20.00     0.012 C 
ENDBRANCH   6   9
TORSDOF 1
