REMARK  0 active torsions:
REMARK  status: ('A' for Active; 'I' for Inactive)
ROOT
HETATM    1  C1  UNL     1     -33.481   7.337   4.279  1.00 20.00     0.161 C 
HETATM    2  C2  UNL     1     -32.309   7.253   3.331  1.00 20.00     0.091 C 
HETATM    3  C3  UNL     1     -32.542   6.038   2.455  1.00 20.00     0.084 C 
HETATM    4  C4  UNL     1     -34.154   6.009   4.574  1.00 20.00     0.141 C 
HETATM    5  C5  UNL     1     -35.627   6.046   4.200  1.00 20.00     0.053 C 
HETATM    6  O6  UNL     1     -33.819   8.396   4.803  1.00 20.00    -0.295 OA
HETATM    7  S7  UNL     1     -33.252   4.800   3.559  1.00 20.00    -0.135 SA
HETATM    8 CL8  UNL     1     -33.941   5.660   6.302  1.00 20.00    -0.099 Cl
ENDROOT
TORSDOF 0
