REMARK  1 active torsions:
REMARK  status: ('A' for Active; 'I' for Inactive)
REMARK    1  A    between atoms: C3_3  and  N9_9 
ROOT
HETATM    1  C1  UNL     1     -33.096   7.747   4.585  1.00 20.00     0.079 C 
HETATM    2  C4  UNL     1     -34.011   7.978   5.791  1.00 20.00     0.070 C 
HETATM    3  C5  UNL     1     -33.791   6.925   6.877  1.00 20.00     0.007 C 
HETATM    4  C6  UNL     1     -34.618   5.659   6.671  1.00 20.00     0.002 C 
HETATM    5  C7  UNL     1     -34.287   4.887   5.397  1.00 20.00     0.020 C 
HETATM    6  C8  UNL     1     -34.481   5.701   4.121  1.00 20.00     0.129 C 
HETATM    7  N9  UNL     1     -33.331   6.581   3.836  1.00 20.00    -0.352 N 
HETATM    8  S10 UNL     1     -31.889   8.901   4.300  1.00 20.00    -0.065 SA
ENDROOT
BRANCH   7   9
HETATM    9  C3  UNL     1     -32.509   6.174   2.801  1.00 20.00     0.081 C 
HETATM   10  C2  UNL     1     -32.333   4.892   2.474  1.00 20.00     0.030 C 
ENDBRANCH   7   9
TORSDOF 1
