REMARK  2 active torsions:
REMARK  status: ('A' for Active; 'I' for Inactive)
REMARK    1  A    between atoms: C1_1  and  C3_3 
REMARK    2  A    between atoms: C3_3  and  C5_5 
ROOT
HETATM    1  C1  UNL     1     -33.597   7.473   4.873  1.00 20.00     0.212 C 
HETATM    2  C2  UNL     1     -34.236   6.406   5.359  1.00 20.00     0.228 C 
HETATM    3  F7  UNL     1     -33.477   8.607   5.595  1.00 20.00    -0.198 F 
HETATM    4  F8  UNL     1     -34.780   6.436   6.596  1.00 20.00    -0.189 F 
HETATM    5 CL9  UNL     1     -34.386   4.959   4.433  1.00 20.00    -0.048 Cl
ENDROOT
BRANCH   1   6
HETATM    6  C3  UNL     1     -32.972   7.521   3.523  1.00 20.00     0.191 C 
HETATM    7  O6  UNL     1     -32.519   6.510   2.991  1.00 20.00    -0.290 OA
BRANCH   6   8
HETATM    8  C5  UNL     1     -32.930   8.885   2.857  1.00 20.00     0.082 C 
HETATM    9  C4  UNL     1     -32.256   8.847   1.496  1.00 20.00     0.013 C 
ENDBRANCH   6   8
ENDBRANCH   1   6
TORSDOF 2
