REMARK  1 active torsions:
REMARK  status: ('A' for Active; 'I' for Inactive)
REMARK    1  A    between atoms: C7_7  and  C10_10 
ROOT
HETATM    1  C1  UNL     1     -34.139   5.801   6.685  1.00 20.00    -0.004 C 
HETATM    2  C2  UNL     1     -34.080   7.243   6.747  1.00 20.00    -0.004 C 
HETATM    3  C3  UNL     1     -34.517   5.042   5.647  1.00 20.00    -0.019 C 
HETATM    4  C4  UNL     1     -34.011   8.143   5.753  1.00 20.00    -0.014 C 
HETATM    5  C5  UNL     1     -33.815   6.500   3.833  1.00 20.00     0.138 C 
HETATM    6  C6  UNL     1     -34.887   5.537   4.290  1.00 20.00     0.106 C 
HETATM    7  C7  UNL     1     -33.976   7.958   4.258  1.00 20.00     0.081 C 
HETATM    8  O11 UNL     1     -32.852   6.101   3.178  1.00 20.00    -0.297 OA
ENDROOT
BRANCH   7   9
HETATM    9  C10 UNL     1     -32.866   8.818   3.650  1.00 20.00    -0.008 C 
HETATM   10  C8  UNL     1     -31.513   8.446   4.249  1.00 20.00     0.010 C 
HETATM   11  C9  UNL     1     -32.844   8.666   2.132  1.00 20.00     0.010 C 
ENDBRANCH   7   9
TORSDOF 1
