REMARK  2 active torsions:
REMARK  status: ('A' for Active; 'I' for Inactive)
REMARK    1  A    between atoms: C2_2  and  C3_3 
REMARK    2  A    between atoms: C3_3  and  O11_11 
ROOT
HETATM    1  C1  UNL     1     -33.173   7.608   5.385  1.00 20.00    -0.069 C 
HETATM    2  C2  UNL     1     -34.006   7.100   6.291  1.00 20.00     0.084 C 
HETATM    3  C4  UNL     1     -32.476   8.976   5.199  1.00 20.00     0.040 C 
HETATM    4  C5  UNL     1     -32.379   7.255   1.773  1.00 20.00     0.001 C 
HETATM    5  C6  UNL     1     -33.085   6.460   2.900  1.00 20.00     0.009 C 
HETATM    6  C7  UNL     1     -31.868   8.556   2.438  1.00 20.00     0.005 C 
HETATM    7  C8  UNL     1     -32.504   7.097   4.139  1.00 20.00     0.019 C 
HETATM    8  C9  UNL     1     -32.690   8.588   3.708  1.00 20.00    -0.002 C 
ENDROOT
BRANCH   2   9
HETATM    9  C3  UNL     1     -34.547   5.726   6.244  1.00 20.00     0.165 C 
HETATM   10  O10 UNL     1     -33.992   4.773   6.771  1.00 20.00    -0.647 OA
BRANCH   9  11
HETATM   11  O11 UNL     1     -35.710   5.646   5.562  1.00 20.00    -0.773 OA
HETATM   12  H23 UNL     1     -36.060   4.730   5.537  1.00 20.00     0.167 HD
ENDBRANCH   9  11
ENDBRANCH   2   9
TORSDOF 2
