REMARK  0 active torsions:
REMARK  status: ('A' for Active; 'I' for Inactive)
ROOT
HETATM    1  C1  UNL     1     -32.487   7.433   4.042  1.00 20.00     0.086 C 
HETATM    2  C2  UNL     1     -33.386   6.941   4.901  1.00 20.00    -0.064 C 
HETATM    3  C3  UNL     1     -32.416   6.887   2.672  1.00 20.00     0.283 C 
HETATM    4  C4  UNL     1     -33.518   7.314   6.348  1.00 20.00     0.035 C 
HETATM    5  C5  UNL     1     -34.533   6.307   6.892  1.00 20.00     0.005 C 
HETATM    6  C6  UNL     1     -34.487   5.130   5.917  1.00 20.00     0.016 C 
HETATM    7  C7  UNL     1     -33.526   4.908   3.560  1.00 20.00     0.192 C 
HETATM    8  C8  UNL     1     -34.281   5.788   4.549  1.00 20.00     0.002 C 
HETATM    9  C9  UNL     1     -35.607   6.284   3.950  1.00 20.00     0.022 C 
HETATM   10  O10 UNL     1     -31.817   7.490   1.788  1.00 20.00    -0.260 OA
HETATM   11  O11 UNL     1     -33.045   5.699   2.447  1.00 20.00    -0.317 OA
ENDROOT
TORSDOF 0
