REMARK  1 active torsions:
REMARK  status: ('A' for Active; 'I' for Inactive)
REMARK    1  A    between atoms: C4_4  and  C9_9 
ROOT
HETATM    1  C1  UNL     1     -32.756   7.918   4.015  1.00 20.00     0.174 C 
HETATM    2  C2  UNL     1     -32.893   5.996   2.303  1.00 20.00     0.083 C 
HETATM    3  C3  UNL     1     -32.219   7.315   2.707  1.00 20.00     0.015 C 
HETATM    4  C4  UNL     1     -34.458   6.294   4.544  1.00 20.00     0.108 C 
HETATM    5  C5  UNL     1     -32.357   8.321   1.558  1.00 20.00     0.012 C 
HETATM    6  C6  UNL     1     -35.909   6.057   4.116  1.00 20.00     0.058 C 
HETATM    7  O10 UNL     1     -34.146   7.648   4.168  1.00 20.00    -0.369 OA
HETATM    8  S11 UNL     1     -33.407   5.020   3.741  1.00 20.00    -0.131 SA
ENDROOT
BRANCH   4   9
HETATM    9  C9  UNL     1     -34.342   6.149   6.064  1.00 20.00     0.022 C 
HETATM   10  C7  UNL     1     -34.540   7.500   6.742  1.00 20.00     0.013 C 
HETATM   11  C8  UNL     1     -35.353   5.130   6.578  1.00 20.00     0.013 C 
ENDBRANCH   4   9
TORSDOF 1
