REMARK  1 active torsions:
REMARK  status: ('A' for Active; 'I' for Inactive)
REMARK    1  A    between atoms: C3_3  and  C7_7 
ROOT
HETATM    1  C1  UNL     1     -32.602   7.714   2.599  1.00 20.00     0.255 C 
HETATM    2  C2  UNL     1     -33.426   8.716   4.411  1.00 20.00     0.157 C 
HETATM    3  C3  UNL     1     -33.848   7.260   4.376  1.00 20.00     0.164 C 
HETATM    4  C4  UNL     1     -32.287   9.068   5.361  1.00 20.00     0.043 C 
HETATM    5  O8  UNL     1     -32.980   8.930   3.069  1.00 20.00    -0.314 OA
HETATM    6  O9  UNL     1     -32.959   6.690   3.416  1.00 20.00    -0.313 OA
HETATM    7  S10 UNL     1     -31.790   7.502   1.186  1.00 20.00    -0.025 SA
ENDROOT
BRANCH   3   8
HETATM    8  C7  UNL     1     -33.774   6.499   5.685  1.00 20.00     0.010 C 
HETATM    9  C5  UNL     1     -34.644   7.164   6.755  1.00 20.00     0.012 C 
HETATM   10  C6  UNL     1     -34.194   5.040   5.494  1.00 20.00     0.012 C 
ENDBRANCH   3   8
TORSDOF 1
