REMARK  1 active torsions:
REMARK  status: ('A' for Active; 'I' for Inactive)
REMARK    1  A    between atoms: C6_6  and  C11_11 
ROOT
HETATM    1  C1  UNL     1     -33.649   6.744   5.058  1.00 20.00    -0.014 C 
HETATM    2  C2  UNL     1     -33.280   8.040   4.970  1.00 20.00    -0.074 C 
HETATM    3  C3  UNL     1     -33.456   5.849   3.865  1.00 20.00     0.155 C 
HETATM    4  C4  UNL     1     -32.763   8.665   3.692  1.00 20.00     0.039 C 
HETATM    5  C5  UNL     1     -32.790   6.408   2.629  1.00 20.00     0.088 C 
HETATM    6  C6  UNL     1     -33.147   7.875   2.440  1.00 20.00     0.000 C 
HETATM    7  C7  UNL     1     -34.243   6.075   6.265  1.00 20.00     0.052 C 
HETATM    8  C8  UNL     1     -33.325   9.009   6.123  1.00 20.00     0.044 C 
HETATM    9  O12 UNL     1     -33.777   4.661   3.915  1.00 20.00    -0.293 OA
ENDROOT
BRANCH   6  10
HETATM   10  C11 UNL     1     -32.468   8.450   1.200  1.00 20.00    -0.018 C 
HETATM   11  C9  UNL     1     -32.829   7.634  -0.039  1.00 20.00     0.010 C 
HETATM   12  C10 UNL     1     -32.852   9.916   1.008  1.00 20.00     0.010 C 
ENDBRANCH   6  10
TORSDOF 1
