REMARK  0 active torsions:
REMARK  status: ('A' for Active; 'I' for Inactive)
ROOT
HETATM    1  C1  UNL     1     -32.808   8.645   3.891  1.00 20.00     0.001 C 
HETATM    2  C2  UNL     1     -34.113   9.398   4.135  1.00 20.00     0.001 C 
HETATM    3  C3  UNL     1     -32.755   7.530   4.936  1.00 20.00     0.011 C 
HETATM    4  C4  UNL     1     -34.737   8.759   5.371  1.00 20.00     0.011 C 
HETATM    5  C5  UNL     1     -35.014   6.440   4.377  1.00 20.00     0.096 C 
HETATM    6  C6  UNL     1     -34.351   6.684   6.768  1.00 20.00     0.096 C 
HETATM    7  C7  UNL     1     -34.218   7.312   5.372  1.00 20.00    -0.022 C 
HETATM    8  S8  UNL     1     -34.612   4.697   4.684  1.00 20.00    -0.097 SA
HETATM    9  S9  UNL     1     -33.998   4.914   6.626  1.00 20.00    -0.097 SA
ENDROOT
TORSDOF 0
