REMARK  1 active torsions:
REMARK  status: ('A' for Active; 'I' for Inactive)
REMARK    1  A    between atoms: C7_7  and  C10_10 
ROOT
HETATM    1  C1  UNL     1     -32.941   8.407   5.309  1.00 20.00    -0.023 C 
HETATM    2  C2  UNL     1     -33.886   8.455   4.308  1.00 20.00    -0.012 C 
HETATM    3  C3  UNL     1     -35.409   6.177   4.777  1.00 20.00     0.140 C 
HETATM    4  C4  UNL     1     -35.158   5.446   6.113  1.00 20.00     0.080 C 
HETATM    5  C5  UNL     1     -33.770   6.017   6.585  1.00 20.00     0.017 C 
HETATM    6  C6  UNL     1     -33.814   7.417   6.022  1.00 20.00     0.028 C 
HETATM    7  C7  UNL     1     -34.096   6.958   4.504  1.00 20.00     0.048 C 
HETATM    8  O11 UNL     1     -36.436   6.094   4.122  1.00 20.00    -0.297 OA
ENDROOT
BRANCH   7   9
HETATM    9  C10 UNL     1     -33.159   6.122   3.610  1.00 20.00    -0.002 C 
HETATM   10  C8  UNL     1     -33.808   4.786   3.279  1.00 20.00     0.011 C 
HETATM   11  C9  UNL     1     -32.819   6.896   2.344  1.00 20.00     0.011 C 
ENDBRANCH   7   9
TORSDOF 1
