REMARK  0 active torsions:
REMARK  status: ('A' for Active; 'I' for Inactive)
ROOT
HETATM    1  C1  UNL     1     -34.448   5.280   6.638  1.00 20.00    -0.004 C 
HETATM    2  C2  UNL     1     -33.074   5.486   6.261  1.00 20.00    -0.003 C 
HETATM    3  C3  UNL     1     -35.444   5.492   5.768  1.00 20.00    -0.025 C 
HETATM    4  C4  UNL     1     -32.745   6.091   5.111  1.00 20.00    -0.009 C 
HETATM    5  C5  UNL     1     -33.860   8.111   4.406  1.00 20.00     0.140 C 
HETATM    6  C6  UNL     1     -35.194   5.964   4.361  1.00 20.00     0.048 C 
HETATM    7  C7  UNL     1     -32.771   9.004   3.849  1.00 20.00     0.079 C 
HETATM    8  C8  UNL     1     -32.538   8.728   2.378  1.00 20.00     0.008 C 
HETATM    9  C9  UNL     1     -32.215   7.260   2.147  1.00 20.00     0.006 C 
HETATM   10  C10 UNL     1     -33.366   6.353   2.622  1.00 20.00     0.001 C 
HETATM   11  C11 UNL     1     -33.776   6.594   4.113  1.00 20.00     0.044 C 
HETATM   12  C12 UNL     1     -32.988   4.894   2.316  1.00 20.00     0.011 C 
HETATM   13  O13 UNL     1     -34.705   8.588   5.167  1.00 20.00    -0.297 OA
ENDROOT
TORSDOF 0
