REMARK  0 active torsions:
REMARK  status: ('A' for Active; 'I' for Inactive)
ROOT
HETATM    1  C1  UNL     1     -34.431   4.411   5.667  1.00 20.00     0.001 C 
HETATM    2  C2  UNL     1     -35.688   5.255   5.475  1.00 20.00     0.001 C 
HETATM    3  C3  UNL     1     -33.470   8.816   5.504  1.00 20.00     0.004 C 
HETATM    4  C4  UNL     1     -32.572   9.285   4.363  1.00 20.00     0.034 C 
HETATM    5  C5  UNL     1     -33.389   4.990   4.716  1.00 20.00     0.012 C 
HETATM    6  C6  UNL     1     -35.319   6.353   4.479  1.00 20.00     0.012 C 
HETATM    7  C7  UNL     1     -33.321   7.314   5.753  1.00 20.00     0.012 C 
HETATM    8  C8  UNL     1     -32.680   8.410   3.157  1.00 20.00     0.152 A 
HETATM    9  C9  UNL     1     -33.239   7.013   3.241  1.00 20.00     0.159 A 
HETATM   10  C10 UNL     1     -33.782   6.467   4.538  1.00 20.00    -0.012 C 
HETATM   11  O11 UNL     1     -31.828   7.251   3.219  1.00 20.00    -0.375 OA
ENDROOT
TORSDOF 0
