REMARK  1 active torsions:
REMARK  status: ('A' for Active; 'I' for Inactive)
REMARK    1  A    between atoms: C4_4  and  C9_9 
ROOT
HETATM    1  C1  UNL     1     -33.110   8.295   4.242  1.00 20.00     0.014 A 
HETATM    2  C2  UNL     1     -33.580   7.939   5.443  1.00 20.00     0.075 A 
HETATM    3  C3  UNL     1     -33.193   6.032   3.448  1.00 20.00     0.101 A 
HETATM    4  C4  UNL     1     -32.904   7.318   3.197  1.00 20.00    -0.039 A 
HETATM    5  C5  UNL     1     -33.903   6.511   5.729  1.00 20.00     0.246 A 
HETATM    6  C8  UNL     1     -33.972   4.201   4.877  1.00 20.00     0.159 C 
HETATM    7  N10 UNL     1     -33.681   5.616   4.676  1.00 20.00    -0.329 N 
HETATM    8  O11 UNL     1     -34.334   6.212   6.841  1.00 20.00    -0.268 OA
ENDROOT
BRANCH   4   9
HETATM    9  C9  UNL     1     -32.375   7.802   1.885  1.00 20.00     0.012 C 
HETATM   10  C6  UNL     1     -33.346   8.798   1.255  1.00 20.00     0.015 C 
HETATM   11  C7  UNL     1     -30.991   8.426   2.052  1.00 20.00     0.015 C 
ENDBRANCH   4   9
TORSDOF 1
