REMARK  1 active torsions:
REMARK  status: ('A' for Active; 'I' for Inactive)
REMARK    1  A    between atoms: C5_5  and  N7_7 
ROOT
HETATM    1  C1  UNL     1     -32.721   8.668   4.380  1.00 20.00     0.332 C 
HETATM    2  N7  UNL     1     -33.390   7.859   3.859  1.00 20.00    -0.241 NA
HETATM    3  O8  UNL     1     -32.051   9.485   4.898  1.00 20.00    -0.260 OA
ENDROOT
BRANCH   2   4
HETATM    4  C5  UNL     1     -33.238   6.507   4.411  1.00 20.00     0.126 C 
HETATM    5  C3  UNL     1     -33.658   6.520   5.881  1.00 20.00     0.029 C 
HETATM    6  C2  UNL     1     -35.134   6.114   5.914  1.00 20.00     0.003 C 
HETATM    7  C4  UNL     1     -35.539   5.813   4.472  1.00 20.00     0.018 C 
HETATM    8  C6  UNL     1     -34.234   5.583   3.726  1.00 20.00     0.083 C 
HETATM    9 BR9  UNL     1     -33.670   3.721   3.907  1.00 20.00    -0.089 Br
ENDBRANCH   2   4
TORSDOF 1
