REMARK  1 active torsions:
REMARK  status: ('A' for Active; 'I' for Inactive)
REMARK    1  A    between atoms: C1_1  and  C10_10 
ROOT
HETATM    1  C1  UNL     1     -33.605   6.742   4.414  1.00 20.00     0.025 C 
HETATM    2  C2  UNL     1     -32.813   6.422   3.398  1.00 20.00    -0.038 C 
HETATM    3  C3  UNL     1     -33.301   8.160   4.692  1.00 20.00     0.290 C 
HETATM    4  C4  UNL     1     -32.847   5.343   2.379  1.00 20.00     0.038 C 
HETATM    5  C5  UNL     1     -32.253   6.059   1.152  1.00 20.00     0.007 C 
HETATM    6  C6  UNL     1     -32.203   7.553   1.510  1.00 20.00     0.037 C 
HETATM    7  C7  UNL     1     -31.934   7.532   3.001  1.00 20.00     0.162 C 
HETATM    8  O11 UNL     1     -33.803   8.826   5.582  1.00 20.00    -0.260 OA
HETATM    9  O12 UNL     1     -32.417   8.631   3.752  1.00 20.00    -0.308 OA
ENDROOT
BRANCH   1  10
HETATM   10  C10 UNL     1     -34.718   6.005   5.049  1.00 20.00     0.017 C 
HETATM   11  C8  UNL     1     -34.963   4.666   4.343  1.00 20.00     0.015 C 
HETATM   12  C9  UNL     1     -34.461   5.774   6.543  1.00 20.00     0.015 C 
ENDBRANCH   1  10
TORSDOF 1
