REMARK  0 active torsions:
REMARK  status: ('A' for Active; 'I' for Inactive)
ROOT
HETATM    1  C1  UNL     1     -32.622   7.350   3.064  1.00 20.00     0.218 C 
HETATM    2  C2  UNL     1     -32.448   8.456   4.083  1.00 20.00     0.105 C 
HETATM    3  C3  UNL     1     -32.866   7.834   5.423  1.00 20.00     0.040 C 
HETATM    4  C4  UNL     1     -33.928   5.537   6.038  1.00 20.00     0.033 A 
HETATM    5  C5  UNL     1     -35.054   6.424   5.593  1.00 20.00     0.033 A 
HETATM    6  C6  UNL     1     -33.670   6.627   5.030  1.00 20.00     0.033 A 
HETATM    7  N7  UNL     1     -33.369   6.348   3.666  1.00 20.00    -0.352 N 
HETATM    8  O8  UNL     1     -32.206   7.376   1.916  1.00 20.00    -0.274 OA
HETATM    9  H17 UNL     1     -33.668   5.507   3.186  1.00 20.00     0.163 HD
ENDROOT
TORSDOF 0
