REMARK  4 active torsions:
REMARK  status: ('A' for Active; 'I' for Inactive)
REMARK    1  A    between atoms: C1_1  and  C3_3 
REMARK    2  A    between atoms: C2_2  and  C7_7 
REMARK    3  A    between atoms: C2_2  and  C8_8 
REMARK    4  A    between atoms: C3_3  and  C9_9 
ROOT
HETATM    1  C1  UNL     1     -33.106   6.039   3.094  1.00 20.00     0.164 C 
HETATM    2  C2  UNL     1     -34.062   6.231   4.022  1.00 20.00    -0.038 C 
HETATM    3  F11 UNL     1     -32.951   4.814   2.542  1.00 20.00    -0.202 F 
ENDROOT
BRANCH   1   4
HETATM    4  C3  UNL     1     -32.154   7.051   2.548  1.00 20.00     0.187 C 
HETATM    5  O10 UNL     1     -31.343   7.633   3.262  1.00 20.00    -0.290 OA
BRANCH   4   6
HETATM    6  C9  UNL     1     -32.232   7.289   1.049  1.00 20.00     0.082 C 
HETATM    7  C6  UNL     1     -32.599   8.723   0.707  1.00 20.00     0.013 C 
ENDBRANCH   4   6
ENDBRANCH   1   4
BRANCH   2   8
HETATM    8  C7  UNL     1     -35.000   5.162   4.538  1.00 20.00     0.033 C 
HETATM    9  C4  UNL     1     -34.435   4.435   5.751  1.00 20.00     0.010 C 
ENDBRANCH   2   8
BRANCH   2  10
HETATM   10  C8  UNL     1     -34.246   7.606   4.637  1.00 20.00     0.033 C 
HETATM   11  C5  UNL     1     -33.398   7.802   5.886  1.00 20.00     0.010 C 
ENDBRANCH   2  10
TORSDOF 4
