REMARK  1 active torsions:
REMARK  status: ('A' for Active; 'I' for Inactive)
REMARK    1  A    between atoms: C7_7  and  N8_8 
ROOT
HETATM    1  C1  UNL     1     -34.000   4.686   5.716  1.00 20.00     0.005 C 
HETATM    2  C2  UNL     1     -34.128   6.049   6.411  1.00 20.00     0.007 C 
HETATM    3  C3  UNL     1     -35.739   5.935   4.674  1.00 20.00     0.011 C 
HETATM    4  C4  UNL     1     -33.656   5.818   3.511  1.00 20.00     0.027 C 
HETATM    5  C5  UNL     1     -34.623   4.945   4.335  1.00 20.00    -0.013 C 
HETATM    6  C6  UNL     1     -34.779   6.933   5.328  1.00 20.00     0.006 C 
HETATM    7  C7  UNL     1     -33.805   7.204   4.163  1.00 20.00     0.097 C 
ENDROOT
BRANCH   7   8
HETATM    8  N8  UNL     1     -32.536   7.811   4.529  1.00 20.00    -0.131 NA
HETATM    9 CL9  UNL     1     -31.481   8.043   3.132  1.00 20.00    -0.005 Cl
HETATM   10 CL10 UNL     1     -32.751   9.342   5.382  1.00 20.00    -0.005 Cl
ENDBRANCH   7   8
TORSDOF 1
