REMARK  2 active torsions:
REMARK  status: ('A' for Active; 'I' for Inactive)
REMARK    1  A    between atoms: C2_2  and  C5_5 
REMARK    2  A    between atoms: C7_7  and  C10_10 
ROOT
HETATM    1  C1  UNL     1     -32.317   8.292   3.512  1.00 20.00    -0.006 A 
HETATM    2  C2  UNL     1     -32.339   7.668   2.332  1.00 20.00     0.005 A 
HETATM    3  C3  UNL     1     -32.584   6.246   2.637  1.00 20.00     0.159 A 
HETATM    4  C6  UNL     1     -32.680   6.006   4.118  1.00 20.00     0.092 A 
HETATM    5  C7  UNL     1     -32.542   7.412   4.708  1.00 20.00     0.019 A 
HETATM    6  O11 UNL     1     -32.683   5.372   1.788  1.00 20.00    -0.292 OA
ENDROOT
BRANCH   5   7
HETATM    7  C10 UNL     1     -33.782   7.835   5.488  1.00 20.00    -0.015 C 
HETATM    8  C8  UNL     1     -34.012   6.906   6.680  1.00 20.00     0.010 C 
HETATM    9  C9  UNL     1     -33.657   9.284   5.957  1.00 20.00     0.010 C 
ENDBRANCH   5   7
BRANCH   2  10
HETATM   10  C5  UNL     1     -32.163   8.216   1.029  1.00 20.00     0.004 C 
HETATM   11  C4  UNL     1     -32.711   9.412   0.714  1.00 20.00     0.012 C 
ENDBRANCH   2  10
TORSDOF 2
