REMARK  0 active torsions:
REMARK  status: ('A' for Active; 'I' for Inactive)
ROOT
HETATM    1  C1  UNL     1     -35.889   6.121   4.560  1.00 20.00    -0.029 C 
HETATM    2  C2  UNL     1     -35.051   6.385   3.553  1.00 20.00    -0.013 C 
HETATM    3  C3  UNL     1     -33.116   7.769   4.105  1.00 20.00     0.139 C 
HETATM    4  C4  UNL     1     -35.157   5.848   5.832  1.00 20.00     0.032 C 
HETATM    5  C5  UNL     1     -32.143   8.113   3.003  1.00 20.00     0.079 C 
HETATM    6  C6  UNL     1     -32.299   6.931   2.055  1.00 20.00     0.009 C 
HETATM    7  C7  UNL     1     -32.641   5.756   2.967  1.00 20.00     0.022 C 
HETATM    8  C8  UNL     1     -33.706   5.607   5.361  1.00 20.00     0.004 C 
HETATM    9  C9  UNL     1     -33.618   6.332   3.997  1.00 20.00     0.041 C 
HETATM   10  C10 UNL     1     -33.423   4.101   5.288  1.00 20.00     0.011 C 
HETATM   11  O11 UNL     1     -33.450   8.566   4.974  1.00 20.00    -0.297 OA
ENDROOT
TORSDOF 0
