REMARK  0 active torsions:
REMARK  status: ('A' for Active; 'I' for Inactive)
ROOT
HETATM    1  C1  UNL     1     -32.745   6.216   2.624  1.00 20.00     0.050 C 
HETATM    2  C2  UNL     1     -33.629   5.379   3.179  1.00 20.00    -0.014 C 
HETATM    3  C3  UNL     1     -32.428   7.517   3.262  1.00 20.00     0.188 C 
HETATM    4  C4  UNL     1     -33.627   6.712   5.314  1.00 20.00     0.064 C 
HETATM    5  C5  UNL     1     -34.341   5.612   4.492  1.00 20.00    -0.026 C 
HETATM    6  C6  UNL     1     -33.235   7.938   4.483  1.00 20.00     0.164 C 
HETATM    7  C7  UNL     1     -34.328   4.309   5.315  1.00 20.00     0.019 C 
HETATM    8  C8  UNL     1     -35.805   5.988   4.203  1.00 20.00     0.019 C 
HETATM    9  C9  UNL     1     -32.448   8.928   5.337  1.00 20.00     0.060 C 
HETATM   10  O10 UNL     1     -31.580   8.242   2.745  1.00 20.00    -0.290 OA
HETATM   11  F11 UNL     1     -34.371   8.577   4.081  1.00 20.00    -0.235 F 
ENDROOT
TORSDOF 0
