REMARK  1 active torsions:
REMARK  status: ('A' for Active; 'I' for Inactive)
REMARK    1  A    between atoms: C7_7  and  C11_11 
ROOT
HETATM    1  C1  UNL     1     -32.558   7.732   3.305  1.00 20.00    -0.021 C 
HETATM    2  C2  UNL     1     -33.159   6.559   3.584  1.00 20.00    -0.053 C 
HETATM    3  C3  UNL     1     -32.608   8.896   4.262  1.00 20.00     0.034 C 
HETATM    4  C4  UNL     1     -33.182   7.223   6.013  1.00 20.00     0.050 C 
HETATM    5  C5  UNL     1     -34.962   8.468   5.155  1.00 20.00     0.174 C 
HETATM    6  C6  UNL     1     -33.479   8.621   5.507  1.00 20.00     0.016 C 
HETATM    7  C7  UNL     1     -33.888   6.411   4.919  1.00 20.00     0.087 C 
HETATM    8  C8  UNL     1     -33.184   5.436   2.591  1.00 20.00     0.046 C 
HETATM    9  O12 UNL     1     -35.157   7.091   4.760  1.00 20.00    -0.375 OA
ENDROOT
BRANCH   7  10
HETATM   10  C11 UNL     1     -34.138   4.977   5.371  1.00 20.00     0.016 C 
HETATM   11  C9  UNL     1     -32.821   4.214   5.500  1.00 20.00     0.013 C 
HETATM   12  C10 UNL     1     -34.901   4.954   6.695  1.00 20.00     0.013 C 
ENDBRANCH   7  10
TORSDOF 1
