REMARK  2 active torsions:
REMARK  status: ('A' for Active; 'I' for Inactive)
REMARK    1  A    between atoms: C1_1  and  C5_5 
REMARK    2  A    between atoms: C2_2  and  C3_3 
ROOT
HETATM    1  C1  UNL     1     -33.351   7.487   5.952  1.00 20.00     0.134 C 
HETATM    2  C2  UNL     1     -34.115   6.401   5.787  1.00 20.00     0.166 C 
HETATM    3  F7  UNL     1     -34.585   5.716   6.852  1.00 20.00    -0.202 F 
ENDROOT
BRANCH   1   4
HETATM    4  C5  UNL     1     -32.788   8.305   4.842  1.00 20.00     0.410 C 
HETATM    5  F8  UNL     1     -32.044   9.358   5.264  1.00 20.00    -0.167 F 
HETATM    6  F9  UNL     1     -33.771   8.811   4.055  1.00 20.00    -0.167 F 
HETATM    7  F10 UNL     1     -31.988   7.560   4.037  1.00 20.00    -0.167 F 
ENDBRANCH   1   4
BRANCH   2   8
HETATM    8  C3  UNL     1     -34.528   5.832   4.479  1.00 20.00     0.183 C 
HETATM    9  C4  UNL     1     -33.475   5.369   3.507  1.00 20.00     0.099 C 
HETATM   10  O6  UNL     1     -35.726   5.745   4.210  1.00 20.00    -0.290 OA
ENDBRANCH   2   8
TORSDOF 2
