REMARK  5 active torsions:
REMARK  status: ('A' for Active; 'I' for Inactive)
REMARK    1  A    between atoms: C2_2  and  C6_6 
REMARK    2  A    between atoms: C2_2  and  C8_8 
REMARK    3  A    between atoms: C6_6  and  O11_11 
REMARK    4  A    between atoms: C7_7  and  O10_10 
REMARK    5  A    between atoms: C7_7  and  O11_11 
ROOT
HETATM    1  C1  UNL     1     -33.205   6.742   6.811  1.00 20.00     0.209 A 
HETATM    2  C2  UNL     1     -34.007   6.790   5.533  1.00 20.00     0.106 A 
HETATM    3  O9  UNL     1     -34.430   7.483   6.715  1.00 20.00    -0.372 OA
ENDROOT
BRANCH   2   4
HETATM    4  C6  UNL     1     -33.575   7.696   4.426  1.00 20.00     0.211 C 
BRANCH   4   5
HETATM    5  O11 UNL     1     -32.504   7.094   3.701  1.00 20.00    -0.364 OA
BRANCH   5   6
HETATM    6  C7  UNL     1     -32.052   7.919   2.630  1.00 20.00     0.337 C 
BRANCH   6   7
HETATM    7  O10 UNL     1     -32.887   7.883   1.472  1.00 20.00    -0.372 OA
HETATM    8  C5  UNL     1     -32.430   8.760   0.451  1.00 20.00     0.204 C 
ENDBRANCH   6   7
ENDBRANCH   5   6
ENDBRANCH   4   5
ENDBRANCH   2   4
BRANCH   2   9
HETATM    9  C8  UNL     1     -34.900   5.609   5.160  1.00 20.00     0.016 C 
HETATM   10  C3  UNL     1     -34.090   4.529   4.445  1.00 20.00     0.012 C 
HETATM   11  C4  UNL     1     -35.580   5.036   6.401  1.00 20.00     0.012 C 
ENDBRANCH   2   9
TORSDOF 5
