REMARK  1 active torsions:
REMARK  status: ('A' for Active; 'I' for Inactive)
REMARK    1  A    between atoms: C2_2  and  C6_6 
ROOT
HETATM    1  C3  UNL     1     -34.616   5.824   6.847  1.00 20.00     0.003 C 
HETATM    2  C4  UNL     1     -34.008   7.146   6.335  1.00 20.00     0.011 C 
HETATM    3  C5  UNL     1     -34.461   4.634   5.897  1.00 20.00     0.034 C 
HETATM    4  C6  UNL     1     -33.311   7.043   4.964  1.00 20.00     0.039 C 
HETATM    5  C7  UNL     1     -34.817   5.034   4.503  1.00 20.00     0.151 A 
HETATM    6  C8  UNL     1     -34.213   6.314   4.003  1.00 20.00     0.158 A 
HETATM    7  O9  UNL     1     -33.737   5.037   3.564  1.00 20.00    -0.375 OA
ENDROOT
BRANCH   4   8
HETATM    8  C2  UNL     1     -32.887   8.401   4.492  1.00 20.00    -0.030 C 
HETATM    9  C1  UNL     1     -32.756   8.738   3.205  1.00 20.00     0.007 C 
ENDBRANCH   4   8
TORSDOF 1
