REMARK  2 active torsions:
REMARK  status: ('A' for Active; 'I' for Inactive)
REMARK    1  A    between atoms: C1_1  and  C5_5 
REMARK    2  A    between atoms: C5_5  and  C6_6 
ROOT
HETATM    1  C2  UNL     1     -32.263   8.438   4.793  1.00 20.00     0.019 C 
HETATM    2  C5  UNL     1     -33.321   7.417   4.369  1.00 20.00     0.071 C 
ENDROOT
BRANCH   2   3
HETATM    3  C1  UNL     1     -32.778   6.689   3.138  1.00 20.00     0.223 C 
HETATM    4  O7  UNL     1     -32.656   5.467   3.107  1.00 20.00    -0.279 OA
HETATM    5 CL8  UNL     1     -32.351   7.778   1.848  1.00 20.00    -0.043 Cl
ENDBRANCH   2   3
BRANCH   2   6
HETATM    6  C6  UNL     1     -33.679   6.403   5.485  1.00 20.00    -0.011 C 
HETATM    7  C3  UNL     1     -33.739   7.059   6.869  1.00 20.00     0.010 C 
HETATM    8  C4  UNL     1     -35.025   5.724   5.199  1.00 20.00     0.010 C 
ENDBRANCH   2   6
TORSDOF 2
