REMARK  2 active torsions:
REMARK  status: ('A' for Active; 'I' for Inactive)
REMARK    1  A    between atoms: C5_5  and  C6_6 
REMARK    2  A    between atoms: C6_6  and  C7_7 
ROOT
HETATM    1  C1  UNL     1     -33.471   5.720   3.573  1.00 20.00     0.068 C 
HETATM    2  C3  UNL     1     -34.012   5.850   5.972  1.00 20.00     0.031 C 
HETATM    3  C4  UNL     1     -35.817   5.959   4.245  1.00 20.00     0.031 C 
HETATM    4  C7  UNL     1     -34.364   6.361   4.566  1.00 20.00     0.042 C 
HETATM    5  N8  UNL     1     -32.773   5.217   2.795  1.00 20.00    -0.196 NA
ENDROOT
BRANCH   4   6
HETATM    6  C6  UNL     1     -34.250   7.905   4.472  1.00 20.00     0.023 C 
BRANCH   6   7
HETATM    7  C5  UNL     1     -33.063   8.523   5.223  1.00 20.00    -0.003 C 
HETATM    8  C2  UNL     1     -31.738   8.037   4.654  1.00 20.00     0.005 C 
ENDBRANCH   6   7
ENDBRANCH   4   6
TORSDOF 2
