REMARK  2 active torsions:
REMARK  status: ('A' for Active; 'I' for Inactive)
REMARK    1  A    between atoms: C5_5  and  O8_8 
REMARK    2  A    between atoms: C6_6  and  O8_8 
ROOT
HETATM    1  C1  UNL     1     -33.618   5.055   3.461  1.00 20.00     0.097 C 
HETATM    2  C3  UNL     1     -35.620   6.193   4.333  1.00 20.00     0.062 C 
HETATM    3  C4  UNL     1     -34.442   4.438   5.698  1.00 20.00     0.062 C 
HETATM    4  C6  UNL     1     -34.271   5.564   4.679  1.00 20.00     0.141 C 
HETATM    5  N7  UNL     1     -33.104   4.653   2.502  1.00 20.00    -0.194 NA
ENDROOT
BRANCH   4   6
HETATM    6  O8  UNL     1     -33.438   6.570   5.254  1.00 20.00    -0.367 OA
BRANCH   6   7
HETATM    7  C5  UNL     1     -33.234   7.647   4.354  1.00 20.00     0.165 C 
HETATM    8  C2  UNL     1     -32.347   8.681   5.014  1.00 20.00     0.033 C 
ENDBRANCH   6   7
ENDBRANCH   4   6
TORSDOF 2
