REMARK  1 active torsions:
REMARK  status: ('A' for Active; 'I' for Inactive)
REMARK    1  A    between atoms: C1_1  and  C5_5 
ROOT
HETATM    1  C2  UNL     1     -32.888   4.274   5.102  1.00 20.00     0.006 C 
HETATM    2  C3  UNL     1     -33.015   5.368   6.176  1.00 20.00     0.011 C 
HETATM    3  C4  UNL     1     -32.799   6.000   3.324  1.00 20.00     0.017 C 
HETATM    4  C5  UNL     1     -32.868   7.096   4.410  1.00 20.00     0.056 C 
HETATM    5  C6  UNL     1     -33.674   4.868   3.913  1.00 20.00    -0.005 C 
HETATM    6  C7  UNL     1     -33.849   6.473   5.456  1.00 20.00    -0.027 C 
HETATM    7  C8  UNL     1     -34.840   5.628   4.594  1.00 20.00    -0.036 C 
HETATM    8  C9  UNL     1     -34.457   7.453   6.443  1.00 20.00     0.016 C 
HETATM    9  C10 UNL     1     -35.797   4.724   5.403  1.00 20.00     0.016 C 
HETATM   10  C11 UNL     1     -35.737   6.398   3.607  1.00 20.00     0.016 C 
ENDROOT
BRANCH   4  11
HETATM   11  C1  UNL     1     -33.246   8.431   3.841  1.00 20.00     0.236 C 
HETATM   12  O12 UNL     1     -32.988   8.774   2.692  1.00 20.00    -0.306 OA
ENDBRANCH   4  11
TORSDOF 1
