REMARK  3 active torsions:
REMARK  status: ('A' for Active; 'I' for Inactive)
REMARK    1  A    between atoms: C1_1  and  C4_4 
REMARK    2  A    between atoms: C4_4  and  C5_5 
REMARK    3  A    between atoms: C5_5  and  C6_6 
ROOT
HETATM    1  C5  UNL     1     -33.145   7.123   3.840  1.00 20.00     0.035 C 
ENDROOT
BRANCH   1   2
HETATM    2  C4  UNL     1     -34.000   6.911   5.091  1.00 20.00     0.115 C 
BRANCH   2   3
HETATM    3  C1  UNL     1     -34.193   5.445   5.502  1.00 20.00     0.172 C 
HETATM    4  O7  UNL     1     -34.224   4.594   4.572  1.00 20.00    -0.648 OA
HETATM    5  O8  UNL     1     -34.302   5.271   6.751  1.00 20.00    -0.648 OA
ENDBRANCH   2   3
ENDBRANCH   1   2
BRANCH   1   6
HETATM    6  C6  UNL     1     -33.001   8.587   3.362  1.00 20.00     0.030 C 
HETATM    7  C2  UNL     1     -34.396   9.176   3.112  1.00 20.00     0.032 C 
HETATM    8  C3  UNL     1     -32.254   9.459   4.375  1.00 20.00     0.032 C 
HETATM    9 CL9  UNL     1     -32.103   8.637   1.801  1.00 20.00    -0.120 Cl
ENDBRANCH   1   6
TORSDOF 3
