REMARK  0 active torsions:
REMARK  status: ('A' for Active; 'I' for Inactive)
ROOT
HETATM    1  C1  UNL     1     -33.032   5.518   2.571  1.00 20.00     0.017 A 
HETATM    2  C2  UNL     1     -32.541   6.442   1.650  1.00 20.00     0.025 A 
HETATM    3  C3  UNL     1     -32.673   8.226   3.306  1.00 20.00     0.032 A 
HETATM    4  C4  UNL     1     -33.331   5.982   3.839  1.00 20.00     0.016 A 
HETATM    5  C5  UNL     1     -33.167   7.308   4.221  1.00 20.00    -0.038 A 
HETATM    6  C6  UNL     1     -32.361   7.787   2.014  1.00 20.00     0.034 A 
HETATM    7  C7  UNL     1     -33.842   5.236   4.977  1.00 20.00     0.160 A 
HETATM    8  C8  UNL     1     -33.979   6.158   6.164  1.00 20.00     0.093 A 
HETATM    9  C9  UNL     1     -33.565   7.557   5.649  1.00 20.00     0.023 A 
HETATM   10  C10 UNL     1     -34.701   8.566   5.772  1.00 20.00     0.015 C 
HETATM   11  O11 UNL     1     -34.102   4.047   4.955  1.00 20.00    -0.292 OA
HETATM   12 CL12 UNL     1     -31.748   8.907   0.858  1.00 20.00    -0.084 Cl
ENDROOT
TORSDOF 0
