REMARK  4 active torsions:
REMARK  status: ('A' for Active; 'I' for Inactive)
REMARK    1  A    between atoms: C1_1  and  C5_5 
REMARK       I    between atoms: C1_1  and  N9_9 
REMARK    2  A    between atoms: C6_6  and  C8_8 
REMARK    3  A    between atoms: C7_7  and  N9_9 
REMARK    4  A    between atoms: C8_8  and  N9_9 
ROOT
HETATM    1  C1  UNL     1     -33.124   6.244   3.364  1.00 20.00     0.219 C 
HETATM    2  N9  UNL     1     -34.090   6.922   4.115  1.00 20.00    -0.353 N 
HETATM    3  O10 UNL     1     -33.198   5.043   3.089  1.00 20.00    -0.273 OA
ENDROOT
BRANCH   2   4
HETATM    4  C7  UNL     1     -33.981   8.342   4.428  1.00 20.00     0.121 C 
HETATM    5  C4  UNL     1     -33.251   8.557   5.710  1.00 20.00     0.026 C 
ENDBRANCH   2   4
BRANCH   2   6
HETATM    6  C8  UNL     1     -35.280   6.259   4.643  1.00 20.00     0.125 C 
BRANCH   6   7
HETATM    7  C6  UNL     1     -34.935   5.116   5.590  1.00 20.00     0.015 C 
HETATM    8  C3  UNL     1     -34.152   5.579   6.811  1.00 20.00     0.006 C 
ENDBRANCH   6   7
ENDBRANCH   2   6
BRANCH   1   9
HETATM    9  C5  UNL     1     -31.941   7.073   2.886  1.00 20.00     0.098 C 
HETATM   10  C2  UNL     1     -32.174   7.694   1.518  1.00 20.00     0.014 C 
ENDBRANCH   1   9
TORSDOF 4
