REMARK  0 active torsions:
REMARK  status: ('A' for Active; 'I' for Inactive)
ROOT
HETATM    1  C1  UNL     1     -33.275   5.207   3.243  1.00 20.00     0.066 C 
HETATM    2  C2  UNL     1     -33.271   7.282   6.224  1.00 20.00     0.034 C 
HETATM    3  C3  UNL     1     -34.110   7.530   4.971  1.00 20.00     0.036 C 
HETATM    4  C4  UNL     1     -33.201   4.820   5.720  1.00 20.00     0.053 C 
HETATM    5  C5  UNL     1     -34.059   5.019   4.464  1.00 20.00     0.124 C 
HETATM    6  C6  UNL     1     -33.750   5.898   6.658  1.00 20.00     0.123 C 
HETATM    7  C7  UNL     1     -34.912   6.231   4.857  1.00 20.00     0.139 C 
HETATM    8  N8  UNL     1     -32.652   5.357   2.275  1.00 20.00    -0.197 NA
HETATM    9  O9  UNL     1     -35.141   5.944   6.261  1.00 20.00    -0.379 OA
ENDROOT
TORSDOF 0
