REMARK  2 active torsions:
REMARK  status: ('A' for Active; 'I' for Inactive)
REMARK    1  A    between atoms: C6_6  and  C9_9 
REMARK    2  A    between atoms: C6_6  and  C10_10 
ROOT
HETATM    1  C1  UNL     1     -32.313   7.396   2.452  1.00 20.00     0.047 C 
HETATM    2  C2  UNL     1     -32.628   6.659   3.524  1.00 20.00    -0.014 C 
HETATM    3  C3  UNL     1     -33.082   8.623   2.133  1.00 20.00     0.149 C 
HETATM    4  C4  UNL     1     -34.274   8.973   2.994  1.00 20.00     0.084 C 
HETATM    5  C5  UNL     1     -34.072   8.504   4.429  1.00 20.00     0.021 C 
HETATM    6  C6  UNL     1     -33.710   7.005   4.525  1.00 20.00    -0.023 C 
HETATM    7  O11 UNL     1     -32.778   9.293   1.148  1.00 20.00    -0.293 OA
ENDROOT
BRANCH   6   8
HETATM    8  C9  UNL     1     -34.941   6.124   4.252  1.00 20.00     0.009 C 
HETATM    9  C7  UNL     1     -34.611   4.678   4.380  1.00 20.00     0.006 C 
ENDBRANCH   6   8
BRANCH   6  10
HETATM   10  C10 UNL     1     -33.202   6.715   5.949  1.00 20.00     0.009 C 
HETATM   11  C8  UNL     1     -34.237   7.041   6.969  1.00 20.00     0.006 C 
ENDBRANCH   6  10
TORSDOF 2
