REMARK  1 active torsions:
REMARK  status: ('A' for Active; 'I' for Inactive)
REMARK    1  A    between atoms: C5_5  and  C10_10 
ROOT
HETATM    1  C6  UNL     1     -32.470   8.866   0.878  1.00 20.00     0.005 C 
HETATM    2  C7  UNL     1     -33.356   9.524   1.946  1.00 20.00     0.005 C 
HETATM    3  C8  UNL     1     -32.658   6.639   2.025  1.00 20.00     0.014 C 
HETATM    4  C9  UNL     1     -31.535   8.470   3.031  1.00 20.00     0.010 C 
HETATM    5  C10 UNL     1     -33.646   7.286   3.026  1.00 20.00     0.023 C 
HETATM    6  C11 UNL     1     -31.705   7.795   1.674  1.00 20.00    -0.013 C 
HETATM    7  C12 UNL     1     -33.040   8.701   3.213  1.00 20.00    -0.006 C 
ENDROOT
BRANCH   5   8
HETATM    8  C5  UNL     1     -33.831   6.443   4.276  1.00 20.00    -0.051 A 
HETATM    9  C1  UNL     1     -34.295   5.136   4.175  1.00 20.00     0.026 A 
HETATM   10  C3  UNL     1     -34.446   4.409   5.345  1.00 20.00     0.116 A 
HETATM   11  N13 UNL     1     -34.170   4.892   6.577  1.00 20.00    -0.273 NA
HETATM   12  C4  UNL     1     -33.722   6.166   6.636  1.00 20.00     0.116 A 
HETATM   13  C2  UNL     1     -33.537   6.975   5.527  1.00 20.00     0.026 A 
ENDBRANCH   5   8
TORSDOF 1
