REMARK  3 active torsions:
REMARK  status: ('A' for Active; 'I' for Inactive)
REMARK    1  A    between atoms: C1_1  and  C5_5 
REMARK    2  A    between atoms: C2_2  and  C6_6 
REMARK    3  A    between atoms: C6_6  and  O7_7 
ROOT
HETATM    1  C3  UNL     1     -34.003   4.276   4.395  1.00 20.00     0.060 C 
HETATM    2  C4  UNL     1     -36.000   5.756   4.039  1.00 20.00     0.060 C 
HETATM    3  C6  UNL     1     -34.704   5.564   4.824  1.00 20.00     0.114 C 
ENDROOT
BRANCH   3   4
HETATM    4  C2  UNL     1     -33.817   6.725   4.636  1.00 20.00    -0.068 C 
HETATM    5  C1  UNL     1     -33.092   7.670   4.483  1.00 20.00    -0.088 C 
BRANCH   5   6
HETATM    6  C5  UNL     1     -32.212   8.821   4.299  1.00 20.00     0.208 C 
HETATM    7 CL8  UNL     1     -31.126   8.503   2.933  1.00 20.00    -0.117 Cl
ENDBRANCH   5   6
ENDBRANCH   3   4
BRANCH   3   8
HETATM    8  O7  UNL     1     -35.055   5.452   6.204  1.00 20.00    -0.378 OA
HETATM    9  H17 UNL     1     -35.635   4.680   6.277  1.00 20.00     0.211 HD
ENDBRANCH   3   8
TORSDOF 3
