REMARK  1 active torsions:
REMARK  status: ('A' for Active; 'I' for Inactive)
REMARK    1  A    between atoms: C2_2  and  C7_7 
ROOT
HETATM    1  C3  UNL     1     -35.040   6.428   4.491  1.00 20.00     0.034 C 
HETATM    2  C4  UNL     1     -33.510   8.058   5.678  1.00 20.00     0.034 C 
HETATM    3  C5  UNL     1     -34.761   5.461   5.637  1.00 20.00     0.168 C 
HETATM    4  C6  UNL     1     -33.330   6.982   6.744  1.00 20.00     0.168 C 
HETATM    5  C7  UNL     1     -33.950   7.483   4.337  1.00 20.00     0.011 C 
HETATM    6  O8  UNL     1     -34.497   6.170   6.846  1.00 20.00    -0.391 OA
ENDROOT
BRANCH   5   7
HETATM    7  C2  UNL     1     -32.746   6.865   3.643  1.00 20.00    -0.032 C 
HETATM    8  C1  UNL     1     -32.267   7.280   2.466  1.00 20.00     0.007 C 
ENDBRANCH   5   7
TORSDOF 1
