REMARK  0 active torsions:
REMARK  status: ('A' for Active; 'I' for Inactive)
ROOT
HETATM    1  C1  UNL     1     -33.719   7.406   5.644  1.00 20.00     0.148 A 
HETATM    2  C2  UNL     1     -33.804   5.677   4.037  1.00 20.00     0.148 A 
HETATM    3  C3  UNL     1     -34.280   6.703   6.634  1.00 20.00     0.074 A 
HETATM    4  C4  UNL     1     -34.375   4.771   4.837  1.00 20.00     0.074 A 
HETATM    5  O5  UNL     1     -33.464   6.963   4.371  1.00 20.00    -0.334 OA
HETATM    6  S6  UNL     1     -34.803   5.063   6.485  1.00 20.00    -0.110 SA
ENDROOT
TORSDOF 0
