REMARK  3 active torsions:
REMARK  status: ('A' for Active; 'I' for Inactive)
REMARK    1  A    between atoms: C1_1  and  C3_3 
REMARK    2  A    between atoms: C2_2  and  C3_3 
REMARK    3  A    between atoms: C2_2  and  S6_6 
ROOT
HETATM    1  C3  UNL     1     -33.623   6.817   4.030  1.00 20.00     0.192 C 
HETATM    2 CL7  UNL     1     -33.171   5.430   2.981  1.00 20.00    -0.113 Cl
ENDROOT
BRANCH   1   3
HETATM    3  C1  UNL     1     -34.436   6.199   5.179  1.00 20.00     0.192 C 
HETATM    4  O4  UNL     1     -34.454   6.888   6.240  1.00 20.00    -0.647 OA
HETATM    5  O5  UNL     1     -34.984   5.087   4.938  1.00 20.00    -0.647 OA
ENDBRANCH   1   3
BRANCH   1   6
HETATM    6  C2  UNL     1     -32.352   7.567   4.411  1.00 20.00     0.102 C 
BRANCH   6   7
HETATM    7  S6  UNL     1     -32.730   9.237   5.030  1.00 20.00    -0.180 SA
HETATM    8  H11 UNL     1     -31.458   9.589   5.258  1.00 20.00     0.101 HD
ENDBRANCH   6   7
ENDBRANCH   1   6
TORSDOF 3
