REMARK  1 active torsions:
REMARK  status: ('A' for Active; 'I' for Inactive)
REMARK    1  A    between atoms: C1_1  and  C6_6 
ROOT
HETATM    1  C2  UNL     1     -33.141   5.023   5.193  1.00 20.00     0.005 C 
HETATM    2  C3  UNL     1     -33.650   5.779   3.958  1.00 20.00     0.006 C 
HETATM    3  C4  UNL     1     -33.423   7.075   6.598  1.00 20.00     0.016 C 
HETATM    4  C5  UNL     1     -35.293   5.930   5.660  1.00 20.00     0.010 C 
HETATM    5  C6  UNL     1     -33.947   7.862   5.389  1.00 20.00     0.051 C 
HETATM    6  C7  UNL     1     -33.951   5.652   6.339  1.00 20.00    -0.013 C 
HETATM    7  C8  UNL     1     -34.659   6.780   4.554  1.00 20.00    -0.003 C 
ENDROOT
BRANCH   5   8
HETATM    8  C1  UNL     1     -32.874   8.591   4.644  1.00 20.00     0.236 C 
HETATM    9  O9  UNL     1     -32.915   8.805   3.437  1.00 20.00    -0.306 OA
ENDBRANCH   5   8
TORSDOF 1
