REMARK  2 active torsions:
REMARK  status: ('A' for Active; 'I' for Inactive)
REMARK    1  A    between atoms: C2_2  and  C5_5 
REMARK    2  A    between atoms: C3_3  and  C6_6 
ROOT
HETATM    1  C1  UNL     1     -33.793   8.430   5.805  1.00 20.00     0.204 C 
HETATM    2  C2  UNL     1     -33.589   6.982   5.430  1.00 20.00     0.162 C 
HETATM    3  C3  UNL     1     -32.517   8.293   3.937  1.00 20.00     0.260 C 
HETATM    4  O7  UNL     1     -32.748   9.101   5.100  1.00 20.00    -0.359 OA
HETATM    5  O8  UNL     1     -33.242   7.061   4.046  1.00 20.00    -0.353 OA
ENDROOT
BRANCH   2   6
HETATM    6  C5  UNL     1     -34.816   6.117   5.624  1.00 20.00     0.148 C 
HETATM    7 CL9  UNL     1     -34.478   4.439   5.147  1.00 20.00    -0.128 Cl
ENDBRANCH   2   6
BRANCH   3   8
HETATM    8  C6  UNL     1     -32.970   9.035   2.694  1.00 20.00     0.056 C 
HETATM    9  C4  UNL     1     -32.739   8.237   1.448  1.00 20.00     0.010 C 
ENDBRANCH   3   8
TORSDOF 2
