REMARK  2 active torsions:
REMARK  status: ('A' for Active; 'I' for Inactive)
REMARK    1  A    between atoms: C2_2  and  C3_3 
REMARK    2  A    between atoms: C3_3  and  C4_4 
ROOT
HETATM    1  C3  UNL     1     -33.685   7.161   5.243  1.00 20.00     0.254 C 
HETATM    2  O5  UNL     1     -34.165   7.897   6.101  1.00 20.00    -0.283 OA
ENDROOT
BRANCH   1   3
HETATM    3  C2  UNL     1     -32.485   7.542   4.451  1.00 20.00     0.049 C 
HETATM    4  C1  UNL     1     -32.545   7.635   3.120  1.00 20.00     0.015 C 
ENDBRANCH   1   3
BRANCH   1   5
HETATM    5  C4  UNL     1     -34.280   5.818   4.934  1.00 20.00     0.455 C 
HETATM    6  F6  UNL     1     -33.595   5.173   3.956  1.00 20.00    -0.163 F 
HETATM    7  F7  UNL     1     -34.282   5.002   6.019  1.00 20.00    -0.163 F 
HETATM    8  F8  UNL     1     -35.567   5.915   4.514  1.00 20.00    -0.163 F 
ENDBRANCH   1   5
TORSDOF 2
