REMARK  0 active torsions:
REMARK  status: ('A' for Active; 'I' for Inactive)
ROOT
HETATM    1  C1  UNL     1     -32.836   9.068   2.582  1.00 20.00     0.069 C 
HETATM    2  C2  UNL     1     -33.850   5.657   5.281  1.00 20.00     0.000 C 
HETATM    3  C3  UNL     1     -33.692   5.241   3.822  1.00 20.00     0.000 C 
HETATM    4  C4  UNL     1     -34.382   7.078   5.497  1.00 20.00     0.002 C 
HETATM    5  C5  UNL     1     -32.527   5.900   3.070  1.00 20.00     0.002 C 
HETATM    6  C6  UNL     1     -34.221   8.055   4.330  1.00 20.00     0.024 C 
HETATM    7  C7  UNL     1     -31.876   7.115   3.739  1.00 20.00     0.024 C 
HETATM    8  C8  UNL     1     -32.773   8.365   3.889  1.00 20.00     0.045 C 
HETATM    9  C9  UNL     1     -32.110   9.320   4.902  1.00 20.00     0.031 C 
HETATM   10  N10 UNL     1     -32.885   9.617   1.561  1.00 20.00    -0.196 NA
ENDROOT
TORSDOF 0
