REMARK  0 active torsions:
REMARK  status: ('A' for Active; 'I' for Inactive)
ROOT
HETATM    1  C1  UNL     1     -33.329   6.909   4.961  1.00 20.00     0.080 C 
HETATM    2  C2  UNL     1     -35.624   6.140   4.478  1.00 20.00     0.043 C 
HETATM    3  C3  UNL     1     -34.353   5.231   6.453  1.00 20.00     0.043 C 
HETATM    4  C4  UNL     1     -34.250   5.763   5.026  1.00 20.00     0.099 C 
HETATM    5  N5  UNL     1     -32.605   7.815   4.912  1.00 20.00    -0.196 NA
HETATM    6 BR6  UNL     1     -33.531   4.315   3.897  1.00 20.00    -0.070 Br
ENDROOT
TORSDOF 0
