REMARK  2 active torsions:
REMARK  status: ('A' for Active; 'I' for Inactive)
REMARK    1  A    between atoms: C2_2  and  C6_6 
REMARK    2  A    between atoms: C6_6  and  N7_7 
ROOT
HETATM    1  C3  UNL     1     -34.624   5.073   6.609  1.00 20.00     0.060 C 
HETATM    2  C4  UNL     1     -34.634   4.680   5.119  1.00 20.00     0.274 C 
HETATM    3  C5  UNL     1     -33.691   6.212   6.155  1.00 20.00     0.274 C 
HETATM    4  N7  UNL     1     -34.316   6.099   4.812  1.00 20.00     0.093 N 
ENDROOT
BRANCH   4   5
HETATM    5  C6  UNL     1     -33.304   6.184   3.766  1.00 20.00     0.317 C 
BRANCH   5   6
HETATM    6  C2  UNL     1     -32.947   7.602   3.419  1.00 20.00     0.007 C 
HETATM    7  C1  UNL     1     -33.052   8.618   4.287  1.00 20.00     0.029 C 
HETATM    8 BR8  UNL     1     -32.264   7.866   1.694  1.00 20.00    -0.055 Br
ENDBRANCH   5   6
ENDBRANCH   4   5
TORSDOF 2
