REMARK  0 active torsions:
REMARK  status: ('A' for Active; 'I' for Inactive)
ROOT
HETATM    1  C1  UNL     1     -33.836   7.645   4.524  1.00 20.00     0.050 C 
HETATM    2  C2  UNL     1     -34.097   5.389   3.355  1.00 20.00     0.050 C 
HETATM    3  C3  UNL     1     -34.008   5.474   5.961  1.00 20.00     0.207 A 
HETATM    4  C4  UNL     1     -32.427   7.878   3.991  1.00 20.00     0.077 C 
HETATM    5  C5  UNL     1     -32.710   5.436   2.725  1.00 20.00     0.077 C 
HETATM    6  C6  UNL     1     -34.143   6.179   4.631  1.00 20.00     0.084 A 
HETATM    7  O7  UNL     1     -35.284   5.886   5.451  1.00 20.00    -0.375 OA
HETATM    8  S8  UNL     1     -32.208   7.144   2.338  1.00 20.00    -0.169 SA
ENDROOT
TORSDOF 0
