REMARK  1 active torsions:
REMARK  status: ('A' for Active; 'I' for Inactive)
REMARK    1  A    between atoms: C3_3  and  C5_5 
ROOT
HETATM    1  C1  UNL     1     -32.617   8.125   5.446  1.00 20.00    -0.015 C 
HETATM    2  C2  UNL     1     -31.864   8.136   4.342  1.00 20.00    -0.021 C 
HETATM    3  C4  UNL     1     -34.132   8.069   3.616  1.00 20.00     0.032 C 
HETATM    4  C5  UNL     1     -34.064   7.960   5.141  1.00 20.00     0.110 C 
HETATM    5  C6  UNL     1     -32.678   7.960   3.090  1.00 20.00    -0.029 C 
HETATM    6  C7  UNL     1     -32.375   9.066   2.075  1.00 20.00     0.019 C 
HETATM    7  C8  UNL     1     -32.406   6.588   2.464  1.00 20.00     0.019 C 
ENDROOT
BRANCH   4   8
HETATM    8  C3  UNL     1     -34.495   6.595   5.626  1.00 20.00     0.180 C 
HETATM    9  O9  UNL     1     -33.891   6.171   6.649  1.00 20.00    -0.647 OA
HETATM   10  O10 UNL     1     -35.409   6.055   4.941  1.00 20.00    -0.647 OA
ENDBRANCH   4   8
TORSDOF 1
