REMARK  0 active torsions:
REMARK  status: ('A' for Active; 'I' for Inactive)
ROOT
HETATM    1  C1  UNL     1     -32.875   7.742   4.192  1.00 20.00     0.064 C 
HETATM    2  C2  UNL     1     -34.131   4.926   4.645  1.00 20.00     0.128 C 
HETATM    3  C3  UNL     1     -34.137   4.851   6.154  1.00 20.00     0.078 C 
HETATM    4  C4  UNL     1     -34.766   6.155   4.028  1.00 20.00     0.097 C 
HETATM    5  C5  UNL     1     -33.584   6.135   6.754  1.00 20.00     0.009 C 
HETATM    6  C6  UNL     1     -34.289   7.374   6.198  1.00 20.00     0.020 C 
HETATM    7  C7  UNL     1     -34.241   7.443   4.665  1.00 20.00     0.100 C 
HETATM    8  N8  UNL     1     -31.801   7.978   3.821  1.00 20.00    -0.197 NA
HETATM    9  O9  UNL     1     -33.725   3.993   3.954  1.00 20.00    -0.298 OA
ENDROOT
TORSDOF 0
