REMARK  2 active torsions:
REMARK  status: ('A' for Active; 'I' for Inactive)
REMARK    1  A    between atoms: C1_1  and  C6_6 
REMARK    2  A    between atoms: C6_6  and  N7_7 
ROOT
HETATM    1  C3  UNL     1     -34.574   5.788   6.237  1.00 20.00     0.060 C 
HETATM    2  C4  UNL     1     -34.220   6.101   4.771  1.00 20.00     0.274 C 
HETATM    3  C5  UNL     1     -33.565   6.904   6.570  1.00 20.00     0.274 C 
HETATM    4  N7  UNL     1     -33.845   7.466   5.223  1.00 20.00     0.091 N 
ENDROOT
BRANCH   4   5
HETATM    5  C6  UNL     1     -32.609   7.899   4.581  1.00 20.00     0.300 C 
BRANCH   5   6
HETATM    6  C1  UNL     1     -32.856   8.393   3.188  1.00 20.00     0.010 C 
HETATM    7  C2  UNL     1     -32.336   7.817   2.099  1.00 20.00     0.053 C 
HETATM    8 BR8  UNL     1     -32.633   8.400   0.364  1.00 20.00    -0.064 Br
ENDBRANCH   5   6
ENDBRANCH   4   5
TORSDOF 2
