REMARK  3 active torsions:
REMARK  status: ('A' for Active; 'I' for Inactive)
REMARK    1  A    between atoms: C1_1  and  C4_4 
REMARK    2  A    between atoms: C2_2  and  C5_5 
REMARK    3  A    between atoms: C3_3  and  C4_4 
ROOT
HETATM    1  C1  UNL     1     -33.598   7.839   4.880  1.00 20.00    -0.019 C 
HETATM    2  C2  UNL     1     -32.605   7.353   4.121  1.00 20.00    -0.015 C 
ENDROOT
BRANCH   1   3
HETATM    3  C4  UNL     1     -34.313   7.040   5.925  1.00 20.00     0.140 C 
BRANCH   3   4
HETATM    4  C3  UNL     1     -34.941   5.832   5.241  1.00 20.00     0.176 C 
HETATM    5  O6  UNL     1     -35.811   6.102   4.366  1.00 20.00    -0.648 OA
HETATM    6  O7  UNL     1     -34.524   4.709   5.645  1.00 20.00    -0.648 OA
ENDBRANCH   3   4
ENDBRANCH   1   3
BRANCH   2   7
HETATM    7  C5  UNL     1     -31.904   8.145   3.068  1.00 20.00     0.141 C 
HETATM    8 CL8  UNL     1     -33.014   9.350   2.380  1.00 20.00    -0.126 Cl
ENDBRANCH   2   7
TORSDOF 3
