REMARK  2 active torsions:
REMARK  status: ('A' for Active; 'I' for Inactive)
REMARK    1  A    between atoms: C3_3  and  C5_5 
REMARK    2  A    between atoms: C4_4  and  C5_5 
ROOT
HETATM    1  C1  UNL     1     -34.560   5.404   4.835  1.00 20.00     0.012 C 
HETATM    2  C2  UNL     1     -34.037   6.448   5.114  1.00 20.00    -0.117 C 
HETATM    3  C4  UNL     1     -33.397   7.727   5.459  1.00 20.00     0.101 C 
ENDROOT
BRANCH   3   4
HETATM    4  C5  UNL     1     -32.223   8.044   4.534  1.00 20.00     0.108 C 
BRANCH   4   5
HETATM    5  C3  UNL     1     -32.614   8.134   3.066  1.00 20.00     0.219 C 
HETATM    6  O6  UNL     1     -32.973   9.178   2.531  1.00 20.00    -0.280 OA
HETATM    7 CL7  UNL     1     -32.513   6.581   2.282  1.00 20.00    -0.044 Cl
ENDBRANCH   4   5
ENDBRANCH   3   4
TORSDOF 2
