REMARK  0 active torsions:
REMARK  status: ('A' for Active; 'I' for Inactive)
ROOT
HETATM    1  C1  UNL     1     -33.701   5.484   2.923  1.00 20.00    -0.023 C 
HETATM    2  C2  UNL     1     -32.797   6.382   2.504  1.00 20.00    -0.014 C 
HETATM    3  C3  UNL     1     -33.299   7.865   4.499  1.00 20.00     0.144 C 
HETATM    4  C4  UNL     1     -34.683   5.739   3.975  1.00 20.00     0.028 A 
HETATM    5  C5  UNL     1     -34.490   7.011   4.762  1.00 20.00     0.073 A 
HETATM    6  C6  UNL     1     -32.639   7.761   3.110  1.00 20.00     0.031 C 
HETATM    7  C7  UNL     1     -34.346   5.664   5.452  1.00 20.00    -0.029 A 
HETATM    8  C8  UNL     1     -31.139   8.061   3.261  1.00 20.00     0.027 C 
HETATM    9  C9  UNL     1     -33.288   8.805   2.194  1.00 20.00     0.027 C 
HETATM   10  C10 UNL     1     -35.458   5.251   6.387  1.00 20.00     0.016 C 
HETATM   11  C11 UNL     1     -32.988   5.182   5.903  1.00 20.00     0.016 C 
HETATM   12  O12 UNL     1     -32.931   8.655   5.362  1.00 20.00    -0.296 OA
ENDROOT
TORSDOF 0
