REMARK  0 active torsions:
REMARK  status: ('A' for Active; 'I' for Inactive)
ROOT
HETATM    1  C1  UNL     1     -33.736   6.093   4.280  1.00 20.00    -0.032 A 
HETATM    2  C2  UNL     1     -33.337   7.357   4.447  1.00 20.00     0.056 A 
HETATM    3  C3  UNL     1     -34.515   5.764   5.508  1.00 20.00     0.157 A 
HETATM    4  C4  UNL     1     -33.540   5.140   3.162  1.00 20.00     0.048 C 
HETATM    5  C5  UNL     1     -32.532   8.210   3.533  1.00 20.00     0.072 C 
HETATM    6  C6  UNL     1     -33.925   4.634   6.338  1.00 20.00     0.041 C 
HETATM    7  N7  UNL     1     -33.763   7.884   5.643  1.00 20.00    -0.160 NA
HETATM    8  N8  UNL     1     -34.434   7.030   6.286  1.00 20.00    -0.183 NA
ENDROOT
TORSDOF 0
