REMARK  3 active torsions:
REMARK  status: ('A' for Active; 'I' for Inactive)
REMARK    1  A    between atoms: C2_2  and  C3_3 
REMARK    2  A    between atoms: C3_3  and  C4_4 
REMARK    3  A    between atoms: C3_3  and  O5_5 
ROOT
HETATM    1  C3  UNL     1     -33.476   6.509   3.772  1.00 20.00     0.362 C 
HETATM    2  F8  UNL     1     -34.506   7.007   3.035  1.00 20.00    -0.195 F 
ENDROOT
BRANCH   1   3
HETATM    3  C2  UNL     1     -32.674   7.661   4.356  1.00 20.00     0.429 C 
HETATM    4  F6  UNL     1     -33.200   8.042   5.546  1.00 20.00    -0.208 F 
HETATM    5  F7  UNL     1     -32.754   8.746   3.546  1.00 20.00    -0.208 F 
ENDBRANCH   1   3
BRANCH   1   6
HETATM    6  C4  UNL     1     -34.071   5.638   4.862  1.00 20.00     0.455 C 
HETATM    7  F9  UNL     1     -34.901   6.344   5.661  1.00 20.00    -0.165 F 
HETATM    8  F10 UNL     1     -33.102   5.116   5.646  1.00 20.00    -0.165 F 
HETATM    9  F11 UNL     1     -34.777   4.610   4.342  1.00 20.00    -0.165 F 
ENDBRANCH   1   6
BRANCH   1  10
HETATM   10  O5  UNL     1     -32.696   5.650   2.938  1.00 20.00    -0.345 OA
HETATM   11  C1  UNL     1     -33.443   4.850   2.034  1.00 20.00     0.206 C 
ENDBRANCH   1  10
TORSDOF 3
