REMARK  2 active torsions:
REMARK  status: ('A' for Active; 'I' for Inactive)
REMARK    1  A    between atoms: C5_5  and  C6_6 
REMARK    2  A    between atoms: C6_6  and  N7_7 
ROOT
HETATM    1  C1  UNL     1     -32.389   9.196   5.139  1.00 20.00     0.012 C 
HETATM    2  C2  UNL     1     -32.885   8.146   4.835  1.00 20.00    -0.115 C 
HETATM    3  C5  UNL     1     -33.490   6.858   4.457  1.00 20.00     0.128 C 
ENDROOT
BRANCH   3   4
HETATM    4  C6  UNL     1     -34.718   6.522   5.315  1.00 20.00     0.227 C 
HETATM    5  C3  UNL     1     -34.336   5.926   6.671  1.00 20.00     0.043 C 
BRANCH   4   6
HETATM    6  N7  UNL     1     -35.550   5.553   4.598  1.00 20.00     0.084 N 
HETATM    7  C4  UNL     1     -36.309   6.208   3.546  1.00 20.00     0.307 C 
HETATM    8  H18 UNL     1     -36.190   5.118   5.259  1.00 20.00     0.315 HD
ENDBRANCH   4   6
ENDBRANCH   3   4
TORSDOF 2
