REMARK  1 active torsions:
REMARK  status: ('A' for Active; 'I' for Inactive)
REMARK    1  A    between atoms: C3_3  and  C7_7 
ROOT
HETATM    1  C1  UNL     1     -33.742   6.909   5.957  1.00 20.00     0.220 A 
HETATM    2  C2  UNL     1     -34.312   7.712   4.774  1.00 20.00     0.128 A 
HETATM    3  C3  UNL     1     -32.868   8.236   4.588  1.00 20.00     0.100 A 
HETATM    4  N8  UNL     1     -32.494   7.396   5.721  1.00 20.00    -0.355 N 
HETATM    5  O9  UNL     1     -34.175   6.144   6.786  1.00 20.00    -0.274 OA
HETATM    6  H22 UNL     1     -31.624   7.227   6.206  1.00 20.00     0.162 HD
ENDROOT
BRANCH   3   7
HETATM    7  C7  UNL     1     -32.129   7.816   3.309  1.00 20.00    -0.030 C 
HETATM    8  C4  UNL     1     -30.628   8.098   3.469  1.00 20.00     0.016 C 
HETATM    9  C5  UNL     1     -32.675   8.615   2.117  1.00 20.00     0.016 C 
HETATM   10  C6  UNL     1     -32.344   6.316   3.062  1.00 20.00     0.016 C 
ENDBRANCH   3   7
TORSDOF 1
