REMARK  0 active torsions:
REMARK  status: ('A' for Active; 'I' for Inactive)
ROOT
HETATM    1  C1  UNL     1     -33.408   8.502   5.106  1.00 20.00    -0.008 C 
HETATM    2  C2  UNL     1     -33.748   7.291   5.532  1.00 20.00    -0.037 C 
HETATM    3  C3  UNL     1     -33.662   6.192   4.559  1.00 20.00     0.044 C 
HETATM    4  C4  UNL     1     -32.654   7.442   2.916  1.00 20.00     0.246 C 
HETATM    5  C5  UNL     1     -32.899   8.720   3.721  1.00 20.00     0.133 C 
HETATM    6  C6  UNL     1     -34.318   6.768   6.800  1.00 20.00     0.040 C 
HETATM    7  C7  UNL     1     -34.234   4.941   5.154  1.00 20.00     0.060 C 
HETATM    8  C8  UNL     1     -35.040   5.499   6.333  1.00 20.00     0.011 C 
HETATM    9  N9  UNL     1     -33.171   6.243   3.370  1.00 20.00    -0.218 NA
HETATM   10  O10 UNL     1     -32.033   7.523   1.855  1.00 20.00    -0.271 OA
ENDROOT
TORSDOF 0
