REMARK  2 active torsions:
REMARK  status: ('A' for Active; 'I' for Inactive)
REMARK    1  A    between atoms: C1_1  and  C7_7 
REMARK    2  A    between atoms: C7_7  and  C10_10 
ROOT
HETATM    1  C2  UNL     1     -35.669   5.138   5.282  1.00 20.00     0.000 C 
HETATM    2  C3  UNL     1     -34.206   4.845   5.596  1.00 20.00     0.001 C 
HETATM    3  C4  UNL     1     -35.821   5.834   3.934  1.00 20.00     0.001 C 
HETATM    4  C5  UNL     1     -33.349   6.109   5.536  1.00 20.00     0.021 C 
HETATM    5  C6  UNL     1     -34.980   7.109   3.856  1.00 20.00     0.021 C 
HETATM    6  C7  UNL     1     -33.511   6.875   4.220  1.00 20.00     0.051 C 
ENDROOT
BRANCH   6   7
HETATM    7  C1  UNL     1     -32.821   6.107   3.094  1.00 20.00     0.182 C 
HETATM    8  O11 UNL     1     -31.608   6.400   2.905  1.00 20.00    -0.647 OA
HETATM    9  O12 UNL     1     -33.556   5.274   2.493  1.00 20.00    -0.647 OA
ENDBRANCH   6   7
BRANCH   6  10
HETATM   10  C10 UNL     1     -32.735   8.192   4.251  1.00 20.00    -0.004 C 
HETATM   11  C8  UNL     1     -32.817   8.889   2.897  1.00 20.00     0.011 C 
HETATM   12  C9  UNL     1     -33.266   9.096   5.358  1.00 20.00     0.011 C 
ENDBRANCH   6  10
TORSDOF 2
