REMARK  0 active torsions:
REMARK  status: ('A' for Active; 'I' for Inactive)
ROOT
HETATM    1  C1  UNL     1     -34.022   5.724   4.826  1.00 20.00     0.158 C 
HETATM    2  C2  UNL     1     -33.363   6.866   4.640  1.00 20.00     0.277 C 
HETATM    3  F3  UNL     1     -32.914   7.183   3.408  1.00 20.00    -0.172 F 
HETATM    4  F4  UNL     1     -33.139   7.711   5.669  1.00 20.00    -0.172 F 
HETATM    5 CL5  UNL     1     -34.636   5.221   6.342  1.00 20.00    -0.091 Cl
ENDROOT
TORSDOF 0
