REMARK  2 active torsions:
REMARK  status: ('A' for Active; 'I' for Inactive)
REMARK    1  A    between atoms: C4_4  and  C10_10 
REMARK    2  A    between atoms: C7_7  and  C10_10 
ROOT
HETATM    1  C1  UNL     1     -32.236   7.220   1.314  1.00 20.00     0.015 A 
HETATM    2  C2  UNL     1     -32.639   6.924   2.648  1.00 20.00     0.017 A 
HETATM    3  C3  UNL     1     -32.283   8.571   1.047  1.00 20.00    -0.021 A 
HETATM    4  C4  UNL     1     -32.978   8.060   3.350  1.00 20.00    -0.002 A 
HETATM    5  C8  UNL     1     -31.945   9.273  -0.210  1.00 20.00     0.056 C 
HETATM    6  S11 UNL     1     -32.811   9.476   2.401  1.00 20.00    -0.099 SA
ENDROOT
BRANCH   4   7
HETATM    7  C10 UNL     1     -33.452   8.175   4.782  1.00 20.00     0.102 C 
HETATM    8 BR12 UNL     1     -32.312   9.455   5.731  1.00 20.00    -0.085 Br
BRANCH   7   9
HETATM    9  C7  UNL     1     -33.486   6.872   5.503  1.00 20.00     0.009 A 
HETATM   10  C5  UNL     1     -34.395   6.687   6.690  1.00 20.00     0.011 A 
HETATM   11  C6  UNL     1     -34.695   5.979   5.394  1.00 20.00    -0.013 A 
HETATM   12  C9  UNL     1     -34.526   4.503   5.292  1.00 20.00     0.010 C 
ENDBRANCH   7   9
ENDBRANCH   4   7
TORSDOF 2
