REMARK  2 active torsions:
REMARK  status: ('A' for Active; 'I' for Inactive)
REMARK    1  A    between atoms: C4_4  and  C10_10 
REMARK    2  A    between atoms: C7_7  and  C10_10 
ROOT
HETATM    1  C1  UNL     1     -33.767   7.282   6.436  1.00 20.00     0.015 A 
HETATM    2  C2  UNL     1     -33.068   7.708   5.269  1.00 20.00     0.017 A 
HETATM    3  C3  UNL     1     -34.382   6.064   6.255  1.00 20.00    -0.021 A 
HETATM    4  C4  UNL     1     -33.176   6.798   4.241  1.00 20.00     0.002 A 
HETATM    5  C8  UNL     1     -35.196   5.291   7.218  1.00 20.00     0.056 C 
HETATM    6  S11 UNL     1     -34.117   5.437   4.683  1.00 20.00    -0.098 SA
ENDROOT
BRANCH   4   7
HETATM    7  C10 UNL     1     -32.580   6.874   2.838  1.00 20.00     0.126 C 
HETATM    8 CL12 UNL     1     -32.873   5.300   2.013  1.00 20.00    -0.119 Cl
BRANCH   7   9
HETATM    9  C7  UNL     1     -33.068   8.010   2.008  1.00 20.00     0.013 A 
HETATM   10  C5  UNL     1     -32.437   9.371   2.140  1.00 20.00     0.011 A 
HETATM   11  C6  UNL     1     -32.212   8.555   0.894  1.00 20.00    -0.012 A 
HETATM   12  C9  UNL     1     -32.836   8.969  -0.394  1.00 20.00     0.010 C 
ENDBRANCH   7   9
ENDBRANCH   4   7
TORSDOF 2
