REMARK  2 active torsions:
REMARK  status: ('A' for Active; 'I' for Inactive)
REMARK    1  A    between atoms: C4_4  and  C9_9 
REMARK    2  A    between atoms: C7_7  and  C9_9 
ROOT
HETATM    1  C1  UNL     1     -32.715   9.379   1.665  1.00 20.00     0.015 A 
HETATM    2  C2  UNL     1     -32.991   9.194   3.050  1.00 20.00     0.017 A 
HETATM    3  C3  UNL     1     -32.420   8.191   1.033  1.00 20.00    -0.021 A 
HETATM    4  C4  UNL     1     -32.897   7.872   3.424  1.00 20.00    -0.002 A 
HETATM    5  C8  UNL     1     -32.081   7.964  -0.389  1.00 20.00     0.056 C 
HETATM    6  S10 UNL     1     -32.477   6.860   2.109  1.00 20.00    -0.099 SA
ENDROOT
BRANCH   4   7
HETATM    7  C9  UNL     1     -33.115   7.263   4.792  1.00 20.00     0.102 C 
HETATM    8 BR11 UNL     1     -33.384   8.697   6.099  1.00 20.00    -0.085 Br
BRANCH   7   9
HETATM    9  C7  UNL     1     -34.253   6.303   4.842  1.00 20.00     0.005 A 
HETATM   10  C5  UNL     1     -34.050   4.866   4.446  1.00 20.00     0.006 A 
HETATM   11  C6  UNL     1     -34.286   5.223   5.888  1.00 20.00     0.006 A 
ENDBRANCH   7   9
ENDBRANCH   4   7
TORSDOF 2
