REMARK  2 active torsions:
REMARK  status: ('A' for Active; 'I' for Inactive)
REMARK    1  A    between atoms: C3_3  and  C8_8 
REMARK    2  A    between atoms: C7_7  and  C8_8 
ROOT
HETATM    1  C1  UNL     1     -32.983   8.811   3.615  1.00 20.00     0.018 A 
HETATM    2  C2  UNL     1     -32.413   9.014   2.325  1.00 20.00     0.032 A 
HETATM    3  C3  UNL     1     -33.172   7.475   3.893  1.00 20.00    -0.001 A 
HETATM    4  C4  UNL     1     -32.187   7.825   1.666  1.00 20.00     0.075 A 
HETATM    5  S9  UNL     1     -32.662   6.472   2.602  1.00 20.00    -0.081 SA
HETATM    6 CL10 UNL     1     -31.520   7.600   0.104  1.00 20.00    -0.076 Cl
ENDROOT
BRANCH   3   7
HETATM    7  C8  UNL     1     -33.746   6.846   5.142  1.00 20.00     0.102 C 
HETATM    8 BR11 UNL     1     -34.041   8.240   6.487  1.00 20.00    -0.085 Br
BRANCH   7   9
HETATM    9  C7  UNL     1     -35.007   6.090   4.902  1.00 20.00     0.005 A 
HETATM   10  C5  UNL     1     -34.957   4.661   4.438  1.00 20.00     0.006 A 
HETATM   11  C6  UNL     1     -35.414   4.982   5.833  1.00 20.00     0.006 A 
ENDBRANCH   7   9
ENDBRANCH   3   7
TORSDOF 2
