REMARK  1 active torsions:
REMARK  status: ('A' for Active; 'I' for Inactive)
REMARK    1  A    between atoms: C1_1  and  C2_2 
ROOT
HETATM    1  C1  UNL     1     -33.544   7.371   4.821  1.00 20.00     0.384 C 
HETATM    2  F3  UNL     1     -34.164   8.256   3.995  1.00 20.00    -0.181 F 
HETATM    3  F4  UNL     1     -32.222   7.689   4.786  1.00 20.00    -0.181 F 
HETATM    4 CL6  UNL     1     -34.148   7.605   6.474  1.00 20.00    -0.042 Cl
ENDROOT
BRANCH   1   5
HETATM    5  C2  UNL     1     -33.734   5.959   4.277  1.00 20.00     0.336 C 
HETATM    6  F5  UNL     1     -33.100   5.103   5.129  1.00 20.00    -0.199 F 
HETATM    7 CL7  UNL     1     -33.000   5.765   2.665  1.00 20.00    -0.058 Cl
HETATM    8 CL8  UNL     1     -35.454   5.496   4.222  1.00 20.00    -0.058 Cl
ENDBRANCH   1   5
TORSDOF 1
