REMARK  2 active torsions:
REMARK  status: ('A' for Active; 'I' for Inactive)
REMARK    1  A    between atoms: C3_3  and  C5_5 
REMARK    2  A    between atoms: C5_5  and  S6_6 
ROOT
HETATM    1  C1  UNL     1     -35.288   5.509   4.453  1.00 20.00     0.010 A 
HETATM    2  C2  UNL     1     -34.263   4.699   5.193  1.00 20.00     0.010 A 
HETATM    3  C3  UNL     1     -33.818   5.729   4.182  1.00 20.00    -0.036 A 
HETATM    4  C4  UNL     1     -33.262   5.239   2.873  1.00 20.00     0.016 C 
ENDROOT
BRANCH   3   5
HETATM    5  C5  UNL     1     -33.188   6.995   4.695  1.00 20.00     0.079 C 
BRANCH   5   6
HETATM    6  S6  UNL     1     -33.803   7.399   6.357  1.00 20.00    -0.181 SA
HETATM    7  H16 UNL     1     -33.080   8.517   6.505  1.00 20.00     0.101 HD
ENDBRANCH   5   6
ENDBRANCH   3   5
TORSDOF 2
