REMARK  0 active torsions:
REMARK  status: ('A' for Active; 'I' for Inactive)
ROOT
HETATM    1  C1  UNL     1     -33.357   7.479   5.659  1.00 20.00     0.149 A 
HETATM    2  C2  UNL     1     -33.951   6.250   5.461  1.00 20.00     0.094 A 
HETATM    3  C3  UNL     1     -33.019   7.294   3.500  1.00 20.00     0.145 A 
HETATM    4  N4  UNL     1     -32.822   8.079   4.536  1.00 20.00    -0.244 NA
HETATM    5  S5  UNL     1     -33.842   5.819   3.805  1.00 20.00    -0.049 SA
HETATM    6 CL6  UNL     1     -34.709   5.224   6.595  1.00 20.00    -0.075 Cl
HETATM    7 BR7  UNL     1     -32.423   7.769   1.749  1.00 20.00    -0.021 Br
ENDROOT
TORSDOF 0
