REMARK  1 active torsions:
REMARK  status: ('A' for Active; 'I' for Inactive)
REMARK    1  A    between atoms: C2_2  and  C6_6 
ROOT
HETATM    1  C1  UNL     1     -33.078   8.275   5.615  1.00 20.00     0.080 A 
HETATM    2  C2  UNL     1     -33.563   7.047   5.215  1.00 20.00     0.047 A 
HETATM    3  C3  UNL     1     -32.528   7.611   3.366  1.00 20.00     0.144 A 
HETATM    4  N7  UNL     1     -33.249   6.665   3.926  1.00 20.00    -0.238 NA
HETATM    5  S8  UNL     1     -32.189   8.988   4.333  1.00 20.00    -0.073 SA
HETATM    6 BR9  UNL     1     -31.891   7.459   1.571  1.00 20.00    -0.021 Br
ENDROOT
BRANCH   2   7
HETATM    7  C6  UNL     1     -34.403   6.152   6.141  1.00 20.00     0.038 A 
HETATM    8  C4  UNL     1     -34.249   4.653   6.032  1.00 20.00     0.011 A 
HETATM    9  C5  UNL     1     -35.499   5.308   5.533  1.00 20.00     0.011 A 
ENDBRANCH   2   7
TORSDOF 1
