REMARK  3 active torsions:
REMARK  status: ('A' for Active; 'I' for Inactive)
REMARK    1  A    between atoms: C6_6  and  C8_8 
REMARK    2  A    between atoms: C7_7  and  N10_10 
REMARK    3  A    between atoms: C8_8  and  N10_10 
ROOT
HETATM    1  C1  UNL     1     -32.866   8.537   3.969  1.00 20.00     0.095 C 
HETATM    2  C8  UNL     1     -32.964   7.897   2.637  1.00 20.00     0.330 C 
HETATM    3  N9  UNL     1     -32.782   9.016   5.023  1.00 20.00    -0.195 NA
ENDROOT
BRANCH   2   4
HETATM    4  C6  UNL     1     -32.115   8.578   1.621  1.00 20.00     0.033 A 
HETATM    5  C2  UNL     1     -32.456   8.480   0.160  1.00 20.00     0.008 A 
HETATM    6  C3  UNL     1     -32.633   9.784   0.886  1.00 20.00     0.008 A 
ENDBRANCH   2   4
BRANCH   2   7
HETATM    7  N10 UNL     1     -32.622   6.491   2.771  1.00 20.00     0.106 N 
HETATM    8  H22 UNL     1     -32.361   6.117   1.858  1.00 20.00     0.318 HD
BRANCH   7   9
HETATM    9  C7  UNL     1     -33.746   5.726   3.295  1.00 20.00     0.222 A 
HETATM   10  C4  UNL     1     -33.519   4.390   3.947  1.00 20.00     0.038 A 
HETATM   11  C5  UNL     1     -33.938   5.567   4.778  1.00 20.00     0.038 A 
ENDBRANCH   7   9
ENDBRANCH   2   7
TORSDOF 3
