REMARK  1 active torsions:
REMARK  status: ('A' for Active; 'I' for Inactive)
REMARK    1  A    between atoms: C4_4  and  C7_7 
ROOT
HETATM    1  C1  UNL     1     -34.274   6.501   6.033  1.00 20.00     0.069 C 
HETATM    2  C6  UNL     1     -33.253   8.750   6.128  1.00 20.00     0.031 C 
HETATM    3  C7  UNL     1     -34.015   7.738   5.243  1.00 20.00     0.128 C 
HETATM    4  N8  UNL     1     -34.466   5.524   6.629  1.00 20.00    -0.197 NA
ENDROOT
BRANCH   3   5
HETATM    5  C4  UNL     1     -33.342   7.465   3.955  1.00 20.00     0.001 A 
HETATM    6  C2  UNL     1     -32.915   6.257   3.449  1.00 20.00     0.018 A 
HETATM    7  C3  UNL     1     -32.306   6.398   2.169  1.00 20.00     0.032 A 
HETATM    8  C5  UNL     1     -32.291   7.709   1.745  1.00 20.00     0.075 A 
HETATM    9  S9  UNL     1     -33.008   8.763   2.888  1.00 20.00    -0.081 SA
HETATM   10 CL10 UNL     1     -31.661   8.331   0.277  1.00 20.00    -0.076 Cl
ENDBRANCH   3   5
TORSDOF 1
