REMARK  3 active torsions:
REMARK  status: ('A' for Active; 'I' for Inactive)
REMARK    1  A    between atoms: C4_4  and  C7_7 
REMARK    2  A    between atoms: C6_6  and  N9_9 
REMARK    3  A    between atoms: C7_7  and  N9_9 
ROOT
HETATM    1  C1  UNL     1     -33.451   5.407   3.513  1.00 20.00     0.095 C 
HETATM    2  C7  UNL     1     -34.251   6.212   4.464  1.00 20.00     0.330 C 
HETATM    3  N8  UNL     1     -32.804   4.789   2.775  1.00 20.00    -0.195 NA
ENDROOT
BRANCH   2   4
HETATM    4  C4  UNL     1     -34.969   5.364   5.457  1.00 20.00     0.033 A 
HETATM    5  C2  UNL     1     -34.270   4.905   6.706  1.00 20.00     0.008 A 
HETATM    6  C3  UNL     1     -35.364   5.932   6.792  1.00 20.00     0.008 A 
ENDBRANCH   2   4
BRANCH   2   7
HETATM    7  N9  UNL     1     -33.375   7.174   5.110  1.00 20.00     0.101 N 
HETATM    8  H21 UNL     1     -32.480   6.730   5.320  1.00 20.00     0.317 HD
BRANCH   7   9
HETATM    9  C6  UNL     1     -33.143   8.330   4.253  1.00 20.00     0.267 C 
HETATM   10  C5  UNL     1     -32.256   9.325   4.921  1.00 20.00     0.037 C 
ENDBRANCH   7   9
ENDBRANCH   2   7
TORSDOF 3
