REMARK  0 active torsions:
REMARK  status: ('A' for Active; 'I' for Inactive)
ROOT
HETATM    1  C1  UNL     1     -34.553   5.574   4.838  1.00 20.00     0.068 C 
HETATM    2  C2  UNL     1     -32.944   9.406   3.062  1.00 20.00     0.009 A 
HETATM    3  C3  UNL     1     -32.579   9.014   1.772  1.00 20.00     0.024 A 
HETATM    4  C4  UNL     1     -32.590   6.672   2.430  1.00 20.00     0.033 A 
HETATM    5  C5  UNL     1     -33.118   8.423   4.022  1.00 20.00    -0.050 A 
HETATM    6  C6  UNL     1     -32.949   7.067   3.710  1.00 20.00    -0.033 A 
HETATM    7  C7  UNL     1     -32.402   7.658   1.459  1.00 20.00     0.034 A 
HETATM    8  C8  UNL     1     -33.537   8.595   5.447  1.00 20.00     0.041 C 
HETATM    9  C9  UNL     1     -33.136   7.234   6.042  1.00 20.00     0.028 C 
HETATM   10  C10 UNL     1     -33.225   6.197   4.902  1.00 20.00     0.126 C 
HETATM   11  N11 UNL     1     -35.602   5.082   4.786  1.00 20.00    -0.197 NA
HETATM   12 CL12 UNL     1     -31.957   7.204  -0.142  1.00 20.00    -0.084 Cl
ENDROOT
TORSDOF 0
