REMARK  2 active torsions:
REMARK  status: ('A' for Active; 'I' for Inactive)
REMARK    1  A    between atoms: C5_5  and  N8_8 
REMARK    2  A    between atoms: C7_7  and  N8_8 
ROOT
HETATM    1  C1  UNL     1     -32.847   4.650   2.518  1.00 20.00     0.013 C 
HETATM    2  C2  UNL     1     -32.827   5.801   2.860  1.00 20.00    -0.087 C 
HETATM    3  C7  UNL     1     -32.803   7.207   3.272  1.00 20.00     0.364 C 
ENDROOT
BRANCH   3   4
HETATM    4  N8  UNL     1     -32.934   7.321   4.724  1.00 20.00     0.099 N 
HETATM    5  C6  UNL     1     -32.393   8.599   5.187  1.00 20.00     0.311 C 
BRANCH   4   6
HETATM    6  C5  UNL     1     -34.334   7.184   5.123  1.00 20.00     0.223 A 
HETATM    7  C3  UNL     1     -34.981   5.827   5.175  1.00 20.00     0.038 A 
HETATM    8  C4  UNL     1     -34.694   6.569   6.448  1.00 20.00     0.038 A 
ENDBRANCH   4   6
ENDBRANCH   3   4
TORSDOF 2
