REMARK  1 active torsions:
REMARK  status: ('A' for Active; 'I' for Inactive)
REMARK    1  A    between atoms: C6_6  and  N8_8 
ROOT
HETATM    1  C1  UNL     1     -34.831   4.802   6.437  1.00 20.00     0.014 C 
HETATM    2  C2  UNL     1     -34.602   5.980   6.436  1.00 20.00    -0.096 C 
HETATM    3  C6  UNL     1     -34.325   7.420   6.438  1.00 20.00     0.243 C 
ENDROOT
BRANCH   3   4
HETATM    4  N8  UNL     1     -33.617   7.835   5.251  1.00 20.00    -0.269 N 
HETATM    5  C4  UNL     1     -33.434   7.099   4.118  1.00 20.00     0.138 A 
HETATM    6  C5  UNL     1     -32.707   7.895   3.266  1.00 20.00     0.070 A 
HETATM    7  C3  UNL     1     -32.507   9.088   3.986  1.00 20.00     0.164 A 
HETATM    8 CL9  UNL     1     -32.162   7.551   1.704  1.00 20.00    -0.081 Cl
HETATM    9  N7  UNL     1     -33.061   9.057   5.200  1.00 20.00    -0.183 NA
ENDBRANCH   3   4
TORSDOF 1
