REMARK  3 active torsions:
REMARK  status: ('A' for Active; 'I' for Inactive)
REMARK    1  A    between atoms: C6_6  and  N11_11 
REMARK    2  A    between atoms: C8_8  and  C9_9 
REMARK    3  A    between atoms: C9_9  and  N11_11 
ROOT
HETATM    1  C1  UNL     1     -34.701   5.266   5.695  1.00 20.00     0.060 C 
HETATM    2  C8  UNL     1     -34.581   6.428   6.588  1.00 20.00     0.153 C 
HETATM    3  N10 UNL     1     -34.796   4.348   4.992  1.00 20.00    -0.197 NA
ENDROOT
BRANCH   2   4
HETATM    4  C9  UNL     1     -33.606   7.467   6.044  1.00 20.00     0.284 C 
BRANCH   4   5
HETATM    5  N11 UNL     1     -34.044   7.962   4.750  1.00 20.00     0.093 N 
HETATM    6  H27 UNL     1     -34.763   8.668   4.879  1.00 20.00     0.316 HD
BRANCH   5   7
HETATM    7  C6  UNL     1     -32.934   8.556   4.029  1.00 20.00     0.154 C 
HETATM    8  C4  UNL     1     -33.393   9.069   2.659  1.00 20.00     0.041 C 
HETATM    9  C2  UNL     1     -33.471   7.819   1.784  1.00 20.00     0.003 C 
HETATM   10  C3  UNL     1     -32.521   6.800   2.412  1.00 20.00     0.003 C 
HETATM   11  C5  UNL     1     -31.912   7.484   3.635  1.00 20.00     0.041 C 
HETATM   12  C7  UNL     1     -32.314   9.660   4.880  1.00 20.00     0.049 C 
ENDBRANCH   5   7
ENDBRANCH   4   5
ENDBRANCH   2   4
TORSDOF 3
