REMARK  3 active torsions:
REMARK  status: ('A' for Active; 'I' for Inactive)
REMARK    1  A    between atoms: C5_5  and  C8_8 
REMARK    2  A    between atoms: C8_8  and  C9_9 
REMARK    3  A    between atoms: C9_9  and  C10_10 
ROOT
HETATM    1  C1  UNL     1     -33.904   5.211   4.477  1.00 20.00     0.131 C 
HETATM    2  C2  UNL     1     -34.200   4.654   5.845  1.00 20.00     0.079 C 
HETATM    3  C3  UNL     1     -34.033   5.882   6.729  1.00 20.00     0.008 C 
HETATM    4  C4  UNL     1     -34.465   7.048   5.848  1.00 20.00     0.013 C 
HETATM    5  C5  UNL     1     -33.910   6.725   4.458  1.00 20.00     0.055 C 
HETATM    6  O11 UNL     1     -33.691   4.515   3.493  1.00 20.00    -0.298 OA
ENDROOT
BRANCH   5   7
HETATM    7  C8  UNL     1     -32.505   7.261   4.237  1.00 20.00     0.012 C 
BRANCH   7   8
HETATM    8  C9  UNL     1     -32.532   8.691   3.694  1.00 20.00     0.005 C 
BRANCH   8   9
HETATM    9  C10 UNL     1     -33.200   8.810   2.312  1.00 20.00    -0.023 C 
HETATM   10  C6  UNL     1     -32.443   7.953   1.294  1.00 20.00     0.009 C 
HETATM   11  C7  UNL     1     -33.268  10.256   1.818  1.00 20.00     0.009 C 
ENDBRANCH   8   9
ENDBRANCH   7   8
ENDBRANCH   5   7
TORSDOF 3
