REMARK  4 active torsions:
REMARK  status: ('A' for Active; 'I' for Inactive)
REMARK    1  A    between atoms: C6_6  and  N10_10 
REMARK    2  A    between atoms: C7_7  and  C8_8 
REMARK    3  A    between atoms: C7_7  and  C9_9 
REMARK    4  A    between atoms: C8_8  and  N10_10 
ROOT
HETATM    1  C1  UNL     1     -32.217   9.094   4.466  1.00 20.00     0.013 C 
HETATM    2  C2  UNL     1     -32.252   8.244   3.619  1.00 20.00    -0.087 C 
HETATM    3  C6  UNL     1     -32.293   7.210   2.582  1.00 20.00     0.364 C 
ENDROOT
BRANCH   3   4
HETATM    4  N10 UNL     1     -32.750   5.929   3.144  1.00 20.00     0.095 N 
HETATM    5  C5  UNL     1     -32.338   4.830   2.255  1.00 20.00     0.310 C 
BRANCH   4   6
HETATM    6  C8  UNL     1     -34.170   5.926   3.357  1.00 20.00     0.273 C 
BRANCH   6   7
HETATM    7  C7  UNL     1     -34.575   6.709   4.604  1.00 20.00     0.034 C 
BRANCH   7   8
HETATM    8  C9  UNL     1     -33.953   6.205   5.921  1.00 20.00    -0.021 C 
HETATM    9  C3  UNL     1     -34.369   4.753   6.167  1.00 20.00     0.009 C 
HETATM   10  C4  UNL     1     -34.351   7.065   7.122  1.00 20.00     0.009 C 
ENDBRANCH   7   8
ENDBRANCH   6   7
ENDBRANCH   4   6
ENDBRANCH   3   4
TORSDOF 4
