REMARK  1 active torsions:
REMARK  status: ('A' for Active; 'I' for Inactive)
REMARK    1  A    between atoms: C7_7  and  C8_8 
ROOT
HETATM    1  C1  UNL     1     -32.221   7.943   1.369  1.00 20.00     0.012 C 
HETATM    2  C2  UNL     1     -32.369   7.757   2.546  1.00 20.00    -0.117 C 
HETATM    3  C8  UNL     1     -32.550   7.531   3.987  1.00 20.00     0.105 C 
ENDROOT
BRANCH   3   4
HETATM    4  C7  UNL     1     -33.740   6.634   4.262  1.00 20.00     0.066 C 
HETATM    5  C3  UNL     1     -33.939   6.350   5.736  1.00 20.00     0.132 C 
HETATM    6  C4  UNL     1     -34.229   4.894   5.997  1.00 20.00     0.079 C 
HETATM    7  O9  UNL     1     -33.873   7.196   6.620  1.00 20.00    -0.298 OA
HETATM    8  C5  UNL     1     -34.459   4.360   4.589  1.00 20.00     0.008 C 
HETATM    9  C6  UNL     1     -33.563   5.220   3.707  1.00 20.00     0.013 C 
ENDBRANCH   3   4
TORSDOF 1
