REMARK  3 active torsions:
REMARK  status: ('A' for Active; 'I' for Inactive)
REMARK    1  A    between atoms: C5_5  and  C8_8 
REMARK    2  A    between atoms: C8_8  and  C9_9 
REMARK    3  A    between atoms: C9_9  and  C10_10 
ROOT
HETATM    1  C1  UNL     1     -34.199   6.407   5.792  1.00 20.00     0.131 C 
HETATM    2  C2  UNL     1     -34.200   4.908   5.950  1.00 20.00     0.079 C 
HETATM    3  C3  UNL     1     -34.640   4.445   4.566  1.00 20.00     0.008 C 
HETATM    4  C4  UNL     1     -34.096   5.507   3.620  1.00 20.00     0.013 C 
HETATM    5  C5  UNL     1     -34.366   6.827   4.346  1.00 20.00     0.055 C 
HETATM    6  O11 UNL     1     -34.077   7.187   6.729  1.00 20.00    -0.298 OA
ENDROOT
BRANCH   5   7
HETATM    7  C8  UNL     1     -33.414   7.932   3.937  1.00 20.00     0.012 C 
BRANCH   7   8
HETATM    8  C9  UNL     1     -33.588   8.300   2.461  1.00 20.00     0.005 C 
BRANCH   8   9
HETATM    9  C10 UNL     1     -32.693   9.470   2.010  1.00 20.00    -0.023 C 
HETATM   10  C6  UNL     1     -33.020  10.720   2.832  1.00 20.00     0.009 C 
HETATM   11  C7  UNL     1     -32.842   9.779   0.520  1.00 20.00     0.009 C 
ENDBRANCH   8   9
ENDBRANCH   7   8
ENDBRANCH   5   7
TORSDOF 3
