REMARK  0 active torsions:
REMARK  status: ('A' for Active; 'I' for Inactive)
ROOT
HETATM    1  C1  UNL     1     -33.894   7.026   5.012  1.00 20.00     0.225 C 
HETATM    2  C2  UNL     1     -33.513   5.305   2.665  1.00 20.00     0.021 C 
HETATM    3  C3  UNL     1     -33.903   4.681   3.997  1.00 20.00     0.020 C 
HETATM    4  C4  UNL     1     -32.608   6.492   2.917  1.00 20.00     0.122 C 
HETATM    5  C5  UNL     1     -34.636   5.685   4.907  1.00 20.00     0.034 C 
HETATM    6  C6  UNL     1     -34.773   5.069   6.310  1.00 20.00     0.025 C 
HETATM    7  C7  UNL     1     -36.045   5.988   4.365  1.00 20.00     0.025 C 
HETATM    8  N8  UNL     1     -33.107   7.391   3.940  1.00 20.00    -0.360 N 
HETATM    9  O9  UNL     1     -34.073   7.789   5.965  1.00 20.00    -0.273 OA
HETATM   10  H22 UNL     1     -32.856   8.371   3.859  1.00 20.00     0.162 HD
ENDROOT
TORSDOF 0
