REMARK  1 active torsions:
REMARK  status: ('A' for Active; 'I' for Inactive)
REMARK    1  A    between atoms: C7_7  and  N9_9 
ROOT
HETATM    1  C1  UNL     1     -32.982   9.346   2.769  1.00 20.00     0.089 C 
HETATM    2  C7  UNL     1     -32.818   8.803   4.116  1.00 20.00     0.395 C 
HETATM    3  N8  UNL     1     -33.111   9.780   1.701  1.00 20.00    -0.195 NA
ENDROOT
BRANCH   2   4
HETATM    4  N9  UNL     1     -33.613   7.581   4.289  1.00 20.00     0.102 N 
HETATM    5  C3  UNL     1     -32.905   6.440   3.691  1.00 20.00     0.274 C 
HETATM    6  C2  UNL     1     -33.829   5.252   3.410  1.00 20.00     0.040 C 
HETATM    7  C5  UNL     1     -33.873   4.173   4.485  1.00 20.00     0.075 C 
HETATM    8  S10 UNL     1     -34.069   4.681   6.217  1.00 20.00    -0.167 SA
HETATM    9  C6  UNL     1     -34.913   6.275   6.025  1.00 20.00     0.104 C 
HETATM   10  C4  UNL     1     -33.935   7.408   5.712  1.00 20.00     0.283 C 
ENDBRANCH   2   4
TORSDOF 1
