REMARK  3 active torsions:
REMARK  status: ('A' for Active; 'I' for Inactive)
REMARK    1  A    between atoms: C3_3  and  C4_4 
REMARK    2  A    between atoms: C3_3  and  C5_5 
REMARK    3  A    between atoms: C4_4  and  N6_6 
ROOT
HETATM    1  C3  UNL     1     -33.156   6.507   4.458  1.00 20.00     0.152 C 
ENDROOT
BRANCH   1   2
HETATM    2  C4  UNL     1     -34.366   5.562   4.381  1.00 20.00     0.224 C 
HETATM    3  C1  UNL     1     -33.910   4.129   4.111  1.00 20.00     0.043 C 
BRANCH   2   4
HETATM    4  N6  UNL     1     -35.137   5.582   5.624  1.00 20.00     0.083 N 
HETATM    5  C2  UNL     1     -34.325   5.127   6.741  1.00 20.00     0.307 C 
HETATM    6  H19 UNL     1     -35.945   4.971   5.521  1.00 20.00     0.315 HD
ENDBRANCH   2   4
ENDBRANCH   1   2
BRANCH   1   7
HETATM    7  C5  UNL     1     -33.514   7.943   4.791  1.00 20.00     0.389 C 
HETATM    8  F7  UNL     1     -34.282   8.507   3.837  1.00 20.00    -0.171 F 
HETATM    9  F8  UNL     1     -32.393   8.691   4.904  1.00 20.00    -0.171 F 
HETATM   10  F9  UNL     1     -34.177   8.023   5.964  1.00 20.00    -0.171 F 
ENDBRANCH   1   7
TORSDOF 3
