REMARK  1 active torsions:
REMARK  status: ('A' for Active; 'I' for Inactive)
REMARK    1  A    between atoms: C5_5  and  N7_7 
ROOT
HETATM    1  C1  UNL     1     -32.476   8.174   4.490  1.00 20.00     0.158 C 
HETATM    2  N7  UNL     1     -32.638   7.201   3.851  1.00 20.00    -0.268 NA
HETATM    3  S9  UNL     1     -32.230   9.495   5.345  1.00 20.00    -0.055 SA
ENDROOT
BRANCH   2   4
HETATM    4  C5  UNL     1     -33.937   6.554   4.031  1.00 20.00     0.139 C 
HETATM    5  C2  UNL     1     -33.801   5.043   3.848  1.00 20.00     0.059 C 
HETATM    6  C3  UNL     1     -34.034   4.465   5.235  1.00 20.00     0.274 C 
HETATM    7  N8  UNL     1     -34.961   5.432   5.822  1.00 20.00     0.086 N 
HETATM    8  C4  UNL     1     -34.416   6.745   5.468  1.00 20.00     0.299 C 
HETATM    9  C6  UNL     1     -35.107   5.260   7.260  1.00 20.00     0.310 C 
ENDBRANCH   2   4
TORSDOF 1
