REMARK  3 active torsions:
REMARK  status: ('A' for Active; 'I' for Inactive)
REMARK    1  A    between atoms: C4_4  and  N11_11 
REMARK    2  A    between atoms: C8_8  and  C9_9 
REMARK    3  A    between atoms: C8_8  and  N11_11 
ROOT
HETATM    1  C1  UNL     1     -33.227   5.337   3.461  1.00 20.00     0.067 C 
HETATM    2  C2  UNL     1     -34.016   4.728   4.607  1.00 20.00     0.274 C 
HETATM    3  C3  UNL     1     -34.431   7.020   4.738  1.00 20.00     0.307 C 
HETATM    4  C4  UNL     1     -33.697   6.786   3.415  1.00 20.00     0.250 C 
HETATM    5  C7  UNL     1     -33.061   5.985   6.449  1.00 20.00     0.310 C 
HETATM    6  N10 UNL     1     -34.217   5.822   5.567  1.00 20.00     0.086 N 
ENDROOT
BRANCH   4   7
HETATM    7  N11 UNL     1     -32.600   7.697   3.225  1.00 20.00     0.090 N 
HETATM    8  H31 UNL     1     -31.803   7.384   3.779  1.00 20.00     0.316 HD
BRANCH   7   9
HETATM    9  C8  UNL     1     -32.212   7.762   1.822  1.00 20.00     0.274 C 
BRANCH   9  10
HETATM   10  C9  UNL     1     -33.111   8.717   1.027  1.00 20.00     0.005 C 
HETATM   11  C5  UNL     1     -33.059  10.147   1.565  1.00 20.00     0.011 C 
HETATM   12  C6  UNL     1     -32.792   8.693  -0.469  1.00 20.00     0.011 C 
ENDBRANCH   9  10
ENDBRANCH   7   9
ENDBRANCH   4   7
TORSDOF 3
