REMARK  2 active torsions:
REMARK  status: ('A' for Active; 'I' for Inactive)
REMARK    1  A    between atoms: C6_6  and  C7_7 
REMARK    2  A    between atoms: C7_7  and  N8_8 
ROOT
HETATM    1  C1  UNL     1     -32.329   7.716   1.504  1.00 20.00     0.157 C 
HETATM    2  N8  UNL     1     -32.283   6.999   2.435  1.00 20.00    -0.273 NA
HETATM    3  S10 UNL     1     -32.393   8.668   0.229  1.00 20.00    -0.055 SA
ENDROOT
BRANCH   2   4
HETATM    4  C7  UNL     1     -32.200   7.670   3.730  1.00 20.00     0.182 C 
BRANCH   4   5
HETATM    5  C6  UNL     1     -33.410   7.275   4.564  1.00 20.00     0.141 C 
HETATM    6  C4  UNL     1     -33.380   7.956   5.935  1.00 20.00     0.034 C 
HETATM    7  C2  UNL     1     -34.534   7.466   6.804  1.00 20.00     0.005 C 
HETATM    8  C3  UNL     1     -34.568   5.943   6.842  1.00 20.00     0.026 C 
HETATM    9  C5  UNL     1     -34.528   5.368   5.432  1.00 20.00     0.168 C 
HETATM   10  O9  UNL     1     -33.390   5.852   4.719  1.00 20.00    -0.384 OA
ENDBRANCH   4   5
ENDBRANCH   2   4
TORSDOF 2
