REMARK  1 active torsions:
REMARK  status: ('A' for Active; 'I' for Inactive)
REMARK    1  A    between atoms: C3_3  and  O8_8 
ROOT
HETATM    1  C1  UNL     1     -33.153   7.584   5.702  1.00 20.00     0.040 C 
HETATM    2  C2  UNL     1     -33.284   6.552   6.807  1.00 20.00     0.172 C 
HETATM    3  C3  UNL     1     -35.121   6.350   5.384  1.00 20.00     0.264 C 
HETATM    4  C4  UNL     1     -33.978   6.979   4.574  1.00 20.00     0.004 C 
HETATM    5  C5  UNL     1     -33.158   5.929   3.801  1.00 20.00     0.020 C 
HETATM    6  C6  UNL     1     -34.485   8.036   3.592  1.00 20.00     0.020 C 
HETATM    7  O7  UNL     1     -34.529   5.868   6.601  1.00 20.00    -0.361 OA
ENDROOT
BRANCH   3   8
HETATM    8  O8  UNL     1     -35.773   5.319   4.661  1.00 20.00    -0.371 OA
HETATM    9  H20 UNL     1     -36.475   4.978   5.237  1.00 20.00     0.212 HD
ENDBRANCH   3   8
TORSDOF 1
