REMARK  3 active torsions:
REMARK  status: ('A' for Active; 'I' for Inactive)
REMARK    1  A    between atoms: C3_3  and  C4_4 
REMARK    2  A    between atoms: C4_4  and  C5_5 
REMARK    3  A    between atoms: C4_4  and  O6_6 
ROOT
HETATM    1  C4  UNL     1     -32.714   7.525   4.701  1.00 20.00     0.229 C 
ENDROOT
BRANCH   1   2
HETATM    2  C3  UNL     1     -34.125   7.240   5.080  1.00 20.00     0.023 A 
HETATM    3  C1  UNL     1     -34.674   5.845   4.965  1.00 20.00     0.008 A 
HETATM    4  C2  UNL     1     -34.430   6.447   6.321  1.00 20.00     0.008 A 
ENDBRANCH   1   2
BRANCH   1   5
HETATM    5  C5  UNL     1     -32.542   7.707   3.203  1.00 20.00     0.413 C 
HETATM    6  F7  UNL     1     -32.869   6.578   2.536  1.00 20.00    -0.168 F 
HETATM    7  F8  UNL     1     -33.340   8.694   2.741  1.00 20.00    -0.168 F 
HETATM    8  F9  UNL     1     -31.268   8.019   2.883  1.00 20.00    -0.168 F 
ENDBRANCH   1   5
BRANCH   1   9
HETATM    9  O6  UNL     1     -32.271   8.724   5.340  1.00 20.00    -0.386 OA
HETATM   10  H16 UNL     1     -32.346   8.569   6.293  1.00 20.00     0.210 HD
ENDBRANCH   1   9
TORSDOF 3
