REMARK  7 active torsions:
REMARK  status: ('A' for Active; 'I' for Inactive)
REMARK    1  A    between atoms: C1_1  and  C6_6 
REMARK    2  A    between atoms: C1_1  and  C11_11 
REMARK    3  A    between atoms: C6_6  and  C12_12 
REMARK    4  A    between atoms: C7_7  and  C9_9 
REMARK    5  A    between atoms: C8_8  and  C12_12 
REMARK    6  A    between atoms: C9_9  and  C10_10 
REMARK    7  A    between atoms: C10_10  and  C12_12 
ROOT
HETATM    1  C12 UNL     1     -33.211   8.599   4.021  1.00 20.00    -0.008 C 
ENDROOT
BRANCH   1   2
HETATM    2  C6  UNL     1     -33.241   7.205   4.679  1.00 20.00     0.083 C 
BRANCH   2   3
HETATM    3  C1  UNL     1     -34.123   6.200   3.946  1.00 20.00     0.130 C 
HETATM    4  O13 UNL     1     -35.320   6.403   3.745  1.00 20.00    -0.298 OA
BRANCH   3   5
HETATM    5  C11 UNL     1     -33.432   4.929   3.457  1.00 20.00     0.047 C 
HETATM    6  C4  UNL     1     -34.071   4.420   2.168  1.00 20.00     0.017 C 
HETATM    7  C5  UNL     1     -33.485   3.869   4.550  1.00 20.00     0.017 C 
ENDBRANCH   3   5
ENDBRANCH   2   3
ENDBRANCH   1   2
BRANCH   1   8
HETATM    8  C8  UNL     1     -32.378   9.586   4.869  1.00 20.00     0.000 C 
HETATM    9  C3  UNL     1     -32.845   9.760   6.308  1.00 20.00     0.005 C 
ENDBRANCH   1   8
BRANCH   1  10
HETATM   10  C10 UNL     1     -32.731   8.490   2.555  1.00 20.00     0.005 C 
BRANCH  10  11
HETATM   11  C9  UNL     1     -33.137   9.688   1.689  1.00 20.00     0.000 C 
BRANCH  11  12
HETATM   12  C7  UNL     1     -32.682   9.560   0.233  1.00 20.00    -0.005 C 
HETATM   13  C2  UNL     1     -33.309   8.382  -0.496  1.00 20.00     0.005 C 
ENDBRANCH  11  12
ENDBRANCH  10  11
ENDBRANCH   1  10
TORSDOF 7
