REMARK  0 active torsions:
REMARK  status: ('A' for Active; 'I' for Inactive)
ROOT
HETATM    1  C1  UNL     1     -33.992   7.427   4.808  1.00 20.00     0.137 C 
HETATM    2  C2  UNL     1     -33.940   5.389   3.397  1.00 20.00     0.108 C 
HETATM    3  C3  UNL     1     -34.504   6.073   4.621  1.00 20.00     0.326 C 
HETATM    4  N4  UNL     1     -33.586   8.504   4.958  1.00 20.00    -0.191 NA
HETATM    5  F5  UNL     1     -34.214   5.335   5.722  1.00 20.00    -0.190 F 
HETATM    6  F6  UNL     1     -35.857   6.119   4.527  1.00 20.00    -0.190 F 
ENDROOT
TORSDOF 0
