REMARK  4 active torsions:
REMARK  status: ('A' for Active; 'I' for Inactive)
REMARK    1  A    between atoms: C1_1  and  C9_9 
REMARK    2  A    between atoms: C6_6  and  C7_7 
REMARK    3  A    between atoms: C6_6  and  C8_8 
REMARK    4  A    between atoms: C7_7  and  C9_9 
ROOT
HETATM    1  C7  UNL     1     -33.988   7.531   4.717  1.00 20.00     0.016 C 
ENDROOT
BRANCH   1   2
HETATM    2  C6  UNL     1     -33.351   6.447   5.602  1.00 20.00     0.005 C 
BRANCH   2   3
HETATM    3  C8  UNL     1     -34.372   5.427   6.144  1.00 20.00    -0.023 C 
HETATM    4  C2  UNL     1     -35.064   4.716   4.977  1.00 20.00     0.009 C 
HETATM    5  C3  UNL     1     -35.421   6.073   7.049  1.00 20.00     0.009 C 
ENDBRANCH   2   3
ENDBRANCH   1   2
BRANCH   1   6
HETATM    6  C9  UNL     1     -32.985   8.540   4.106  1.00 20.00     0.006 C 
HETATM    7  C4  UNL     1     -32.215   9.231   5.243  1.00 20.00     0.022 C 
HETATM    8  C5  UNL     1     -33.685   9.605   3.253  1.00 20.00     0.022 C 
BRANCH   6   9
HETATM    9  C1  UNL     1     -31.954   7.776   3.279  1.00 20.00     0.239 C 
HETATM   10  O10 UNL     1     -32.216   7.104   2.286  1.00 20.00    -0.306 OA
ENDBRANCH   6   9
ENDBRANCH   1   6
TORSDOF 4
