REMARK  4 active torsions:
REMARK  status: ('A' for Active; 'I' for Inactive)
REMARK    1  A    between atoms: C4_4  and  C5_5 
REMARK    2  A    between atoms: C4_4  and  O8_8 
REMARK    3  A    between atoms: C5_5  and  S9_9 
REMARK    4  A    between atoms: C6_6  and  S9_9 
ROOT
HETATM    1  C1  UNL     1     -32.837   8.163   4.556  1.00 20.00     0.074 C 
HETATM    2  C2  UNL     1     -34.355   6.617   5.734  1.00 20.00     0.037 C 
HETATM    3  C6  UNL     1     -33.889   7.152   4.384  1.00 20.00     0.150 C 
HETATM    4  N7  UNL     1     -32.006   8.963   4.687  1.00 20.00    -0.196 NA
ENDROOT
BRANCH   3   5
HETATM    5  S9  UNL     1     -33.311   5.778   3.362  1.00 20.00    -0.148 SA
BRANCH   5   6
HETATM    6  C5  UNL     1     -32.372   6.741   2.138  1.00 20.00     0.101 C 
BRANCH   6   7
HETATM    7  C4  UNL     1     -33.265   7.728   1.404  1.00 20.00     0.177 C 
BRANCH   7   8
HETATM    8  O8  UNL     1     -32.503   8.468   0.460  1.00 20.00    -0.395 OA
HETATM    9  C3  UNL     1     -33.322   9.345  -0.301  1.00 20.00     0.201 C 
ENDBRANCH   7   8
ENDBRANCH   6   7
ENDBRANCH   5   6
ENDBRANCH   3   5
TORSDOF 4
