REMARK  2 active torsions:
REMARK  status: ('A' for Active; 'I' for Inactive)
REMARK    1  A    between atoms: C3_3  and  C8_8 
REMARK    2  A    between atoms: C7_7  and  C8_8 
ROOT
HETATM    1  C1  UNL     1     -32.796   8.806   4.843  1.00 20.00     0.088 C 
HETATM    2  C2  UNL     1     -33.696   7.720   5.019  1.00 20.00     0.096 C 
HETATM    3  C3  UNL     1     -33.713   6.611   4.253  1.00 20.00    -0.070 C 
HETATM    4  C4  UNL     1     -32.718   6.488   3.124  1.00 20.00     0.044 C 
HETATM    5  N9  UNL     1     -32.065   9.696   4.706  1.00 20.00    -0.192 NA
ENDROOT
BRANCH   3   6
HETATM    6  C8  UNL     1     -34.686   5.448   4.452  1.00 20.00     0.010 C 
HETATM    7  C6  UNL     1     -34.091   4.133   3.934  1.00 20.00     0.015 C 
BRANCH   6   8
HETATM    8  C7  UNL     1     -35.147   5.262   5.912  1.00 20.00     0.004 C 
HETATM    9  C5  UNL     1     -33.998   5.008   6.880  1.00 20.00     0.006 C 
ENDBRANCH   6   8
ENDBRANCH   3   6
TORSDOF 2
