REMARK  4 active torsions:
REMARK  status: ('A' for Active; 'I' for Inactive)
REMARK    1  A    between atoms: C4_4  and  N11_11 
REMARK    2  A    between atoms: C7_7  and  C9_9 
REMARK    3  A    between atoms: C8_8  and  N11_11 
REMARK    4  A    between atoms: C9_9  and  N11_11 
ROOT
HETATM    1  C1  UNL     1     -32.674   8.812   4.769  1.00 20.00     0.095 C 
HETATM    2  C9  UNL     1     -33.377   7.784   3.988  1.00 20.00     0.328 C 
HETATM    3  N10 UNL     1     -32.121   9.625   5.386  1.00 20.00    -0.195 NA
ENDROOT
BRANCH   2   4
HETATM    4  C7  UNL     1     -32.728   7.543   2.619  1.00 20.00     0.046 C 
HETATM    5  C5  UNL     1     -32.670   8.773   1.718  1.00 20.00     0.008 C 
ENDBRANCH   2   4
BRANCH   2   6
HETATM    6  N11 UNL     1     -33.484   6.560   4.742  1.00 20.00     0.110 N 
BRANCH   6   7
HETATM    7  C4  UNL     1     -34.186   5.522   3.974  1.00 20.00     0.224 A 
HETATM    8  C2  UNL     1     -33.481   4.786   2.868  1.00 20.00     0.038 A 
HETATM    9  C3  UNL     1     -33.826   4.072   4.142  1.00 20.00     0.038 A 
ENDBRANCH   6   7
BRANCH   6  10
HETATM   10  C8  UNL     1     -34.175   6.780   6.020  1.00 20.00     0.270 C 
HETATM   11  C6  UNL     1     -34.212   5.532   6.834  1.00 20.00     0.037 C 
ENDBRANCH   6  10
ENDBRANCH   2   6
TORSDOF 4
