REMARK  0 active torsions:
REMARK  status: ('A' for Active; 'I' for Inactive)
ROOT
HETATM    1  C1  UNL     1     -32.985   8.707   5.216  1.00 20.00     0.088 C 
HETATM    2  C2  UNL     1     -33.985   6.639   4.491  1.00 20.00    -0.060 C 
HETATM    3  C3  UNL     1     -33.972   7.694   5.315  1.00 20.00     0.097 C 
HETATM    4  C4  UNL     1     -35.005   5.541   4.551  1.00 20.00     0.046 C 
HETATM    5  C5  UNL     1     -32.924   6.378   3.465  1.00 20.00     0.108 C 
HETATM    6  C6  UNL     1     -34.235   4.238   4.411  1.00 20.00     0.078 C 
HETATM    7  N7  UNL     1     -32.179   9.538   5.141  1.00 20.00    -0.192 NA
HETATM    8  S8  UNL     1     -32.941   4.579   3.187  1.00 20.00    -0.165 SA
ENDROOT
TORSDOF 0
