REMARK  5 active torsions:
REMARK  status: ('A' for Active; 'I' for Inactive)
REMARK    1  A    between atoms: C3_3  and  C4_4 
REMARK    2  A    between atoms: C3_3  and  C5_5 
REMARK    3  A    between atoms: C4_4  and  C6_6 
REMARK    4  A    between atoms: C5_5  and  C7_7 
REMARK    5  A    between atoms: C6_6  and  O8_8 
ROOT
HETATM    1  C3  UNL     1     -33.450   8.225   5.125  1.00 20.00     0.004 C 
ENDROOT
BRANCH   1   2
HETATM    2  C4  UNL     1     -32.410   9.152   4.491  1.00 20.00     0.026 C 
BRANCH   2   3
HETATM    3  C6  UNL     1     -32.560   9.297   2.983  1.00 20.00     0.167 C 
BRANCH   3   4
HETATM    4  O8  UNL     1     -32.437   8.013   2.386  1.00 20.00    -0.396 OA
HETATM    5  C2  UNL     1     -32.551   8.082   0.972  1.00 20.00     0.201 C 
ENDBRANCH   3   4
ENDBRANCH   2   3
ENDBRANCH   1   2
BRANCH   1   6
HETATM    6  C5  UNL     1     -33.373   6.786   4.600  1.00 20.00     0.020 C 
BRANCH   6   7
HETATM    7  C7  UNL     1     -34.460   5.872   5.182  1.00 20.00     0.078 C 
HETATM    8  C1  UNL     1     -34.389   4.477   4.572  1.00 20.00     0.026 C 
HETATM    9 CL9  UNL     1     -34.303   5.734   6.959  1.00 20.00    -0.125 Cl
ENDBRANCH   6   7
ENDBRANCH   1   6
TORSDOF 5
