REMARK  3 active torsions:
REMARK  status: ('A' for Active; 'I' for Inactive)
REMARK    1  A    between atoms: C5_5  and  C9_9 
REMARK    2  A    between atoms: C6_6  and  C10_10 
REMARK    3  A    between atoms: C9_9  and  C11_11 
ROOT
HETATM    1  C1  UNL     1     -33.292   7.614   5.745  1.00 20.00     0.131 C 
HETATM    2  C2  UNL     1     -32.122   8.558   5.580  1.00 20.00     0.079 C 
HETATM    3  C3  UNL     1     -32.367   9.517   4.423  1.00 20.00     0.012 C 
HETATM    4  C4  UNL     1     -33.954   7.878   3.352  1.00 20.00     0.016 C 
HETATM    5  C5  UNL     1     -33.735   6.873   4.488  1.00 20.00     0.055 C 
HETATM    6  C6  UNL     1     -32.722   8.769   3.130  1.00 20.00    -0.014 C 
HETATM    7  O12 UNL     1     -33.783   7.402   6.853  1.00 20.00    -0.298 OA
ENDROOT
BRANCH   5   8
HETATM    8  C9  UNL     1     -34.996   6.051   4.732  1.00 20.00     0.012 C 
BRANCH   8   9
HETATM    9  C11 UNL     1     -34.668   4.714   5.390  1.00 20.00    -0.004 C 
HETATM   10  C8  UNL     1     -33.761   3.872   4.507  1.00 20.00     0.005 C 
ENDBRANCH   8   9
ENDBRANCH   5   8
BRANCH   6  11
HETATM   11  C10 UNL     1     -32.971   9.757   1.991  1.00 20.00     0.000 C 
HETATM   12  C7  UNL     1     -33.290   9.054   0.713  1.00 20.00     0.005 C 
ENDBRANCH   6  11
TORSDOF 3
