REMARK  2 active torsions:
REMARK  status: ('A' for Active; 'I' for Inactive)
REMARK    1  A    between atoms: C4_4  and  C10_10 
REMARK    2  A    between atoms: C8_8  and  C10_10 
ROOT
HETATM    1  C5  UNL     1     -34.371   5.841   6.480  1.00 20.00     0.002 C 
HETATM    2  C6  UNL     1     -33.048   6.552   6.184  1.00 20.00     0.006 C 
HETATM    3  C7  UNL     1     -35.183   5.870   5.182  1.00 20.00     0.016 C 
HETATM    4  C8  UNL     1     -33.222   7.166   4.793  1.00 20.00     0.004 C 
HETATM    5  C9  UNL     1     -34.183   6.214   4.084  1.00 20.00     0.062 C 
HETATM    6 BR12 UNL     1     -33.335   4.576   3.444  1.00 20.00    -0.091 Br
ENDROOT
BRANCH   4   7
HETATM    7  C10 UNL     1     -31.907   7.470   4.092  1.00 20.00     0.045 C 
BRANCH   7   8
HETATM    8  C4  UNL     1     -32.125   8.108   2.745  1.00 20.00    -0.051 A 
HETATM    9  C1  UNL     1     -32.841   9.324   2.549  1.00 20.00     0.014 A 
HETATM   10  C2  UNL     1     -32.893   9.686   1.220  1.00 20.00     0.050 A 
HETATM   11  S11 UNL     1     -32.080   8.561   0.216  1.00 20.00    -0.113 SA
HETATM   12  C3  UNL     1     -31.656   7.587   1.559  1.00 20.00     0.056 A 
ENDBRANCH   7   8
ENDBRANCH   4   7
TORSDOF 2
