REMARK  4 active torsions:
REMARK  status: ('A' for Active; 'I' for Inactive)
REMARK    1  A    between atoms: C5_5  and  C9_9 
REMARK    2  A    between atoms: C6_6  and  C10_10 
REMARK    3  A    between atoms: C9_9  and  C12_12 
REMARK    4  A    between atoms: C11_11  and  C12_12 
ROOT
HETATM    1  C1  UNL     1     -33.252   5.414   3.516  1.00 20.00     0.131 C 
HETATM    2  C2  UNL     1     -34.042   4.380   4.288  1.00 20.00     0.079 C 
HETATM    3  C3  UNL     1     -35.393   4.942   4.712  1.00 20.00     0.012 C 
HETATM    4  C4  UNL     1     -34.496   7.295   4.594  1.00 20.00     0.016 C 
HETATM    5  C5  UNL     1     -33.114   6.784   4.171  1.00 20.00     0.056 C 
HETATM    6  C6  UNL     1     -35.285   6.287   5.445  1.00 20.00    -0.014 C 
HETATM    7  O13 UNL     1     -32.683   5.118   2.466  1.00 20.00    -0.298 OA
ENDROOT
BRANCH   5   8
HETATM    8  C9  UNL     1     -32.436   7.786   3.240  1.00 20.00     0.012 C 
BRANCH   8   9
HETATM    9  C12 UNL     1     -33.213   7.945   1.936  1.00 20.00     0.000 C 
BRANCH   9  10
HETATM   10  C11 UNL     1     -32.514   8.924   0.994  1.00 20.00    -0.005 C 
HETATM   11  C8  UNL     1     -33.263   9.063  -0.322  1.00 20.00     0.005 C 
ENDBRANCH   9  10
ENDBRANCH   8   9
ENDBRANCH   5   8
BRANCH   6  12
HETATM   12  C10 UNL     1     -34.693   6.129   6.847  1.00 20.00     0.000 C 
HETATM   13  C7  UNL     1     -34.643   7.433   7.572  1.00 20.00     0.005 C 
ENDBRANCH   6  12
TORSDOF 4
