REMARK  3 active torsions:
REMARK  status: ('A' for Active; 'I' for Inactive)
REMARK    1  A    between atoms: C2_2  and  C9_9 
REMARK    2  A    between atoms: C6_6  and  C9_9 
REMARK    3  A    between atoms: C7_7  and  O10_10 
ROOT
HETATM    1  C3  UNL     1     -33.649   4.424   3.232  1.00 20.00     0.003 C 
HETATM    2  C4  UNL     1     -33.417   5.934   3.170  1.00 20.00     0.007 C 
HETATM    3  C5  UNL     1     -34.549   4.176   4.443  1.00 20.00     0.032 C 
HETATM    4  C6  UNL     1     -33.792   6.441   4.559  1.00 20.00     0.018 C 
HETATM    5  C7  UNL     1     -34.985   5.558   4.916  1.00 20.00     0.122 C 
ENDROOT
BRANCH   4   6
HETATM    6  C9  UNL     1     -34.114   7.927   4.587  1.00 20.00     0.040 C 
BRANCH   6   7
HETATM    7  C2  UNL     1     -32.939   8.788   4.189  1.00 20.00    -0.093 C 
HETATM    8  C1  UNL     1     -32.077   9.264   5.101  1.00 20.00     0.014 C 
HETATM    9  C8  UNL     1     -32.796   9.117   2.731  1.00 20.00     0.042 C 
ENDBRANCH   6   7
ENDBRANCH   4   6
BRANCH   5  10
HETATM   10  O10 UNL     1     -35.237   5.575   6.308  1.00 20.00    -0.395 OA
HETATM   11  H26 UNL     1     -35.946   4.932   6.479  1.00 20.00     0.210 HD
ENDBRANCH   5  10
TORSDOF 3
