REMARK  3 active torsions:
REMARK  status: ('A' for Active; 'I' for Inactive)
REMARK    1  A    between atoms: C5_5  and  C9_9 
REMARK    2  A    between atoms: C6_6  and  C10_10 
REMARK    3  A    between atoms: C10_10  and  C11_11 
ROOT
HETATM    1  C1  UNL     1     -34.244   5.258   4.654  1.00 20.00     0.131 C 
HETATM    2  C2  UNL     1     -33.529   4.463   3.583  1.00 20.00     0.079 C 
HETATM    3  C3  UNL     1     -33.172   5.356   2.403  1.00 20.00     0.012 C 
HETATM    4  C4  UNL     1     -33.197   7.392   3.887  1.00 20.00     0.016 C 
HETATM    5  C5  UNL     1     -33.550   6.537   5.109  1.00 20.00     0.055 C 
HETATM    6  C6  UNL     1     -32.389   6.599   2.848  1.00 20.00    -0.013 C 
HETATM    7  O12 UNL     1     -35.273   4.834   5.177  1.00 20.00    -0.298 OA
ENDROOT
BRANCH   6   8
HETATM    8  C10 UNL     1     -32.050   7.478   1.646  1.00 20.00     0.004 C 
BRANCH   8   9
HETATM    9  C11 UNL     1     -33.311   7.916   0.909  1.00 20.00    -0.004 C 
HETATM   10  C8  UNL     1     -32.975   8.812  -0.273  1.00 20.00     0.005 C 
ENDBRANCH   8   9
ENDBRANCH   6   8
BRANCH   5  11
HETATM   11  C9  UNL     1     -34.411   7.327   6.090  1.00 20.00     0.007 C 
HETATM   12  C7  UNL     1     -33.707   8.550   6.583  1.00 20.00     0.006 C 
ENDBRANCH   5  11
TORSDOF 3
