REMARK  3 active torsions:
REMARK  status: ('A' for Active; 'I' for Inactive)
REMARK    1  A    between atoms: C2_2  and  C9_9 
REMARK    2  A    between atoms: C6_6  and  C9_9 
REMARK    3  A    between atoms: C7_7  and  O10_10 
ROOT
HETATM    1  C3  UNL     1     -34.069   7.817   6.442  1.00 20.00     0.003 C 
HETATM    2  C4  UNL     1     -33.164   7.779   5.210  1.00 20.00     0.007 C 
HETATM    3  C5  UNL     1     -34.945   6.566   6.371  1.00 20.00     0.032 C 
HETATM    4  C6  UNL     1     -33.839   6.791   4.264  1.00 20.00     0.018 C 
HETATM    5  C7  UNL     1     -34.378   5.735   5.226  1.00 20.00     0.122 C 
ENDROOT
BRANCH   4   6
HETATM    6  C9  UNL     1     -32.894   6.224   3.216  1.00 20.00     0.034 C 
BRANCH   6   7
HETATM    7  C2  UNL     1     -32.356   7.303   2.323  1.00 20.00    -0.031 C 
HETATM    8  C1  UNL     1     -32.954   7.701   1.191  1.00 20.00    -0.035 C 
HETATM    9  C8  UNL     1     -32.417   8.770   0.298  1.00 20.00     0.036 C 
ENDBRANCH   6   7
ENDBRANCH   4   6
BRANCH   5  10
HETATM   10  O10 UNL     1     -35.378   4.946   4.612  1.00 20.00    -0.395 OA
HETATM   11  H26 UNL     1     -35.738   4.356   5.297  1.00 20.00     0.210 HD
ENDBRANCH   5  10
TORSDOF 3
