REMARK  1 active torsions:
REMARK  status: ('A' for Active; 'I' for Inactive)
REMARK    1  A    between atoms: C6_6  and  O10_10 
ROOT
HETATM    1  C1  UNL     1     -33.085   5.867   2.461  1.00 20.00     0.003 C 
HETATM    2  C2  UNL     1     -33.996   5.637   3.678  1.00 20.00     0.032 C 
HETATM    3  C3  UNL     1     -32.033   6.964   2.655  1.00 20.00     0.010 C 
HETATM    4  C4  UNL     1     -32.142   8.609   4.673  1.00 20.00     0.017 A 
HETATM    5  C5  UNL     1     -33.461   7.897   4.548  1.00 20.00     0.023 A 
HETATM    6  C6  UNL     1     -33.600   6.448   4.916  1.00 20.00     0.125 C 
HETATM    7  C7  UNL     1     -32.641   8.186   3.309  1.00 20.00    -0.038 A 
HETATM    8  C8  UNL     1     -33.133   9.247   2.366  1.00 20.00     0.015 C 
ENDROOT
BRANCH   6   9
HETATM    9  O10 UNL     1     -34.600   6.312   5.920  1.00 20.00    -0.390 OA
HETATM   10  C9  UNL     1     -34.457   5.089   6.623  1.00 20.00     0.202 C 
ENDBRANCH   6   9
TORSDOF 1
