REMARK  0 active torsions:
REMARK  status: ('A' for Active; 'I' for Inactive)
ROOT
HETATM    1  C1  UNL     1     -33.728   5.416   3.506  1.00 20.00    -0.082 C 
HETATM    2  C2  UNL     1     -34.171   4.305   2.898  1.00 20.00     0.015 C 
HETATM    3  C3  UNL     1     -32.312   5.912   3.320  1.00 20.00     0.038 C 
HETATM    4  C4  UNL     1     -34.646   7.685   3.803  1.00 20.00     0.018 C 
HETATM    5  C5  UNL     1     -32.829   8.268   5.390  1.00 20.00     0.173 C 
HETATM    6  C6  UNL     1     -34.634   6.268   4.382  1.00 20.00     0.043 C 
HETATM    7  C7  UNL     1     -33.229   8.260   3.904  1.00 20.00     0.014 C 
HETATM    8  C8  UNL     1     -32.240   7.429   3.036  1.00 20.00    -0.009 C 
HETATM    9  C9  UNL     1     -34.179   6.348   5.860  1.00 20.00     0.125 C 
HETATM   10  C10 UNL     1     -32.460   7.701   1.540  1.00 20.00     0.011 C 
HETATM   11  C11 UNL     1     -34.101   4.982   6.533  1.00 20.00     0.040 C 
HETATM   12  O12 UNL     1     -32.897   6.974   5.988  1.00 20.00    -0.385 OA
ENDROOT
TORSDOF 0
