REMARK  0 active torsions:
REMARK  status: ('A' for Active; 'I' for Inactive)
ROOT
HETATM    1  C1  UNL     1     -32.749   5.718   3.039  1.00 20.00    -0.029 C 
HETATM    2  C2  UNL     1     -33.786   5.250   3.751  1.00 20.00    -0.014 C 
HETATM    3  C3  UNL     1     -33.920   7.158   5.453  1.00 20.00     0.143 C 
HETATM    4  C4  UNL     1     -32.052   7.038   3.179  1.00 20.00     0.032 C 
HETATM    5  C5  UNL     1     -32.681   9.213   4.446  1.00 20.00     0.018 A 
HETATM    6  C6  UNL     1     -33.885   8.309   4.517  1.00 20.00     0.061 A 
HETATM    7  C7  UNL     1     -32.946   8.229   3.341  1.00 20.00     0.001 A 
HETATM    8  C8  UNL     1     -34.547   5.859   4.914  1.00 20.00     0.031 C 
HETATM    9  C9  UNL     1     -35.996   6.136   4.481  1.00 20.00     0.027 C 
HETATM   10  C10 UNL     1     -34.573   4.825   6.058  1.00 20.00     0.027 C 
HETATM   11  O11 UNL     1     -33.464   7.282   6.584  1.00 20.00    -0.296 OA
ENDROOT
TORSDOF 0
