REMARK  1 active torsions:
REMARK  status: ('A' for Active; 'I' for Inactive)
REMARK    1  A    between atoms: C6_6  and  O10_10 
ROOT
HETATM    1  C1  UNL     1     -33.944   5.631   6.500  1.00 20.00     0.003 C 
HETATM    2  C2  UNL     1     -34.930   5.353   5.369  1.00 20.00     0.032 C 
HETATM    3  C3  UNL     1     -33.731   7.134   6.672  1.00 20.00     0.010 C 
HETATM    4  C4  UNL     1     -32.343   7.392   4.489  1.00 20.00     0.017 A 
HETATM    5  C5  UNL     1     -33.777   7.182   4.057  1.00 20.00     0.023 A 
HETATM    6  C6  UNL     1     -34.375   5.805   4.017  1.00 20.00     0.125 C 
HETATM    7  C7  UNL     1     -33.466   7.871   5.375  1.00 20.00    -0.038 A 
HETATM    8  C8  UNL     1     -33.687   9.358   5.460  1.00 20.00     0.015 C 
ENDROOT
BRANCH   6   9
HETATM    9  O10 UNL     1     -33.398   4.876   3.552  1.00 20.00    -0.390 OA
HETATM   10  C9  UNL     1     -33.200   4.991   2.150  1.00 20.00     0.202 C 
ENDBRANCH   6   9
TORSDOF 1
