REMARK  0 active torsions:
REMARK  status: ('A' for Active; 'I' for Inactive)
ROOT
HETATM    1  C1  UNL     1     -32.943   5.808   3.091  1.00 20.00    -0.082 C 
HETATM    2  C2  UNL     1     -32.712   4.792   2.246  1.00 20.00     0.015 C 
HETATM    3  C3  UNL     1     -31.964   6.950   3.248  1.00 20.00     0.038 C 
HETATM    4  C4  UNL     1     -34.904   7.220   3.580  1.00 20.00     0.018 C 
HETATM    5  C5  UNL     1     -33.766   8.221   5.542  1.00 20.00     0.173 C 
HETATM    6  C6  UNL     1     -34.221   5.893   3.916  1.00 20.00     0.043 C 
HETATM    7  C7  UNL     1     -33.988   8.362   4.027  1.00 20.00     0.014 C 
HETATM    8  C8  UNL     1     -32.650   8.334   3.233  1.00 20.00    -0.009 C 
HETATM    9  C9  UNL     1     -33.913   5.807   5.430  1.00 20.00     0.125 C 
HETATM   10  C10 UNL     1     -32.859   8.807   1.787  1.00 20.00     0.011 C 
HETATM   11  C11 UNL     1     -35.161   5.564   6.279  1.00 20.00     0.040 C 
HETATM   12  O12 UNL     1     -33.210   6.960   5.911  1.00 20.00    -0.385 OA
ENDROOT
TORSDOF 0
