REMARK  1 active torsions:
REMARK  status: ('A' for Active; 'I' for Inactive)
REMARK    1  A    between atoms: C6_6  and  O8_8 
ROOT
HETATM    1  C1  UNL     1     -33.448   7.104   6.493  1.00 20.00    -0.023 C 
HETATM    2  C2  UNL     1     -34.463   6.222   6.538  1.00 20.00     0.001 C 
HETATM    3  C3  UNL     1     -32.100   7.545   4.167  1.00 20.00     0.009 C 
HETATM    4  C4  UNL     1     -33.081   6.883   3.112  1.00 20.00     0.009 C 
HETATM    5  C5  UNL     1     -33.312   7.488   5.088  1.00 20.00     0.015 C 
HETATM    6  C6  UNL     1     -34.917   5.835   5.136  1.00 20.00     0.145 C 
HETATM    7  C7  UNL     1     -33.641   6.125   4.352  1.00 20.00     0.026 C 
ENDROOT
BRANCH   6   8
HETATM    8  O8  UNL     1     -35.213   4.450   5.082  1.00 20.00    -0.391 OA
HETATM    9  H18 UNL     1     -35.924   4.286   5.725  1.00 20.00     0.210 HD
ENDBRANCH   6   8
TORSDOF 1
