REMARK  1 active torsions:
REMARK  status: ('A' for Active; 'I' for Inactive)
REMARK    1  A    between atoms: C8_8  and  O10_10 
ROOT
HETATM    1  C1  UNL     1     -33.619   7.705   5.152  1.00 20.00    -0.023 C 
HETATM    2  C2  UNL     1     -33.357   6.702   6.007  1.00 20.00     0.001 C 
HETATM    3  C3  UNL     1     -33.152   4.934   3.658  1.00 20.00     0.003 C 
HETATM    4  C4  UNL     1     -34.405   4.910   4.574  1.00 20.00     0.036 C 
HETATM    5  C5  UNL     1     -33.069   6.140   2.695  1.00 20.00     0.005 C 
HETATM    6  C6  UNL     1     -32.752   8.697   2.906  1.00 20.00     0.014 A 
HETATM    7  C7  UNL     1     -32.545   8.239   4.317  1.00 20.00     0.012 A 
HETATM    8  C8  UNL     1     -34.216   5.474   6.004  1.00 20.00     0.140 C 
HETATM    9  C9  UNL     1     -32.210   7.310   3.146  1.00 20.00    -0.006 A 
ENDROOT
BRANCH   8  10
HETATM   10  O10 UNL     1     -35.473   5.724   6.620  1.00 20.00    -0.392 OA
HETATM   11  H24 UNL     1     -35.973   4.892   6.583  1.00 20.00     0.210 HD
ENDBRANCH   8  10
TORSDOF 1
