REMARK  0 active torsions:
REMARK  status: ('A' for Active; 'I' for Inactive)
ROOT
HETATM    1  C1  UNL     1     -33.894   5.813   6.696  1.00 20.00    -0.030 C 
HETATM    2  C2  UNL     1     -34.016   7.132   6.876  1.00 20.00    -0.030 C 
HETATM    3  C3  UNL     1     -32.468   6.387   2.897  1.00 20.00     0.128 C 
HETATM    4  C4  UNL     1     -33.894   5.165   5.348  1.00 20.00     0.037 C 
HETATM    5  C5  UNL     1     -34.188   8.109   5.757  1.00 20.00     0.037 C 
HETATM    6  C6  UNL     1     -33.760   5.602   2.871  1.00 20.00     0.088 C 
HETATM    7  C7  UNL     1     -32.470   7.470   3.952  1.00 20.00     0.088 C 
HETATM    8  C8  UNL     1     -34.432   6.059   4.185  1.00 20.00    -0.026 C 
HETATM    9  C9  UNL     1     -33.969   7.549   4.332  1.00 20.00    -0.026 C 
HETATM   10  C10 UNL     1     -35.958   5.900   4.095  1.00 20.00     0.016 C 
HETATM   11  C11 UNL     1     -34.664   8.521   3.344  1.00 20.00     0.016 C 
HETATM   12  O12 UNL     1     -31.523   6.167   2.149  1.00 20.00    -0.298 OA
ENDROOT
TORSDOF 0
