REMARK  4 active torsions:
REMARK  status: ('A' for Active; 'I' for Inactive)
REMARK    1  A    between atoms: C1_1  and  C7_7 
REMARK    2  A    between atoms: C7_7  and  N10_10 
REMARK    3  A    between atoms: C8_8  and  C9_9 
REMARK    4  A    between atoms: C8_8  and  N10_10 
ROOT
HETATM    1  C2  UNL     1     -34.723   9.156   5.515  1.00 20.00     0.043 C 
HETATM    2  C8  UNL     1     -34.112   8.157   4.530  1.00 20.00     0.226 C 
ENDROOT
BRANCH   2   3
HETATM    3  C9  UNL     1     -32.773   8.616   3.866  1.00 20.00    -0.021 C 
HETATM    4  C3  UNL     1     -33.010   9.386   2.553  1.00 20.00     0.016 C 
HETATM    5  C4  UNL     1     -31.979   9.524   4.827  1.00 20.00     0.016 C 
HETATM    6  C5  UNL     1     -31.894   7.384   3.556  1.00 20.00     0.016 C 
ENDBRANCH   2   3
BRANCH   2   7
HETATM    7  N10 UNL     1     -33.964   6.877   5.192  1.00 20.00     0.095 N 
HETATM    8  C6  UNL     1     -33.510   7.051   6.576  1.00 20.00     0.310 C 
BRANCH   7   9
HETATM    9  C7  UNL     1     -35.224   6.126   5.170  1.00 20.00     0.341 C 
BRANCH   9  10
HETATM   10  C1  UNL     1     -34.909   4.665   5.325  1.00 20.00     0.261 C 
HETATM   11  O11 UNL     1     -33.854   4.171   4.936  1.00 20.00    -0.305 OA
ENDBRANCH   9  10
ENDBRANCH   7   9
ENDBRANCH   2   7
TORSDOF 4
