REMARK  4 active torsions:
REMARK  status: ('A' for Active; 'I' for Inactive)
REMARK    1  A    between atoms: C1_1  and  C3_3 
REMARK    2  A    between atoms: C3_3  and  N6_6 
REMARK    3  A    between atoms: C4_4  and  C5_5 
REMARK    4  A    between atoms: C4_4  and  N6_6 
ROOT
HETATM    1  C4  UNL     1     -33.694   7.451   3.338  1.00 20.00     0.389 C 
ENDROOT
BRANCH   1   2
HETATM    2  C5  UNL     1     -32.535   8.410   3.452  1.00 20.00     0.413 C 
HETATM    3  F8  UNL     1     -32.909   9.651   3.072  1.00 20.00    -0.169 F 
HETATM    4  F9  UNL     1     -32.084   8.489   4.722  1.00 20.00    -0.169 F 
HETATM    5  F10 UNL     1     -31.505   8.034   2.664  1.00 20.00    -0.169 F 
ENDBRANCH   1   2
BRANCH   1   6
HETATM    6  N6  UNL     1     -33.316   6.097   3.740  1.00 20.00     0.099 N 
HETATM    7  C2  UNL     1     -32.641   5.407   2.641  1.00 20.00     0.310 C 
BRANCH   6   8
HETATM    8  C3  UNL     1     -34.493   5.344   4.170  1.00 20.00     0.341 C 
BRANCH   8   9
HETATM    9  C1  UNL     1     -34.860   5.787   5.558  1.00 20.00     0.261 C 
HETATM   10  O7  UNL     1     -34.028   6.202   6.361  1.00 20.00    -0.305 OA
ENDBRANCH   8   9
ENDBRANCH   6   8
ENDBRANCH   1   6
TORSDOF 4
