REMARK  2 active torsions:
REMARK  status: ('A' for Active; 'I' for Inactive)
REMARK    1  A    between atoms: C2_2  and  C8_8 
REMARK    2  A    between atoms: C8_8  and  O9_9 
ROOT
HETATM    1  C3  UNL     1     -32.543   7.467   5.207  1.00 20.00     0.012 C 
HETATM    2  C4  UNL     1     -34.397   8.342   4.825  1.00 20.00     0.012 C 
HETATM    3  C5  UNL     1     -34.424   6.493   6.451  1.00 20.00     0.047 C 
HETATM    4  C6  UNL     1     -33.738   7.830   6.144  1.00 20.00    -0.010 C 
HETATM    5  C7  UNL     1     -33.733   7.028   4.286  1.00 20.00     0.024 C 
HETATM    6  C8  UNL     1     -34.445   5.894   5.033  1.00 20.00     0.079 C 
ENDROOT
BRANCH   6   7
HETATM    7  C2  UNL     1     -33.702   4.612   4.867  1.00 20.00     0.001 C 
HETATM    8  C1  UNL     1     -33.610   3.944   3.712  1.00 20.00     0.010 C 
ENDBRANCH   6   7
BRANCH   6   9
HETATM    9  O9  UNL     1     -35.762   5.721   4.530  1.00 20.00    -0.385 OA
HETATM   10  H21 UNL     1     -36.170   5.009   5.049  1.00 20.00     0.211 HD
ENDBRANCH   6   9
TORSDOF 2
