REMARK  1 active torsions:
REMARK  status: ('A' for Active; 'I' for Inactive)
REMARK    1  A    between atoms: C4_4  and  C7_7 
ROOT
HETATM    1  C1  UNL     1     -33.602   6.820   6.582  1.00 20.00     0.056 A 
HETATM    2  C2  UNL     1     -33.236   7.286   5.392  1.00 20.00     0.010 A 
HETATM    3  C3  UNL     1     -34.638   5.828   6.323  1.00 20.00     0.157 A 
HETATM    4  C4  UNL     1     -33.998   6.643   4.297  1.00 20.00     0.157 A 
HETATM    5  N8  UNL     1     -35.277   5.119   7.181  1.00 20.00    -0.278 NA
HETATM    6  O9  UNL     1     -34.869   5.732   4.983  1.00 20.00    -0.325 OA
HETATM    7  H20 UNL     1     -35.945   4.509   6.695  1.00 20.00     0.189 HD
ENDROOT
BRANCH   4   8
HETATM    8  C7  UNL     1     -33.118   5.867   3.332  1.00 20.00     0.011 C 
HETATM    9  C5  UNL     1     -33.961   5.197   2.245  1.00 20.00     0.012 C 
HETATM   10  C6  UNL     1     -32.066   6.780   2.700  1.00 20.00     0.012 C 
ENDBRANCH   4   8
TORSDOF 1
