REMARK  1 active torsions:
REMARK  status: ('A' for Active; 'I' for Inactive)
REMARK    1  A    between atoms: C10_10  and  O11_11 
ROOT
HETATM    1  C1  UNL     1     -31.547   7.543   4.147  1.00 20.00     0.011 A 
HETATM    2  C2  UNL     1     -34.303   7.086   5.820  1.00 20.00     0.013 A 
HETATM    3  C3  UNL     1     -32.818   4.722   2.184  1.00 20.00     0.013 A 
HETATM    4  C4  UNL     1     -32.848   8.253   3.881  1.00 20.00    -0.005 A 
HETATM    5  C5  UNL     1     -32.219   7.355   2.815  1.00 20.00    -0.005 A 
HETATM    6  C6  UNL     1     -34.188   7.959   4.590  1.00 20.00    -0.003 A 
HETATM    7  C7  UNL     1     -33.055   6.182   2.366  1.00 20.00    -0.003 A 
HETATM    8  C8  UNL     1     -35.083   6.711   4.588  1.00 20.00     0.019 A 
HETATM    9  C9  UNL     1     -33.428   5.206   3.468  1.00 20.00     0.019 A 
HETATM   10  C10 UNL     1     -34.842   5.394   3.879  1.00 20.00     0.127 C 
ENDROOT
BRANCH  10  11
HETATM   11  O11 UNL     1     -35.228   4.332   4.751  1.00 20.00    -0.395 OA
HETATM   12  H25 UNL     1     -36.169   4.463   4.943  1.00 20.00     0.210 HD
ENDBRANCH  10  11
TORSDOF 1
