REMARK  1 active torsions:
REMARK  status: ('A' for Active; 'I' for Inactive)
REMARK    1  A    between atoms: C3_3  and  C7_7 
ROOT
HETATM    1  C1  UNL     1     -33.513   6.768   3.829  1.00 20.00     0.034 A 
HETATM    2  C2  UNL     1     -33.263   8.269   5.585  1.00 20.00     0.058 A 
HETATM    3  C3  UNL     1     -33.779   7.052   5.199  1.00 20.00    -0.046 A 
HETATM    4  C4  UNL     1     -32.803   7.779   3.219  1.00 20.00     0.051 A 
HETATM    5  S8  UNL     1     -32.461   9.064   4.298  1.00 20.00    -0.094 SA
HETATM    6 BR9  UNL     1     -32.260   7.765   1.399  1.00 20.00    -0.043 Br
ENDROOT
BRANCH   3   7
HETATM    7  C7  UNL     1     -34.547   6.115   6.129  1.00 20.00     0.019 A 
HETATM    8  C5  UNL     1     -34.397   4.617   5.950  1.00 20.00     0.010 A 
HETATM    9  C6  UNL     1     -35.681   5.283   5.562  1.00 20.00     0.010 A 
ENDBRANCH   3   7
TORSDOF 1
