REMARK  2 active torsions:
REMARK  status: ('A' for Active; 'I' for Inactive)
REMARK    1  A    between atoms: C3_3  and  C6_6 
REMARK    2  A    between atoms: C3_3  and  O10_10 
ROOT
HETATM    1  C1  UNL     1     -34.981   5.526   6.485  1.00 20.00    -0.003 C 
HETATM    2  C2  UNL     1     -34.414   6.704   6.773  1.00 20.00     0.132 C 
HETATM    3  C4  UNL     1     -34.868   4.912   5.125  1.00 20.00     0.032 C 
HETATM    4  C5  UNL     1     -34.350   5.935   4.116  1.00 20.00     0.046 C 
HETATM    5  C6  UNL     1     -33.229   6.759   4.742  1.00 20.00     0.227 C 
HETATM    6  O9  UNL     1     -33.643   7.454   5.923  1.00 20.00    -0.348 OA
ENDROOT
BRANCH   5   7
HETATM    7  C3  UNL     1     -32.789   7.843   3.815  1.00 20.00     0.288 C 
HETATM    8  O8  UNL     1     -32.881   9.038   4.064  1.00 20.00    -0.262 OA
BRANCH   7   9
HETATM    9  O10 UNL     1     -32.283   7.291   2.675  1.00 20.00    -0.324 OA
HETATM   10  C7  UNL     1     -31.821   8.224   1.693  1.00 20.00     0.213 C 
ENDBRANCH   7   9
ENDBRANCH   5   7
TORSDOF 2
