REMARK  1 active torsions:
REMARK  status: ('A' for Active; 'I' for Inactive)
REMARK    1  A    between atoms: C4_4  and  C8_8 
ROOT
HETATM    1  C1  UNL     1     -33.429   8.343   4.222  1.00 20.00     0.012 A 
HETATM    2  C2  UNL     1     -32.697   8.678   3.089  1.00 20.00     0.040 A 
HETATM    3  C3  UNL     1     -33.423   6.079   3.494  1.00 20.00     0.125 A 
HETATM    4  C4  UNL     1     -33.803   7.021   4.436  1.00 20.00    -0.036 A 
HETATM    5  C5  UNL     1     -32.366   7.662   2.207  1.00 20.00     0.102 A 
HETATM    6  N9  UNL     1     -32.712   6.366   2.381  1.00 20.00    -0.253 NA
HETATM    7 BR10 UNL     1     -31.366   8.097   0.651  1.00 20.00    -0.029 Br
ENDROOT
BRANCH   4   8
HETATM    8  C8  UNL     1     -34.585   6.631   5.640  1.00 20.00     0.020 A 
HETATM    9  C6  UNL     1     -34.332   5.287   6.277  1.00 20.00     0.010 A 
HETATM   10  C7  UNL     1     -35.606   5.526   5.528  1.00 20.00     0.010 A 
ENDBRANCH   4   8
TORSDOF 1
