REMARK  0 active torsions:
REMARK  status: ('A' for Active; 'I' for Inactive)
ROOT
HETATM    1  C1  UNL     1     -33.094   5.782   3.373  1.00 20.00     0.069 C 
HETATM    2  C2  UNL     1     -32.839   8.889   5.386  1.00 20.00     0.007 C 
HETATM    3  C3  UNL     1     -32.468   8.059   4.153  1.00 20.00     0.025 C 
HETATM    4  C4  UNL     1     -34.096   8.247   5.969  1.00 20.00     0.070 C 
HETATM    5  C5  UNL     1     -33.997   5.204   7.023  1.00 20.00     0.197 C 
HETATM    6  C6  UNL     1     -35.200   4.984   6.144  1.00 20.00     0.197 C 
HETATM    7  C7  UNL     1     -33.577   7.014   4.007  1.00 20.00     0.155 C 
HETATM    8  C8  UNL     1     -34.072   6.813   5.442  1.00 20.00     0.180 C 
HETATM    9  N9  UNL     1     -32.712   4.807   2.871  1.00 20.00    -0.197 NA
HETATM   10  O10 UNL     1     -33.154   6.033   6.223  1.00 20.00    -0.352 OA
HETATM   11  O11 UNL     1     -35.379   6.241   5.493  1.00 20.00    -0.352 OA
ENDROOT
TORSDOF 0
