REMARK  0 active torsions:
REMARK  status: ('A' for Active; 'I' for Inactive)
ROOT
HETATM    1  C1  UNL     1     -32.980   6.205   3.408  1.00 20.00     0.136 C 
HETATM    2  C2  UNL     1     -34.559   5.150   5.305  1.00 20.00     0.018 A 
HETATM    3  C3  UNL     1     -32.843   8.707   2.821  1.00 20.00     0.018 A 
HETATM    4  C4  UNL     1     -33.204   8.705   6.842  1.00 20.00     0.011 A 
HETATM    5  C5  UNL     1     -34.164   6.143   4.273  1.00 20.00     0.060 A 
HETATM    6  C6  UNL     1     -32.205   7.482   3.418  1.00 20.00     0.060 A 
HETATM    7  C7  UNL     1     -33.782   6.345   5.747  1.00 20.00     0.002 A 
HETATM    8  C8  UNL     1     -32.485   8.705   4.288  1.00 20.00     0.002 A 
HETATM    9  C9  UNL     1     -34.159   7.741   6.200  1.00 20.00    -0.005 A 
HETATM   10  C10 UNL     1     -33.557   8.890   5.385  1.00 20.00    -0.005 A 
HETATM   11  O11 UNL     1     -32.662   5.269   2.686  1.00 20.00    -0.297 OA
ENDROOT
TORSDOF 0
