REMARK  1 active torsions:
REMARK  status: ('A' for Active; 'I' for Inactive)
REMARK    1  A    between atoms: C2_2  and  C6_6 
ROOT
HETATM    1  C1  UNL     1     -33.130   8.018   4.032  1.00 20.00     0.133 A 
HETATM    2  C2  UNL     1     -32.640   7.925   2.747  1.00 20.00     0.007 A 
HETATM    3  C3  UNL     1     -33.376   5.858   3.741  1.00 20.00     0.143 A 
HETATM    4  N7  UNL     1     -33.553   6.834   4.604  1.00 20.00    -0.245 NA
HETATM    5  S8  UNL     1     -32.704   6.293   2.223  1.00 20.00    -0.066 SA
HETATM    6 BR9  UNL     1     -33.842   4.052   4.155  1.00 20.00    -0.021 Br
ENDROOT
BRANCH   2   7
HETATM    7  C6  UNL     1     -32.114   9.100   1.905  1.00 20.00     0.027 A 
HETATM    8  C4  UNL     1     -33.018  10.289   1.679  1.00 20.00     0.010 A 
HETATM    9  C5  UNL     1     -32.730   9.351   0.549  1.00 20.00     0.010 A 
ENDBRANCH   2   7
TORSDOF 1
