REMARK  1 active torsions:
REMARK  status: ('A' for Active; 'I' for Inactive)
REMARK    1  A    between atoms: C5_5  and  C8_8 
ROOT
HETATM    1  C1  UNL     1     -31.976   7.298   1.497  1.00 20.00     0.047 C 
HETATM    2  C2  UNL     1     -32.092   7.055   2.808  1.00 20.00    -0.009 C 
HETATM    3  C3  UNL     1     -32.619   8.490   0.894  1.00 20.00     0.149 C 
HETATM    4  C6  UNL     1     -33.324   9.466   1.807  1.00 20.00     0.084 C 
HETATM    5  C7  UNL     1     -33.930   8.753   3.010  1.00 20.00     0.025 C 
HETATM    6  C8  UNL     1     -32.902   7.890   3.778  1.00 20.00    -0.003 C 
HETATM    7  C11 UNL     1     -31.944   8.771   4.596  1.00 20.00     0.024 C 
HETATM    8  O12 UNL     1     -32.515   8.694  -0.314  1.00 20.00    -0.293 OA
ENDROOT
BRANCH   6   9
HETATM    9  C5  UNL     1     -33.656   6.999   4.737  1.00 20.00    -0.076 C 
HETATM   10  C4  UNL     1     -34.066   5.770   4.370  1.00 20.00    -0.027 C 
HETATM   11  C9  UNL     1     -34.806   4.786   5.182  1.00 20.00     0.036 C 
HETATM   12  C10 UNL     1     -33.899   7.590   6.096  1.00 20.00     0.044 C 
ENDBRANCH   6   9
TORSDOF 1
