REMARK  1 active torsions:
REMARK  status: ('A' for Active; 'I' for Inactive)
REMARK    1  A    between atoms: C9_9  and  C10_10 
ROOT
HETATM    1  C1  UNL     1     -32.565   8.852   1.473  1.00 20.00     0.063 C 
HETATM    2  C10 UNL     1     -32.246   7.563   2.054  1.00 20.00     0.163 C 
HETATM    3  N11 UNL     1     -32.799   9.876   0.980  1.00 20.00    -0.197 NA
ENDROOT
BRANCH   2   4
HETATM    4  C9  UNL     1     -32.981   7.435   3.391  1.00 20.00    -0.033 A 
HETATM    5  C6  UNL     1     -33.394   8.386   4.409  1.00 20.00     0.021 A 
HETATM    6  C7  UNL     1     -33.917   7.376   5.114  1.00 20.00    -0.025 A 
HETATM    7  C4  UNL     1     -34.627   6.916   6.314  1.00 20.00     0.012 A 
HETATM    8  C8  UNL     1     -33.516   6.450   4.122  1.00 20.00    -0.019 A 
HETATM    9  C2  UNL     1     -34.878   5.594   6.427  1.00 20.00     0.001 A 
HETATM   10  C3  UNL     1     -34.464   4.634   5.398  1.00 20.00     0.001 A 
HETATM   11  C5  UNL     1     -33.809   5.020   4.283  1.00 20.00     0.013 A 
ENDBRANCH   2   4
TORSDOF 1
