REMARK  2 active torsions:
REMARK  status: ('A' for Active; 'I' for Inactive)
REMARK    1  A    between atoms: C5_5  and  C9_9 
REMARK    2  A    between atoms: C6_6  and  C10_10 
ROOT
HETATM    1  C1  UNL     1     -34.055   5.817   4.132  1.00 20.00     0.131 C 
HETATM    2  C2  UNL     1     -33.304   5.057   3.060  1.00 20.00     0.079 C 
HETATM    3  C3  UNL     1     -32.749   6.015   2.015  1.00 20.00     0.012 C 
HETATM    4  C4  UNL     1     -32.754   7.901   3.687  1.00 20.00     0.016 C 
HETATM    5  C5  UNL     1     -33.306   6.977   4.777  1.00 20.00     0.055 C 
HETATM    6  C6  UNL     1     -31.913   7.132   2.656  1.00 20.00    -0.014 C 
HETATM    7  O11 UNL     1     -35.166   5.448   4.508  1.00 20.00    -0.298 OA
ENDROOT
BRANCH   5   8
HETATM    8  C9  UNL     1     -34.193   7.754   5.745  1.00 20.00     0.007 C 
HETATM    9  C7  UNL     1     -34.746   6.872   6.817  1.00 20.00     0.006 C 
ENDBRANCH   5   8
BRANCH   6  10
HETATM   10  C10 UNL     1     -31.375   8.081   1.586  1.00 20.00     0.000 C 
HETATM   11  C8  UNL     1     -32.479   8.745   0.832  1.00 20.00     0.005 C 
ENDBRANCH   6  10
TORSDOF 2
