REMARK  0 active torsions:
REMARK  status: ('A' for Active; 'I' for Inactive)
ROOT
HETATM    1  C1  UNL     1     -34.022   5.835   4.371  1.00 20.00     0.050 C 
HETATM    2  C2  UNL     1     -34.178   6.473   5.544  1.00 20.00     0.003 C 
HETATM    3  C3  UNL     1     -32.962   6.188   3.380  1.00 20.00     0.027 C 
HETATM    4  C4  UNL     1     -32.213   9.349   4.504  1.00 20.00     0.056 A 
HETATM    5  C5  UNL     1     -33.095   8.579   3.552  1.00 20.00     0.133 A 
HETATM    6  C6  UNL     1     -33.494   8.742   4.987  1.00 20.00     0.108 A 
HETATM    7  C7  UNL     1     -35.111   5.894   6.578  1.00 20.00     0.068 C 
HETATM    8  C8  UNL     1     -32.313   5.006   2.690  1.00 20.00     0.070 C 
HETATM    9  N9  UNL     1     -32.527   7.350   3.021  1.00 20.00    -0.287 NA
HETATM   10  N10 UNL     1     -33.538   7.633   5.929  1.00 20.00    -0.387 N 
HETATM   11  H22 UNL     1     -33.562   7.838   6.924  1.00 20.00     0.159 HD
ENDROOT
TORSDOF 0
