REMARK  1 active torsions:
REMARK  status: ('A' for Active; 'I' for Inactive)
REMARK    1  A    between atoms: C10_10  and  O11_11 
ROOT
HETATM    1  C1  UNL     1     -32.484   8.652   4.342  1.00 20.00    -0.021 C 
HETATM    2  C2  UNL     1     -32.824   6.598   2.761  1.00 20.00    -0.021 C 
HETATM    3  C3  UNL     1     -33.479   8.683   5.256  1.00 20.00    -0.025 C 
HETATM    4  C4  UNL     1     -33.484   5.478   3.128  1.00 20.00    -0.022 C 
HETATM    5  C5  UNL     1     -34.736   6.420   6.310  1.00 20.00     0.041 C 
HETATM    6  C6  UNL     1     -32.117   7.243   3.920  1.00 20.00     0.035 C 
HETATM    7  C7  UNL     1     -34.077   7.331   5.305  1.00 20.00     0.016 C 
HETATM    8  C8  UNL     1     -33.355   5.175   4.607  1.00 20.00     0.042 C 
HETATM    9  C9  UNL     1     -32.798   6.508   5.048  1.00 20.00     0.015 C 
HETATM   10  C10 UNL     1     -34.594   5.053   5.552  1.00 20.00     0.127 C 
ENDROOT
BRANCH  10  11
HETATM   11  O11 UNL     1     -35.776   4.780   4.814  1.00 20.00    -0.395 OA
HETATM   12  H23 UNL     1     -36.505   4.739   5.455  1.00 20.00     0.210 HD
ENDBRANCH  10  11
TORSDOF 1
