REMARK  0 active torsions:
REMARK  status: ('A' for Active; 'I' for Inactive)
ROOT
HETATM    1  C1  UNL     1     -33.938   5.431   6.442  1.00 20.00     0.005 A 
HETATM    2  C2  UNL     1     -34.528   4.685   5.487  1.00 20.00     0.107 A 
HETATM    3  C3  UNL     1     -33.556   6.640   5.575  1.00 20.00     0.132 A 
HETATM    4  C4  UNL     1     -34.148   7.968   6.019  1.00 20.00     0.031 C 
HETATM    5  O5  UNL     1     -35.708   6.125   3.958  1.00 20.00    -0.223 OA
HETATM    6  O6  UNL     1     -33.444   5.040   3.364  1.00 20.00    -0.223 OA
HETATM    7  S7  UNL     1     -34.303   5.871   4.175  1.00 20.00     0.172 S 
ENDROOT
TORSDOF 0
