REMARK  0 active torsions:
REMARK  status: ('A' for Active; 'I' for Inactive)
ROOT
HETATM    1  C1  UNL     1     -32.646   5.671   3.033  1.00 20.00    -0.029 C 
HETATM    2  C2  UNL     1     -33.421   5.161   4.013  1.00 20.00    -0.014 C 
HETATM    3  C3  UNL     1     -33.709   7.149   5.770  1.00 20.00     0.143 C 
HETATM    4  C4  UNL     1     -32.197   7.093   2.785  1.00 20.00     0.032 C 
HETATM    5  C5  UNL     1     -32.275   9.105   4.609  1.00 20.00     0.018 A 
HETATM    6  C6  UNL     1     -32.523   7.732   5.134  1.00 20.00     0.061 A 
HETATM    7  C7  UNL     1     -32.847   8.069   3.691  1.00 20.00     0.001 A 
HETATM    8  C8  UNL     1     -34.136   5.755   5.236  1.00 20.00     0.031 C 
HETATM    9  C9  UNL     1     -35.637   5.826   4.907  1.00 20.00     0.027 C 
HETATM   10  C10 UNL     1     -33.922   4.785   6.416  1.00 20.00     0.027 C 
HETATM   11  O11 UNL     1     -34.281   7.744   6.675  1.00 20.00    -0.296 OA
ENDROOT
TORSDOF 0
