REMARK  3 active torsions:
REMARK  status: ('A' for Active; 'I' for Inactive)
REMARK    1  A    between atoms: C6_6  and  N10_10 
REMARK    2  A    between atoms: C7_7  and  C8_8 
REMARK    3  A    between atoms: C7_7  and  N10_10 
ROOT
HETATM    1  C1  UNL     1     -32.395   8.157   2.365  1.00 20.00     0.086 C 
HETATM    2  C6  UNL     1     -32.327   8.505   3.782  1.00 20.00     0.357 C 
HETATM    3  N9  UNL     1     -32.447   7.883   1.239  1.00 20.00    -0.196 NA
ENDROOT
BRANCH   2   4
HETATM    4  N10 UNL     1     -33.355   7.711   4.550  1.00 20.00    -0.062 N 
HETATM    5  C5  UNL     1     -33.756   8.422   5.820  1.00 20.00     0.270 C 
HETATM    6  H27 UNL     1     -34.202   7.689   3.956  1.00 20.00     0.280 HD
BRANCH   4   7
HETATM    7  C7  UNL     1     -32.931   6.310   4.790  1.00 20.00     0.243 C 
BRANCH   7   8
HETATM    8  C8  UNL     1     -34.127   5.359   5.007  1.00 20.00    -0.027 C 
HETATM    9  C2  UNL     1     -33.812   3.938   4.509  1.00 20.00     0.016 C 
HETATM   10  C3  UNL     1     -34.411   5.295   6.520  1.00 20.00     0.016 C 
HETATM   11  C4  UNL     1     -35.390   5.875   4.296  1.00 20.00     0.016 C 
ENDBRANCH   7   8
ENDBRANCH   4   7
ENDBRANCH   2   4
TORSDOF 3
