REMARK  0 active torsions:
REMARK  status: ('A' for Active; 'I' for Inactive)
ROOT
HETATM    1  C1  UNL     1     -33.403   8.097   5.930  1.00 20.00     0.052 A 
HETATM    2  C2  UNL     1     -33.282   7.271   3.270  1.00 20.00     0.126 A 
HETATM    3  C3  UNL     1     -34.030   6.947   5.518  1.00 20.00    -0.043 A 
HETATM    4  C4  UNL     1     -33.973   6.523   4.185  1.00 20.00    -0.028 A 
HETATM    5  C5  UNL     1     -32.732   8.795   4.935  1.00 20.00     0.126 A 
HETATM    6  C6  UNL     1     -35.818   5.540   5.139  1.00 20.00     0.020 C 
HETATM    7  C7  UNL     1     -33.966   4.627   6.342  1.00 20.00     0.030 C 
HETATM    8  C8  UNL     1     -34.829   5.908   6.266  1.00 20.00     0.021 C 
HETATM    9  C9  UNL     1     -34.722   5.220   4.097  1.00 20.00     0.040 C 
HETATM   10  C10 UNL     1     -33.957   4.118   4.869  1.00 20.00     0.091 C 
HETATM   11  N11 UNL     1     -32.656   8.417   3.624  1.00 20.00    -0.248 NA
HETATM   12 CL12 UNL     1     -31.903  10.255   5.298  1.00 20.00    -0.062 Cl
HETATM   13 CL13 UNL     1     -32.321   3.820   4.252  1.00 20.00    -0.124 Cl
ENDROOT
TORSDOF 0
