REMARK  3 active torsions:
REMARK  status: ('A' for Active; 'I' for Inactive)
REMARK    1  A    between atoms: C6_6  and  C7_7 
REMARK    2  A    between atoms: C8_8  and  C10_10 
REMARK    3  A    between atoms: C9_9  and  C11_11 
ROOT
HETATM    1  C1  UNL     1     -32.250   8.194   4.823  1.00 20.00    -0.021 C 
HETATM    2  C2  UNL     1     -31.471   7.413   4.033  1.00 20.00    -0.020 C 
HETATM    3  C5  UNL     1     -33.795   8.652   2.987  1.00 20.00    -0.003 C 
HETATM    4  C6  UNL     1     -32.899   8.054   2.168  1.00 20.00     0.024 C 
HETATM    5  C8  UNL     1     -33.757   8.145   4.431  1.00 20.00     0.039 C 
HETATM    6  C9  UNL     1     -32.181   6.836   2.806  1.00 20.00     0.056 C 
ENDROOT
BRANCH   4   7
HETATM    7  C7  UNL     1     -32.713   8.452   0.728  1.00 20.00     0.205 C 
HETATM    8  O12 UNL     1     -32.951   9.667   0.464  1.00 20.00    -0.644 OA
HETATM    9  O13 UNL     1     -32.340   7.523  -0.049  1.00 20.00    -0.644 OA
ENDBRANCH   4   7
BRANCH   6  10
HETATM   10  C11 UNL     1     -33.445   6.024   3.165  1.00 20.00     0.029 C 
HETATM   11  C4  UNL     1     -33.905   4.762   3.845  1.00 20.00    -0.024 C 
HETATM   12  C3  UNL     1     -34.955   5.518   4.351  1.00 20.00    -0.024 C 
HETATM   13  C10 UNL     1     -33.947   6.618   4.549  1.00 20.00     0.028 C 
ENDBRANCH   6  10
TORSDOF 3
