REMARK  1 active torsions:
REMARK  status: ('A' for Active; 'I' for Inactive)
REMARK    1  A    between atoms: C4_4  and  C11_11 
ROOT
HETATM    1  C1  UNL     1     -33.311   5.652   2.801  1.00 20.00     0.027 A 
HETATM    2  C2  UNL     1     -33.563   6.902   4.840  1.00 20.00     0.034 A 
HETATM    3  C3  UNL     1     -34.085   4.658   3.377  1.00 20.00     0.117 A 
HETATM    4  C4  UNL     1     -33.049   6.792   3.553  1.00 20.00    -0.047 A 
HETATM    5  C5  UNL     1     -34.326   5.852   5.326  1.00 20.00     0.030 A 
HETATM    6  C12 UNL     1     -34.894   5.936   6.703  1.00 20.00     0.070 C 
HETATM    7  N13 UNL     1     -34.602   4.729   4.625  1.00 20.00    -0.266 NA
ENDROOT
BRANCH   4   8
HETATM    8  C11 UNL     1     -32.203   7.915   2.969  1.00 20.00     0.041 C 
HETATM    9  C7  UNL     1     -31.639   7.582   1.609  1.00 20.00    -0.021 C 
HETATM   10  C6  UNL     1     -31.959   8.250   0.491  1.00 20.00    -0.030 C 
HETATM   11  C8  UNL     1     -32.942   9.380   0.457  1.00 20.00     0.027 C 
HETATM   12  C9  UNL     1     -33.792   9.489   1.724  1.00 20.00     0.005 C 
HETATM   13  C10 UNL     1     -32.957   9.263   2.984  1.00 20.00     0.013 C 
ENDBRANCH   4   8
TORSDOF 1
