REMARK  3 active torsions:
REMARK  status: ('A' for Active; 'I' for Inactive)
REMARK    1  A    between atoms: C3_3  and  C7_7 
REMARK    2  A    between atoms: C6_6  and  N9_9 
REMARK    3  A    between atoms: C7_7  and  N9_9 
ROOT
HETATM    1  C1  UNL     1     -34.440   6.366   4.888  1.00 20.00     0.089 C 
HETATM    2  C6  UNL     1     -34.061   7.769   4.732  1.00 20.00     0.395 C 
HETATM    3  N8  UNL     1     -34.744   5.253   5.012  1.00 20.00    -0.195 NA
ENDROOT
BRANCH   2   4
HETATM    4  N9  UNL     1     -32.611   7.900   4.512  1.00 20.00     0.100 N 
HETATM    5  C5  UNL     1     -32.265   9.322   4.360  1.00 20.00     0.311 C 
BRANCH   4   6
HETATM    6  C7  UNL     1     -32.182   7.132   3.376  1.00 20.00     0.300 C 
BRANCH   6   7
HETATM    7  C3  UNL     1     -32.849   7.656   2.147  1.00 20.00    -0.002 C 
HETATM    8  C2  UNL     1     -32.183   8.149   1.093  1.00 20.00    -0.033 C 
HETATM    9  C4  UNL     1     -32.844   8.668  -0.141  1.00 20.00     0.036 C 
ENDBRANCH   6   7
ENDBRANCH   4   6
ENDBRANCH   2   4
TORSDOF 3
