REMARK  0 active torsions:
REMARK  status: ('A' for Active; 'I' for Inactive)
ROOT
HETATM    1  C1  UNL     1     -33.172   8.972   1.535  1.00 20.00     0.064 C 
HETATM    2  C2  UNL     1     -33.639   5.325   2.951  1.00 20.00    -0.030 C 
HETATM    3  C3  UNL     1     -32.537   5.806   2.365  1.00 20.00    -0.030 C 
HETATM    4  C4  UNL     1     -34.127   5.830   4.272  1.00 20.00     0.037 C 
HETATM    5  C5  UNL     1     -31.688   6.860   2.998  1.00 20.00     0.038 C 
HETATM    6  C6  UNL     1     -33.696   9.184   6.191  1.00 20.00     0.001 C 
HETATM    7  C7  UNL     1     -32.276   9.553   5.768  1.00 20.00     0.001 C 
HETATM    8  C8  UNL     1     -34.058   7.731   5.916  1.00 20.00     0.011 C 
HETATM    9  C9  UNL     1     -31.587   8.547   4.848  1.00 20.00     0.012 C 
HETATM   10  C10 UNL     1     -34.665   8.193   3.415  1.00 20.00     0.030 C 
HETATM   11  C11 UNL     1     -33.380   8.919   2.968  1.00 20.00     0.103 C 
HETATM   12  C12 UNL     1     -33.853   7.339   4.439  1.00 20.00    -0.027 C 
HETATM   13  C13 UNL     1     -32.518   7.892   3.802  1.00 20.00    -0.013 C 
HETATM   14  N14 UNL     1     -33.006   9.014   0.387  1.00 20.00    -0.197 NA
ENDROOT
TORSDOF 0
