REMARK  2 active torsions:
REMARK  status: ('A' for Active; 'I' for Inactive)
REMARK    1  A    between atoms: C7_7  and  C9_9 
REMARK    2  A    between atoms: C8_8  and  C9_9 
ROOT
HETATM    1  C1  UNL     1     -33.992   4.012   3.976  1.00 20.00     0.012 C 
HETATM    2  C2  UNL     1     -34.234   4.410   5.082  1.00 20.00    -0.117 C 
HETATM    3  C8  UNL     1     -34.528   4.894   6.438  1.00 20.00     0.093 C 
ENDROOT
BRANCH   3   4
HETATM    4  C9  UNL     1     -34.807   6.387   6.420  1.00 20.00     0.017 C 
BRANCH   4   5
HETATM    5  C7  UNL     1     -33.610   7.161   5.893  1.00 20.00    -0.006 C 
HETATM    6  C5  UNL     1     -33.544   7.184   4.364  1.00 20.00     0.082 C 
HETATM    7  C3  UNL     1     -32.766   8.449   4.110  1.00 20.00     0.127 C 
HETATM    8  C4  UNL     1     -32.632   9.297   5.348  1.00 20.00     0.079 C 
HETATM    9  O10 UNL     1     -32.294   8.753   3.022  1.00 20.00    -0.298 OA
HETATM   10  C6  UNL     1     -33.639   8.639   6.284  1.00 20.00     0.012 C 
ENDBRANCH   4   5
ENDBRANCH   3   4
TORSDOF 2
