REMARK  2 active torsions:
REMARK  status: ('A' for Active; 'I' for Inactive)
REMARK    1  A    between atoms: C6_6  and  C10_10 
REMARK    2  A    between atoms: C10_10  and  O11_11 
ROOT
HETATM    1  C1  UNL     1     -32.696   7.903   3.073  1.00 20.00    -0.024 C 
HETATM    2  C2  UNL     1     -33.004   6.795   3.773  1.00 20.00    -0.081 C 
HETATM    3  C3  UNL     1     -32.637   9.280   3.662  1.00 20.00     0.027 C 
HETATM    4  C4  UNL     1     -32.606   9.272   5.188  1.00 20.00     0.004 C 
HETATM    5  C5  UNL     1     -33.632   8.292   5.741  1.00 20.00     0.012 C 
HETATM    6  C6  UNL     1     -33.367   6.853   5.251  1.00 20.00     0.042 C 
HETATM    7  C7  UNL     1     -32.947   5.442   3.119  1.00 20.00     0.043 C 
ENDROOT
BRANCH   6   8
HETATM    8  C10 UNL     1     -34.577   5.983   5.608  1.00 20.00     0.124 C 
HETATM    9  C8  UNL     1     -35.635   6.031   4.522  1.00 20.00     0.040 C 
BRANCH   8  10
HETATM   10  O11 UNL     1     -34.139   4.644   5.789  1.00 20.00    -0.390 OA
HETATM   11  C9  UNL     1     -33.561   4.452   7.073  1.00 20.00     0.202 C 
ENDBRANCH   8  10
ENDBRANCH   6   8
TORSDOF 2
