REMARK  0 active torsions:
REMARK  status: ('A' for Active; 'I' for Inactive)
ROOT
HETATM    1  C1  UNL     1     -33.633   6.499   6.514  1.00 20.00    -0.023 C 
HETATM    2  C2  UNL     1     -34.102   5.397   5.898  1.00 20.00    -0.013 C 
HETATM    3  C3  UNL     1     -33.396   5.944   3.517  1.00 20.00     0.140 C 
HETATM    4  C4  UNL     1     -32.348   7.031   3.661  1.00 20.00     0.088 C 
HETATM    5  C5  UNL     1     -34.093   7.441   5.410  1.00 20.00     0.035 C 
HETATM    6  C6  UNL     1     -34.481   6.146   4.634  1.00 20.00     0.042 C 
HETATM    7  C7  UNL     1     -33.038   8.133   4.508  1.00 20.00    -0.033 C 
HETATM    8  C8  UNL     1     -35.918   6.017   4.170  1.00 20.00     0.029 C 
HETATM    9  C9  UNL     1     -32.021   8.903   5.355  1.00 20.00     0.016 C 
HETATM   10  C10 UNL     1     -33.765   9.123   3.579  1.00 20.00     0.016 C 
HETATM   11  O11 UNL     1     -33.320   5.052   2.680  1.00 20.00    -0.297 OA
ENDROOT
TORSDOF 0
