REMARK  0 active torsions:
REMARK  status: ('A' for Active; 'I' for Inactive)
ROOT
HETATM    1  C1  UNL     1     -35.139   8.057   4.614  1.00 20.00    -0.002 C 
HETATM    2  C2  UNL     1     -33.448   7.358   6.332  1.00 20.00    -0.002 C 
HETATM    3  C3  UNL     1     -35.965   7.001   4.562  1.00 20.00    -0.022 C 
HETATM    4  C4  UNL     1     -33.873   6.136   6.689  1.00 20.00    -0.022 C 
HETATM    5  C5  UNL     1     -33.251   5.802   3.673  1.00 20.00     0.079 C 
HETATM    6  C6  UNL     1     -33.687   7.936   4.970  1.00 20.00     0.128 C 
HETATM    7  C7  UNL     1     -35.624   5.596   4.819  1.00 20.00     0.028 A 
HETATM    8  C8  UNL     1     -34.606   5.174   5.854  1.00 20.00     0.028 A 
HETATM    9  C9  UNL     1     -34.299   5.010   4.381  1.00 20.00     0.063 A 
HETATM   10  N10 UNL     1     -33.003   7.126   3.967  1.00 20.00    -0.373 N 
HETATM   11  S11 UNL     1     -32.383   4.997   2.492  1.00 20.00    -0.065 SA
HETATM   12  H20 UNL     1     -32.271   7.583   3.432  1.00 20.00     0.161 HD
ENDROOT
TORSDOF 0
