REMARK  3 active torsions:
REMARK  status: ('A' for Active; 'I' for Inactive)
REMARK    1  A    between atoms: C6_6  and  C7_7 
REMARK    2  A    between atoms: C8_8  and  C10_10 
REMARK    3  A    between atoms: C9_9  and  C11_11 
ROOT
HETATM    1  C1  UNL     1     -34.962   5.650   6.703  1.00 20.00    -0.021 C 
HETATM    2  C2  UNL     1     -33.712   6.026   7.054  1.00 20.00    -0.020 C 
HETATM    3  C5  UNL     1     -34.752   6.908   4.591  1.00 20.00    -0.003 C 
HETATM    4  C6  UNL     1     -33.507   7.274   4.946  1.00 20.00     0.024 C 
HETATM    5  C8  UNL     1     -35.192   5.574   5.190  1.00 20.00     0.039 C 
HETATM    6  C9  UNL     1     -32.784   6.299   5.865  1.00 20.00     0.056 C 
ENDROOT
BRANCH   4   7
HETATM    7  C7  UNL     1     -32.879   8.550   4.452  1.00 20.00     0.205 C 
HETATM    8  O12 UNL     1     -32.762   8.648   3.194  1.00 20.00    -0.644 OA
HETATM    9  O13 UNL     1     -32.542   9.375   5.352  1.00 20.00    -0.644 OA
ENDBRANCH   4   7
BRANCH   6  10
HETATM   10  C11 UNL     1     -32.721   4.919   5.134  1.00 20.00     0.029 A 
HETATM   11  C4  UNL     1     -32.406   4.854   3.650  1.00 20.00    -0.024 A 
HETATM   12  C3  UNL     1     -33.653   4.482   3.298  1.00 20.00    -0.024 A 
HETATM   13  C10 UNL     1     -34.177   4.482   4.724  1.00 20.00     0.028 A 
ENDBRANCH   6  10
TORSDOF 3
