REMARK  1 active torsions:
REMARK  status: ('A' for Active; 'I' for Inactive)
REMARK    1  A    between atoms: C10_10  and  O12_12 
ROOT
HETATM    1  C1  UNL     1     -35.301   5.592   4.108  1.00 20.00     0.011 A 
HETATM    2  C2  UNL     1     -32.852   6.997   2.349  1.00 20.00     0.013 A 
HETATM    3  C3  UNL     1     -34.401   7.227   6.860  1.00 20.00     0.013 A 
HETATM    4  C4  UNL     1     -33.938   5.034   3.800  1.00 20.00    -0.005 A 
HETATM    5  C5  UNL     1     -34.430   5.107   5.235  1.00 20.00    -0.005 A 
HETATM    6  C6  UNL     1     -32.737   5.825   3.292  1.00 20.00    -0.003 A 
HETATM    7  C7  UNL     1     -33.769   5.978   6.298  1.00 20.00    -0.003 A 
HETATM    8  C8  UNL     1     -32.317   7.210   3.738  1.00 20.00     0.020 A 
HETATM    9  C9  UNL     1     -33.120   7.329   6.079  1.00 20.00     0.020 A 
HETATM   10  C10 UNL     1     -33.106   7.999   4.739  1.00 20.00     0.129 C 
ENDROOT
BRANCH  10  11
HETATM   11  O12 UNL     1     -32.502   9.289   4.870  1.00 20.00    -0.390 OA
HETATM   12  C11 UNL     1     -32.078   9.787   3.612  1.00 20.00     0.202 C 
ENDBRANCH  10  11
TORSDOF 1
