REMARK  0 active torsions:
REMARK  status: ('A' for Active; 'I' for Inactive)
ROOT
HETATM    1  C1  UNL     1     -34.035   8.273   5.952  1.00 20.00    -0.021 C 
HETATM    2  C2  UNL     1     -34.759   5.595   5.743  1.00 20.00    -0.021 C 
HETATM    3  C3  UNL     1     -33.123   8.829   5.114  1.00 20.00    -0.018 C 
HETATM    4  C4  UNL     1     -34.343   4.816   4.697  1.00 20.00    -0.024 C 
HETATM    5  C5  UNL     1     -32.529   7.414   2.697  1.00 20.00     0.135 C 
HETATM    6  C6  UNL     1     -32.682   5.864   2.604  1.00 20.00     0.087 C 
HETATM    7  C7  UNL     1     -34.540   7.026   5.350  1.00 20.00     0.036 C 
HETATM    8  C8  UNL     1     -32.502   7.853   4.161  1.00 20.00     0.083 C 
HETATM    9  C9  UNL     1     -33.799   5.723   3.613  1.00 20.00     0.021 C 
HETATM   10  C10 UNL     1     -33.248   6.657   4.666  1.00 20.00     0.020 C 
HETATM   11  O11 UNL     1     -32.374   8.159   1.741  1.00 20.00    -0.297 OA
ENDROOT
TORSDOF 0
