REMARK  1 active torsions:
REMARK  status: ('A' for Active; 'I' for Inactive)
REMARK    1  A    between atoms: C3_3  and  C7_7 
ROOT
HETATM    1  C1  UNL     1     -33.521   5.117   3.746  1.00 20.00     0.259 C 
HETATM    2  C4  UNL     1     -34.447   4.493   4.759  1.00 20.00     0.111 C 
HETATM    3  C5  UNL     1     -34.346   5.084   6.150  1.00 20.00     0.013 C 
HETATM    4  C6  UNL     1     -34.410   6.596   6.061  1.00 20.00     0.037 C 
HETATM    5  C7  UNL     1     -33.246   7.073   5.208  1.00 20.00     0.154 C 
HETATM    6  O8  UNL     1     -33.170   4.500   2.742  1.00 20.00    -0.265 OA
HETATM    7  O9  UNL     1     -33.198   6.421   3.919  1.00 20.00    -0.312 OA
ENDROOT
BRANCH   5   8
HETATM    8  C3  UNL     1     -33.322   8.545   4.973  1.00 20.00    -0.005 C 
HETATM    9  C2  UNL     1     -32.367   9.410   5.332  1.00 20.00     0.009 C 
ENDBRANCH   5   8
TORSDOF 1
