REMARK  0 active torsions:
REMARK  status: ('A' for Active; 'I' for Inactive)
ROOT
HETATM    1  C1  UNL     1     -34.148   5.911   6.893  1.00 20.00    -0.017 C 
HETATM    2  C2  UNL     1     -34.717   7.060   6.406  1.00 20.00    -0.019 C 
HETATM    3  C3  UNL     1     -33.072   4.520   4.813  1.00 20.00     0.136 C 
HETATM    4  C4  UNL     1     -33.283   4.553   3.289  1.00 20.00     0.083 C 
HETATM    5  C5  UNL     1     -31.816   8.971   3.146  1.00 20.00     0.000 C 
HETATM    6  C6  UNL     1     -32.434   8.173   1.993  1.00 20.00     0.000 C 
HETATM    7  C7  UNL     1     -32.534   8.930   4.497  1.00 20.00     0.001 C 
HETATM    8  C8  UNL     1     -32.389   6.655   2.178  1.00 20.00     0.005 C 
HETATM    9  C9  UNL     1     -32.550   7.551   5.162  1.00 20.00     0.014 C 
HETATM   10  C10 UNL     1     -34.556   6.835   3.687  1.00 20.00     0.019 C 
HETATM   11  C11 UNL     1     -34.139   5.360   5.495  1.00 20.00     0.090 C 
HETATM   12  C12 UNL     1     -33.664   5.972   2.731  1.00 20.00    -0.007 C 
HETATM   13  C13 UNL     1     -33.943   6.866   5.085  1.00 20.00    -0.009 C 
HETATM   14  O14 UNL     1     -32.194   3.850   5.348  1.00 20.00    -0.297 OA
ENDROOT
TORSDOF 0
