REMARK  0 active torsions:
REMARK  status: ('A' for Active; 'I' for Inactive)
ROOT
HETATM    1  C1  UNL     1     -33.882   7.881   6.107  1.00 20.00    -0.023 C 
HETATM    2  C2  UNL     1     -32.972   8.589   5.349  1.00 20.00    -0.013 C 
HETATM    3  C3  UNL     1     -32.719   6.956   3.086  1.00 20.00     0.140 C 
HETATM    4  C4  UNL     1     -33.379   5.554   3.156  1.00 20.00     0.088 C 
HETATM    5  C5  UNL     1     -33.557   6.690   5.261  1.00 20.00     0.035 C 
HETATM    6  C6  UNL     1     -33.478   7.829   4.119  1.00 20.00     0.042 C 
HETATM    7  C7  UNL     1     -34.227   5.559   4.497  1.00 20.00    -0.033 C 
HETATM    8  C8  UNL     1     -34.575   8.637   3.409  1.00 20.00     0.029 C 
HETATM    9  C9  UNL     1     -35.731   5.729   4.296  1.00 20.00     0.016 C 
HETATM   10  C10 UNL     1     -34.005   4.238   5.256  1.00 20.00     0.016 C 
HETATM   11  O11 UNL     1     -31.813   7.253   2.320  1.00 20.00    -0.297 OA
ENDROOT
TORSDOF 0
