REMARK  1 active torsions:
REMARK  status: ('A' for Active; 'I' for Inactive)
REMARK    1  A    between atoms: C3_3  and  C8_8 
ROOT
HETATM    1  C1  UNL     1     -33.579   6.600   5.444  1.00 20.00     0.147 C 
HETATM    2  C4  UNL     1     -32.964   5.238   2.966  1.00 20.00     0.007 C 
HETATM    3  C5  UNL     1     -32.327   6.589   3.349  1.00 20.00     0.022 C 
HETATM    4  C6  UNL     1     -34.711   6.745   3.422  1.00 20.00     0.027 C 
HETATM    5  C7  UNL     1     -34.336   5.277   3.679  1.00 20.00     0.002 C 
HETATM    6  C8  UNL     1     -33.458   7.298   4.098  1.00 20.00     0.038 C 
HETATM    7  C9  UNL     1     -34.197   5.217   5.237  1.00 20.00     0.018 C 
HETATM    8  C10 UNL     1     -35.556   5.126   5.937  1.00 20.00     0.023 C 
HETATM    9  C11 UNL     1     -33.273   4.113   5.744  1.00 20.00     0.023 C 
HETATM   10  O12 UNL     1     -33.213   7.048   6.521  1.00 20.00    -0.296 OA
ENDROOT
BRANCH   6  11
HETATM   11  C3  UNL     1     -33.362   8.771   4.202  1.00 20.00    -0.020 C 
HETATM   12  C2  UNL     1     -32.390   9.413   4.859  1.00 20.00     0.008 C 
ENDBRANCH   6  11
TORSDOF 1
