REMARK  0 active torsions:
REMARK  status: ('A' for Active; 'I' for Inactive)
ROOT
HETATM    1  C1  UNL     1     -32.913   7.671   3.693  1.00 20.00    -0.010 C 
HETATM    2  C2  UNL     1     -32.926   8.265   5.060  1.00 20.00     0.155 C 
HETATM    3  C3  UNL     1     -32.788   8.496   2.645  1.00 20.00    -0.078 C 
HETATM    4  C4  UNL     1     -33.067   6.183   3.582  1.00 20.00     0.051 C 
HETATM    5  C5  UNL     1     -33.840   7.623   6.081  1.00 20.00     0.084 C 
HETATM    6  C6  UNL     1     -33.912   6.104   5.947  1.00 20.00     0.017 C 
HETATM    7  C7  UNL     1     -34.173   5.621   4.503  1.00 20.00    -0.043 C 
HETATM    8  C8  UNL     1     -32.766   7.989   1.232  1.00 20.00     0.043 C 
HETATM    9  C9  UNL     1     -32.662   9.982   2.814  1.00 20.00     0.043 C 
HETATM   10  C10 UNL     1     -34.116   4.082   4.473  1.00 20.00     0.015 C 
HETATM   11  C11 UNL     1     -35.569   6.058   4.017  1.00 20.00     0.015 C 
HETATM   12  O12 UNL     1     -32.282   9.278   5.328  1.00 20.00    -0.293 OA
ENDROOT
TORSDOF 0
