REMARK  0 active torsions:
REMARK  status: ('A' for Active; 'I' for Inactive)
ROOT
HETATM    1  C1  UNL     1     -33.974   5.386   6.059  1.00 20.00    -0.029 C 
HETATM    2  C2  UNL     1     -34.229   5.069   4.779  1.00 20.00    -0.014 C 
HETATM    3  C3  UNL     1     -32.992   7.029   3.690  1.00 20.00     0.143 C 
HETATM    4  C4  UNL     1     -33.298   6.615   6.590  1.00 20.00     0.032 C 
HETATM    5  C5  UNL     1     -32.701   8.887   5.489  1.00 20.00     0.018 A 
HETATM    6  C6  UNL     1     -33.556   8.140   4.498  1.00 20.00     0.061 A 
HETATM    7  C7  UNL     1     -33.734   7.911   5.977  1.00 20.00     0.001 A 
HETATM    8  C8  UNL     1     -33.900   5.801   3.491  1.00 20.00     0.031 C 
HETATM    9  C9  UNL     1     -33.176   4.812   2.555  1.00 20.00     0.027 C 
HETATM   10  C10 UNL     1     -35.208   6.241   2.811  1.00 20.00     0.027 C 
HETATM   11  O11 UNL     1     -31.862   7.130   3.225  1.00 20.00    -0.296 OA
ENDROOT
TORSDOF 0
