REMARK  2 active torsions:
REMARK  status: ('A' for Active; 'I' for Inactive)
REMARK    1  A    between atoms: C7_7  and  C9_9 
REMARK    2  A    between atoms: C8_8  and  C9_9 
ROOT
HETATM    1  C1  UNL     1     -32.228   9.255  -0.480  1.00 20.00     0.012 C 
HETATM    2  C2  UNL     1     -32.310   8.574   0.505  1.00 20.00    -0.117 C 
HETATM    3  C8  UNL     1     -32.409   7.737   1.708  1.00 20.00     0.093 C 
ENDROOT
BRANCH   3   4
HETATM    4  C9  UNL     1     -32.713   8.592   2.927  1.00 20.00     0.017 C 
BRANCH   4   5
HETATM    5  C7  UNL     1     -32.820   7.738   4.180  1.00 20.00    -0.006 C 
HETATM    6  C5  UNL     1     -33.894   6.654   4.071  1.00 20.00     0.082 C 
HETATM    7  C3  UNL     1     -34.246   6.426   5.519  1.00 20.00     0.127 C 
HETATM    8  C4  UNL     1     -33.676   7.490   6.420  1.00 20.00     0.079 C 
HETATM    9  O10 UNL     1     -34.917   5.483   5.917  1.00 20.00    -0.298 OA
HETATM   10  C6  UNL     1     -33.231   8.544   5.413  1.00 20.00     0.012 C 
ENDBRANCH   4   5
ENDBRANCH   3   4
TORSDOF 2
