REMARK  3 active torsions:
REMARK  status: ('A' for Active; 'I' for Inactive)
REMARK    1  A    between atoms: C2_2  and  C8_8 
REMARK    2  A    between atoms: C4_4  and  N9_9 
REMARK    3  A    between atoms: C8_8  and  N9_9 
ROOT
HETATM    1  N9  UNL     1     -33.509   8.154   4.516  1.00 20.00     0.093 N 
HETATM    2  H24 UNL     1     -33.637   8.799   5.291  1.00 20.00     0.316 HD
ENDROOT
BRANCH   1   3
HETATM    3  C4  UNL     1     -33.364   6.797   5.053  1.00 20.00     0.229 A 
HETATM    4  C3  UNL     1     -34.212   6.337   6.209  1.00 20.00     0.047 A 
HETATM    5  C5  UNL     1     -34.417   5.722   4.843  1.00 20.00    -0.015 A 
HETATM    6  C6  UNL     1     -35.693   6.047   4.110  1.00 20.00     0.017 C 
HETATM    7  C7  UNL     1     -33.930   4.313   4.624  1.00 20.00     0.017 C 
ENDBRANCH   1   3
BRANCH   1   8
HETATM    8  C8  UNL     1     -32.331   8.531   3.754  1.00 20.00     0.320 C 
BRANCH   8   9
HETATM    9  C2  UNL     1     -32.335   7.961   2.367  1.00 20.00     0.030 C 
HETATM   10  C1  UNL     1     -32.391   6.651   2.094  1.00 20.00     0.034 C 
HETATM   11 CL10 UNL     1     -32.193   9.103   1.072  1.00 20.00    -0.088 Cl
ENDBRANCH   8   9
ENDBRANCH   1   8
TORSDOF 3
