REMARK  1 active torsions:
REMARK  status: ('A' for Active; 'I' for Inactive)
REMARK    1  A    between atoms: C6_6  and  N10_10 
ROOT
HETATM    1  C1  UNL     1     -32.369   7.778   1.884  1.00 20.00     0.156 C 
HETATM    2  C2  UNL     1     -32.728   9.126   2.436  1.00 20.00     0.110 C 
HETATM    3  C3  UNL     1     -32.675   6.685   2.875  1.00 20.00     0.350 C 
HETATM    4  C5  UNL     1     -32.938   8.777   3.903  1.00 20.00     0.281 C 
HETATM    5  N10 UNL     1     -33.471   7.411   3.866  1.00 20.00     0.101 N 
HETATM    6  O11 UNL     1     -31.892   7.590   0.773  1.00 20.00    -0.296 OA
ENDROOT
BRANCH   5   7
HETATM    7  C6  UNL     1     -33.452   6.769   5.171  1.00 20.00     0.232 A 
HETATM    8  C4  UNL     1     -34.549   7.031   6.169  1.00 20.00     0.047 A 
HETATM    9  C7  UNL     1     -34.419   5.659   5.546  1.00 20.00    -0.015 A 
HETATM   10  C8  UNL     1     -35.484   5.224   4.573  1.00 20.00     0.017 C 
HETATM   11  C9  UNL     1     -33.886   4.543   6.406  1.00 20.00     0.017 C 
ENDBRANCH   5   7
TORSDOF 1
