REMARK  3 active torsions:
REMARK  status: ('A' for Active; 'I' for Inactive)
REMARK    1  A    between atoms: C2_2  and  N8_8 
REMARK    2  A    between atoms: C6_6  and  C7_7 
REMARK    3  A    between atoms: C6_6  and  N8_8 
ROOT
HETATM    1  N8  UNL     1     -32.855   6.250   3.087  1.00 20.00     0.097 N 
HETATM    2  H23 UNL     1     -32.298   5.727   2.417  1.00 20.00     0.316 HD
ENDROOT
BRANCH   1   3
HETATM    3  C2  UNL     1     -33.124   5.392   4.246  1.00 20.00     0.229 A 
HETATM    4  C1  UNL     1     -33.868   4.096   4.066  1.00 20.00     0.047 A 
HETATM    5  C3  UNL     1     -34.524   5.236   4.812  1.00 20.00    -0.015 A 
HETATM    6  C4  UNL     1     -34.657   5.115   6.308  1.00 20.00     0.017 C 
HETATM    7  C5  UNL     1     -35.682   5.934   4.148  1.00 20.00     0.017 C 
ENDBRANCH   1   3
BRANCH   1   8
HETATM    8  C6  UNL     1     -32.137   7.446   3.493  1.00 20.00     0.386 C 
BRANCH   8   9
HETATM    9  C7  UNL     1     -33.070   8.494   4.046  1.00 20.00     0.413 C 
HETATM   10  F9  UNL     1     -32.377   9.594   4.418  1.00 20.00    -0.169 F 
HETATM   11  F10 UNL     1     -33.982   8.876   3.128  1.00 20.00    -0.169 F 
HETATM   12  F11 UNL     1     -33.731   8.041   5.132  1.00 20.00    -0.169 F 
ENDBRANCH   8   9
ENDBRANCH   1   8
TORSDOF 3
