REMARK  2 active torsions:
REMARK  status: ('A' for Active; 'I' for Inactive)
REMARK    1  A    between atoms: C3_3  and  N10_10 
REMARK    2  A    between atoms: C8_8  and  N10_10 
ROOT
HETATM    1  C1  UNL     1     -33.027   8.241   4.395  1.00 20.00     0.094 C 
HETATM    2  C7  UNL     1     -31.943   8.391   2.185  1.00 20.00     0.059 C 
HETATM    3  C8  UNL     1     -32.260   7.504   3.383  1.00 20.00     0.322 C 
HETATM    4  N9  UNL     1     -33.631   8.824   5.197  1.00 20.00    -0.195 NA
ENDROOT
BRANCH   3   5
HETATM    5  N10 UNL     1     -32.997   6.323   2.967  1.00 20.00     0.106 N 
HETATM    6  H24 UNL     1     -32.463   5.816   2.266  1.00 20.00     0.318 HD
BRANCH   5   7
HETATM    7  C3  UNL     1     -33.235   5.435   4.109  1.00 20.00     0.230 A 
HETATM    8  C2  UNL     1     -33.992   4.148   3.917  1.00 20.00     0.047 A 
HETATM    9  C4  UNL     1     -34.618   5.270   4.714  1.00 20.00    -0.015 A 
HETATM   10  C5  UNL     1     -34.706   5.109   6.208  1.00 20.00     0.017 C 
HETATM   11  C6  UNL     1     -35.792   5.992   4.104  1.00 20.00     0.017 C 
ENDBRANCH   5   7
ENDBRANCH   3   5
TORSDOF 2
