REMARK  0 active torsions:
REMARK  status: ('A' for Active; 'I' for Inactive)
ROOT
HETATM    1  C1  UNL     1     -32.872   6.260   2.696  1.00 20.00     0.060 A 
HETATM    2  C2  UNL     1     -33.207   7.930   4.941  1.00 20.00     0.065 A 
HETATM    3  C3  UNL     1     -34.579   4.372   5.195  1.00 20.00     0.167 A 
HETATM    4  C4  UNL     1     -33.525   5.762   3.845  1.00 20.00     0.076 A 
HETATM    5  C5  UNL     1     -32.565   8.397   3.792  1.00 20.00     0.139 A 
HETATM    6  C6  UNL     1     -33.680   6.607   4.948  1.00 20.00     0.038 A 
HETATM    7  C7  UNL     1     -32.399   7.575   2.683  1.00 20.00     0.074 A 
HETATM    8  N8  UNL     1     -34.044   4.485   4.002  1.00 20.00    -0.253 NA
HETATM    9  F9  UNL     1     -32.110   9.659   3.776  1.00 20.00    -0.204 F 
HETATM   10  S10 UNL     1     -34.502   5.754   6.200  1.00 20.00    -0.080 SA
HETATM   11 CL11 UNL     1     -31.604   8.173   1.275  1.00 20.00    -0.081 Cl
ENDROOT
TORSDOF 0
