REMARK  0 active torsions:
REMARK  status: ('A' for Active; 'I' for Inactive)
ROOT
HETATM    1  C1  UNL     1     -32.925   6.217   2.804  1.00 20.00     0.042 C 
HETATM    2  C2  UNL     1     -34.027   4.287   5.944  1.00 20.00    -0.026 A 
HETATM    3  C3  UNL     1     -34.547   5.274   6.685  1.00 20.00    -0.026 A 
HETATM    4  C4  UNL     1     -33.439   5.946   4.138  1.00 20.00    -0.050 A 
HETATM    5  C5  UNL     1     -33.963   6.947   4.884  1.00 20.00    -0.067 A 
HETATM    6  C6  UNL     1     -32.681   7.478   2.429  1.00 20.00     0.079 C 
HETATM    7  C7  UNL     1     -33.419   4.509   4.590  1.00 20.00     0.065 A 
HETATM    8  C8  UNL     1     -34.575   6.707   6.242  1.00 20.00     0.061 A 
HETATM    9  C9  UNL     1     -33.975   8.382   4.387  1.00 20.00     0.074 C 
HETATM   10  C10 UNL     1     -32.633   9.276   1.184  1.00 20.00     0.345 C 
HETATM   11  C11 UNL     1     -32.907   8.640   3.322  1.00 20.00     0.184 C 
HETATM   12  O12 UNL     1     -32.376   7.864   1.145  1.00 20.00    -0.328 OA
HETATM   13  O13 UNL     1     -33.293   9.653   2.401  1.00 20.00    -0.354 OA
ENDROOT
TORSDOF 0
