REMARK  1 active torsions:
REMARK  status: ('A' for Active; 'I' for Inactive)
REMARK    1  A    between atoms: C6_6  and  N7_7 
ROOT
HETATM    1  C1  UNL     1     -33.334   4.829   2.976  1.00 20.00     0.015 C 
HETATM    2  C2  UNL     1     -33.777   5.346   3.966  1.00 20.00    -0.084 C 
HETATM    3  C4  UNL     1     -35.638   6.689   4.875  1.00 20.00     0.055 C 
HETATM    4  C5  UNL     1     -34.499   4.953   6.297  1.00 20.00     0.055 C 
HETATM    5  C6  UNL     1     -34.323   5.976   5.178  1.00 20.00     0.112 C 
ENDROOT
BRANCH   5   6
HETATM    6  N7  UNL     1     -33.343   6.983   5.603  1.00 20.00    -0.224 NA
HETATM    7  C3  UNL     1     -33.136   7.818   4.806  1.00 20.00     0.333 C 
HETATM    8  O8  UNL     1     -32.924   8.658   4.011  1.00 20.00    -0.260 OA
ENDBRANCH   5   6
TORSDOF 1
