REMARK  0 active torsions:
REMARK  status: ('A' for Active; 'I' for Inactive)
ROOT
HETATM    1  C1  UNL     1     -32.732   8.575   4.171  1.00 20.00     0.035 A 
HETATM    2  C2  UNL     1     -32.299   8.880   2.877  1.00 20.00     0.026 A 
HETATM    3  C3  UNL     1     -32.702   6.598   2.163  1.00 20.00     0.045 A 
HETATM    4  C4  UNL     1     -33.159   7.264   4.475  1.00 20.00     0.077 A 
HETATM    5  C5  UNL     1     -33.136   6.299   3.464  1.00 20.00     0.039 A 
HETATM    6  C6  UNL     1     -32.285   7.903   1.888  1.00 20.00     0.035 A 
HETATM    7  C7  UNL     1     -33.925   5.544   5.626  1.00 20.00     0.253 A 
HETATM    8  N8  UNL     1     -33.613   6.817   5.708  1.00 20.00    -0.213 NA
HETATM    9  F9  UNL     1     -34.392   4.864   6.683  1.00 20.00    -0.176 F 
HETATM   10  S10 UNL     1     -33.704   4.801   4.102  1.00 20.00    -0.037 SA
HETATM   11 CL11 UNL     1     -31.749   8.304   0.300  1.00 20.00    -0.084 Cl
ENDROOT
TORSDOF 0
