REMARK  1 active torsions:
REMARK  status: ('A' for Active; 'I' for Inactive)
REMARK    1  A    between atoms: C1_1  and  C2_2 
ROOT
HETATM    1  C2  UNL     1     -34.062   5.653   4.580  1.00 20.00     0.447 C 
HETATM    2  F5  UNL     1     -34.116   4.714   5.547  1.00 20.00    -0.166 F 
HETATM    3  F6  UNL     1     -35.314   5.846   4.115  1.00 20.00    -0.166 F 
HETATM    4  F7  UNL     1     -33.316   5.165   3.566  1.00 20.00    -0.166 F 
ENDROOT
BRANCH   1   5
HETATM    5  C1  UNL     1     -33.481   6.934   5.101  1.00 20.00     0.459 C 
HETATM    6  F3  UNL     1     -34.268   7.419   6.092  1.00 20.00    -0.205 F 
HETATM    7  F4  UNL     1     -33.471   7.863   4.115  1.00 20.00    -0.205 F 
ENDBRANCH   1   5
TORSDOF 1
