REMARK  0 active torsions:
REMARK  status: ('A' for Active; 'I' for Inactive)
ROOT
HETATM    1  C1  UNL     1     -33.607   6.274   4.199  1.00 20.00     0.317 C 
HETATM    2  C2  UNL     1     -33.966   6.808   5.367  1.00 20.00     0.253 C 
HETATM    3  F3  UNL     1     -33.993   5.025   3.860  1.00 20.00    -0.169 F 
HETATM    4  F4  UNL     1     -32.848   6.991   3.343  1.00 20.00    -0.169 F 
HETATM    5  F5  UNL     1     -33.559   8.061   5.668  1.00 20.00    -0.187 F 
HETATM    6 CL6  UNL     1     -34.931   5.947   6.502  1.00 20.00    -0.046 Cl
ENDROOT
TORSDOF 0
