REMARK  0 active torsions:
REMARK  status: ('A' for Active; 'I' for Inactive)
ROOT
HETATM    1  C1  UNL     1     -32.857   8.753   5.189  1.00 20.00     0.085 C 
HETATM    2  C2  UNL     1     -33.400   6.482   4.368  1.00 20.00     0.067 C 
HETATM    3  C3  UNL     1     -34.073   7.198   6.682  1.00 20.00     0.067 C 
HETATM    4  C4  UNL     1     -34.286   5.255   4.569  1.00 20.00     0.170 C 
HETATM    5  C5  UNL     1     -34.920   5.930   6.750  1.00 20.00     0.170 C 
HETATM    6  C6  UNL     1     -33.849   7.667   5.237  1.00 20.00     0.129 C 
HETATM    7  N7  UNL     1     -32.076   9.609   5.151  1.00 20.00    -0.195 NA
HETATM    8  O8  UNL     1     -34.349   4.897   5.948  1.00 20.00    -0.391 OA
HETATM    9 CL9  UNL     1     -35.375   8.358   4.580  1.00 20.00    -0.103 Cl
ENDROOT
TORSDOF 0
