REMARK  2 active torsions:
REMARK  status: ('A' for Active; 'I' for Inactive)
REMARK    1  A    between atoms: C4_4  and  C5_5 
REMARK    2  A    between atoms: C4_4  and  C6_6 
ROOT
HETATM    1  C1  UNL     1     -32.665   5.583   3.044  1.00 20.00     0.079 C 
HETATM    2  C5  UNL     1     -32.831   6.821   3.815  1.00 20.00     0.189 C 
HETATM    3  N7  UNL     1     -32.532   4.602   2.440  1.00 20.00    -0.196 NA
HETATM    4 CL8  UNL     1     -32.477   8.182   2.706  1.00 20.00    -0.109 Cl
ENDROOT
BRANCH   2   5
HETATM    5  C4  UNL     1     -34.251   6.979   4.373  1.00 20.00     0.039 C 
BRANCH   5   6
HETATM    6  C6  UNL     1     -34.523   6.210   5.684  1.00 20.00    -0.020 C 
HETATM    7  C2  UNL     1     -34.326   4.701   5.528  1.00 20.00     0.009 C 
HETATM    8  C3  UNL     1     -33.607   6.737   6.792  1.00 20.00     0.009 C 
ENDBRANCH   5   6
ENDBRANCH   2   5
TORSDOF 2
