REMARK  1 active torsions:
REMARK  status: ('A' for Active; 'I' for Inactive)
REMARK    1  A    between atoms: C5_5  and  C6_6 
ROOT
HETATM    1  C1  UNL     1     -32.793   7.622   2.718  1.00 20.00     0.084 C 
HETATM    2  C6  UNL     1     -33.367   8.031   4.019  1.00 20.00     0.222 C 
HETATM    3  N7  UNL     1     -32.326   7.310   1.702  1.00 20.00    -0.195 NA
HETATM    4 CL9  UNL     1     -32.104   8.956   4.898  1.00 20.00    -0.104 Cl
ENDROOT
BRANCH   2   5
HETATM    5  C5  UNL     1     -33.870   6.910   4.846  1.00 20.00    -0.019 A 
HETATM    6  C2  UNL     1     -34.424   7.069   6.149  1.00 20.00     0.017 A 
HETATM    7  C3  UNL     1     -34.814   5.867   6.697  1.00 20.00     0.050 A 
HETATM    8  S8  UNL     1     -34.512   4.553   5.642  1.00 20.00    -0.113 SA
HETATM    9  C4  UNL     1     -33.858   5.591   4.448  1.00 20.00     0.059 A 
ENDBRANCH   2   5
TORSDOF 1
