REMARK  1 active torsions:
REMARK  status: ('A' for Active; 'I' for Inactive)
REMARK    1  A    between atoms: C4_4  and  C5_5 
ROOT
HETATM    1  C1  UNL     1     -33.333   5.613   3.598  1.00 20.00     0.085 C 
HETATM    2  C3  UNL     1     -35.699   5.946   4.167  1.00 20.00     0.049 C 
HETATM    3  C5  UNL     1     -34.249   6.241   4.566  1.00 20.00     0.121 C 
HETATM    4  N6  UNL     1     -32.614   5.120   2.832  1.00 20.00    -0.195 NA
HETATM    5 CL7  UNL     1     -33.943   5.470   6.159  1.00 20.00    -0.103 Cl
ENDROOT
BRANCH   3   6
HETATM    6  C4  UNL     1     -34.029   7.766   4.648  1.00 20.00     0.036 C 
HETATM    7  C2  UNL     1     -32.632   8.212   5.076  1.00 20.00     0.008 C 
ENDBRANCH   3   6
TORSDOF 1
