REMARK  1 active torsions:
REMARK  status: ('A' for Active; 'I' for Inactive)
REMARK    1  A    between atoms: C5_5  and  C6_6 
ROOT
HETATM    1  C1  UNL     1     -33.096   7.414   3.599  1.00 20.00     0.080 C 
HETATM    2  C5  UNL     1     -33.078   6.024   4.084  1.00 20.00     0.196 C 
HETATM    3  N7  UNL     1     -33.106   8.511   3.219  1.00 20.00    -0.196 NA
HETATM    4 CL8  UNL     1     -33.279   4.983   2.636  1.00 20.00    -0.109 Cl
ENDROOT
BRANCH   2   5
HETATM    5  C6  UNL     1     -34.134   5.736   5.195  1.00 20.00    -0.022 C 
HETATM    6  C2  UNL     1     -33.857   6.616   6.434  1.00 20.00     0.017 C 
HETATM    7  C3  UNL     1     -35.545   6.097   4.679  1.00 20.00     0.017 C 
HETATM    8  C4  UNL     1     -34.142   4.259   5.640  1.00 20.00     0.017 C 
ENDBRANCH   2   5
TORSDOF 1
