REMARK  1 active torsions:
REMARK  status: ('A' for Active; 'I' for Inactive)
REMARK    1  A    between atoms: C7_7  and  N8_8 
ROOT
HETATM    1  C1  UNL     1     -33.394   5.369   2.425  1.00 20.00     0.045 C 
HETATM    2  C2  UNL     1     -33.896   4.764   3.729  1.00 20.00     0.236 C 
HETATM    3  C3  UNL     1     -33.044   7.031   4.069  1.00 20.00     0.251 C 
HETATM    4  C4  UNL     1     -32.357   6.393   2.871  1.00 20.00     0.086 C 
HETATM    5  N8  UNL     1     -33.677   5.844   4.771  1.00 20.00    -0.066 N 
HETATM    6  S9  UNL     1     -31.999   7.608   1.581  1.00 20.00    -0.091 SA
HETATM    7  H24 UNL     1     -32.977   5.482   5.434  1.00 20.00     0.280 HD
ENDROOT
BRANCH   5   8
HETATM    8  C7  UNL     1     -34.895   6.191   5.565  1.00 20.00     0.180 C 
HETATM    9  C5  UNL     1     -34.533   7.298   6.543  1.00 20.00     0.039 C 
HETATM   10  C6  UNL     1     -35.384   4.937   6.270  1.00 20.00     0.039 C 
ENDBRANCH   5   8
TORSDOF 1
