REMARK  0 active torsions:
REMARK  status: ('A' for Active; 'I' for Inactive)
ROOT
HETATM    1  C1  UNL     1     -32.929   8.648   4.943  1.00 20.00     0.085 C 
HETATM    2  C2  UNL     1     -33.680   6.484   4.036  1.00 20.00     0.051 C 
HETATM    3  C3  UNL     1     -34.003   7.071   6.502  1.00 20.00     0.051 C 
HETATM    4  C4  UNL     1     -34.650   5.306   4.085  1.00 20.00     0.076 C 
HETATM    5  C5  UNL     1     -34.998   5.939   6.744  1.00 20.00     0.076 C 
HETATM    6  C6  UNL     1     -33.961   7.601   5.057  1.00 20.00     0.127 C 
HETATM    7  N7  UNL     1     -32.117   9.472   4.854  1.00 20.00    -0.195 NA
HETATM    8  S8  UNL     1     -34.647   4.494   5.706  1.00 20.00    -0.169 SA
HETATM    9 CL9  UNL     1     -35.517   8.415   4.659  1.00 20.00    -0.103 Cl
ENDROOT
TORSDOF 0
