REMARK  2 active torsions:
REMARK  status: ('A' for Active; 'I' for Inactive)
REMARK    1  A    between atoms: C3_3  and  C8_8 
REMARK    2  A    between atoms: C8_8  and  C10_10 
ROOT
HETATM    1  C1  UNL     1     -35.172   4.712   4.515  1.00 20.00    -0.026 C 
HETATM    2  C2  UNL     1     -33.899   4.431   4.833  1.00 20.00    -0.024 C 
HETATM    3  C4  UNL     1     -34.548   6.182   6.174  1.00 20.00     0.018 C 
HETATM    4  C5  UNL     1     -34.652   7.078   3.967  1.00 20.00     0.025 C 
HETATM    5  C6  UNL     1     -35.430   6.143   4.926  1.00 20.00     0.010 C 
HETATM    6  C7  UNL     1     -33.298   5.688   5.425  1.00 20.00     0.024 C 
HETATM    7  C8  UNL     1     -33.156   6.762   4.302  1.00 20.00     0.020 C 
ENDROOT
BRANCH   7   8
HETATM    8  C3  UNL     1     -32.457   7.971   4.874  1.00 20.00     0.241 C 
HETATM    9  O11 UNL     1     -33.009   9.053   5.045  1.00 20.00    -0.306 OA
ENDBRANCH   7   8
BRANCH   7  10
HETATM   10  C10 UNL     1     -32.357   6.307   3.080  1.00 20.00     0.013 C 
HETATM   11  C9  UNL     1     -32.285   7.376   2.041  1.00 20.00     0.006 C 
ENDBRANCH   7  10
TORSDOF 2
