REMARK  4 active torsions:
REMARK  status: ('A' for Active; 'I' for Inactive)
REMARK    1  A    between atoms: C4_4  and  C6_6 
REMARK    2  A    between atoms: C4_4  and  N7_7 
REMARK    3  A    between atoms: C5_5  and  C6_6 
REMARK    4  A    between atoms: C5_5  and  O8_8 
ROOT
HETATM    1  C1  UNL     1     -32.493   8.215   1.140  1.00 20.00     0.157 C 
HETATM    2  N7  UNL     1     -32.380   7.861   2.254  1.00 20.00    -0.275 NA
HETATM    3  S9  UNL     1     -32.633   8.671  -0.380  1.00 20.00    -0.055 SA
ENDROOT
BRANCH   2   4
HETATM    4  C4  UNL     1     -32.892   8.800   3.255  1.00 20.00     0.157 C 
BRANCH   4   5
HETATM    5  C6  UNL     1     -32.733   8.232   4.670  1.00 20.00     0.025 C 
HETATM    6  C2  UNL     1     -32.806   9.336   5.730  1.00 20.00     0.014 C 
BRANCH   5   7
HETATM    7  C5  UNL     1     -33.750   7.120   4.951  1.00 20.00     0.172 C 
BRANCH   7   8
HETATM    8  O8  UNL     1     -33.488   6.537   6.221  1.00 20.00    -0.396 OA
HETATM    9  C3  UNL     1     -34.385   5.471   6.500  1.00 20.00     0.201 C 
ENDBRANCH   7   8
ENDBRANCH   5   7
ENDBRANCH   4   5
ENDBRANCH   2   4
TORSDOF 4
