REMARK  2 active torsions:
REMARK  status: ('A' for Active; 'I' for Inactive)
REMARK    1  A    between atoms: C4_4  and  C5_5 
REMARK    2  A    between atoms: C6_6  and  C10_10 
ROOT
HETATM    1  C1  UNL     1     -32.784   8.304   5.014  1.00 20.00    -0.003 C 
HETATM    2  C2  UNL     1     -33.563   7.175   5.450  1.00 20.00     0.010 C 
HETATM    3  C3  UNL     1     -32.161   8.310   3.829  1.00 20.00    -0.021 C 
HETATM    4  C4  UNL     1     -33.800   6.136   4.637  1.00 20.00    -0.016 C 
HETATM    5  C6  UNL     1     -32.207   7.144   2.872  1.00 20.00     0.016 C 
HETATM    6  C7  UNL     1     -33.268   6.044   3.222  1.00 20.00     0.025 C 
HETATM    7  C8  UNL     1     -32.666   4.662   2.918  1.00 20.00     0.016 C 
ENDROOT
BRANCH   4   8
HETATM    8  C5  UNL     1     -34.693   5.101   5.167  1.00 20.00     0.266 C 
HETATM    9  O11 UNL     1     -34.776   4.850   6.364  1.00 20.00    -0.302 OA
ENDBRANCH   4   8
BRANCH   5  10
HETATM   10  C10 UNL     1     -32.423   7.652   1.441  1.00 20.00     0.005 C 
HETATM   11  C9  UNL     1     -31.374   8.637   1.047  1.00 20.00     0.006 C 
ENDBRANCH   5  10
TORSDOF 2
