REMARK  1 active torsions:
REMARK  status: ('A' for Active; 'I' for Inactive)
REMARK    1  A    between atoms: C3_3  and  C8_8 
ROOT
HETATM    1  C1  UNL     1     -33.154   4.905   3.155  1.00 20.00    -0.028 C 
HETATM    2  C2  UNL     1     -33.813   4.157   4.056  1.00 20.00    -0.016 C 
HETATM    3  C4  UNL     1     -33.366   6.384   2.965  1.00 20.00     0.042 C 
HETATM    4  C5  UNL     1     -34.293   4.983   6.381  1.00 20.00     0.020 C 
HETATM    5  C6  UNL     1     -33.936   6.457   6.622  1.00 20.00     0.016 C 
HETATM    6  C7  UNL     1     -34.883   4.656   4.999  1.00 20.00     0.070 C 
HETATM    7  C8  UNL     1     -33.342   7.169   5.399  1.00 20.00     0.086 C 
HETATM    8  C9  UNL     1     -34.169   7.078   4.086  1.00 20.00     0.063 C 
HETATM    9  S11 UNL     1     -35.711   6.123   4.306  1.00 20.00    -0.154 SA
ENDROOT
BRANCH   7  10
HETATM   10  C3  UNL     1     -33.160   8.616   5.757  1.00 20.00     0.224 C 
HETATM   11  O10 UNL     1     -33.937   9.198   6.507  1.00 20.00    -0.279 OA
HETATM   12 CL12 UNL     1     -31.761   9.308   4.992  1.00 20.00    -0.043 Cl
ENDBRANCH   7  10
TORSDOF 1
