REMARK  1 active torsions:
REMARK  status: ('A' for Active; 'I' for Inactive)
REMARK    1  A    between atoms: C3_3  and  C8_8 
ROOT
HETATM    1  C1  UNL     1     -33.837   4.406   5.134  1.00 20.00    -0.029 C 
HETATM    2  C2  UNL     1     -34.122   4.933   6.331  1.00 20.00    -0.030 C 
HETATM    3  C4  UNL     1     -33.382   5.183   3.941  1.00 20.00     0.045 C 
HETATM    4  C5  UNL     1     -34.057   6.393   6.639  1.00 20.00     0.037 C 
HETATM    5  C6  UNL     1     -35.050   7.076   3.367  1.00 20.00     0.019 C 
HETATM    6  C7  UNL     1     -35.707   7.096   4.752  1.00 20.00     0.012 C 
HETATM    7  C8  UNL     1     -33.678   6.696   4.030  1.00 20.00     0.031 C 
HETATM    8  C9  UNL     1     -34.294   7.250   5.391  1.00 20.00    -0.026 C 
HETATM    9  C11 UNL     1     -33.994   8.724   5.707  1.00 20.00     0.016 C 
ENDROOT
BRANCH   7  10
HETATM   10  C3  UNL     1     -32.458   7.497   3.464  1.00 20.00     0.132 C 
HETATM   11  C10 UNL     1     -32.725   8.393   2.284  1.00 20.00     0.091 C 
HETATM   12  O12 UNL     1     -31.336   7.401   3.960  1.00 20.00    -0.298 OA
ENDBRANCH   7  10
TORSDOF 1
