REMARK  2 active torsions:
REMARK  status: ('A' for Active; 'I' for Inactive)
REMARK    1  A    between atoms: C1_1  and  C3_3 
REMARK       I    between atoms: C1_1  and  N8_8 
REMARK    2  A    between atoms: N8_8  and  O10_10 
ROOT
HETATM    1  C1  UNL     1     -33.146   5.796   3.533  1.00 20.00     0.247 C 
HETATM    2  C6  UNL     1     -34.970   4.869   4.950  1.00 20.00     0.189 C 
HETATM    3  N8  UNL     1     -34.016   5.902   4.590  1.00 20.00    -0.231 N 
HETATM    4  O9  UNL     1     -33.087   4.817   2.786  1.00 20.00    -0.271 OA
ENDROOT
BRANCH   1   5
HETATM    5  C3  UNL     1     -32.218   6.966   3.321  1.00 20.00     0.084 A 
HETATM    6  C2  UNL     1     -32.191   7.599   1.975  1.00 20.00     0.019 A 
HETATM    7  C4  UNL     1     -32.828   8.311   3.134  1.00 20.00    -0.005 A 
HETATM    8  C5  UNL     1     -32.164   9.498   3.740  1.00 20.00     0.011 C 
ENDBRANCH   1   5
BRANCH   3   9
HETATM    9  O10 UNL     1     -34.077   7.024   5.437  1.00 20.00    -0.281 OA
HETATM   10  C7  UNL     1     -33.181   6.832   6.527  1.00 20.00     0.238 C 
ENDBRANCH   3   9
TORSDOF 2
