REMARK  2 active torsions:
REMARK  status: ('A' for Active; 'I' for Inactive)
REMARK    1  A    between atoms: C1_1  and  C5_5 
REMARK    2  A    between atoms: C1_1  and  C6_6 
ROOT
HETATM    1  C1  UNL     1     -33.120   6.926   4.383  1.00 20.00     0.184 C 
HETATM    2  O7  UNL     1     -32.631   7.258   3.301  1.00 20.00    -0.293 OA
ENDROOT
BRANCH   1   3
HETATM    3  C5  UNL     1     -32.873   7.734   5.655  1.00 20.00     0.052 C 
HETATM    4  C2  UNL     1     -32.641   9.196   5.292  1.00 20.00     0.017 C 
HETATM    5  C3  UNL     1     -34.039   7.594   6.629  1.00 20.00     0.017 C 
ENDBRANCH   1   3
BRANCH   1   6
HETATM    6  C6  UNL     1     -34.008   5.698   4.502  1.00 20.00     0.235 C 
HETATM    7  C4  UNL     1     -35.467   6.042   4.262  1.00 20.00     0.079 C 
HETATM    8  F8  UNL     1     -33.909   5.116   5.730  1.00 20.00    -0.217 F 
HETATM    9 CL9  UNL     1     -33.434   4.529   3.288  1.00 20.00    -0.075 Cl
ENDBRANCH   1   6
TORSDOF 2
