REMARK  2 active torsions:
REMARK  status: ('A' for Active; 'I' for Inactive)
REMARK    1  A    between atoms: C6_6  and  S8_8 
REMARK    2  A    between atoms: C7_7  and  S9_9 
ROOT
HETATM    1  C1  UNL     1     -35.504   6.147   4.681  1.00 20.00     0.011 C 
HETATM    2  C2  UNL     1     -34.159   4.186   4.802  1.00 20.00     0.020 C 
HETATM    3  C3  UNL     1     -33.990   6.024   6.516  1.00 20.00     0.020 C 
HETATM    4  C4  UNL     1     -34.962   5.148   5.700  1.00 20.00    -0.012 C 
HETATM    5  C5  UNL     1     -34.109   6.511   4.155  1.00 20.00     0.013 C 
HETATM    6  C6  UNL     1     -33.538   5.128   3.751  1.00 20.00     0.050 C 
HETATM    7  C7  UNL     1     -33.372   6.947   5.446  1.00 20.00     0.050 C 
ENDROOT
BRANCH   6   8
HETATM    8  S8  UNL     1     -34.004   4.659   2.053  1.00 20.00    -0.177 SA
HETATM    9  H20 UNL     1     -33.470   3.432   2.100  1.00 20.00     0.102 HD
ENDBRANCH   6   8
BRANCH   7  10
HETATM   10  S9  UNL     1     -33.635   8.709   5.828  1.00 20.00    -0.177 SA
HETATM   11  H21 UNL     1     -32.990   8.690   7.002  1.00 20.00     0.102 HD
ENDBRANCH   7  10
TORSDOF 2
