REMARK  2 active torsions:
REMARK  status: ('A' for Active; 'I' for Inactive)
REMARK    1  A    between atoms: C1_1  and  C5_5 
REMARK    2  A    between atoms: C5_5  and  C6_6 
ROOT
HETATM    1  C5  UNL     1     -33.242   6.456   4.324  1.00 20.00     0.190 C 
HETATM    2 CL9  UNL     1     -32.979   5.643   2.753  1.00 20.00    -0.114 Cl
ENDROOT
BRANCH   1   3
HETATM    3  C1  UNL     1     -33.512   7.914   3.979  1.00 20.00     0.144 C 
HETATM    4  C2  UNL     1     -32.491   8.920   4.444  1.00 20.00     0.092 C 
HETATM    5  O7  UNL     1     -34.524   8.270   3.374  1.00 20.00    -0.297 OA
ENDBRANCH   1   3
BRANCH   1   6
HETATM    6  C6  UNL     1     -34.379   5.808   5.134  1.00 20.00     0.119 C 
HETATM    7  C3  UNL     1     -34.097   4.331   5.417  1.00 20.00     0.053 C 
HETATM    8  C4  UNL     1     -34.640   6.533   6.456  1.00 20.00     0.053 C 
HETATM    9  F8  UNL     1     -35.533   5.870   4.404  1.00 20.00    -0.242 F 
ENDBRANCH   1   6
TORSDOF 2
