REMARK  1 active torsions:
REMARK  status: ('A' for Active; 'I' for Inactive)
REMARK    1  A    between atoms: C6_6  and  C10_10 
ROOT
HETATM    1  C1  UNL     1     -32.097   8.007   3.885  1.00 20.00     0.059 C 
HETATM    2  C10 UNL     1     -32.460   7.381   5.144  1.00 20.00     0.133 C 
HETATM    3  N11 UNL     1     -31.763   8.506   2.892  1.00 20.00    -0.197 NA
ENDROOT
BRANCH   2   4
HETATM    4  C6  UNL     1     -33.997   7.243   5.048  1.00 20.00    -0.025 C 
HETATM    5  C4  UNL     1     -34.573   7.070   6.469  1.00 20.00     0.011 C 
HETATM    6  C2  UNL     1     -34.516   5.571   6.768  1.00 20.00     0.002 C 
HETATM    7  C3  UNL     1     -34.233   4.864   5.442  1.00 20.00     0.010 C 
HETATM    8  C5  UNL     1     -34.454   5.922   4.339  1.00 20.00    -0.040 C 
HETATM    9  C7  UNL     1     -33.645   5.570   3.082  1.00 20.00     0.015 C 
HETATM   10  C8  UNL     1     -35.949   5.929   3.945  1.00 20.00     0.015 C 
HETATM   11  C9  UNL     1     -34.536   8.525   4.397  1.00 20.00     0.017 C 
ENDBRANCH   2   4
TORSDOF 1
