REMARK  0 active torsions:
REMARK  status: ('A' for Active; 'I' for Inactive)
ROOT
HETATM    1  C1  UNL     1     -34.849   5.322   3.964  1.00 20.00     0.096 A 
HETATM    2  C2  UNL     1     -35.037   6.138   6.060  1.00 20.00     0.096 A 
HETATM    3  C3  UNL     1     -33.917   6.318   4.114  1.00 20.00    -0.025 A 
HETATM    4  C4  UNL     1     -34.035   6.829   5.426  1.00 20.00    -0.025 A 
HETATM    5  C5  UNL     1     -32.893   6.915   3.239  1.00 20.00     0.114 A 
HETATM    6  C6  UNL     1     -33.125   7.919   5.818  1.00 20.00     0.114 A 
HETATM    7  N7  UNL     1     -35.527   5.221   5.157  1.00 20.00    -0.374 N 
HETATM    8  S8  UNL     1     -32.095   8.215   4.300  1.00 20.00    -0.160 SA
HETATM    9  H15 UNL     1     -36.275   4.568   5.344  1.00 20.00     0.164 HD
ENDROOT
TORSDOF 0
