REMARK  2 active torsions:
REMARK  status: ('A' for Active; 'I' for Inactive)
REMARK    1  A    between atoms: C1_1  and  C5_5 
REMARK    2  A    between atoms: C1_1  and  C6_6 
ROOT
HETATM    1  C1  UNL     1     -33.529   6.763   5.014  1.00 20.00     0.182 C 
HETATM    2  O7  UNL     1     -33.030   7.025   6.112  1.00 20.00    -0.293 OA
ENDROOT
BRANCH   1   3
HETATM    3  C5  UNL     1     -33.369   7.743   3.874  1.00 20.00     0.335 C 
HETATM    4  F8  UNL     1     -32.685   7.172   2.846  1.00 20.00    -0.225 F 
HETATM    5 CL9  UNL     1     -32.447   9.131   4.474  1.00 20.00    -0.081 Cl
ENDBRANCH   1   3
BRANCH   1   6
HETATM    6  C6  UNL     1     -34.286   5.442   4.765  1.00 20.00     0.014 C 
HETATM    7  C2  UNL     1     -33.601   4.611   3.672  1.00 20.00     0.023 C 
HETATM    8  C3  UNL     1     -35.722   5.754   4.307  1.00 20.00     0.023 C 
HETATM    9  C4  UNL     1     -34.347   4.649   6.077  1.00 20.00     0.023 C 
ENDBRANCH   1   6
TORSDOF 2
