REMARK  1 active torsions:
REMARK  status: ('A' for Active; 'I' for Inactive)
REMARK    1  A    between atoms: C1_1  and  C5_5 
ROOT
HETATM    1  C1  UNL     1     -33.794   7.090   4.841  1.00 20.00     0.141 A 
HETATM    2  C2  UNL     1     -32.578   7.704   3.143  1.00 20.00     0.187 A 
HETATM    3  N6  UNL     1     -33.344   6.729   3.582  1.00 20.00    -0.211 NA
HETATM    4  N7  UNL     1     -33.435   8.252   5.387  1.00 20.00    -0.193 NA
HETATM    5  S8  UNL     1     -32.443   8.997   4.264  1.00 20.00     0.046 SA
HETATM    6 CL9  UNL     1     -31.789   7.728   1.633  1.00 20.00    -0.053 Cl
ENDROOT
BRANCH   1   7
HETATM    7  C5  UNL     1     -34.718   6.135   5.615  1.00 20.00     0.058 A 
HETATM    8  C3  UNL     1     -34.304   5.691   6.998  1.00 20.00     0.013 A 
HETATM    9  C4  UNL     1     -34.252   4.719   5.862  1.00 20.00     0.013 A 
ENDBRANCH   1   7
TORSDOF 1
