REMARK  3 active torsions:
REMARK  status: ('A' for Active; 'I' for Inactive)
REMARK    1  A    between atoms: C4_4  and  N8_8 
REMARK    2  A    between atoms: C6_6  and  C7_7 
REMARK    3  A    between atoms: C6_6  and  N8_8 
ROOT
HETATM    1  C1  UNL     1     -33.792   6.852   6.001  1.00 20.00     0.047 C 
HETATM    2  C2  UNL     1     -34.866   5.802   6.240  1.00 20.00     0.076 C 
HETATM    3  C3  UNL     1     -33.495   5.591   3.936  1.00 20.00     0.109 C 
HETATM    4  C4  UNL     1     -33.673   7.002   4.486  1.00 20.00     0.232 C 
HETATM    5  S9  UNL     1     -34.614   4.565   4.935  1.00 20.00    -0.167 SA
ENDROOT
BRANCH   4   6
HETATM    6  N8  UNL     1     -32.559   7.861   4.106  1.00 20.00     0.090 N 
HETATM    7  C5  UNL     1     -32.457   9.008   5.011  1.00 20.00     0.310 C 
BRANCH   6   8
HETATM    8  C6  UNL     1     -32.708   8.320   2.723  1.00 20.00     0.287 C 
BRANCH   8   9
HETATM    9  C7  UNL     1     -32.200   7.304   1.713  1.00 20.00     0.144 C 
HETATM   10 CL10 UNL     1     -32.392   7.897   0.045  1.00 20.00    -0.129 Cl
ENDBRANCH   8   9
ENDBRANCH   6   8
ENDBRANCH   4   6
TORSDOF 3
