REMARK  3 active torsions:
REMARK  status: ('A' for Active; 'I' for Inactive)
REMARK    1  A    between atoms: C10_10  and  C12_12 
REMARK    2  A    between atoms: C11_11  and  C12_12 
REMARK    3  A    between atoms: C12_12  and  N13_13 
ROOT
HETATM    1  C1  UNL     1     -32.548   9.126   0.333  1.00 20.00     0.130 C 
HETATM    2  C2  UNL     1     -32.605   7.627   0.153  1.00 20.00     0.106 C 
HETATM    3  C3  UNL     1     -33.373   9.693   1.464  1.00 20.00     0.106 C 
HETATM    4  C8  UNL     1     -32.368   6.917   1.474  1.00 20.00     0.242 C 
HETATM    5  C9  UNL     1     -33.116   8.932   2.752  1.00 20.00     0.242 C 
HETATM    6  N13 UNL     1     -33.325   7.453   2.515  1.00 20.00    -0.065 N 
HETATM    7  O14 UNL     1     -31.949   9.851  -0.459  1.00 20.00    -0.298 OA
HETATM    8  H34 UNL     1     -34.281   7.328   2.154  1.00 20.00     0.280 HD
ENDROOT
BRANCH   6   9
HETATM    9  C12 UNL     1     -33.247   6.670   3.796  1.00 20.00     0.196 C 
BRANCH   9  10
HETATM   10  C10 UNL     1     -34.033   5.380   3.621  1.00 20.00     0.017 A 
HETATM   11  C4  UNL     1     -33.722   4.182   4.474  1.00 20.00     0.007 A 
HETATM   12  C5  UNL     1     -35.006   4.937   4.678  1.00 20.00     0.007 A 
ENDBRANCH   9  10
BRANCH   9  13
HETATM   13  C11 UNL     1     -33.796   7.531   4.922  1.00 20.00     0.017 A 
HETATM   14  C6  UNL     1     -33.382   7.273   6.344  1.00 20.00     0.007 A 
HETATM   15  C7  UNL     1     -32.901   8.507   5.633  1.00 20.00     0.007 A 
ENDBRANCH   9  13
ENDBRANCH   6   9
TORSDOF 3
