REMARK  2 active torsions:
REMARK  status: ('A' for Active; 'I' for Inactive)
REMARK    1  A    between atoms: C4_4  and  C5_5 
REMARK    2  A    between atoms: C5_5  and  C6_6 
ROOT
HETATM    1  C1  UNL     1     -33.514   8.278   5.846  1.00 20.00     0.033 C 
HETATM    2  C2  UNL     1     -33.677   7.077   6.753  1.00 20.00     0.168 C 
HETATM    3  C3  UNL     1     -33.639   6.329   4.547  1.00 20.00     0.172 C 
HETATM    4  C4  UNL     1     -32.895   7.651   4.615  1.00 20.00     0.012 C 
HETATM    5  O7  UNL     1     -33.907   5.943   5.904  1.00 20.00    -0.391 OA
ENDROOT
BRANCH   4   6
HETATM    6  C5  UNL     1     -33.023   8.491   3.359  1.00 20.00     0.017 C 
BRANCH   6   7
HETATM    7  C6  UNL     1     -32.342   7.823   2.176  1.00 20.00     0.085 C 
HETATM    8 BR8  UNL     1     -32.577   8.907   0.576  1.00 20.00    -0.096 Br
ENDBRANCH   6   7
ENDBRANCH   4   6
TORSDOF 2
