REMARK  3 active torsions:
REMARK  status: ('A' for Active; 'I' for Inactive)
REMARK    1  A    between atoms: C4_4  and  C7_7 
REMARK    2  A    between atoms: C7_7  and  C9_9 
REMARK    3  A    between atoms: C8_8  and  C9_9 
ROOT
HETATM    1  C1  UNL     1     -34.751   4.713   4.289  1.00 20.00     0.002 C 
HETATM    2  C2  UNL     1     -33.513   5.347   3.645  1.00 20.00     0.006 C 
HETATM    3  C3  UNL     1     -35.484   5.845   5.011  1.00 20.00     0.020 C 
HETATM    4  C4  UNL     1     -33.618   6.845   3.943  1.00 20.00     0.004 C 
HETATM    5  C5  UNL     1     -34.420   6.914   5.247  1.00 20.00     0.086 C 
HETATM    6 CL10 UNL     1     -33.458   6.500   6.699  1.00 20.00    -0.125 Cl
ENDROOT
BRANCH   4   7
HETATM    7  C7  UNL     1     -32.298   7.552   3.950  1.00 20.00     0.006 C 
BRANCH   7   8
HETATM    8  C9  UNL     1     -32.465   9.048   4.213  1.00 20.00     0.000 C 
BRANCH   8   9
HETATM    9  C8  UNL     1     -33.361   9.700   3.160  1.00 20.00    -0.005 C 
HETATM   10  C6  UNL     1     -32.766   9.574   1.767  1.00 20.00     0.005 C 
ENDBRANCH   8   9
ENDBRANCH   7   8
ENDBRANCH   4   7
TORSDOF 3
