REMARK  2 active torsions:
REMARK  status: ('A' for Active; 'I' for Inactive)
REMARK    1  A    between atoms: C4_4  and  C7_7 
REMARK    2  A    between atoms: C7_7  and  C8_8 
ROOT
HETATM    1  C1  UNL     1     -33.915   4.595   6.485  1.00 20.00     0.002 C 
HETATM    2  C2  UNL     1     -34.747   5.816   6.084  1.00 20.00     0.006 C 
HETATM    3  C3  UNL     1     -33.355   4.007   5.188  1.00 20.00     0.020 C 
HETATM    4  C4  UNL     1     -34.305   6.165   4.659  1.00 20.00     0.004 C 
HETATM    5  C5  UNL     1     -34.067   4.768   4.074  1.00 20.00     0.086 C 
HETATM    6 CL9  UNL     1     -33.165   4.738   2.552  1.00 20.00    -0.125 Cl
ENDROOT
BRANCH   4   7
HETATM    7  C7  UNL     1     -33.084   7.088   4.675  1.00 20.00     0.005 C 
BRANCH   7   8
HETATM    8  C8  UNL     1     -33.486   8.543   4.901  1.00 20.00    -0.004 C 
HETATM    9  C6  UNL     1     -32.271   9.456   4.944  1.00 20.00     0.005 C 
ENDBRANCH   7   8
ENDBRANCH   4   7
TORSDOF 2
