REMARK  2 active torsions:
REMARK  status: ('A' for Active; 'I' for Inactive)
REMARK    1  A    between atoms: C4_4  and  C8_8 
REMARK    2  A    between atoms: C8_8  and  C9_9 
ROOT
HETATM    1  C1  UNL     1     -34.525   5.395   6.900  1.00 20.00     0.002 C 
HETATM    2  C2  UNL     1     -33.708   6.475   6.182  1.00 20.00     0.006 C 
HETATM    3  C3  UNL     1     -35.577   4.917   5.899  1.00 20.00     0.020 C 
HETATM    4  C4  UNL     1     -34.397   6.677   4.829  1.00 20.00     0.004 C 
HETATM    5  C5  UNL     1     -35.033   5.313   4.530  1.00 20.00     0.086 C 
HETATM    6 CL10 UNL     1     -33.856   4.094   3.962  1.00 20.00    -0.125 Cl
ENDROOT
BRANCH   4   7
HETATM    7  C8  UNL     1     -33.474   7.239   3.759  1.00 20.00     0.010 C 
BRANCH   7   8
HETATM    8  C9  UNL     1     -33.331   8.771   3.810  1.00 20.00    -0.022 C 
HETATM    9  C6  UNL     1     -32.764   9.258   5.145  1.00 20.00     0.009 C 
HETATM   10  C7  UNL     1     -32.438   9.249   2.664  1.00 20.00     0.009 C 
ENDBRANCH   7   8
ENDBRANCH   4   7
TORSDOF 2
