REMARK  4 active torsions:
REMARK  status: ('A' for Active; 'I' for Inactive)
REMARK    1  A    between atoms: C5_5  and  C6_6 
REMARK    2  A    between atoms: C5_5  and  C7_7 
REMARK    3  A    between atoms: C6_6  and  C8_8 
REMARK    4  A    between atoms: C7_7  and  C9_9 
ROOT
HETATM    1  C5  UNL     1     -32.832   7.512   4.697  1.00 20.00     0.002 C 
ENDROOT
BRANCH   1   2
HETATM    2  C6  UNL     1     -32.776   8.754   3.795  1.00 20.00     0.020 C 
BRANCH   2   3
HETATM    3  C8  UNL     1     -33.080   8.506   2.311  1.00 20.00     0.078 C 
HETATM    4  C1  UNL     1     -32.094   7.563   1.633  1.00 20.00     0.026 C 
HETATM    5 CL10 UNL     1     -33.146  10.051   1.411  1.00 20.00    -0.125 Cl
ENDBRANCH   2   3
ENDBRANCH   1   2
BRANCH   1   6
HETATM    6  C7  UNL     1     -34.215   6.849   4.626  1.00 20.00     0.008 C 
BRANCH   6   7
HETATM    7  C9  UNL     1     -34.379   5.542   5.447  1.00 20.00    -0.051 C 
HETATM    8  C2  UNL     1     -35.779   4.936   5.255  1.00 20.00     0.014 C 
HETATM    9  C3  UNL     1     -33.319   4.500   5.055  1.00 20.00     0.014 C 
HETATM   10  C4  UNL     1     -34.197   5.887   6.939  1.00 20.00     0.014 C 
ENDBRANCH   6   7
ENDBRANCH   1   6
TORSDOF 4
