REMARK  0 active torsions:
REMARK  status: ('A' for Active; 'I' for Inactive)
ROOT
HETATM    1  C1  UNL     1     -32.457   6.564   2.350  1.00 20.00     0.019 A 
HETATM    2  C2  UNL     1     -33.046   6.195   3.563  1.00 20.00    -0.033 A 
HETATM    3  C3  UNL     1     -32.394   7.902   1.982  1.00 20.00    -0.021 A 
HETATM    4  C4  UNL     1     -33.538   7.214   4.384  1.00 20.00     0.042 A 
HETATM    5  C5  UNL     1     -32.922   8.836   2.854  1.00 20.00     0.132 A 
HETATM    6  C6  UNL     1     -33.073   4.748   3.977  1.00 20.00     0.040 C 
HETATM    7  C7  UNL     1     -34.215   6.901   5.693  1.00 20.00     0.060 C 
HETATM    8  C8  UNL     1     -34.041   4.469   5.126  1.00 20.00     0.005 C 
HETATM    9  C9  UNL     1     -33.879   5.511   6.227  1.00 20.00     0.006 C 
HETATM   10  C10 UNL     1     -31.767   8.279   0.684  1.00 20.00     0.051 C 
HETATM   11  N11 UNL     1     -33.492   8.526   4.039  1.00 20.00    -0.240 NA
HETATM   12 CL12 UNL     1     -32.908  10.522   2.514  1.00 20.00    -0.062 Cl
ENDROOT
TORSDOF 0
