REMARK  2 active torsions:
REMARK  status: ('A' for Active; 'I' for Inactive)
REMARK    1  A    between atoms: C2_2  and  C8_8 
REMARK    2  A    between atoms: C6_6  and  C8_8 
ROOT
HETATM    1  C3  UNL     1     -34.629   5.902   6.614  1.00 20.00     0.002 C 
HETATM    2  C4  UNL     1     -33.439   6.825   6.337  1.00 20.00     0.006 C 
HETATM    3  C5  UNL     1     -35.464   5.880   5.332  1.00 20.00     0.020 C 
HETATM    4  C6  UNL     1     -33.691   7.410   4.943  1.00 20.00     0.007 C 
HETATM    5  C7  UNL     1     -34.508   6.326   4.229  1.00 20.00     0.086 C 
HETATM    6 CL9  UNL     1     -33.520   4.943   3.678  1.00 20.00    -0.125 Cl
ENDROOT
BRANCH   4   7
HETATM    7  C8  UNL     1     -32.421   7.867   4.242  1.00 20.00     0.032 C 
BRANCH   7   8
HETATM    8  C2  UNL     1     -32.721   8.453   2.895  1.00 20.00    -0.036 C 
HETATM    9  C1  UNL     1     -32.206   7.993   1.748  1.00 20.00     0.007 C 
ENDBRANCH   7   8
ENDBRANCH   4   7
TORSDOF 2
