REMARK  4 active torsions:
REMARK  status: ('A' for Active; 'I' for Inactive)
REMARK    1  A    between atoms: C2_2  and  C6_6 
REMARK    2  A    between atoms: C6_6  and  C7_7 
REMARK    3  A    between atoms: C7_7  and  C8_8 
REMARK    4  A    between atoms: C8_8  and  O9_9 
ROOT
HETATM    1  C4  UNL     1     -32.865   5.916   2.687  1.00 20.00     0.012 C 
HETATM    2  C7  UNL     1     -33.975   6.450   3.605  1.00 20.00     0.014 C 
ENDROOT
BRANCH   2   3
HETATM    3  C6  UNL     1     -33.321   7.332   4.698  1.00 20.00     0.039 C 
BRANCH   3   4
HETATM    4  C2  UNL     1     -32.886   8.705   4.235  1.00 20.00    -0.093 C 
HETATM    5  C1  UNL     1     -33.030   9.092   2.957  1.00 20.00     0.014 C 
HETATM    6  C3  UNL     1     -32.321   9.630   5.273  1.00 20.00     0.042 C 
ENDBRANCH   3   4
ENDBRANCH   2   3
BRANCH   2   7
HETATM    7  C8  UNL     1     -34.838   5.314   4.206  1.00 20.00     0.118 C 
HETATM    8  C5  UNL     1     -34.039   4.332   5.055  1.00 20.00     0.040 C 
BRANCH   7   9
HETATM    9  O9  UNL     1     -35.882   5.869   5.003  1.00 20.00    -0.396 OA
HETATM   10  H25 UNL     1     -36.434   5.125   5.291  1.00 20.00     0.210 HD
ENDBRANCH   7   9
ENDBRANCH   2   7
TORSDOF 4
