REMARK  1 active torsions:
REMARK  status: ('A' for Active; 'I' for Inactive)
REMARK    1  A    between atoms: C6_6  and  C8_8 
ROOT
HETATM    1  C1  UNL     1     -32.277   8.632   0.660  1.00 20.00     0.012 C 
HETATM    2  C2  UNL     1     -32.349   7.771   1.493  1.00 20.00    -0.117 C 
HETATM    3  C8  UNL     1     -32.433   6.714   2.508  1.00 20.00     0.099 C 
ENDROOT
BRANCH   3   4
HETATM    4  C6  UNL     1     -33.503   7.027   3.542  1.00 20.00     0.015 C 
HETATM    5  C4  UNL     1     -33.234   8.333   4.295  1.00 20.00     0.007 C 
HETATM    6  C3  UNL     1     -33.943   8.186   5.644  1.00 20.00     0.002 C 
HETATM    7  C5  UNL     1     -34.427   6.738   5.720  1.00 20.00     0.020 C 
HETATM    8  C7  UNL     1     -33.591   6.007   4.677  1.00 20.00     0.087 C 
HETATM    9 CL9  UNL     1     -34.341   4.481   4.180  1.00 20.00    -0.125 Cl
ENDBRANCH   3   4
TORSDOF 1
