REMARK  1 active torsions:
REMARK  status: ('A' for Active; 'I' for Inactive)
REMARK    1  A    between atoms: C4_4  and  C9_9 
ROOT
HETATM    1  C1  UNL     1     -32.650   5.598   2.716  1.00 20.00     0.006 C 
HETATM    2  C2  UNL     1     -33.593   4.993   3.760  1.00 20.00     0.021 C 
HETATM    3  C3  UNL     1     -33.032   7.951   3.551  1.00 20.00     0.010 C 
HETATM    4  C4  UNL     1     -33.062   7.017   2.329  1.00 20.00    -0.014 C 
HETATM    5  C5  UNL     1     -33.396   7.263   4.887  1.00 20.00     0.000 C 
HETATM    6  C6  UNL     1     -34.295   6.040   4.638  1.00 20.00     0.086 C 
HETATM    7  C7  UNL     1     -34.007   8.297   5.838  1.00 20.00     0.011 C 
HETATM    8 CL10 UNL     1     -34.822   5.253   6.158  1.00 20.00    -0.125 Cl
ENDROOT
BRANCH   4   9
HETATM    9  C9  UNL     1     -32.182   7.563   1.207  1.00 20.00     0.000 C 
HETATM   10  C8  UNL     1     -32.607   8.933   0.791  1.00 20.00     0.005 C 
ENDBRANCH   4   9
TORSDOF 1
