REMARK  1 active torsions:
REMARK  status: ('A' for Active; 'I' for Inactive)
REMARK    1  A    between atoms: C6_6  and  C8_8 
ROOT
HETATM    1  C1  UNL     1     -32.323   7.835   1.646  1.00 20.00     0.012 C 
HETATM    2  C2  UNL     1     -32.663   7.964   2.790  1.00 20.00    -0.117 C 
HETATM    3  C8  UNL     1     -33.079   8.129   4.188  1.00 20.00     0.098 C 
ENDROOT
BRANCH   3   4
HETATM    4  C6  UNL     1     -33.171   6.786   4.897  1.00 20.00     0.011 C 
HETATM    5  C4  UNL     1     -33.581   6.927   6.364  1.00 20.00     0.007 C 
HETATM    6  C3  UNL     1     -34.120   5.547   6.699  1.00 20.00     0.002 C 
HETATM    7  C5  UNL     1     -34.948   5.186   5.471  1.00 20.00     0.016 C 
HETATM    8  C7  UNL     1     -34.241   5.863   4.295  1.00 20.00     0.062 C 
HETATM    9 BR9  UNL     1     -33.404   4.525   3.146  1.00 20.00    -0.091 Br
ENDBRANCH   3   4
TORSDOF 1
