REMARK  2 active torsions:
REMARK  status: ('A' for Active; 'I' for Inactive)
REMARK    1  A    between atoms: C8_8  and  C9_9 
REMARK    2  A    between atoms: C9_9  and  N11_11 
ROOT
HETATM    1  C1  UNL     1     -32.473   7.971   3.060  1.00 20.00     0.071 C 
HETATM    2  C4  UNL     1     -32.300   9.596   4.980  1.00 20.00     0.028 A 
HETATM    3  C5  UNL     1     -33.714   9.644   4.480  1.00 20.00     0.028 A 
HETATM    4  C8  UNL     1     -32.923   8.360   4.372  1.00 20.00     0.075 A 
HETATM    5  N10 UNL     1     -32.110   7.658   2.003  1.00 20.00    -0.196 NA
ENDROOT
BRANCH   4   6
HETATM    6  C9  UNL     1     -33.283   7.235   5.282  1.00 20.00     0.296 C 
BRANCH   6   7
HETATM    7  N11 UNL     1     -34.636   6.727   4.990  1.00 20.00     0.090 N 
HETATM    8  C6  UNL     1     -35.147   5.959   6.134  1.00 20.00     0.272 C 
HETATM    9  C2  UNL     1     -34.599   4.548   5.981  1.00 20.00     0.032 C 
HETATM   10  C3  UNL     1     -34.234   4.416   4.510  1.00 20.00     0.032 C 
HETATM   11  C7  UNL     1     -34.588   5.759   3.886  1.00 20.00     0.272 C 
ENDBRANCH   6   7
ENDBRANCH   4   6
TORSDOF 2
