REMARK  2 active torsions:
REMARK  status: ('A' for Active; 'I' for Inactive)
REMARK    1  A    between atoms: C4_4  and  C8_8 
REMARK    2  A    between atoms: C8_8  and  C9_9 
ROOT
HETATM    1  C1  UNL     1     -34.182   4.432   4.129  1.00 20.00     0.002 C 
HETATM    2  C2  UNL     1     -33.862   5.679   3.300  1.00 20.00     0.006 C 
HETATM    3  C3  UNL     1     -34.521   4.926   5.535  1.00 20.00     0.020 C 
HETATM    4  C4  UNL     1     -33.828   6.840   4.298  1.00 20.00     0.004 C 
HETATM    5  C5  UNL     1     -34.849   6.401   5.347  1.00 20.00     0.086 C 
HETATM    6 CL10 UNL     1     -34.716   7.307   6.864  1.00 20.00    -0.125 Cl
ENDROOT
BRANCH   4   7
HETATM    7  C8  UNL     1     -34.140   8.181   3.650  1.00 20.00     0.010 C 
BRANCH   7   8
HETATM    8  C9  UNL     1     -32.924   8.837   2.974  1.00 20.00    -0.022 C 
HETATM    9  C6  UNL     1     -32.335   7.967   1.862  1.00 20.00     0.009 C 
HETATM   10  C7  UNL     1     -33.318  10.203   2.407  1.00 20.00     0.009 C 
ENDBRANCH   7   8
ENDBRANCH   4   7
TORSDOF 2
