REMARK  4 active torsions:
REMARK  status: ('A' for Active; 'I' for Inactive)
REMARK    1  A    between atoms: C6_6  and  C7_7 
REMARK    2  A    between atoms: C7_7  and  C9_9 
REMARK    3  A    between atoms: C8_8  and  C9_9 
REMARK    4  A    between atoms: C8_8  and  N11_11 
ROOT
HETATM    1  C1  UNL     1     -33.072   5.508   3.192  1.00 20.00     0.095 C 
HETATM    2  C8  UNL     1     -33.875   6.367   4.081  1.00 20.00     0.331 C 
HETATM    3  N10 UNL     1     -32.444   4.830   2.490  1.00 20.00    -0.195 NA
ENDROOT
BRANCH   2   4
HETATM    4  C9  UNL     1     -33.435   7.858   4.025  1.00 20.00     0.029 C 
HETATM    5  C3  UNL     1     -31.989   8.074   4.498  1.00 20.00     0.013 C 
BRANCH   4   6
HETATM    6  C7  UNL     1     -33.666   8.444   2.611  1.00 20.00     0.007 C 
BRANCH   6   7
HETATM    7  C6  UNL     1     -32.469   8.263   1.673  1.00 20.00    -0.004 C 
HETATM    8  C2  UNL     1     -32.718   8.923   0.324  1.00 20.00     0.005 C 
ENDBRANCH   6   7
ENDBRANCH   4   6
ENDBRANCH   2   4
BRANCH   2   9
HETATM    9  N11 UNL     1     -33.807   5.855   5.452  1.00 20.00     0.098 N 
HETATM   10  C4  UNL     1     -33.866   4.394   5.452  1.00 20.00     0.311 C 
HETATM   11  C5  UNL     1     -34.891   6.413   6.258  1.00 20.00     0.311 C 
ENDBRANCH   2   9
TORSDOF 4
