REMARK  3 active torsions:
REMARK  status: ('A' for Active; 'I' for Inactive)
REMARK    1  A    between atoms: C1_1  and  C7_7 
REMARK    2  A    between atoms: C5_5  and  N8_8 
REMARK    3  A    between atoms: C7_7  and  N8_8 
ROOT
HETATM    1  C2  UNL     1     -32.592   6.270   2.384  1.00 20.00     0.047 C 
HETATM    2  C3  UNL     1     -32.203   7.618   1.798  1.00 20.00     0.076 C 
HETATM    3  C4  UNL     1     -32.427   7.511   4.475  1.00 20.00     0.109 C 
HETATM    4  C5  UNL     1     -33.330   6.569   3.687  1.00 20.00     0.233 C 
HETATM    5  S10 UNL     1     -31.736   8.636   3.227  1.00 20.00    -0.167 SA
ENDROOT
BRANCH   4   6
HETATM    6  N8  UNL     1     -33.619   5.358   4.444  1.00 20.00     0.096 N 
HETATM    7  C6  UNL     1     -34.029   4.274   3.549  1.00 20.00     0.310 C 
BRANCH   6   8
HETATM    8  C7  UNL     1     -34.659   5.609   5.444  1.00 20.00     0.341 C 
BRANCH   8   9
HETATM    9  C1  UNL     1     -34.025   6.277   6.631  1.00 20.00     0.261 C 
HETATM   10  O9  UNL     1     -34.373   7.385   7.031  1.00 20.00    -0.305 OA
ENDBRANCH   8   9
ENDBRANCH   6   8
ENDBRANCH   4   6
TORSDOF 3
