REMARK  2 active torsions:
REMARK  status: ('A' for Active; 'I' for Inactive)
REMARK    1  A    between atoms: C1_1  and  C7_7 
REMARK    2  A    between atoms: C7_7  and  N8_8 
ROOT
HETATM    1  C2  UNL     1     -34.217   5.260   3.770  1.00 20.00     0.040 C 
HETATM    2  C3  UNL     1     -32.892   5.897   3.346  1.00 20.00     0.273 C 
HETATM    3  C4  UNL     1     -32.755   7.832   4.869  1.00 20.00     0.283 C 
HETATM    4  C5  UNL     1     -34.281   4.744   5.202  1.00 20.00     0.075 C 
HETATM    5  C6  UNL     1     -33.908   7.459   5.802  1.00 20.00     0.104 C 
HETATM    6  N8  UNL     1     -32.894   7.360   3.484  1.00 20.00     0.095 N 
HETATM    7  S10 UNL     1     -33.683   5.817   6.539  1.00 20.00    -0.167 SA
ENDROOT
BRANCH   6   8
HETATM    8  C7  UNL     1     -31.820   7.937   2.666  1.00 20.00     0.341 C 
BRANCH   8   9
HETATM    9  C1  UNL     1     -32.291   7.999   1.240  1.00 20.00     0.261 C 
HETATM   10  O9  UNL     1     -32.869   8.978   0.777  1.00 20.00    -0.305 OA
ENDBRANCH   8   9
ENDBRANCH   6   8
TORSDOF 2
