REMARK  0 active torsions:
REMARK  status: ('A' for Active; 'I' for Inactive)
ROOT
HETATM    1  C1  UNL     1     -33.237   6.274   3.540  1.00 20.00     0.055 A 
HETATM    2  C2  UNL     1     -33.807   6.380   4.785  1.00 20.00    -0.029 A 
HETATM    3  C3  UNL     1     -33.795   7.606   5.427  1.00 20.00     0.063 A 
HETATM    4  C4  UNL     1     -32.672   7.429   3.030  1.00 20.00     0.148 A 
HETATM    5  C5  UNL     1     -34.522   5.351   5.594  1.00 20.00     0.041 C 
HETATM    6  C6  UNL     1     -34.511   7.535   6.743  1.00 20.00     0.062 C 
HETATM    7  C7  UNL     1     -34.523   6.017   6.981  1.00 20.00     0.011 C 
HETATM    8  N8  UNL     1     -33.250   8.717   4.909  1.00 20.00    -0.153 NA
HETATM    9  N9  UNL     1     -32.669   8.621   3.684  1.00 20.00    -0.138 NA
HETATM   10 CL10 UNL     1     -31.920   7.449   1.490  1.00 20.00    -0.060 Cl
ENDROOT
TORSDOF 0
