REMARK  2 active torsions:
REMARK  status: ('A' for Active; 'I' for Inactive)
REMARK    1  A    between atoms: C2_2  and  C3_3 
REMARK    2  A    between atoms: C3_3  and  C11_11 
ROOT
HETATM    1  C7  UNL     1     -34.857   5.014   6.208  1.00 20.00     0.005 C 
HETATM    2  C8  UNL     1     -33.454   5.376   6.720  1.00 20.00     0.006 C 
HETATM    3  C9  UNL     1     -34.568   6.550   4.245  1.00 20.00     0.017 C 
HETATM    4  C10 UNL     1     -34.714   7.373   6.473  1.00 20.00     0.010 C 
HETATM    5  C11 UNL     1     -33.142   6.857   4.734  1.00 20.00     0.065 C 
HETATM    6  C12 UNL     1     -35.340   6.323   5.559  1.00 20.00    -0.013 C 
HETATM    7  C13 UNL     1     -33.292   6.839   6.269  1.00 20.00    -0.003 C 
ENDROOT
BRANCH   5   8
HETATM    8  C3  UNL     1     -32.665   8.188   4.238  1.00 20.00     0.159 C 
HETATM    9  O14 UNL     1     -32.386   9.106   5.005  1.00 20.00    -0.292 OA
BRANCH   8  10
HETATM   10  C2  UNL     1     -32.548   8.369   2.826  1.00 20.00    -0.016 C 
HETATM   11  C1  UNL     1     -32.270   7.418   1.926  1.00 20.00    -0.016 C 
HETATM   12  C4  UNL     1     -32.206   7.971   0.541  1.00 20.00     0.028 C 
HETATM   13  C6  UNL     1     -32.829   9.357   0.700  1.00 20.00     0.009 C 
HETATM   14  C5  UNL     1     -32.713   9.709   2.184  1.00 20.00     0.042 C 
ENDBRANCH   8  10
ENDBRANCH   5   8
TORSDOF 2
