REMARK  2 active torsions:
REMARK  status: ('A' for Active; 'I' for Inactive)
REMARK    1  A    between atoms: C2_2  and  C3_3 
REMARK    2  A    between atoms: C3_3  and  C9_9 
ROOT
HETATM    1  C1  UNL     1     -33.335   6.791   6.251  1.00 20.00    -0.016 C 
HETATM    2  C2  UNL     1     -33.534   6.960   4.939  1.00 20.00    -0.016 C 
HETATM    3  C4  UNL     1     -34.314   5.830   6.838  1.00 20.00     0.028 C 
HETATM    4  C5  UNL     1     -34.679   6.138   4.440  1.00 20.00     0.042 C 
HETATM    5  C6  UNL     1     -35.364   5.700   5.736  1.00 20.00     0.009 C 
ENDROOT
BRANCH   2   6
HETATM    6  C3  UNL     1     -32.767   7.794   4.068  1.00 20.00     0.159 C 
HETATM    7  O10 UNL     1     -32.673   9.015   4.265  1.00 20.00    -0.292 OA
BRANCH   6   8
HETATM    8  C9  UNL     1     -32.056   7.153   2.894  1.00 20.00     0.060 A 
HETATM    9  C7  UNL     1     -32.868   6.352   1.948  1.00 20.00     0.013 A 
HETATM   10  C8  UNL     1     -32.333   7.692   1.542  1.00 20.00     0.013 A 
ENDBRANCH   6   8
ENDBRANCH   2   6
TORSDOF 2
