REMARK  2 active torsions:
REMARK  status: ('A' for Active; 'I' for Inactive)
REMARK    1  A    between atoms: C2_2  and  C3_3 
REMARK    2  A    between atoms: C3_3  and  C8_8 
ROOT
HETATM    1  C3  UNL     1     -32.845   8.486   4.158  1.00 20.00     0.159 C 
HETATM    2  O11 UNL     1     -32.141   9.233   4.855  1.00 20.00    -0.292 OA
ENDROOT
BRANCH   1   3
HETATM    3  C2  UNL     1     -32.725   8.474   2.734  1.00 20.00    -0.016 C 
HETATM    4  C1  UNL     1     -32.917   9.514   1.915  1.00 20.00    -0.016 C 
HETATM    5  C4  UNL     1     -32.727   9.132   0.485  1.00 20.00     0.028 C 
HETATM    6  C6  UNL     1     -32.051   7.766   0.586  1.00 20.00     0.009 C 
HETATM    7  C5  UNL     1     -32.378   7.230   1.980  1.00 20.00     0.042 C 
ENDBRANCH   1   3
BRANCH   1   8
HETATM    8  C8  UNL     1     -33.862   7.570   4.806  1.00 20.00     0.064 A 
HETATM    9  C7  UNL     1     -33.626   7.162   6.213  1.00 20.00     0.018 A 
HETATM   10  C9  UNL     1     -33.438   6.168   5.098  1.00 20.00    -0.006 A 
HETATM   11  C10 UNL     1     -34.419   5.064   4.903  1.00 20.00     0.011 C 
ENDBRANCH   1   8
TORSDOF 2
