REMARK  4 active torsions:
REMARK  status: ('A' for Active; 'I' for Inactive)
REMARK    1  A    between atoms: C2_2  and  C11_11 
REMARK    2  A    between atoms: C9_9  and  C10_10 
REMARK    3  A    between atoms: C10_10  and  C11_11 
REMARK    4  A    between atoms: C11_11  and  O12_12 
ROOT
HETATM    1  C11 UNL     1     -32.651   7.735   4.112  1.00 20.00     0.147 C 
ENDROOT
BRANCH   1   2
HETATM    2  C2  UNL     1     -32.526   7.991   2.639  1.00 20.00    -0.055 C 
HETATM    3  C1  UNL     1     -31.912   7.124   1.816  1.00 20.00    -0.021 C 
HETATM    4  C3  UNL     1     -31.798   7.323   0.333  1.00 20.00     0.027 C 
HETATM    5  C5  UNL     1     -32.718   8.420  -0.201  1.00 20.00     0.004 C 
HETATM    6  C6  UNL     1     -32.701   9.641   0.711  1.00 20.00     0.005 C 
HETATM    7  C4  UNL     1     -33.133   9.277   2.134  1.00 20.00     0.036 C 
ENDBRANCH   1   2
BRANCH   1   8
HETATM    8  C10 UNL     1     -32.603   6.248   4.431  1.00 20.00     0.041 C 
BRANCH   8   9
HETATM    9  C9  UNL     1     -33.700   5.461   3.730  1.00 20.00    -0.012 A 
HETATM   10  C7  UNL     1     -34.100   4.103   4.237  1.00 20.00     0.005 A 
HETATM   11  C8  UNL     1     -35.035   5.269   4.394  1.00 20.00     0.005 A 
ENDBRANCH   8   9
ENDBRANCH   1   8
BRANCH   1  12
HETATM   12  O12 UNL     1     -31.526   8.370   4.697  1.00 20.00    -0.391 OA
HETATM   13  H30 UNL     1     -31.582   8.219   5.655  1.00 20.00     0.210 HD
ENDBRANCH   1  12
TORSDOF 4
