REMARK  2 active torsions:
REMARK  status: ('A' for Active; 'I' for Inactive)
REMARK    1  A    between atoms: C2_2  and  C3_3 
REMARK    2  A    between atoms: C3_3  and  C9_9 
ROOT
HETATM    1  C1  UNL     1     -33.181   7.215   5.081  1.00 20.00    -0.016 C 
HETATM    2  C2  UNL     1     -33.066   6.941   3.774  1.00 20.00    -0.016 C 
HETATM    3  C4  UNL     1     -33.772   6.243   6.061  1.00 20.00     0.028 C 
HETATM    4  C5  UNL     1     -33.478   5.640   3.155  1.00 20.00     0.042 C 
HETATM    5  C6  UNL     1     -34.498   5.072   5.392  1.00 20.00     0.004 C 
HETATM    6  C7  UNL     1     -33.713   4.541   4.196  1.00 20.00     0.005 C 
ENDROOT
BRANCH   2   7
HETATM    7  C3  UNL     1     -32.483   7.971   2.911  1.00 20.00     0.159 C 
HETATM    8  O12 UNL     1     -32.107   9.047   3.382  1.00 20.00    -0.292 OA
BRANCH   7   9
HETATM    9  C9  UNL     1     -32.350   7.671   1.439  1.00 20.00     0.064 A 
HETATM   10  C8  UNL     1     -31.151   8.190   0.725  1.00 20.00     0.018 A 
HETATM   11  C10 UNL     1     -32.509   8.769   0.446  1.00 20.00    -0.006 A 
HETATM   12  C11 UNL     1     -32.809  10.181   0.821  1.00 20.00     0.011 C 
ENDBRANCH   7   9
ENDBRANCH   2   7
TORSDOF 2
