REMARK  3 active torsions:
REMARK  status: ('A' for Active; 'I' for Inactive)
REMARK    1  A    between atoms: C6_6  and  N10_10 
REMARK    2  A    between atoms: C7_7  and  C8_8 
REMARK    3  A    between atoms: C8_8  and  N10_10 
ROOT
HETATM    1  C1  UNL     1     -32.796   8.800   3.519  1.00 20.00     0.094 C 
HETATM    2  C2  UNL     1     -31.413   9.762   5.321  1.00 20.00     0.059 C 
HETATM    3  C6  UNL     1     -32.679   8.991   4.971  1.00 20.00     0.322 C 
HETATM    4  N9  UNL     1     -32.890   8.653   2.372  1.00 20.00    -0.195 NA
ENDROOT
BRANCH   3   5
HETATM    5  N10 UNL     1     -32.698   7.696   5.645  1.00 20.00     0.105 N 
HETATM    6  H26 UNL     1     -32.291   7.803   6.576  1.00 20.00     0.318 HD
BRANCH   5   7
HETATM    7  C8  UNL     1     -34.048   7.183   5.759  1.00 20.00     0.221 C 
HETATM    8  C5  UNL     1     -34.086   6.123   6.857  1.00 20.00     0.043 C 
BRANCH   7   9
HETATM    9  C7  UNL     1     -34.559   6.663   4.396  1.00 20.00     0.010 C 
HETATM   10  C3  UNL     1     -33.740   5.499   3.828  1.00 20.00     0.011 C 
HETATM   11  C4  UNL     1     -36.038   6.267   4.471  1.00 20.00     0.011 C 
ENDBRANCH   7   9
ENDBRANCH   5   7
ENDBRANCH   3   5
TORSDOF 3
