REMARK  3 active torsions:
REMARK  status: ('A' for Active; 'I' for Inactive)
REMARK    1  A    between atoms: C3_3  and  C5_5 
REMARK    2  A    between atoms: C5_5  and  C6_6 
REMARK    3  A    between atoms: C6_6  and  S9_9 
ROOT
HETATM    1  C1  UNL     1     -34.857   6.206   6.200  1.00 20.00     0.281 C 
HETATM    2  C2  UNL     1     -34.648   4.952   5.363  1.00 20.00     0.106 C 
HETATM    3  C3  UNL     1     -33.532   7.181   4.515  1.00 20.00     0.282 C 
HETATM    4  N7  UNL     1     -33.706   7.078   5.965  1.00 20.00     0.098 N 
HETATM    5  S8  UNL     1     -34.006   5.578   3.793  1.00 20.00    -0.132 SA
HETATM    6  H22 UNL     1     -33.863   7.998   6.372  1.00 20.00     0.317 HD
ENDROOT
BRANCH   3   7
HETATM    7  C5  UNL     1     -32.091   7.526   4.177  1.00 20.00     0.056 C 
BRANCH   7   8
HETATM    8  C6  UNL     1     -31.881   7.600   2.668  1.00 20.00     0.076 C 
BRANCH   8   9
HETATM    9  S9  UNL     1     -32.953   8.868   1.936  1.00 20.00    -0.173 SA
HETATM   10  C4  UNL     1     -32.483   8.643   0.206  1.00 20.00     0.089 C 
ENDBRANCH   8   9
ENDBRANCH   7   8
ENDBRANCH   3   7
TORSDOF 3
