REMARK  5 active torsions:
REMARK  status: ('A' for Active; 'I' for Inactive)
REMARK    1  A    between atoms: C5_5  and  N10_10 
REMARK    2  A    between atoms: C6_6  and  C7_7 
REMARK    3  A    between atoms: C6_6  and  C8_8 
REMARK    4  A    between atoms: C7_7  and  C9_9 
REMARK    5  A    between atoms: C8_8  and  N10_10 
ROOT
HETATM    1  C1  UNL     1     -33.008   4.848   2.964  1.00 20.00     0.013 C 
HETATM    2  C2  UNL     1     -33.849   4.650   3.798  1.00 20.00    -0.087 C 
HETATM    3  C5  UNL     1     -34.875   4.405   4.814  1.00 20.00     0.362 C 
ENDROOT
BRANCH   3   4
HETATM    4  N10 UNL     1     -35.393   5.668   5.341  1.00 20.00     0.094 N 
HETATM    5  H27 UNL     1     -36.305   5.486   5.775  1.00 20.00     0.317 HD
BRANCH   4   6
HETATM    6  C8  UNL     1     -34.495   6.253   6.298  1.00 20.00     0.270 C 
BRANCH   6   7
HETATM    7  C6  UNL     1     -33.379   7.055   5.633  1.00 20.00     0.030 C 
BRANCH   7   8
HETATM    8  C7  UNL     1     -33.917   8.194   4.760  1.00 20.00     0.005 C 
BRANCH   8   9
HETATM    9  C9  UNL     1     -32.811   8.976   4.025  1.00 20.00    -0.023 C 
HETATM   10  C3  UNL     1     -32.029   8.030   3.109  1.00 20.00     0.009 C 
HETATM   11  C4  UNL     1     -33.365  10.144   3.208  1.00 20.00     0.009 C 
ENDBRANCH   8   9
ENDBRANCH   7   8
ENDBRANCH   6   7
ENDBRANCH   4   6
ENDBRANCH   3   4
TORSDOF 5
