REMARK  1 active torsions:
REMARK  status: ('A' for Active; 'I' for Inactive)
REMARK    1  A    between atoms: C9_9  and  O11_11 
ROOT
HETATM    1  C1  UNL     1     -33.661   5.712   3.069  1.00 20.00     0.052 A 
HETATM    2  C2  UNL     1     -31.966   7.458   3.103  1.00 20.00     0.049 A 
HETATM    3  C3  UNL     1     -34.111   6.172   4.296  1.00 20.00    -0.020 A 
HETATM    4  C4  UNL     1     -33.502   7.267   4.922  1.00 20.00    -0.043 A 
HETATM    5  C5  UNL     1     -32.433   7.924   4.334  1.00 20.00    -0.052 A 
HETATM    6  C6  UNL     1     -32.576   6.360   2.475  1.00 20.00     0.117 A 
HETATM    7  C7  UNL     1     -34.192   7.603   6.207  1.00 20.00     0.042 C 
HETATM    8  C8  UNL     1     -34.950   6.297   6.482  1.00 20.00     0.041 C 
HETATM    9  C9  UNL     1     -35.270   5.680   5.110  1.00 20.00     0.152 C 
HETATM   10  C10 UNL     1     -31.789   9.099   4.982  1.00 20.00     0.049 C 
HETATM   11  F12 UNL     1     -32.116   5.935   1.291  1.00 20.00    -0.206 F 
ENDROOT
BRANCH   9  12
HETATM   12  O11 UNL     1     -35.306   4.269   5.186  1.00 20.00    -0.391 OA
HETATM   13  H23 UNL     1     -36.079   4.030   5.726  1.00 20.00     0.210 HD
ENDBRANCH   9  12
TORSDOF 1
