REMARK  3 active torsions:
REMARK  status: ('A' for Active; 'I' for Inactive)
REMARK    1  A    between atoms: C3_3  and  C4_4 
REMARK    2  A    between atoms: C3_3  and  C5_5 
REMARK    3  A    between atoms: C5_5  and  C6_6 
ROOT
HETATM    1  C1  UNL     1     -32.056   7.513   0.939  1.00 20.00     0.012 C 
HETATM    2  C2  UNL     1     -32.456   6.987   1.941  1.00 20.00    -0.110 C 
HETATM    3  C4  UNL     1     -32.947   6.337   3.162  1.00 20.00     0.171 C 
ENDROOT
BRANCH   3   4
HETATM    4  C3  UNL     1     -32.889   7.250   4.373  1.00 20.00     0.146 C 
HETATM    5  O7  UNL     1     -32.496   8.414   4.305  1.00 20.00    -0.297 OA
BRANCH   4   6
HETATM    6  C5  UNL     1     -33.352   6.629   5.682  1.00 20.00     0.196 C 
BRANCH   6   7
HETATM    7  C6  UNL     1     -34.429   5.585   5.496  1.00 20.00     0.394 C 
HETATM    8  F8  UNL     1     -34.805   5.080   6.692  1.00 20.00    -0.171 F 
HETATM    9  F9  UNL     1     -35.528   6.107   4.911  1.00 20.00    -0.171 F 
HETATM   10  F10 UNL     1     -33.995   4.556   4.738  1.00 20.00    -0.171 F 
ENDBRANCH   6   7
ENDBRANCH   4   6
ENDBRANCH   3   4
TORSDOF 3
