REMARK  4 active torsions:
REMARK  status: ('A' for Active; 'I' for Inactive)
REMARK    1  A    between atoms: C2_2  and  C5_5 
REMARK    2  A    between atoms: C2_2  and  C9_9 
REMARK    3  A    between atoms: C7_7  and  C9_9 
REMARK    4  A    between atoms: C8_8  and  C9_9 
ROOT
HETATM    1  C1  UNL     1     -34.216   5.995   5.694  1.00 20.00     0.059 C 
HETATM    2  C7  UNL     1     -34.123   7.059   4.682  1.00 20.00     0.136 C 
HETATM    3  N10 UNL     1     -34.291   5.157   6.493  1.00 20.00    -0.197 NA
ENDROOT
BRANCH   2   4
HETATM    4  C9  UNL     1     -32.857   6.967   3.813  1.00 20.00     0.068 C 
BRANCH   4   5
HETATM    5  C2  UNL     1     -32.526   8.336   3.225  1.00 20.00     0.136 C 
HETATM    6  O11 UNL     1     -31.866   9.192   3.802  1.00 20.00    -0.297 OA
BRANCH   5   7
HETATM    7  C5  UNL     1     -33.078   8.618   1.866  1.00 20.00     0.056 A 
HETATM    8  C3  UNL     1     -32.378   9.615   1.005  1.00 20.00     0.013 A 
HETATM    9  C4  UNL     1     -32.308   8.154   0.676  1.00 20.00     0.013 A 
ENDBRANCH   5   7
ENDBRANCH   4   5
BRANCH   4  10
HETATM   10  C8  UNL     1     -32.978   5.885   2.724  1.00 20.00     0.008 C 
HETATM   11  C6  UNL     1     -33.252   4.503   3.305  1.00 20.00     0.006 C 
ENDBRANCH   4  10
ENDBRANCH   2   4
TORSDOF 4
