REMARK  4 active torsions:
REMARK  status: ('A' for Active; 'I' for Inactive)
REMARK    1  A    between atoms: C2_2  and  C6_6 
REMARK    2  A    between atoms: C6_6  and  C7_7 
REMARK    3  A    between atoms: C7_7  and  C8_8 
REMARK    4  A    between atoms: C8_8  and  O9_9 
ROOT
HETATM    1  C1  UNL     1     -32.763   7.916   1.560  1.00 20.00    -0.111 C 
HETATM    2  C2  UNL     1     -33.034   7.170   2.461  1.00 20.00    -0.107 C 
HETATM    3  C3  UNL     1     -32.435   8.827   0.464  1.00 20.00     0.112 C 
ENDROOT
BRANCH   2   4
HETATM    4  C6  UNL     1     -33.366   6.254   3.562  1.00 20.00     0.100 C 
BRANCH   4   5
HETATM    5  C7  UNL     1     -34.092   6.940   4.736  1.00 20.00     0.021 C 
HETATM    6  C4  UNL     1     -33.113   7.783   5.569  1.00 20.00     0.013 C 
BRANCH   5   7
HETATM    7  C8  UNL     1     -34.891   5.971   5.639  1.00 20.00     0.118 C 
HETATM    8  C5  UNL     1     -34.019   4.938   6.344  1.00 20.00     0.040 C 
BRANCH   7   9
HETATM    9  O9  UNL     1     -35.832   5.268   4.825  1.00 20.00    -0.396 OA
HETATM   10  H23 UNL     1     -36.349   4.712   5.426  1.00 20.00     0.210 HD
ENDBRANCH   7   9
ENDBRANCH   5   7
ENDBRANCH   4   5
ENDBRANCH   2   4
TORSDOF 4
