REMARK  4 active torsions:
REMARK  status: ('A' for Active; 'I' for Inactive)
REMARK    1  A    between atoms: C2_2  and  C6_6 
REMARK    2  A    between atoms: C3_3  and  C6_6 
REMARK    3  A    between atoms: C3_3  and  C7_7 
REMARK    4  A    between atoms: C7_7  and  C8_8 
ROOT
HETATM    1  C1  UNL     1     -32.683   8.621   0.842  1.00 20.00    -0.111 C 
HETATM    2  C2  UNL     1     -32.393   7.859   1.724  1.00 20.00    -0.100 C 
HETATM    3  C4  UNL     1     -33.039   9.549  -0.230  1.00 20.00     0.112 C 
ENDROOT
BRANCH   2   4
HETATM    4  C6  UNL     1     -32.031   6.926   2.797  1.00 20.00     0.172 C 
BRANCH   4   5
HETATM    5  C3  UNL     1     -32.816   7.172   4.073  1.00 20.00     0.137 C 
HETATM    6  O9  UNL     1     -32.414   7.918   4.964  1.00 20.00    -0.297 OA
BRANCH   5   7
HETATM    7  C7  UNL     1     -34.141   6.431   4.176  1.00 20.00     0.079 C 
BRANCH   7   8
HETATM    8  C8  UNL     1     -34.185   5.468   5.358  1.00 20.00     0.003 C 
HETATM    9  C5  UNL     1     -33.953   6.191   6.675  1.00 20.00     0.005 C 
ENDBRANCH   7   8
ENDBRANCH   5   7
ENDBRANCH   4   5
ENDBRANCH   2   4
TORSDOF 4
