REMARK  3 active torsions:
REMARK  status: ('A' for Active; 'I' for Inactive)
REMARK    1  A    between atoms: C2_2  and  C9_9 
REMARK    2  A    between atoms: C6_6  and  C9_9 
REMARK    3  A    between atoms: C7_7  and  O10_10 
ROOT
HETATM    1  C1  UNL     1     -32.416   7.312   1.636  1.00 20.00    -0.111 C 
HETATM    2  C2  UNL     1     -32.734   6.485   2.446  1.00 20.00    -0.107 C 
HETATM    3  C8  UNL     1     -32.030   8.320   0.650  1.00 20.00     0.112 C 
ENDROOT
BRANCH   2   4
HETATM    4  C9  UNL     1     -33.121   5.470   3.432  1.00 20.00     0.101 C 
BRANCH   4   5
HETATM    5  C6  UNL     1     -33.790   6.104   4.641  1.00 20.00     0.025 C 
HETATM    6  C4  UNL     1     -34.586   5.108   5.480  1.00 20.00     0.008 C 
HETATM    7  C3  UNL     1     -34.708   5.763   6.856  1.00 20.00     0.003 C 
HETATM    8  C5  UNL     1     -33.655   6.870   6.900  1.00 20.00     0.032 C 
HETATM    9  C7  UNL     1     -32.798   6.665   5.657  1.00 20.00     0.123 C 
BRANCH   9  10
HETATM   10  O10 UNL     1     -32.237   7.883   5.206  1.00 20.00    -0.395 OA
HETATM   11  H24 UNL     1     -31.686   8.229   5.929  1.00 20.00     0.210 HD
ENDBRANCH   9  10
ENDBRANCH   4   5
ENDBRANCH   2   4
TORSDOF 3
