REMARK  2 active torsions:
REMARK  status: ('A' for Active; 'I' for Inactive)
REMARK    1  A    between atoms: C2_2  and  C11_11 
REMARK    2  A    between atoms: C7_7  and  C11_11 
ROOT
HETATM    1  C1  UNL     1     -32.226   8.193   0.654  1.00 20.00    -0.111 C 
HETATM    2  C2  UNL     1     -32.226   7.320   1.479  1.00 20.00    -0.106 C 
HETATM    3  C9  UNL     1     -32.227   9.256  -0.351  1.00 20.00     0.112 C 
ENDROOT
BRANCH   2   4
HETATM    4  C11 UNL     1     -32.218   6.251   2.481  1.00 20.00     0.106 C 
BRANCH   4   5
HETATM    5  C7  UNL     1     -33.353   6.433   3.486  1.00 20.00     0.067 C 
HETATM    6  C3  UNL     1     -33.028   7.517   4.508  1.00 20.00     0.132 C 
HETATM    7  C4  UNL     1     -34.016   7.683   5.642  1.00 20.00     0.079 C 
HETATM    8  O12 UNL     1     -32.074   8.285   4.384  1.00 20.00    -0.298 OA
HETATM    9  C5  UNL     1     -34.298   6.344   6.310  1.00 20.00     0.011 C 
HETATM   10  C8  UNL     1     -34.704   5.247   5.317  1.00 20.00    -0.017 C 
HETATM   11  C6  UNL     1     -33.646   5.114   4.209  1.00 20.00     0.017 C 
HETATM   12  C10 UNL     1     -36.106   5.478   4.748  1.00 20.00     0.010 C 
ENDBRANCH   4   5
ENDBRANCH   2   4
TORSDOF 2
