REMARK  2 active torsions:
REMARK  status: ('A' for Active; 'I' for Inactive)
REMARK    1  A    between atoms: C1_1  and  C5_5 
REMARK    2  A    between atoms: C6_6  and  C7_7 
ROOT
HETATM    1  C4  UNL     1     -33.649   8.359   5.505  1.00 20.00     0.021 A 
HETATM    2  C5  UNL     1     -33.489   6.864   5.431  1.00 20.00     0.091 A 
HETATM    3  C7  UNL     1     -33.558   7.688   4.161  1.00 20.00     0.005 A 
ENDROOT
BRANCH   2   4
HETATM    4  C1  UNL     1     -34.639   6.047   5.764  1.00 20.00     0.177 C 
HETATM    5  O8  UNL     1     -34.988   5.221   4.876  1.00 20.00    -0.648 OA
HETATM    6  O9  UNL     1     -35.138   6.273   6.902  1.00 20.00    -0.648 OA
ENDBRANCH   2   4
BRANCH   3   7
HETATM    7  C6  UNL     1     -32.362   7.862   3.237  1.00 20.00    -0.010 A 
HETATM    8  C2  UNL     1     -32.242   7.143   1.922  1.00 20.00     0.005 A 
HETATM    9  C3  UNL     1     -32.437   8.633   1.949  1.00 20.00     0.005 A 
ENDBRANCH   3   7
TORSDOF 2
