REMARK  3 active torsions:
REMARK  status: ('A' for Active; 'I' for Inactive)
REMARK    1  A    between atoms: C2_2  and  C7_7 
REMARK    2  A    between atoms: C3_3  and  C8_8 
REMARK    3  A    between atoms: C7_7  and  C8_8 
ROOT
HETATM    1  C1  UNL     1     -32.685   8.085   1.185  1.00 20.00    -0.111 C 
HETATM    2  C2  UNL     1     -32.649   7.189   1.984  1.00 20.00    -0.106 C 
HETATM    3  C4  UNL     1     -32.733   9.176   0.213  1.00 20.00     0.112 C 
ENDROOT
BRANCH   2   4
HETATM    4  C7  UNL     1     -32.603   6.094   2.965  1.00 20.00     0.105 C 
BRANCH   4   5
HETATM    5  C8  UNL     1     -33.904   5.942   3.765  1.00 20.00     0.062 C 
HETATM    6  C6  UNL     1     -34.060   4.535   4.345  1.00 20.00     0.018 C 
BRANCH   5   7
HETATM    7  C3  UNL     1     -34.034   7.010   4.853  1.00 20.00     0.127 C 
HETATM    8  C5  UNL     1     -33.340   8.327   4.606  1.00 20.00     0.091 C 
HETATM    9  O9  UNL     1     -34.685   6.829   5.882  1.00 20.00    -0.298 OA
ENDBRANCH   5   7
ENDBRANCH   4   5
ENDBRANCH   2   4
TORSDOF 3
