REMARK  4 active torsions:
REMARK  status: ('A' for Active; 'I' for Inactive)
REMARK    1  A    between atoms: C2_2  and  C7_7 
REMARK    2  A    between atoms: C7_7  and  N11_11 
REMARK    3  A    between atoms: C8_8  and  C9_9 
REMARK    4  A    between atoms: C8_8  and  N11_11 
ROOT
HETATM    1  C1  UNL     1     -32.675   8.776  -0.239  1.00 20.00    -0.109 C 
HETATM    2  C2  UNL     1     -32.821   9.003   0.932  1.00 20.00    -0.077 C 
HETATM    3  C4  UNL     1     -32.497   8.499  -1.663  1.00 20.00     0.112 C 
ENDROOT
BRANCH   2   4
HETATM    4  C7  UNL     1     -33.001   9.288   2.358  1.00 20.00     0.365 C 
BRANCH   4   5
HETATM    5  N11 UNL     1     -32.751   8.088   3.168  1.00 20.00     0.096 N 
HETATM    6  C6  UNL     1     -31.306   7.898   3.341  1.00 20.00     0.311 C 
BRANCH   5   7
HETATM    7  C8  UNL     1     -33.421   8.175   4.446  1.00 20.00     0.291 C 
BRANCH   7   8
HETATM    8  C9  UNL     1     -33.608   6.795   5.091  1.00 20.00     0.117 C 
HETATM    9  C3  UNL     1     -34.440   5.914   4.248  1.00 20.00     0.065 C 
HETATM   10  N10 UNL     1     -35.092   5.219   3.586  1.00 20.00    -0.197 NA
HETATM   11  C5  UNL     1     -34.189   6.892   6.502  1.00 20.00     0.027 C 
ENDBRANCH   7   8
ENDBRANCH   5   7
ENDBRANCH   4   5
ENDBRANCH   2   4
TORSDOF 4
