REMARK  4 active torsions:
REMARK  status: ('A' for Active; 'I' for Inactive)
REMARK    1  A    between atoms: C2_2  and  C7_7 
REMARK    2  A    between atoms: C5_5  and  C8_8 
REMARK    3  A    between atoms: C7_7  and  C8_8 
REMARK    4  A    between atoms: C8_8  and  O9_9 
ROOT
HETATM    1  C1  UNL     1     -33.064   9.380   2.018  1.00 20.00    -0.111 C 
HETATM    2  C2  UNL     1     -32.567   8.521   2.695  1.00 20.00    -0.104 C 
HETATM    3  C6  UNL     1     -33.670  10.426   1.196  1.00 20.00     0.112 C 
ENDROOT
BRANCH   2   4
HETATM    4  C7  UNL     1     -31.956   7.468   3.522  1.00 20.00     0.126 C 
BRANCH   4   5
HETATM    5  C8  UNL     1     -32.739   7.255   4.819  1.00 20.00     0.133 C 
BRANCH   5   6
HETATM    6  C5  UNL     1     -34.190   6.892   4.533  1.00 20.00     0.015 A 
HETATM    7  C3  UNL     1     -34.567   5.471   4.213  1.00 20.00     0.007 A 
HETATM    8  C4  UNL     1     -34.978   6.081   5.525  1.00 20.00     0.007 A 
ENDBRANCH   5   6
BRANCH   5   9
HETATM    9  O9  UNL     1     -32.715   8.466   5.574  1.00 20.00    -0.394 OA
HETATM   10  H21 UNL     1     -33.204   8.289   6.392  1.00 20.00     0.210 HD
ENDBRANCH   5   9
ENDBRANCH   4   5
ENDBRANCH   2   4
TORSDOF 4
