REMARK  4 active torsions:
REMARK  status: ('A' for Active; 'I' for Inactive)
REMARK    1  A    between atoms: C2_2  and  C7_7 
REMARK    2  A    between atoms: C7_7  and  N11_11 
REMARK    3  A    between atoms: C8_8  and  C9_9 
REMARK    4  A    between atoms: C8_8  and  N11_11 
ROOT
HETATM    1  C1  UNL     1     -32.192   8.344   0.665  1.00 20.00    -0.109 C 
HETATM    2  C2  UNL     1     -32.269   7.791   1.728  1.00 20.00    -0.079 C 
HETATM    3  C4  UNL     1     -32.101   9.016  -0.630  1.00 20.00     0.112 C 
ENDROOT
BRANCH   2   4
HETATM    4  C7  UNL     1     -32.361   7.114   3.019  1.00 20.00     0.327 C 
BRANCH   4   5
HETATM    5  N11 UNL     1     -32.787   8.097   4.080  1.00 20.00    -0.064 N 
HETATM    6  C6  UNL     1     -31.867   9.292   4.119  1.00 20.00     0.270 C 
HETATM    7  H26 UNL     1     -33.711   8.457   3.783  1.00 20.00     0.280 HD
BRANCH   5   8
HETATM    8  C8  UNL     1     -32.956   7.463   5.411  1.00 20.00     0.254 C 
BRANCH   8   9
HETATM    9  C9  UNL     1     -34.190   6.556   5.461  1.00 20.00     0.114 C 
HETATM   10  C3  UNL     1     -33.913   5.235   4.864  1.00 20.00     0.065 C 
HETATM   11  N10 UNL     1     -33.697   4.197   4.393  1.00 20.00    -0.197 NA
HETATM   12  C5  UNL     1     -34.757   6.395   6.871  1.00 20.00     0.027 C 
ENDBRANCH   8   9
ENDBRANCH   5   8
ENDBRANCH   4   5
ENDBRANCH   2   4
TORSDOF 4
