REMARK  3 active torsions:
REMARK  status: ('A' for Active; 'I' for Inactive)
REMARK    1  A    between atoms: C2_2  and  C10_10 
REMARK    2  A    between atoms: C7_7  and  N11_11 
REMARK    3  A    between atoms: C10_10  and  N11_11 
ROOT
HETATM    1  C1  UNL     1     -32.929   9.513   1.788  1.00 20.00    -0.109 C 
HETATM    2  C2  UNL     1     -33.099   9.011   2.866  1.00 20.00    -0.077 C 
HETATM    3  C8  UNL     1     -32.722  10.124   0.476  1.00 20.00     0.112 C 
ENDROOT
BRANCH   2   4
HETATM    4  C10 UNL     1     -33.309   8.405   4.184  1.00 20.00     0.363 C 
BRANCH   4   5
HETATM    5  N11 UNL     1     -32.964   6.994   4.167  1.00 20.00     0.103 N 
HETATM    6  H28 UNL     1     -31.956   6.887   4.242  1.00 20.00     0.318 HD
BRANCH   5   7
HETATM    7  C7  UNL     1     -33.588   6.304   5.281  1.00 20.00     0.155 C 
HETATM    8  C5  UNL     1     -33.233   4.813   5.259  1.00 20.00     0.041 C 
HETATM    9  C3  UNL     1     -34.150   4.212   4.194  1.00 20.00     0.003 C 
HETATM   10  C4  UNL     1     -35.356   5.147   4.096  1.00 20.00     0.003 C 
HETATM   11  C6  UNL     1     -35.110   6.265   5.108  1.00 20.00     0.041 C 
HETATM   12  C9  UNL     1     -33.173   6.976   6.586  1.00 20.00     0.049 C 
ENDBRANCH   5   7
ENDBRANCH   4   5
ENDBRANCH   2   4
TORSDOF 3
