REMARK  4 active torsions:
REMARK  status: ('A' for Active; 'I' for Inactive)
REMARK    1  A    between atoms: C2_2  and  C6_6 
REMARK    2  A    between atoms: C6_6  and  N10_10 
REMARK    3  A    between atoms: C7_7  and  N10_10 
REMARK    4  A    between atoms: C8_8  and  N10_10 
ROOT
HETATM    1  C1  UNL     1     -33.824   6.601   5.481  1.00 20.00    -0.109 C 
HETATM    2  C2  UNL     1     -33.171   7.446   4.932  1.00 20.00    -0.077 C 
HETATM    3  C4  UNL     1     -34.618   5.571   6.151  1.00 20.00     0.112 C 
ENDROOT
BRANCH   2   4
HETATM    4  C6  UNL     1     -32.372   8.480   4.267  1.00 20.00     0.366 C 
BRANCH   4   5
HETATM    5  N10 UNL     1     -32.708   8.567   2.847  1.00 20.00     0.111 N 
BRANCH   5   6
HETATM    6  C7  UNL     1     -32.035   7.507   2.096  1.00 20.00     0.396 C 
HETATM    7  C3  UNL     1     -32.438   6.188   2.582  1.00 20.00     0.089 C 
HETATM    8  N9  UNL     1     -32.755   5.140   2.965  1.00 20.00    -0.195 NA
ENDBRANCH   5   6
BRANCH   5   9
HETATM    9  C8  UNL     1     -32.344   9.880   2.315  1.00 20.00     0.270 C 
HETATM   10  C5  UNL     1     -32.680   9.985   0.866  1.00 20.00     0.037 C 
ENDBRANCH   5   9
ENDBRANCH   4   5
ENDBRANCH   2   4
TORSDOF 4
