REMARK  4 active torsions:
REMARK  status: ('A' for Active; 'I' for Inactive)
REMARK    1  A    between atoms: C2_2  and  C7_7 
REMARK    2  A    between atoms: C3_3  and  C8_8 
REMARK    3  A    between atoms: C3_3  and  C9_9 
REMARK    4  A    between atoms: C7_7  and  C8_8 
ROOT
HETATM    1  C1  UNL     1     -32.890   9.191   1.181  1.00 20.00    -0.111 C 
HETATM    2  C2  UNL     1     -32.813   9.167   2.379  1.00 20.00    -0.107 C 
HETATM    3  C4  UNL     1     -32.985   9.217  -0.278  1.00 20.00     0.112 C 
ENDROOT
BRANCH   2   4
HETATM    4  C7  UNL     1     -32.720   9.133   3.846  1.00 20.00     0.101 C 
BRANCH   4   5
HETATM    5  C8  UNL     1     -33.775   8.215   4.460  1.00 20.00     0.090 C 
BRANCH   5   6
HETATM    6  C3  UNL     1     -33.658   6.762   4.013  1.00 20.00     0.131 C 
HETATM    7  O10 UNL     1     -32.782   6.383   3.237  1.00 20.00    -0.298 OA
BRANCH   6   8
HETATM    8  C9  UNL     1     -34.695   5.798   4.586  1.00 20.00     0.047 C 
HETATM    9  C5  UNL     1     -34.095   4.400   4.678  1.00 20.00     0.017 C 
HETATM   10  C6  UNL     1     -35.188   6.274   5.949  1.00 20.00     0.017 C 
ENDBRANCH   6   8
ENDBRANCH   5   6
ENDBRANCH   4   5
ENDBRANCH   2   4
TORSDOF 4
