REMARK  3 active torsions:
REMARK  status: ('A' for Active; 'I' for Inactive)
REMARK    1  A    between atoms: C2_2  and  C9_9 
REMARK    2  A    between atoms: C7_7  and  N10_10 
REMARK    3  A    between atoms: C9_9  and  N10_10 
ROOT
HETATM    1  C1  UNL     1     -32.955   8.837   2.258  1.00 20.00    -0.109 C 
HETATM    2  C2  UNL     1     -32.692   8.827   3.430  1.00 20.00    -0.077 C 
HETATM    3  C8  UNL     1     -33.274   8.849   0.831  1.00 20.00     0.112 C 
ENDROOT
BRANCH   2   4
HETATM    4  C9  UNL     1     -32.370   8.822   4.860  1.00 20.00     0.363 C 
BRANCH   4   5
HETATM    5  N10 UNL     1     -32.448   7.477   5.405  1.00 20.00     0.099 N 
HETATM    6  H26 UNL     1     -31.921   7.429   6.272  1.00 20.00     0.317 HD
BRANCH   5   7
HETATM    7  C7  UNL     1     -33.821   7.116   5.676  1.00 20.00     0.225 C 
HETATM    8  C3  UNL     1     -33.894   5.952   6.665  1.00 20.00     0.062 C 
HETATM    9  C5  UNL     1     -33.541   4.626   6.000  1.00 20.00     0.169 C 
HETATM   10  O11 UNL     1     -34.367   4.397   4.859  1.00 20.00    -0.391 OA
HETATM   11  C6  UNL     1     -34.187   5.395   3.855  1.00 20.00     0.169 C 
HETATM   12  C4  UNL     1     -34.570   6.774   4.385  1.00 20.00     0.062 C 
ENDBRANCH   5   7
ENDBRANCH   4   5
ENDBRANCH   2   4
TORSDOF 3
