REMARK  4 active torsions:
REMARK  status: ('A' for Active; 'I' for Inactive)
REMARK    1  A    between atoms: C1_1  and  C3_3 
REMARK    2  A    between atoms: C4_4  and  C10_10 
REMARK    3  A    between atoms: C8_8  and  C10_10 
REMARK    4  A    between atoms: C9_9  and  C10_10 
ROOT
HETATM    1  C2  UNL     1     -32.720   6.058   1.599  1.00 20.00     0.018 A 
HETATM    2  C3  UNL     1     -32.859   5.657   3.046  1.00 20.00     0.060 A 
HETATM    3  C4  UNL     1     -32.173   6.951   2.676  1.00 20.00     0.002 A 
ENDROOT
BRANCH   3   4
HETATM    4  C10 UNL     1     -32.813   8.317   2.939  1.00 20.00    -0.010 C 
BRANCH   4   5
HETATM    5  C8  UNL     1     -32.359   9.365   1.901  1.00 20.00     0.000 C 
HETATM    6  C6  UNL     1     -32.687   8.991   0.463  1.00 20.00     0.005 C 
ENDBRANCH   4   5
BRANCH   4   7
HETATM    7  C9  UNL     1     -32.485   8.835   4.355  1.00 20.00     0.000 C 
HETATM    8  C7  UNL     1     -32.945   7.907   5.471  1.00 20.00     0.005 C 
ENDBRANCH   4   7
ENDBRANCH   3   4
BRANCH   2   9
HETATM    9  C1  UNL     1     -34.187   5.659   3.669  1.00 20.00     0.127 C 
HETATM   10  C5  UNL     1     -34.466   4.571   4.670  1.00 20.00     0.091 C 
HETATM   11  O11 UNL     1     -35.030   6.509   3.388  1.00 20.00    -0.298 OA
ENDBRANCH   2   9
TORSDOF 4
