REMARK  6 active torsions:
REMARK  status: ('A' for Active; 'I' for Inactive)
REMARK    1  A    between atoms: C2_2  and  C5_5 
REMARK    2  A    between atoms: C5_5  and  C7_7 
REMARK    3  A    between atoms: C6_6  and  C8_8 
REMARK    4  A    between atoms: C7_7  and  C9_9 
REMARK    5  A    between atoms: C8_8  and  C9_9 
REMARK    6  A    between atoms: C9_9  and  O10_10 
ROOT
HETATM    1  C1  UNL     1     -32.423   8.824   0.536  1.00 20.00    -0.111 C 
HETATM    2  C2  UNL     1     -32.358   7.854   1.242  1.00 20.00    -0.107 C 
HETATM    3  C3  UNL     1     -32.504  10.007  -0.319  1.00 20.00     0.112 C 
ENDROOT
BRANCH   2   4
HETATM    4  C5  UNL     1     -32.281   6.667   2.103  1.00 20.00     0.096 C 
BRANCH   4   5
HETATM    5  C7  UNL     1     -32.171   7.030   3.585  1.00 20.00     0.044 C 
BRANCH   5   6
HETATM    6  C9  UNL     1     -33.304   7.907   4.141  1.00 20.00     0.119 C 
BRANCH   6   7
HETATM    7  C8  UNL     1     -34.681   7.231   4.088  1.00 20.00     0.031 C 
BRANCH   7   8
HETATM    8  C6  UNL     1     -34.600   5.728   4.377  1.00 20.00    -0.002 C 
HETATM    9  C4  UNL     1     -34.071   5.461   5.778  1.00 20.00     0.005 C 
ENDBRANCH   7   8
ENDBRANCH   6   7
BRANCH   6  10
HETATM   10  O10 UNL     1     -32.983   8.224   5.497  1.00 20.00    -0.396 OA
HETATM   11  H26 UNL     1     -32.139   8.700   5.472  1.00 20.00     0.210 HD
ENDBRANCH   6  10
ENDBRANCH   5   6
ENDBRANCH   4   5
ENDBRANCH   2   4
TORSDOF 6
