REMARK  3 active torsions:
REMARK  status: ('A' for Active; 'I' for Inactive)
REMARK    1  A    between atoms: C6_6  and  N10_10 
REMARK    2  A    between atoms: C7_7  and  C8_8 
REMARK    3  A    between atoms: C8_8  and  N10_10 
ROOT
HETATM    1  C1  UNL     1     -34.096   4.148   4.789  1.00 20.00     0.013 C 
HETATM    2  C2  UNL     1     -33.992   5.268   5.209  1.00 20.00    -0.087 C 
HETATM    3  C6  UNL     1     -33.863   6.632   5.727  1.00 20.00     0.364 C 
ENDROOT
BRANCH   3   4
HETATM    4  N10 UNL     1     -34.175   7.608   4.689  1.00 20.00     0.117 N 
HETATM    5  H22 UNL     1     -34.972   7.271   4.146  1.00 20.00     0.319 HD
BRANCH   4   6
HETATM    6  C8  UNL     1     -33.041   7.816   3.808  1.00 20.00     0.241 C 
HETATM    7  C3  UNL     1     -32.691   6.537   3.156  1.00 20.00     0.101 C 
HETATM    8  N9  UNL     1     -32.417   5.533   2.642  1.00 20.00    -0.195 NA
HETATM    9  C5  UNL     1     -33.444   8.831   2.727  1.00 20.00     0.066 C 
BRANCH   6  10
HETATM   10  C7  UNL     1     -31.835   8.372   4.600  1.00 20.00     0.052 C 
HETATM   11  C4  UNL     1     -32.095   9.697   5.314  1.00 20.00     0.009 C 
ENDBRANCH   6  10
ENDBRANCH   4   6
ENDBRANCH   3   4
TORSDOF 3
