REMARK  1 active torsions:
REMARK  status: ('A' for Active; 'I' for Inactive)
REMARK    1  A    between atoms: C1_1  and  C6_6 
ROOT
HETATM    1  C2  UNL     1     -33.647   5.951   3.555  1.00 20.00     0.021 C 
HETATM    2  C3  UNL     1     -31.996   7.708   4.514  1.00 20.00     0.027 A 
HETATM    3  C4  UNL     1     -33.922   4.863   4.576  1.00 20.00     0.075 C 
HETATM    4  C5  UNL     1     -34.381   7.357   5.480  1.00 20.00     0.084 C 
HETATM    5  C6  UNL     1     -32.941   8.490   3.639  1.00 20.00     0.097 A 
HETATM    6  C7  UNL     1     -33.414   7.222   4.332  1.00 20.00    -0.017 A 
HETATM    7  S10 UNL     1     -34.973   5.667   5.810  1.00 20.00    -0.168 SA
ENDROOT
BRANCH   5   8
HETATM    8  C1  UNL     1     -32.711   8.465   2.208  1.00 20.00     0.177 C 
HETATM    9  O8  UNL     1     -32.298   7.365   1.747  1.00 20.00    -0.648 OA
HETATM   10  O9  UNL     1     -32.957   9.552   1.613  1.00 20.00    -0.648 OA
ENDBRANCH   5   8
TORSDOF 1
