REMARK  3 active torsions:
REMARK  status: ('A' for Active; 'I' for Inactive)
REMARK    1  A    between atoms: C2_2  and  C9_9 
REMARK    2  A    between atoms: C6_6  and  C9_9 
REMARK    3  A    between atoms: C7_7  and  O10_10 
ROOT
HETATM    1  C3  UNL     1     -33.457   4.396   3.349  1.00 20.00     0.003 C 
HETATM    2  C4  UNL     1     -33.319   5.904   3.131  1.00 20.00     0.008 C 
HETATM    3  C5  UNL     1     -33.933   4.207   4.792  1.00 20.00     0.032 C 
HETATM    4  C6  UNL     1     -33.451   6.527   4.522  1.00 20.00     0.022 C 
HETATM    5  C7  UNL     1     -34.420   5.582   5.234  1.00 20.00     0.122 C 
ENDROOT
BRANCH   4   6
HETATM    6  C9  UNL     1     -33.898   7.979   4.475  1.00 20.00     0.010 C 
HETATM    7  C8  UNL     1     -34.082   8.537   5.889  1.00 20.00     0.014 C 
BRANCH   6   8
HETATM    8  C2  UNL     1     -32.898   8.817   3.717  1.00 20.00    -0.032 C 
HETATM    9  C1  UNL     1     -33.184   9.500   2.602  1.00 20.00     0.007 C 
ENDBRANCH   6   8
ENDBRANCH   4   6
BRANCH   5  10
HETATM   10  O10 UNL     1     -35.754   5.787   4.783  1.00 20.00    -0.395 OA
HETATM   11  H26 UNL     1     -36.294   5.087   5.183  1.00 20.00     0.210 HD
ENDBRANCH   5  10
TORSDOF 3
