REMARK  1 active torsions:
REMARK  status: ('A' for Active; 'I' for Inactive)
REMARK    1  A    between atoms: C3_3  and  C8_8 
ROOT
HETATM    1  C1  UNL     1     -32.539   8.562   0.734  1.00 20.00     0.087 C 
HETATM    2  C2  UNL     1     -32.211   7.691   1.807  1.00 20.00     0.090 C 
HETATM    3  C3  UNL     1     -33.054   7.486   2.828  1.00 20.00    -0.011 C 
HETATM    4  N9  UNL     1     -32.804   9.272  -0.145  1.00 20.00    -0.192 NA
ENDROOT
BRANCH   3   5
HETATM    5  C8  UNL     1     -32.750   6.566   3.999  1.00 20.00     0.013 C 
HETATM    6  C4  UNL     1     -32.741   7.377   5.289  1.00 20.00     0.035 C 
HETATM    7  C6  UNL     1     -34.145   7.698   5.789  1.00 20.00     0.168 C 
HETATM    8  O10 UNL     1     -34.934   6.515   5.882  1.00 20.00    -0.391 OA
HETATM    9  C7  UNL     1     -35.118   5.895   4.611  1.00 20.00     0.168 C 
HETATM   10  C5  UNL     1     -33.782   5.444   4.030  1.00 20.00     0.035 C 
ENDBRANCH   3   5
TORSDOF 1
