REMARK  2 active torsions:
REMARK  status: ('A' for Active; 'I' for Inactive)
REMARK    1  A    between atoms: C4_4  and  N9_9 
REMARK    2  A    between atoms: C7_7  and  N9_9 
ROOT
HETATM    1  C1  UNL     1     -33.598   4.965   3.477  1.00 20.00     0.094 C 
HETATM    2  C6  UNL     1     -35.762   5.731   4.381  1.00 20.00     0.059 C 
HETATM    3  C7  UNL     1     -34.310   5.390   4.690  1.00 20.00     0.322 C 
HETATM    4  N8  UNL     1     -33.037   4.627   2.520  1.00 20.00    -0.195 NA
ENDROOT
BRANCH   3   5
HETATM    5  N9  UNL     1     -33.631   6.527   5.289  1.00 20.00     0.106 N 
HETATM    6  H21 UNL     1     -34.127   6.817   6.128  1.00 20.00     0.318 HD
BRANCH   5   7
HETATM    7  C4  UNL     1     -33.590   7.655   4.353  1.00 20.00     0.226 A 
HETATM    8  C2  UNL     1     -32.578   8.756   4.533  1.00 20.00     0.042 A 
HETATM    9  C3  UNL     1     -32.446   7.797   3.382  1.00 20.00     0.016 A 
HETATM   10  C5  UNL     1     -32.699   8.260   1.989  1.00 20.00     0.012 C 
ENDBRANCH   5   7
ENDBRANCH   3   5
TORSDOF 2
