REMARK  3 active torsions:
REMARK  status: ('A' for Active; 'I' for Inactive)
REMARK    1  A    between atoms: C4_4  and  N10_10 
REMARK    2  A    between atoms: C7_7  and  C8_8 
REMARK    3  A    between atoms: C7_7  and  N10_10 
ROOT
HETATM    1  C1  UNL     1     -32.512   6.005   2.495  1.00 20.00     0.065 C 
HETATM    2  C6  UNL     1     -31.838   8.167   1.511  1.00 20.00     0.027 C 
HETATM    3  C8  UNL     1     -32.630   7.471   2.617  1.00 20.00     0.116 C 
HETATM    4  N9  UNL     1     -32.421   4.852   2.398  1.00 20.00    -0.197 NA
ENDROOT
BRANCH   3   5
HETATM    5  C7  UNL     1     -32.219   7.953   4.015  1.00 20.00     0.288 C 
BRANCH   5   6
HETATM    6  N10 UNL     1     -33.291   7.791   4.983  1.00 20.00     0.089 N 
HETATM    7  H24 UNL     1     -33.142   8.422   5.766  1.00 20.00     0.316 HD
BRANCH   6   8
HETATM    8  C4  UNL     1     -33.328   6.415   5.487  1.00 20.00     0.224 A 
HETATM    9  C2  UNL     1     -34.364   6.000   6.499  1.00 20.00     0.042 A 
HETATM   10  C3  UNL     1     -34.416   5.444   5.102  1.00 20.00     0.016 A 
HETATM   11  C5  UNL     1     -35.534   5.816   4.189  1.00 20.00     0.012 C 
ENDBRANCH   6   8
ENDBRANCH   5   6
ENDBRANCH   3   5
TORSDOF 3
