REMARK  3 active torsions:
REMARK  status: ('A' for Active; 'I' for Inactive)
REMARK    1  A    between atoms: C2_2  and  C8_8 
REMARK    2  A    between atoms: C5_5  and  N9_9 
REMARK    3  A    between atoms: C8_8  and  N9_9 
ROOT
HETATM    1  C1  UNL     1     -32.584   8.609   0.951  1.00 20.00    -0.109 C 
HETATM    2  C2  UNL     1     -32.435   7.730   1.755  1.00 20.00    -0.077 C 
HETATM    3  C6  UNL     1     -32.767   9.679  -0.029  1.00 20.00     0.112 C 
ENDROOT
BRANCH   2   4
HETATM    4  C8  UNL     1     -32.250   6.652   2.732  1.00 20.00     0.363 C 
BRANCH   4   5
HETATM    5  N9  UNL     1     -32.588   7.102   4.071  1.00 20.00     0.099 N 
HETATM    6  H22 UNL     1     -32.250   8.051   4.209  1.00 20.00     0.317 HD
BRANCH   5   7
HETATM    7  C5  UNL     1     -34.041   7.088   4.269  1.00 20.00     0.225 A 
HETATM    8  C3  UNL     1     -34.757   5.798   4.574  1.00 20.00     0.042 A 
HETATM    9  C4  UNL     1     -34.669   6.872   5.624  1.00 20.00     0.016 A 
HETATM   10  C7  UNL     1     -33.857   6.651   6.855  1.00 20.00     0.012 C 
ENDBRANCH   5   7
ENDBRANCH   4   5
ENDBRANCH   2   4
TORSDOF 3
