REMARK  2 active torsions:
REMARK  status: ('A' for Active; 'I' for Inactive)
REMARK    1  A    between atoms: C4_4  and  N9_9 
REMARK    2  A    between atoms: C7_7  and  N9_9 
ROOT
HETATM    1  C1  UNL     1     -32.165   7.535   3.316  1.00 20.00     0.094 C 
HETATM    2  C6  UNL     1     -32.158   9.480   4.831  1.00 20.00     0.059 C 
HETATM    3  C7  UNL     1     -32.850   8.180   4.443  1.00 20.00     0.322 C 
HETATM    4  N8  UNL     1     -31.626   7.027   2.423  1.00 20.00    -0.195 NA
ENDROOT
BRANCH   3   5
HETATM    5  N9  UNL     1     -32.905   7.270   5.575  1.00 20.00     0.106 N 
HETATM    6  H21 UNL     1     -32.012   7.276   6.062  1.00 20.00     0.318 HD
BRANCH   5   7
HETATM    7  C4  UNL     1     -33.187   5.904   5.126  1.00 20.00     0.226 A 
HETATM    8  C2  UNL     1     -34.457   5.607   4.371  1.00 20.00     0.042 A 
HETATM    9  C3  UNL     1     -34.272   5.070   5.764  1.00 20.00     0.016 A 
HETATM   10  C5  UNL     1     -35.113   5.584   6.881  1.00 20.00     0.012 C 
ENDBRANCH   5   7
ENDBRANCH   3   5
TORSDOF 2
