REMARK  2 active torsions:
REMARK  status: ('A' for Active; 'I' for Inactive)
REMARK    1  A    between atoms: C5_5  and  N8_8 
REMARK    2  A    between atoms: C7_7  and  N8_8 
ROOT
HETATM    1  C1  UNL     1     -32.344   7.727   1.987  1.00 20.00     0.013 C 
HETATM    2  C2  UNL     1     -32.372   7.990   3.158  1.00 20.00    -0.087 C 
HETATM    3  C7  UNL     1     -32.402   8.314   4.587  1.00 20.00     0.362 C 
ENDROOT
BRANCH   3   4
HETATM    4  N8  UNL     1     -33.719   8.057   5.144  1.00 20.00     0.099 N 
HETATM    5  H19 UNL     1     -33.831   8.575   6.011  1.00 20.00     0.317 HD
BRANCH   4   6
HETATM    6  C5  UNL     1     -33.890   6.628   5.425  1.00 20.00     0.225 A 
HETATM    7  C3  UNL     1     -35.271   6.040   5.563  1.00 20.00     0.042 A 
HETATM    8  C4  UNL     1     -34.428   5.702   4.364  1.00 20.00     0.016 A 
HETATM    9  C6  UNL     1     -33.863   4.332   4.208  1.00 20.00     0.012 C 
ENDBRANCH   4   6
ENDBRANCH   3   4
TORSDOF 2
