REMARK  1 active torsions:
REMARK  status: ('A' for Active; 'I' for Inactive)
REMARK    1  A    between atoms: C4_4  and  N6_6 
ROOT
HETATM    1  C1  UNL     1     -32.761   7.850   4.663  1.00 20.00     0.158 C 
HETATM    2  N6  UNL     1     -33.023   6.811   4.176  1.00 20.00    -0.270 NA
HETATM    3  S7  UNL     1     -32.387   9.254   5.317  1.00 20.00    -0.055 SA
ENDROOT
BRANCH   2   4
HETATM    4  C4  UNL     1     -34.428   6.430   4.245  1.00 20.00     0.114 A 
HETATM    5  C2  UNL     1     -34.758   4.963   4.170  1.00 20.00     0.034 A 
HETATM    6  C3  UNL     1     -34.938   5.706   5.465  1.00 20.00     0.008 A 
HETATM    7  C5  UNL     1     -34.055   5.407   6.628  1.00 20.00     0.012 C 
ENDBRANCH   2   4
TORSDOF 1
