REMARK  1 active torsions:
REMARK  status: ('A' for Active; 'I' for Inactive)
REMARK    1  A    between atoms: C8_8  and  N10_10 
ROOT
HETATM    1  C1  UNL     1     -33.942   6.060   4.704  1.00 20.00     0.130 C 
HETATM    2  C2  UNL     1     -34.321   7.456   5.140  1.00 20.00     0.108 C 
HETATM    3  C3  UNL     1     -33.141   5.950   3.428  1.00 20.00     0.108 C 
HETATM    4  C5  UNL     1     -33.127   8.401   5.021  1.00 20.00     0.280 C 
HETATM    5  C6  UNL     1     -32.015   6.982   3.409  1.00 20.00     0.280 C 
HETATM    6  N10 UNL     1     -32.440   8.351   3.724  1.00 20.00     0.094 N 
HETATM    7  O11 UNL     1     -34.360   5.064   5.291  1.00 20.00    -0.298 OA
ENDROOT
BRANCH   6   8
HETATM    8  C8  UNL     1     -33.228   8.952   2.652  1.00 20.00     0.227 A 
HETATM    9  C4  UNL     1     -33.267  10.448   2.482  1.00 20.00     0.042 A 
HETATM   10  C7  UNL     1     -32.545   9.597   1.474  1.00 20.00     0.017 A 
HETATM   11  C9  UNL     1     -33.099   9.429   0.101  1.00 20.00     0.012 C 
ENDBRANCH   6   8
TORSDOF 1
