REMARK  4 active torsions:
REMARK  status: ('A' for Active; 'I' for Inactive)
REMARK    1  A    between atoms: C1_1  and  C3_3 
REMARK    2  A    between atoms: C2_2  and  C6_6 
REMARK    3  A    between atoms: C6_6  and  C7_7 
REMARK    4  A    between atoms: C7_7  and  O8_8 
ROOT
HETATM    1  C1  UNL     1     -32.685   7.777   4.283  1.00 20.00    -0.079 C 
HETATM    2  C2  UNL     1     -32.963   7.277   5.339  1.00 20.00    -0.100 C 
ENDROOT
BRANCH   2   3
HETATM    3  C6  UNL     1     -33.304   6.669   6.634  1.00 20.00     0.120 C 
BRANCH   3   4
HETATM    4  C7  UNL     1     -34.250   5.488   6.463  1.00 20.00     0.176 C 
BRANCH   4   5
HETATM    5  O8  UNL     1     -35.467   5.933   5.877  1.00 20.00    -0.400 OA
HETATM    6  H18 UNL     1     -36.036   5.151   5.788  1.00 20.00     0.209 HD
ENDBRANCH   4   5
ENDBRANCH   3   4
ENDBRANCH   2   3
BRANCH   1   7
HETATM    7  C3  UNL     1     -32.351   8.366   3.034  1.00 20.00     0.060 C 
HETATM    8  C4  UNL     1     -33.272   8.973   2.274  1.00 20.00    -0.022 C 
HETATM    9  C5  UNL     1     -32.970   9.607   0.956  1.00 20.00     0.036 C 
ENDBRANCH   1   7
TORSDOF 4
