REMARK  1 active torsions:
REMARK  status: ('A' for Active; 'I' for Inactive)
REMARK    1  A    between atoms: C5_5  and  C6_6 
ROOT
HETATM    1  C1  UNL     1     -32.521   8.455   5.355  1.00 20.00     0.014 A 
HETATM    2  C2  UNL     1     -32.564   7.892   2.791  1.00 20.00     0.275 C 
HETATM    3  C3  UNL     1     -32.927   8.776   3.941  1.00 20.00     0.021 A 
HETATM    4  C4  UNL     1     -33.860   8.021   4.811  1.00 20.00     0.034 A 
HETATM    5  C5  UNL     1     -34.086   6.685   4.167  1.00 20.00     0.331 C 
HETATM    6  N7  UNL     1     -32.971   6.543   3.213  1.00 20.00     0.097 N 
HETATM    7  H18 UNL     1     -33.243   5.976   2.412  1.00 20.00     0.316 HD
ENDROOT
BRANCH   5   8
HETATM    8  C6  UNL     1     -34.096   5.542   5.167  1.00 20.00     0.418 C 
HETATM    9  F8  UNL     1     -34.259   4.367   4.534  1.00 20.00    -0.169 F 
HETATM   10  F9  UNL     1     -32.937   5.504   5.847  1.00 20.00    -0.169 F 
HETATM   11  F10 UNL     1     -35.103   5.698   6.045  1.00 20.00    -0.169 F 
ENDBRANCH   5   8
TORSDOF 1
