REMARK  3 active torsions:
REMARK  status: ('A' for Active; 'I' for Inactive)
REMARK    1  A    between atoms: C4_4  and  C6_6 
REMARK    2  A    between atoms: C6_6  and  C7_7 
REMARK    3  A    between atoms: C7_7  and  C8_8 
ROOT
HETATM    1  C1  UNL     1     -35.049   4.989   5.267  1.00 20.00     0.029 C 
HETATM    2  C2  UNL     1     -33.829   4.709   4.426  1.00 20.00     0.034 C 
HETATM    3  C3  UNL     1     -34.893   6.466   5.563  1.00 20.00     0.168 C 
HETATM    4  C4  UNL     1     -33.732   5.981   3.602  1.00 20.00     0.121 C 
HETATM    5  O9  UNL     1     -34.197   7.045   4.450  1.00 20.00    -0.386 OA
ENDROOT
BRANCH   4   6
HETATM    6  C6  UNL     1     -32.326   6.284   3.120  1.00 20.00     0.033 C 
BRANCH   6   7
HETATM    7  C7  UNL     1     -32.338   7.271   1.949  1.00 20.00     0.022 C 
BRANCH   7   8
HETATM    8  C8  UNL     1     -32.995   8.614   2.293  1.00 20.00     0.078 C 
HETATM    9  C5  UNL     1     -32.255   9.314   3.427  1.00 20.00     0.026 C 
HETATM   10 CL10 UNL     1     -33.028   9.699   0.870  1.00 20.00    -0.125 Cl
ENDBRANCH   7   8
ENDBRANCH   6   7
ENDBRANCH   4   6
TORSDOF 3
