REMARK  3 active torsions:
REMARK  status: ('A' for Active; 'I' for Inactive)
REMARK    1  A    between atoms: C4_4  and  C6_6 
REMARK    2  A    between atoms: C6_6  and  C7_7 
REMARK    3  A    between atoms: C7_7  and  C8_8 
ROOT
HETATM    1  C1  UNL     1     -34.121   5.538   6.461  1.00 20.00     0.029 C 
HETATM    2  C2  UNL     1     -33.547   6.916   6.245  1.00 20.00     0.034 C 
HETATM    3  C3  UNL     1     -35.158   5.455   5.362  1.00 20.00     0.168 C 
HETATM    4  C4  UNL     1     -33.537   7.006   4.729  1.00 20.00     0.121 C 
HETATM    5  O9  UNL     1     -34.684   6.267   4.277  1.00 20.00    -0.386 OA
ENDROOT
BRANCH   4   6
HETATM    6  C6  UNL     1     -33.602   8.428   4.207  1.00 20.00     0.033 C 
BRANCH   6   7
HETATM    7  C7  UNL     1     -33.622   8.459   2.675  1.00 20.00     0.022 C 
BRANCH   7   8
HETATM    8  C8  UNL     1     -32.373   7.835   2.039  1.00 20.00     0.078 C 
HETATM    9  C5  UNL     1     -32.185   8.322   0.607  1.00 20.00     0.026 C 
HETATM   10 CL10 UNL     1     -32.479   6.049   2.032  1.00 20.00    -0.125 Cl
ENDBRANCH   7   8
ENDBRANCH   6   7
ENDBRANCH   4   6
TORSDOF 3
