REMARK  5 active torsions:
REMARK  status: ('A' for Active; 'I' for Inactive)
REMARK    1  A    between atoms: C1_1  and  C7_7 
REMARK    2  A    between atoms: C1_1  and  C11_11 
REMARK    3  A    between atoms: C7_7  and  C10_10 
REMARK    4  A    between atoms: C8_8  and  C9_9 
REMARK    5  A    between atoms: C9_9  and  C10_10 
ROOT
HETATM    1  C1  UNL     1     -33.932   6.815   5.201  1.00 20.00     0.134 C 
HETATM    2  O12 UNL     1     -33.466   6.853   6.342  1.00 20.00    -0.297 OA
ENDROOT
BRANCH   1   3
HETATM    3  C7  UNL     1     -34.044   8.085   4.359  1.00 20.00     0.083 C 
BRANCH   3   4
HETATM    4  C10 UNL     1     -32.686   8.751   4.063  1.00 20.00    -0.012 C 
HETATM    5  C3  UNL     1     -32.205   9.548   5.282  1.00 20.00     0.010 C 
BRANCH   4   6
HETATM    6  C9  UNL     1     -32.821   9.645   2.812  1.00 20.00     0.004 C 
BRANCH   6   7
HETATM    7  C8  UNL     1     -32.750   8.870   1.494  1.00 20.00    -0.004 C 
HETATM    8  C2  UNL     1     -32.814   9.807   0.297  1.00 20.00     0.005 C 
ENDBRANCH   6   7
ENDBRANCH   4   6
ENDBRANCH   3   4
ENDBRANCH   1   3
BRANCH   1   9
HETATM    9  C11 UNL     1     -34.430   5.492   4.583  1.00 20.00     0.009 C 
HETATM   10  C4  UNL     1     -33.655   5.167   3.299  1.00 20.00     0.022 C 
HETATM   11  C5  UNL     1     -34.259   4.366   5.611  1.00 20.00     0.022 C 
HETATM   12  C6  UNL     1     -35.923   5.620   4.230  1.00 20.00     0.022 C 
ENDBRANCH   1   9
TORSDOF 5
