REMARK  5 active torsions:
REMARK  status: ('A' for Active; 'I' for Inactive)
REMARK    1  A    between atoms: C1_1  and  C6_6 
REMARK    2  A    between atoms: C1_1  and  C9_9 
REMARK    3  A    between atoms: C6_6  and  C10_10 
REMARK    4  A    between atoms: C7_7  and  C8_8 
REMARK    5  A    between atoms: C8_8  and  C10_10 
ROOT
HETATM    1  C6  UNL     1     -34.399   8.045   4.684  1.00 20.00     0.082 C 
ENDROOT
BRANCH   1   2
HETATM    2  C1  UNL     1     -34.353   6.985   5.780  1.00 20.00     0.130 C 
HETATM    3  O11 UNL     1     -34.093   7.269   6.949  1.00 20.00    -0.298 OA
BRANCH   2   4
HETATM    4  C9  UNL     1     -34.701   5.557   5.358  1.00 20.00     0.047 C 
HETATM    5  C3  UNL     1     -34.376   5.324   3.884  1.00 20.00     0.017 C 
HETATM    6  C4  UNL     1     -33.963   4.556   6.239  1.00 20.00     0.017 C 
ENDBRANCH   2   4
ENDBRANCH   1   2
BRANCH   1   7
HETATM    7  C10 UNL     1     -33.070   8.205   3.927  1.00 20.00    -0.012 C 
HETATM    8  C5  UNL     1     -32.058   9.013   4.747  1.00 20.00     0.010 C 
BRANCH   7   9
HETATM    9  C8  UNL     1     -33.288   8.816   2.526  1.00 20.00     0.004 C 
BRANCH   9  10
HETATM   10  C7  UNL     1     -32.181   8.528   1.507  1.00 20.00    -0.004 C 
HETATM   11  C2  UNL     1     -32.463   9.216   0.179  1.00 20.00     0.005 C 
ENDBRANCH   9  10
ENDBRANCH   7   9
ENDBRANCH   1   7
TORSDOF 5
