REMARK  3 active torsions:
REMARK  status: ('A' for Active; 'I' for Inactive)
REMARK    1  A    between atoms: C1_1  and  C9_9 
REMARK    2  A    between atoms: C3_3  and  C8_8 
REMARK    3  A    between atoms: C9_9  and  N10_10 
ROOT
HETATM    1  C4  UNL     1     -33.778   5.910   6.921  1.00 20.00     0.028 C 
HETATM    2  C5  UNL     1     -35.007   5.171   6.396  1.00 20.00     0.015 C 
HETATM    3  C6  UNL     1     -33.686   7.318   6.357  1.00 20.00     0.235 C 
HETATM    4  C7  UNL     1     -34.916   6.597   4.290  1.00 20.00     0.246 C 
HETATM    5  C8  UNL     1     -35.107   5.206   4.875  1.00 20.00     0.073 C 
HETATM    6  N10 UNL     1     -33.672   7.250   4.851  1.00 20.00    -0.067 N 
HETATM    7  H27 UNL     1     -32.866   6.669   4.579  1.00 20.00     0.280 HD
ENDROOT
BRANCH   6   8
HETATM    8  C9  UNL     1     -33.434   8.603   4.237  1.00 20.00     0.263 C 
BRANCH   8   9
HETATM    9  C1  UNL     1     -32.866   8.522   2.857  1.00 20.00     0.012 C 
HETATM   10  C2  UNL     1     -33.463   9.052   1.786  1.00 20.00     0.082 C 
HETATM   11 CL12 UNL     1     -32.802   8.960   0.208  1.00 20.00    -0.097 Cl
ENDBRANCH   8   9
ENDBRANCH   6   8
BRANCH   5  12
HETATM   12  C3  UNL     1     -34.098   4.219   4.307  1.00 20.00     0.237 C 
HETATM   13  O11 UNL     1     -33.228   4.530   3.500  1.00 20.00    -0.306 OA
ENDBRANCH   5  12
TORSDOF 3
