REMARK  2 active torsions:
REMARK  status: ('A' for Active; 'I' for Inactive)
REMARK    1  A    between atoms: C1_1  and  C2_2 
REMARK    2  A    between atoms: C9_9  and  N10_10 
ROOT
HETATM    1  C1  UNL     1     -32.779   8.166   3.967  1.00 20.00     0.150 C 
HETATM    2  C3  UNL     1     -34.118   7.640   4.406  1.00 20.00     0.068 C 
HETATM    3  C4  UNL     1     -34.152   6.119   4.304  1.00 20.00     0.008 C 
HETATM    4  C5  UNL     1     -33.643   5.643   2.945  1.00 20.00     0.029 C 
HETATM    5  C6  UNL     1     -32.258   6.203   2.638  1.00 20.00     0.242 C 
HETATM    6  N10 UNL     1     -32.222   7.713   2.716  1.00 20.00    -0.038 N 
HETATM    7  H28 UNL     1     -31.225   7.969   2.670  1.00 20.00     0.286 HD
ENDROOT
BRANCH   6   8
HETATM    8  C9  UNL     1     -32.879   8.410   1.557  1.00 20.00     0.186 C 
HETATM    9  C7  UNL     1     -31.980   8.274   0.339  1.00 20.00     0.040 C 
HETATM   10  C8  UNL     1     -33.115   9.863   1.940  1.00 20.00     0.040 C 
ENDBRANCH   6   8
BRANCH   1  11
HETATM   11  C2  UNL     1     -32.053   9.022   4.702  1.00 20.00     0.291 C 
HETATM   12  O11 UNL     1     -32.258   9.557   5.823  1.00 20.00    -0.300 OA
ENDBRANCH   1  11
TORSDOF 2
