REMARK  4 active torsions:
REMARK  status: ('A' for Active; 'I' for Inactive)
REMARK    1  A    between atoms: C3_3  and  C8_8 
REMARK    2  A    between atoms: C3_3  and  O9_9 
REMARK    3  A    between atoms: C6_6  and  C7_7 
REMARK    4  A    between atoms: C7_7  and  C8_8 
ROOT
HETATM    1  C1  UNL     1     -34.088   4.617   5.651  1.00 20.00     0.041 A 
HETATM    2  C2  UNL     1     -34.676   5.796   6.375  1.00 20.00     0.041 A 
HETATM    3  C3  UNL     1     -34.674   5.762   4.871  1.00 20.00     0.061 A 
ENDROOT
BRANCH   3   4
HETATM    4  C8  UNL     1     -33.758   6.700   4.080  1.00 20.00     0.016 C 
HETATM    5  C5  UNL     1     -33.028   5.911   2.992  1.00 20.00     0.013 C 
BRANCH   4   6
HETATM    6  C7  UNL     1     -32.788   7.413   5.040  1.00 20.00     0.007 C 
BRANCH   6   7
HETATM    7  C6  UNL     1     -31.874   8.424   4.343  1.00 20.00    -0.004 C 
HETATM    8  C4  UNL     1     -32.679   9.476   3.595  1.00 20.00     0.005 C 
ENDBRANCH   6   7
ENDBRANCH   4   6
ENDBRANCH   3   4
BRANCH   3   9
HETATM    9  O9  UNL     1     -35.940   5.510   4.239  1.00 20.00    -0.389 OA
HETATM   10  H25 UNL     1     -36.552   5.287   4.953  1.00 20.00     0.210 HD
ENDBRANCH   3   9
TORSDOF 4
