REMARK  2 active torsions:
REMARK  status: ('A' for Active; 'I' for Inactive)
REMARK    1  A    between atoms: C7_7  and  C11_11 
REMARK    2  A    between atoms: C8_8  and  C12_12 
ROOT
HETATM    1  C1  UNL     1     -34.735   4.812   6.408  1.00 20.00     0.012 C 
HETATM    2  C2  UNL     1     -34.793   5.402   5.363  1.00 20.00    -0.117 C 
HETATM    3  C11 UNL     1     -34.874   6.118   4.087  1.00 20.00     0.105 C 
ENDROOT
BRANCH   3   4
HETATM    4  C7  UNL     1     -33.518   6.696   3.695  1.00 20.00     0.067 C 
HETATM    5  C3  UNL     1     -33.214   7.966   4.486  1.00 20.00     0.132 C 
HETATM    6  C4  UNL     1     -32.323   8.995   3.818  1.00 20.00     0.079 C 
HETATM    7  O13 UNL     1     -33.666   8.164   5.614  1.00 20.00    -0.298 OA
HETATM    8  C5  UNL     1     -31.364   8.311   2.853  1.00 20.00     0.012 C 
HETATM    9  C8  UNL     1     -32.095   7.525   1.750  1.00 20.00    -0.010 C 
HETATM   10  C6  UNL     1     -33.481   7.025   2.199  1.00 20.00     0.018 C 
BRANCH   9  11
HETATM   11  C12 UNL     1     -32.223   8.352   0.469  1.00 20.00    -0.019 C 
HETATM   12  C9  UNL     1     -32.920   7.544  -0.623  1.00 20.00     0.010 C 
HETATM   13  C10 UNL     1     -32.979   9.650   0.742  1.00 20.00     0.010 C 
ENDBRANCH   9  11
ENDBRANCH   3   4
TORSDOF 2
