REMARK  1 active torsions:
REMARK  status: ('A' for Active; 'I' for Inactive)
REMARK    1  A    between atoms: C1_1  and  C6_6 
ROOT
HETATM    1  C2  UNL     1     -34.047   5.785   6.770  1.00 20.00     0.027 C 
HETATM    2  C3  UNL     1     -33.315   7.056   6.355  1.00 20.00     0.017 C 
HETATM    3  C4  UNL     1     -34.025   4.758   5.646  1.00 20.00     0.167 C 
HETATM    4  C5  UNL     1     -33.822   6.426   3.976  1.00 20.00     0.181 C 
HETATM    5  C6  UNL     1     -33.829   7.554   5.004  1.00 20.00     0.096 C 
HETATM    6  O8  UNL     1     -34.574   5.308   4.448  1.00 20.00    -0.390 OA
ENDROOT
BRANCH   5   7
HETATM    7  C1  UNL     1     -32.985   8.695   4.531  1.00 20.00     0.225 C 
HETATM    8  O7  UNL     1     -32.411   9.443   5.317  1.00 20.00    -0.279 OA
HETATM    9 CL9  UNL     1     -32.940   8.799   2.797  1.00 20.00    -0.043 Cl
ENDBRANCH   5   7
TORSDOF 1
