REMARK  0 active torsions:
REMARK  status: ('A' for Active; 'I' for Inactive)
ROOT
HETATM    1  C1  UNL     1     -34.727   5.141   6.527  1.00 20.00    -0.006 C 
HETATM    2  C2  UNL     1     -34.714   6.414   6.936  1.00 20.00     0.112 C 
HETATM    3  C3  UNL     1     -34.051   7.288   4.935  1.00 20.00     0.023 C 
HETATM    4  C4  UNL     1     -33.403   5.746   3.005  1.00 20.00     0.136 C 
HETATM    5  C5  UNL     1     -34.269   4.779   5.156  1.00 20.00     0.046 C 
HETATM    6  C6  UNL     1     -33.612   8.476   4.107  1.00 20.00     0.056 C 
HETATM    7  C7  UNL     1     -32.965   6.963   2.222  1.00 20.00     0.079 C 
HETATM    8  C8  UNL     1     -32.496   8.063   3.162  1.00 20.00     0.013 C 
HETATM    9  C9  UNL     1     -34.321   5.977   4.202  1.00 20.00     0.106 C 
HETATM   10  N10 UNL     1     -34.273   7.480   6.200  1.00 20.00    -0.269 NA
HETATM   11  O11 UNL     1     -33.119   4.615   2.608  1.00 20.00    -0.297 OA
ENDROOT
TORSDOF 0
