REMARK  1 active torsions:
REMARK  status: ('A' for Active; 'I' for Inactive)
REMARK    1  A    between atoms: C4_4  and  C5_5 
ROOT
HETATM    1  C1  UNL     1     -34.543   4.704   5.296  1.00 20.00     0.007 A 
HETATM    2  C2  UNL     1     -34.042   5.407   6.527  1.00 20.00     0.007 A 
HETATM    3  C4  UNL     1     -34.859   6.158   5.512  1.00 20.00     0.017 A 
ENDROOT
BRANCH   3   4
HETATM    4  C5  UNL     1     -34.277   7.262   4.644  1.00 20.00     0.149 A 
HETATM    5  C3  UNL     1     -33.762   8.561   5.189  1.00 20.00     0.200 A 
HETATM    6  O6  UNL     1     -32.877   7.493   4.815  1.00 20.00    -0.381 OA
ENDBRANCH   3   4
TORSDOF 1
