REMARK  3 active torsions:
REMARK  status: ('A' for Active; 'I' for Inactive)
REMARK    1  A    between atoms: C2_2  and  C6_6 
REMARK    2  A    between atoms: C6_6  and  C7_7 
REMARK    3  A    between atoms: C7_7  and  C8_8 
ROOT
HETATM    1  C6  UNL     1     -33.279   7.064   4.902  1.00 20.00     0.040 C 
ENDROOT
BRANCH   1   2
HETATM    2  C2  UNL     1     -33.007   8.453   4.345  1.00 20.00     0.079 A 
HETATM    3  C1  UNL     1     -32.362   9.495   5.227  1.00 20.00     0.206 A 
HETATM    4  O9  UNL     1     -33.775   9.489   4.974  1.00 20.00    -0.375 OA
HETATM    5  C3  UNL     1     -32.919   8.588   2.859  1.00 20.00     0.048 C 
ENDBRANCH   1   2
BRANCH   1   6
HETATM    6  C7  UNL     1     -34.675   6.571   4.514  1.00 20.00     0.007 C 
BRANCH   6   7
HETATM    7  C8  UNL     1     -34.975   5.139   4.993  1.00 20.00    -0.023 C 
HETATM    8  C4  UNL     1     -34.877   5.070   6.519  1.00 20.00     0.009 C 
HETATM    9  C5  UNL     1     -34.036   4.106   4.370  1.00 20.00     0.009 C 
ENDBRANCH   6   7
ENDBRANCH   1   6
TORSDOF 3
