REMARK  3 active torsions:
REMARK  status: ('A' for Active; 'I' for Inactive)
REMARK    1  A    between atoms: C2_2  and  C7_7 
REMARK    2  A    between atoms: C5_5  and  C7_7 
REMARK    3  A    between atoms: C6_6  and  C7_7 
ROOT
HETATM    1  C7  UNL     1     -33.300   6.930   4.695  1.00 20.00     0.016 C 
ENDROOT
BRANCH   1   2
HETATM    2  C2  UNL     1     -34.540   6.030   4.709  1.00 20.00     0.149 A 
HETATM    3  C1  UNL     1     -34.464   4.609   5.193  1.00 20.00     0.200 A 
HETATM    4  O8  UNL     1     -34.991   5.661   6.017  1.00 20.00    -0.381 OA
ENDBRANCH   1   2
BRANCH   1   5
HETATM    5  C5  UNL     1     -33.622   8.347   5.214  1.00 20.00     0.002 C 
HETATM    6  C3  UNL     1     -32.418   9.278   5.248  1.00 20.00     0.005 C 
ENDBRANCH   1   5
BRANCH   1   7
HETATM    7  C6  UNL     1     -32.695   7.038   3.279  1.00 20.00     0.002 C 
HETATM    8  C4  UNL     1     -32.279   5.700   2.683  1.00 20.00     0.005 C 
ENDBRANCH   1   7
TORSDOF 3
