REMARK  3 active torsions:
REMARK  status: ('A' for Active; 'I' for Inactive)
REMARK    1  A    between atoms: C3_3  and  C4_4 
REMARK    2  A    between atoms: C4_4  and  C6_6 
REMARK    3  A    between atoms: C5_5  and  C6_6 
ROOT
HETATM    1  C2  UNL     1     -32.704   4.680   2.903  1.00 20.00     0.011 C 
HETATM    2  C6  UNL     1     -33.492   5.958   3.215  1.00 20.00    -0.005 C 
ENDROOT
BRANCH   2   3
HETATM    3  C4  UNL     1     -32.527   7.058   3.704  1.00 20.00     0.005 C 
BRANCH   3   4
HETATM    4  C3  UNL     1     -33.226   8.373   4.059  1.00 20.00    -0.004 C 
HETATM    5  C1  UNL     1     -32.232   9.415   4.548  1.00 20.00     0.005 C 
ENDBRANCH   3   4
ENDBRANCH   2   3
BRANCH   2   6
HETATM    6  C5  UNL     1     -34.668   5.671   4.162  1.00 20.00     0.119 C 
HETATM    7 CL7  UNL     1     -34.171   4.997   5.733  1.00 20.00    -0.130 Cl
ENDBRANCH   2   6
TORSDOF 3
