REMARK  1 active torsions:
REMARK  status: ('A' for Active; 'I' for Inactive)
REMARK    1  A    between atoms: C1_1  and  C2_2 
ROOT
HETATM    1  C1  UNL     1     -33.340   7.605   4.569  1.00 20.00     0.437 C 
HETATM    2  F3  UNL     1     -31.990   7.669   4.515  1.00 20.00    -0.166 F 
HETATM    3  F4  UNL     1     -33.732   8.285   5.670  1.00 20.00    -0.166 F 
HETATM    4  F5  UNL     1     -33.818   8.273   3.493  1.00 20.00    -0.166 F 
ENDROOT
BRANCH   1   5
HETATM    5  C2  UNL     1     -33.830   6.168   4.596  1.00 20.00     0.286 C 
HETATM    6 CL6  UNL     1     -33.175   5.328   6.031  1.00 20.00    -0.074 Cl
HETATM    7 CL7  UNL     1     -35.615   6.133   4.666  1.00 20.00    -0.074 Cl
HETATM    8 CL8  UNL     1     -33.289   5.311   3.124  1.00 20.00    -0.074 Cl
ENDBRANCH   1   5
TORSDOF 1
