REMARK  3 active torsions:
REMARK  status: ('A' for Active; 'I' for Inactive)
REMARK    1  A    between atoms: C1_1  and  C4_4 
REMARK    2  A    between atoms: C1_1  and  O6_6 
REMARK    3  A    between atoms: C5_5  and  O6_6 
ROOT
HETATM    1  C1  UNL     1     -33.519   6.069   3.460  1.00 20.00     0.112 C 
HETATM    2  S7  UNL     1     -32.960   5.102   2.217  1.00 20.00    -0.058 SA
ENDROOT
BRANCH   1   3
HETATM    3  C4  UNL     1     -34.771   5.766   4.238  1.00 20.00     0.072 C 
HETATM    4  C2  UNL     1     -34.500   4.802   5.381  1.00 20.00     0.013 C 
ENDBRANCH   1   3
BRANCH   1   5
HETATM    5  O6  UNL     1     -32.758   7.136   3.760  1.00 20.00    -0.344 OA
BRANCH   5   6
HETATM    6  C5  UNL     1     -33.098   8.033   4.830  1.00 20.00     0.172 C 
HETATM    7  C3  UNL     1     -32.050   9.123   4.911  1.00 20.00     0.034 C 
ENDBRANCH   5   6
ENDBRANCH   1   5
TORSDOF 3
