REMARK  3 active torsions:
REMARK  status: ('A' for Active; 'I' for Inactive)
REMARK    1  A    between atoms: C3_3  and  C4_4 
REMARK    2  A    between atoms: C3_3  and  C5_5 
REMARK    3  A    between atoms: C4_4  and  O6_6 
ROOT
HETATM    1  C1  UNL     1     -34.377   8.001   5.850  1.00 20.00     0.022 A 
HETATM    2  C2  UNL     1     -33.227   7.135   6.280  1.00 20.00     0.022 A 
HETATM    3  C3  UNL     1     -33.959   6.829   4.994  1.00 20.00     0.079 A 
ENDROOT
BRANCH   3   4
HETATM    4  C4  UNL     1     -34.855   5.622   4.963  1.00 20.00     0.182 C 
BRANCH   4   5
HETATM    5  O6  UNL     1     -35.347   5.365   6.273  1.00 20.00    -0.400 OA
HETATM    6  H16 UNL     1     -35.918   4.583   6.208  1.00 20.00     0.209 HD
ENDBRANCH   4   5
ENDBRANCH   3   4
BRANCH   3   7
HETATM    7  C5  UNL     1     -33.255   7.119   3.696  1.00 20.00     0.397 C 
HETATM    8  F7  UNL     1     -32.109   7.798   3.910  1.00 20.00    -0.170 F 
HETATM    9  F8  UNL     1     -32.947   5.976   3.048  1.00 20.00    -0.170 F 
HETATM   10  F9  UNL     1     -34.033   7.863   2.881  1.00 20.00    -0.170 F 
ENDBRANCH   3   7
TORSDOF 3
