REMARK  1 active torsions:
REMARK  status: ('A' for Active; 'I' for Inactive)
REMARK    1  A    between atoms: C7_7  and  C8_8 
ROOT
HETATM    1  C1  UNL     1     -34.250   7.329   5.705  1.00 20.00     0.132 C 
HETATM    2  C2  UNL     1     -34.448   6.484   6.940  1.00 20.00     0.079 C 
HETATM    3  C3  UNL     1     -33.778   5.125   6.785  1.00 20.00     0.008 C 
HETATM    4  C4  UNL     1     -34.362   4.341   5.612  1.00 20.00     0.006 C 
HETATM    5  C5  UNL     1     -34.420   6.640   4.402  1.00 20.00     0.073 A 
HETATM    6  C6  UNL     1     -34.429   5.133   4.342  1.00 20.00     0.011 A 
HETATM    7  C7  UNL     1     -33.242   5.898   3.811  1.00 20.00     0.110 A 
HETATM    8  O9  UNL     1     -34.025   8.533   5.745  1.00 20.00    -0.298 OA
ENDROOT
BRANCH   7   9
HETATM    9  C8  UNL     1     -32.987   5.955   2.344  1.00 20.00     0.392 C 
HETATM   10  F10 UNL     1     -32.287   4.875   1.919  1.00 20.00    -0.171 F 
HETATM   11  F11 UNL     1     -34.144   5.989   1.639  1.00 20.00    -0.171 F 
HETATM   12  F12 UNL     1     -32.275   7.057   2.006  1.00 20.00    -0.171 F 
ENDBRANCH   7   9
TORSDOF 1
