REMARK  0 active torsions:
REMARK  status: ('A' for Active; 'I' for Inactive)
ROOT
HETATM    1  C1  UNL     1     -34.685   7.765   5.897  1.00 20.00     0.013 C 
HETATM    2  C2  UNL     1     -33.748   6.868   6.732  1.00 20.00     0.013 C 
HETATM    3  C3  UNL     1     -35.451   6.092   4.130  1.00 20.00     0.280 C 
HETATM    4  C4  UNL     1     -33.966   4.672   5.452  1.00 20.00     0.280 C 
HETATM    5  C5  UNL     1     -34.515   7.275   4.446  1.00 20.00     0.086 C 
HETATM    6  C6  UNL     1     -33.095   5.917   5.712  1.00 20.00     0.086 C 
HETATM    7  C7  UNL     1     -33.079   6.781   4.464  1.00 20.00     0.254 C 
HETATM    8  N8  UNL     1     -35.358   4.988   5.097  1.00 20.00     0.084 N 
HETATM    9  F9  UNL     1     -32.737   6.106   3.354  1.00 20.00    -0.205 F 
HETATM   10  F10 UNL     1     -32.216   7.812   4.600  1.00 20.00    -0.205 F 
HETATM   11  H21 UNL     1     -35.852   5.263   5.947  1.00 20.00     0.315 HD
ENDROOT
TORSDOF 0
