REMARK  0 active torsions:
REMARK  status: ('A' for Active; 'I' for Inactive)
ROOT
HETATM    1  C1  UNL     1     -32.429   6.639   3.338  1.00 20.00     0.027 C 
HETATM    2  C2  UNL     1     -32.510   7.666   4.466  1.00 20.00     0.027 C 
HETATM    3  C3  UNL     1     -35.590   5.347   5.323  1.00 20.00     0.009 C 
HETATM    4  C4  UNL     1     -34.885   6.024   3.020  1.00 20.00     0.030 C 
HETATM    5  C5  UNL     1     -33.373   4.558   4.474  1.00 20.00     0.030 C 
HETATM    6  C6  UNL     1     -35.022   7.748   4.904  1.00 20.00     0.030 C 
HETATM    7  C7  UNL     1     -33.513   6.280   6.359  1.00 20.00     0.030 C 
HETATM    8  C8  UNL     1     -35.614   6.474   4.291  1.00 20.00    -0.010 C 
HETATM    9  C9  UNL     1     -34.142   5.044   5.707  1.00 20.00    -0.010 C 
HETATM   10  C10 UNL     1     -33.457   5.503   3.263  1.00 20.00     0.038 C 
HETATM   11  C11 UNL     1     -33.623   7.563   5.516  1.00 20.00     0.038 C 
HETATM   12 CL12 UNL     1     -32.989   4.528   1.793  1.00 20.00    -0.119 Cl
HETATM   13 CL13 UNL     1     -33.347   8.968   6.647  1.00 20.00    -0.119 Cl
ENDROOT
TORSDOF 0
