REMARK  1 active torsions:
REMARK  status: ('A' for Active; 'I' for Inactive)
REMARK    1  A    between atoms: C7_7  and  C8_8 
ROOT
HETATM    1  C1  UNL     1     -34.661   4.720   5.938  1.00 20.00     0.005 C 
HETATM    2  C2  UNL     1     -33.934   4.569   4.593  1.00 20.00     0.005 C 
HETATM    3  C3  UNL     1     -35.466   6.371   4.424  1.00 20.00     0.010 C 
HETATM    4  C4  UNL     1     -33.942   7.119   6.089  1.00 20.00     0.010 C 
HETATM    5  C5  UNL     1     -35.147   6.179   5.905  1.00 20.00    -0.014 C 
HETATM    6  C6  UNL     1     -34.060   5.972   3.973  1.00 20.00    -0.009 C 
HETATM    7  C7  UNL     1     -33.155   6.939   4.773  1.00 20.00     0.004 C 
ENDROOT
BRANCH   7   8
HETATM    8  C8  UNL     1     -32.922   8.264   4.054  1.00 20.00     0.119 C 
HETATM    9 CL9  UNL     1     -32.005   9.371   5.092  1.00 20.00    -0.130 Cl
ENDBRANCH   7   8
TORSDOF 1
