REMARK  2 active torsions:
REMARK  status: ('A' for Active; 'I' for Inactive)
REMARK    1  A    between atoms: C1_1  and  C9_9 
REMARK    2  A    between atoms: C2_2  and  C8_8 
ROOT
HETATM    1  C1  UNL     1     -33.418   6.867   5.270  1.00 20.00    -0.016 C 
HETATM    2  C2  UNL     1     -32.747   7.649   4.398  1.00 20.00    -0.087 C 
HETATM    3  C3  UNL     1     -32.111   8.929   4.889  1.00 20.00     0.043 C 
ENDROOT
BRANCH   1   4
HETATM    4  C9  UNL     1     -34.156   5.545   5.080  1.00 20.00    -0.033 C 
HETATM    5  C5  UNL     1     -34.728   5.117   6.453  1.00 20.00     0.018 C 
HETATM    6  C6  UNL     1     -35.347   5.647   4.111  1.00 20.00     0.018 C 
HETATM    7  C7  UNL     1     -33.181   4.449   4.618  1.00 20.00     0.018 C 
ENDBRANCH   1   4
BRANCH   2   8
HETATM    8  C8  UNL     1     -32.505   7.356   2.937  1.00 20.00     0.029 C 
HETATM    9  C4  UNL     1     -31.709   8.451   2.240  1.00 20.00     0.010 C 
ENDBRANCH   2   8
TORSDOF 2
