REMARK  1 active torsions:
REMARK  status: ('A' for Active; 'I' for Inactive)
REMARK    1  A    between atoms: C1_1  and  C5_5 
ROOT
HETATM    1  C2  UNL     1     -33.991   6.256   6.712  1.00 20.00     0.002 C 
HETATM    2  C3  UNL     1     -34.083   4.900   5.991  1.00 20.00     0.016 C 
HETATM    3  C4  UNL     1     -33.549   6.880   5.378  1.00 20.00     0.016 C 
HETATM    4  C5  UNL     1     -34.197   5.668   4.636  1.00 20.00     0.009 C 
HETATM    5  C6  UNL     1     -35.642   5.923   4.200  1.00 20.00     0.023 C 
ENDROOT
BRANCH   4   6
HETATM    6  C1  UNL     1     -33.358   5.080   3.468  1.00 20.00     0.240 C 
HETATM    7  O7  UNL     1     -32.480   5.706   2.884  1.00 20.00    -0.306 OA
ENDBRANCH   4   6
TORSDOF 1
