REMARK  3 active torsions:
REMARK  status: ('A' for Active; 'I' for Inactive)
REMARK    1  A    between atoms: C4_4  and  C7_7 
REMARK    2  A    between atoms: C6_6  and  C7_7 
REMARK    3  A    between atoms: C7_7  and  O9_9 
ROOT
HETATM    1  C1  UNL     1     -34.139   5.775   4.864  1.00 20.00     0.035 C 
HETATM    2  C2  UNL     1     -34.458   5.389   6.293  1.00 20.00     0.168 C 
HETATM    3  C3  UNL     1     -33.922   7.656   6.249  1.00 20.00     0.174 C 
HETATM    4  C4  UNL     1     -33.250   6.984   5.064  1.00 20.00     0.040 C 
HETATM    5  O8  UNL     1     -34.468   6.603   7.058  1.00 20.00    -0.391 OA
ENDROOT
BRANCH   4   6
HETATM    6  C7  UNL     1     -33.128   7.875   3.843  1.00 20.00     0.124 C 
BRANCH   6   7
HETATM    7  C6  UNL     1     -32.499   7.127   2.664  1.00 20.00     0.027 C 
HETATM    8  C5  UNL     1     -32.321   8.014   1.439  1.00 20.00     0.007 C 
ENDBRANCH   6   7
BRANCH   6   9
HETATM    9  O9  UNL     1     -32.311   8.999   4.166  1.00 20.00    -0.395 OA
HETATM   10  H23 UNL     1     -31.447   8.644   4.427  1.00 20.00     0.210 HD
ENDBRANCH   6   9
ENDBRANCH   4   6
TORSDOF 3
