REMARK  4 active torsions:
REMARK  status: ('A' for Active; 'I' for Inactive)
REMARK    1  A    between atoms: C2_2  and  C3_3 
REMARK    2  A    between atoms: C3_3  and  C5_5 
REMARK    3  A    between atoms: C5_5  and  C6_6 
REMARK    4  A    between atoms: C6_6  and  C7_7 
ROOT
HETATM    1  C3  UNL     1     -33.730   7.074   4.653  1.00 20.00     0.154 C 
HETATM    2  O8  UNL     1     -34.058   8.116   5.221  1.00 20.00    -0.293 OA
ENDROOT
BRANCH   1   3
HETATM    3  C2  UNL     1     -34.371   5.778   5.066  1.00 20.00    -0.025 C 
HETATM    4  C1  UNL     1     -34.543   4.770   4.200  1.00 20.00     0.022 C 
HETATM    5  C4  UNL     1     -34.807   5.674   6.498  1.00 20.00     0.051 C 
ENDBRANCH   1   3
BRANCH   1   6
HETATM    6  C5  UNL     1     -32.686   7.066   3.543  1.00 20.00     0.084 C 
BRANCH   6   7
HETATM    7  C6  UNL     1     -33.112   7.914   2.340  1.00 20.00     0.023 C 
BRANCH   7   8
HETATM    8  C7  UNL     1     -32.124   7.856   1.180  1.00 20.00     0.115 C 
HETATM    9 CL9  UNL     1     -32.662   8.832  -0.205  1.00 20.00    -0.130 Cl
ENDBRANCH   7   8
ENDBRANCH   6   7
ENDBRANCH   1   6
TORSDOF 4
