REMARK  3 active torsions:
REMARK  status: ('A' for Active; 'I' for Inactive)
REMARK    1  A    between atoms: C4_4  and  C7_7 
REMARK    2  A    between atoms: C6_6  and  C7_7 
REMARK    3  A    between atoms: C7_7  and  O9_9 
ROOT
HETATM    1  C1  UNL     1     -34.411   6.562   6.259  1.00 20.00     0.035 C 
HETATM    2  C2  UNL     1     -34.729   5.089   6.409  1.00 20.00     0.168 C 
HETATM    3  C3  UNL     1     -34.372   5.535   4.150  1.00 20.00     0.174 C 
HETATM    4  C4  UNL     1     -33.625   6.576   4.966  1.00 20.00     0.040 C 
HETATM    5  O8  UNL     1     -34.847   4.552   5.083  1.00 20.00    -0.391 OA
ENDROOT
BRANCH   4   6
HETATM    6  C7  UNL     1     -33.548   7.936   4.299  1.00 20.00     0.124 C 
BRANCH   6   7
HETATM    7  C6  UNL     1     -32.352   8.025   3.345  1.00 20.00     0.027 C 
HETATM    8  C5  UNL     1     -32.442   7.021   2.203  1.00 20.00     0.007 C 
ENDBRANCH   6   7
BRANCH   6   9
HETATM    9  O9  UNL     1     -33.413   8.940   5.303  1.00 20.00    -0.395 OA
HETATM   10  H23 UNL     1     -33.368   9.789   4.838  1.00 20.00     0.210 HD
ENDBRANCH   6   9
ENDBRANCH   4   6
TORSDOF 3
