REMARK  2 active torsions:
REMARK  status: ('A' for Active; 'I' for Inactive)
REMARK    1  A    between atoms: C2_2  and  C3_3 
REMARK    2  A    between atoms: C2_2  and  C4_4 
ROOT
HETATM    1  C2  UNL     1     -33.649   6.897   5.290  1.00 20.00     0.154 C 
ENDROOT
BRANCH   1   2
HETATM    2  C3  UNL     1     -33.502   7.934   4.181  1.00 20.00     0.174 C 
HETATM    3  C1  UNL     1     -32.662   9.119   4.622  1.00 20.00     0.045 C 
HETATM    4  F5  UNL     1     -32.878   7.352   3.118  1.00 20.00    -0.250 F 
ENDBRANCH   1   2
BRANCH   1   5
HETATM    5  C4  UNL     1     -34.494   5.717   4.856  1.00 20.00     0.390 C 
HETATM    6  F6  UNL     1     -34.623   4.831   5.868  1.00 20.00    -0.171 F 
HETATM    7  F7  UNL     1     -33.938   5.068   3.812  1.00 20.00    -0.171 F 
HETATM    8  F8  UNL     1     -35.734   6.108   4.493  1.00 20.00    -0.171 F 
ENDBRANCH   1   5
TORSDOF 2
