REMARK  1 active torsions:
REMARK  status: ('A' for Active; 'I' for Inactive)
REMARK    1  A    between atoms: C1_1  and  C4_4 
ROOT
HETATM    1  C1  UNL     1     -33.683   6.878   5.070  1.00 20.00     0.172 C 
HETATM    2  C2  UNL     1     -33.009   9.012   5.365  1.00 20.00     0.160 C 
HETATM    3  C3  UNL     1     -32.621   8.816   3.907  1.00 20.00     0.103 C 
HETATM    4  N5  UNL     1     -33.904   7.920   5.801  1.00 20.00    -0.278 NA
HETATM    5  S9  UNL     1     -32.547   7.023   3.755  1.00 20.00    -0.104 SA
ENDROOT
BRANCH   1   6
HETATM    6  C4  UNL     1     -34.376   5.573   5.264  1.00 20.00     0.440 C 
HETATM    7  F6  UNL     1     -33.988   4.669   4.338  1.00 20.00    -0.164 F 
HETATM    8  F7  UNL     1     -34.108   5.050   6.481  1.00 20.00    -0.164 F 
HETATM    9  F8  UNL     1     -35.717   5.707   5.165  1.00 20.00    -0.164 F 
ENDBRANCH   1   6
TORSDOF 1
