REMARK  1 active torsions:
REMARK  status: ('A' for Active; 'I' for Inactive)
REMARK    1  A    between atoms: C4_4  and  C6_6 
ROOT
HETATM    1  C1  UNL     1     -34.440   4.556   5.078  1.00 20.00     0.135 A 
HETATM    2  C2  UNL     1     -33.800   4.837   3.891  1.00 20.00     0.136 A 
HETATM    3  C3  UNL     1     -34.394   6.775   5.629  1.00 20.00     0.144 A 
HETATM    4  C4  UNL     1     -33.754   7.056   4.442  1.00 20.00     0.065 A 
HETATM    5  N7  UNL     1     -34.748   5.519   5.969  1.00 20.00    -0.270 NA
HETATM    6  N8  UNL     1     -33.446   6.093   3.551  1.00 20.00    -0.261 NA
ENDROOT
BRANCH   4   7
HETATM    7  C6  UNL     1     -33.378   8.455   4.100  1.00 20.00     0.107 C 
HETATM    8  C5  UNL     1     -32.394   9.074   5.058  1.00 20.00     0.029 C 
HETATM    9 BR9  UNL     1     -32.653   8.525   2.277  1.00 20.00    -0.085 Br
ENDBRANCH   4   7
TORSDOF 1
