REMARK  2 active torsions:
REMARK  status: ('A' for Active; 'I' for Inactive)
REMARK    1  A    between atoms: C3_3  and  C6_6 
REMARK    2  A    between atoms: C4_4  and  C7_7 
ROOT
HETATM    1  C1  UNL     1     -32.820   9.037   2.404  1.00 20.00    -0.176 C 
HETATM    2  C2  UNL     1     -32.810   9.142   1.110  1.00 20.00     0.091 C 
HETATM    3  C3  UNL     1     -32.831   8.934   3.699  1.00 20.00     0.072 C 
ENDROOT
BRANCH   3   4
HETATM    4  C6  UNL     1     -32.800   7.619   4.320  1.00 20.00     0.017 A 
HETATM    5  C5  UNL     1     -32.622   6.407   3.450  1.00 20.00     0.022 A 
HETATM    6  C7  UNL     1     -33.960   6.675   4.090  1.00 20.00     0.092 A 
BRANCH   6   7
HETATM    7  C4  UNL     1     -34.356   5.824   5.195  1.00 20.00     0.177 C 
HETATM    8  O8  UNL     1     -34.668   6.430   6.257  1.00 20.00    -0.648 OA
HETATM    9  O9  UNL     1     -34.335   4.586   4.944  1.00 20.00    -0.648 OA
ENDBRANCH   6   7
ENDBRANCH   3   4
TORSDOF 2
