REMARK  2 active torsions:
REMARK  status: ('A' for Active; 'I' for Inactive)
REMARK    1  A    between atoms: C1_1  and  C4_4 
REMARK    2  A    between atoms: C4_4  and  C5_5 
ROOT
HETATM    1  C4  UNL     1     -33.089   6.612   4.251  1.00 20.00     0.137 C 
ENDROOT
BRANCH   1   2
HETATM    2  C1  UNL     1     -33.031   7.940   5.012  1.00 20.00     0.174 C 
HETATM    3  O6  UNL     1     -32.098   8.718   4.664  1.00 20.00    -0.648 OA
HETATM    4  O7  UNL     1     -33.908   8.083   5.910  1.00 20.00    -0.648 OA
ENDBRANCH   1   2
BRANCH   1   5
HETATM    5  C5  UNL     1     -34.179   5.640   4.731  1.00 20.00     0.039 C 
HETATM    6  C2  UNL     1     -33.999   5.253   6.202  1.00 20.00     0.032 C 
HETATM    7  C3  UNL     1     -35.588   6.196   4.501  1.00 20.00     0.032 C 
HETATM    8 CL8  UNL     1     -34.024   4.129   3.748  1.00 20.00    -0.119 Cl
ENDBRANCH   1   5
TORSDOF 2
