REMARK  2 active torsions:
REMARK  status: ('A' for Active; 'I' for Inactive)
REMARK    1  A    between atoms: C1_1  and  C3_3 
REMARK    2  A    between atoms: C1_1  and  O7_7 
ROOT
HETATM    1  C2  UNL     1     -32.766   7.843   3.458  1.00 20.00     0.055 A 
HETATM    2  C3  UNL     1     -33.814   7.724   4.514  1.00 20.00     0.122 A 
HETATM    3  C4  UNL     1     -32.435   8.125   4.888  1.00 20.00     0.184 A 
HETATM    4  F8  UNL     1     -32.251   9.446   5.253  1.00 20.00    -0.248 F 
ENDROOT
BRANCH   2   5
HETATM    5  C1  UNL     1     -34.284   6.353   4.895  1.00 20.00     0.265 C 
HETATM    6  O6  UNL     1     -34.229   5.380   4.156  1.00 20.00    -0.265 OA
BRANCH   5   7
HETATM    7  O7  UNL     1     -34.770   6.376   6.169  1.00 20.00    -0.326 OA
HETATM    8  C5  UNL     1     -35.255   5.124   6.664  1.00 20.00     0.213 C 
ENDBRANCH   5   7
ENDBRANCH   2   5
TORSDOF 2
