REMARK  1 active torsions:
REMARK  status: ('A' for Active; 'I' for Inactive)
REMARK    1  A    between atoms: C1_1  and  C2_2 
ROOT
HETATM    1  C2  UNL     1     -33.341   5.790   4.448  1.00 20.00     0.064 A 
HETATM    2  C3  UNL     1     -34.693   5.869   5.141  1.00 20.00    -0.030 A 
HETATM    3  C4  UNL     1     -33.713   7.053   5.210  1.00 20.00    -0.030 A 
HETATM    4  C5  UNL     1     -34.897   5.003   6.366  1.00 20.00     0.016 C 
HETATM    5  C6  UNL     1     -35.959   5.995   4.322  1.00 20.00     0.016 C 
HETATM    6  C7  UNL     1     -34.030   8.327   4.458  1.00 20.00     0.016 C 
HETATM    7  C8  UNL     1     -32.973   7.329   6.501  1.00 20.00     0.016 C 
ENDROOT
BRANCH   1   8
HETATM    8  C1  UNL     1     -33.235   5.787   2.983  1.00 20.00     0.237 C 
HETATM    9  O9  UNL     1     -32.535   6.574   2.354  1.00 20.00    -0.306 OA
ENDBRANCH   1   8
TORSDOF 1
