REMARK  0 active torsions:
REMARK  status: ('A' for Active; 'I' for Inactive)
ROOT
HETATM    1  C1  UNL     1     -32.988   7.356   3.967  1.00 20.00     0.064 C 
HETATM    2  C2  UNL     1     -34.155   7.774   6.123  1.00 20.00     0.030 C 
HETATM    3  C3  UNL     1     -33.899   6.403   6.735  1.00 20.00     0.075 C 
HETATM    4  C4  UNL     1     -35.249   6.422   4.410  1.00 20.00     0.093 C 
HETATM    5  C5  UNL     1     -34.293   7.594   4.611  1.00 20.00     0.103 C 
HETATM    6  N6  UNL     1     -31.961   7.168   3.460  1.00 20.00    -0.197 NA
HETATM    7  S7  UNL     1     -34.906   5.252   5.761  1.00 20.00    -0.168 SA
ENDROOT
TORSDOF 0
