REMARK  1 active torsions:
REMARK  status: ('A' for Active; 'I' for Inactive)
REMARK    1  A    between atoms: C2_2  and  C8_8 
ROOT
HETATM    1  C1  UNL     1     -32.439   6.035   2.990  1.00 20.00     0.203 C 
HETATM    2  C2  UNL     1     -32.422   7.512   3.402  1.00 20.00     0.244 C 
HETATM    3  C3  UNL     1     -33.578   6.523   5.309  1.00 20.00     0.245 C 
HETATM    4  C4  UNL     1     -34.390   5.644   4.328  1.00 20.00     0.150 C 
HETATM    5  C5  UNL     1     -34.331   6.854   6.596  1.00 20.00     0.045 C 
HETATM    6  C6  UNL     1     -35.815   6.126   4.062  1.00 20.00     0.042 C 
HETATM    7  N9  UNL     1     -33.139   7.763   4.663  1.00 20.00     0.097 N 
HETATM    8  O10 UNL     1     -33.762   5.514   3.041  1.00 20.00    -0.382 OA
HETATM    9  H27 UNL     1     -32.530   8.290   5.302  1.00 20.00     0.317 HD
ENDROOT
BRANCH   2  10
HETATM   10  C8  UNL     1     -33.008   8.397   2.298  1.00 20.00     0.033 C 
HETATM   11  C7  UNL     1     -32.263   8.243   1.012  1.00 20.00     0.007 C 
ENDBRANCH   2  10
TORSDOF 1
