REMARK  1 active torsions:
REMARK  status: ('A' for Active; 'I' for Inactive)
REMARK    1  A    between atoms: C1_1  and  C2_2 
ROOT
HETATM    1  C1  UNL     1     -33.636   6.828   5.418  1.00 20.00     0.417 C 
HETATM    2  F3  UNL     1     -33.764   7.188   6.719  1.00 20.00    -0.208 F 
HETATM    3  F4  UNL     1     -33.880   7.934   4.676  1.00 20.00    -0.208 F 
ENDROOT
BRANCH   1   4
HETATM    4  C2  UNL     1     -34.645   5.763   5.090  1.00 20.00     0.417 C 
HETATM    5  F5  UNL     1     -34.493   5.369   3.803  1.00 20.00    -0.208 F 
HETATM    6  F6  UNL     1     -34.423   4.674   5.867  1.00 20.00    -0.208 F 
ENDBRANCH   1   4
TORSDOF 1
