REMARK  2 active torsions:
REMARK  status: ('A' for Active; 'I' for Inactive)
REMARK    1  A    between atoms: C4_4  and  C5_5 
REMARK    2  A    between atoms: C5_5  and  N6_6 
ROOT
HETATM    1  C1  UNL     1     -33.105   7.894   4.970  1.00 20.00     0.158 C 
HETATM    2  N6  UNL     1     -33.320   7.017   5.717  1.00 20.00    -0.264 NA
HETATM    3  S7  UNL     1     -32.783   9.096   3.975  1.00 20.00    -0.055 SA
ENDROOT
BRANCH   2   4
HETATM    4  C5  UNL     1     -34.481   6.184   5.364  1.00 20.00     0.060 C 
HETATM    5  C2  UNL     1     -35.080   5.647   6.669  1.00 20.00     0.041 C 
HETATM    6  C3  UNL     1     -35.506   7.075   4.658  1.00 20.00     0.041 C 
BRANCH   4   7
HETATM    7  C4  UNL     1     -34.015   5.008   4.491  1.00 20.00     0.147 C 
HETATM    8 CL8  UNL     1     -33.289   5.518   2.943  1.00 20.00    -0.128 Cl
ENDBRANCH   4   7
ENDBRANCH   2   4
TORSDOF 2
