REMARK  3 active torsions:
REMARK  status: ('A' for Active; 'I' for Inactive)
REMARK    1  A    between atoms: C3_3  and  C7_7 
REMARK    2  A    between atoms: C5_5  and  C6_6 
REMARK    3  A    between atoms: C6_6  and  C7_7 
ROOT
HETATM    1  C1  UNL     1     -33.118   4.811   2.499  1.00 20.00     0.012 C 
HETATM    2  C2  UNL     1     -33.528   4.556   3.598  1.00 20.00    -0.117 C 
HETATM    3  C5  UNL     1     -34.028   4.236   4.943  1.00 20.00     0.093 C 
ENDROOT
BRANCH   3   4
HETATM    4  C6  UNL     1     -34.659   5.453   5.632  1.00 20.00     0.023 C 
BRANCH   4   5
HETATM    5  C7  UNL     1     -33.710   6.656   5.774  1.00 20.00     0.044 C 
HETATM    6  C4  UNL     1     -34.219   7.615   6.849  1.00 20.00     0.017 C 
BRANCH   5   7
HETATM    7  C3  UNL     1     -33.559   7.447   4.486  1.00 20.00     0.235 C 
HETATM    8  O8  UNL     1     -32.498   7.645   3.903  1.00 20.00    -0.306 OA
ENDBRANCH   5   7
ENDBRANCH   4   5
ENDBRANCH   3   4
TORSDOF 3
