REMARK  2 active torsions:
REMARK  status: ('A' for Active; 'I' for Inactive)
REMARK    1  A    between atoms: C1_1  and  C2_2 
REMARK    2  A    between atoms: C2_2  and  C3_3 
ROOT
HETATM    1  C2  UNL     1     -33.596   6.945   4.369  1.00 20.00     0.365 C 
HETATM    2  F5  UNL     1     -34.049   8.209   4.606  1.00 20.00    -0.193 F 
HETATM    3  F6  UNL     1     -32.443   6.823   5.084  1.00 20.00    -0.193 F 
ENDROOT
BRANCH   1   4
HETATM    4  C1  UNL     1     -33.262   6.841   2.888  1.00 20.00     0.345 C 
HETATM    5  F4  UNL     1     -32.387   7.842   2.586  1.00 20.00    -0.226 F 
HETATM    6 CL9  UNL     1     -32.508   5.297   2.450  1.00 20.00    -0.083 Cl
ENDBRANCH   1   4
BRANCH   1   7
HETATM    7  C3  UNL     1     -34.610   5.963   4.931  1.00 20.00     0.388 C 
HETATM    8  F7  UNL     1     -35.788   6.132   4.273  1.00 20.00    -0.181 F 
HETATM    9  F8  UNL     1     -34.864   6.235   6.235  1.00 20.00    -0.181 F 
HETATM   10 CL10 UNL     1     -34.098   4.275   4.768  1.00 20.00    -0.042 Cl
ENDBRANCH   1   7
TORSDOF 2
