REMARK  2 active torsions:
REMARK  status: ('A' for Active; 'I' for Inactive)
REMARK    1  A    between atoms: C1_1  and  C2_2 
REMARK    2  A    between atoms: C2_2  and  C3_3 
ROOT
HETATM    1  C2  UNL     1     -33.701   6.058   4.516  1.00 20.00     0.396 C 
HETATM    2  F6  UNL     1     -32.666   5.199   4.697  1.00 20.00    -0.190 F 
HETATM    3  F7  UNL     1     -34.552   5.468   3.638  1.00 20.00    -0.190 F 
ENDROOT
BRANCH   1   4
HETATM    4  C1  UNL     1     -34.411   6.258   5.833  1.00 20.00     0.434 C 
HETATM    5  F4  UNL     1     -33.546   6.799   6.728  1.00 20.00    -0.207 F 
HETATM    6  F5  UNL     1     -34.802   5.064   6.341  1.00 20.00    -0.207 F 
ENDBRANCH   1   4
BRANCH   1   7
HETATM    7  C3  UNL     1     -33.179   7.335   3.910  1.00 20.00     0.460 C 
HETATM    8  F8  UNL     1     -32.295   7.930   4.739  1.00 20.00    -0.165 F 
HETATM    9  F9  UNL     1     -34.180   8.211   3.678  1.00 20.00    -0.165 F 
HETATM   10  F10 UNL     1     -32.552   7.103   2.737  1.00 20.00    -0.165 F 
ENDBRANCH   1   7
TORSDOF 2
