REMARK  0 active torsions:
REMARK  status: ('A' for Active; 'I' for Inactive)
ROOT
HETATM    1  C1  UNL     1     -32.560   7.627   3.541  1.00 20.00    -0.030 A 
HETATM    2  C2  UNL     1     -32.979   8.268   4.637  1.00 20.00    -0.030 A 
HETATM    3  C3  UNL     1     -32.923   6.211   3.218  1.00 20.00     0.036 A 
HETATM    4  C4  UNL     1     -33.862   7.647   5.675  1.00 20.00     0.036 A 
HETATM    5  C5  UNL     1     -35.332   6.125   4.175  1.00 20.00     0.020 A 
HETATM    6  C6  UNL     1     -33.941   5.531   4.119  1.00 20.00    -0.032 A 
HETATM    7  C7  UNL     1     -34.421   6.265   5.376  1.00 20.00    -0.032 A 
HETATM    8  C8  UNL     1     -33.834   4.026   4.109  1.00 20.00     0.016 C 
HETATM    9  C9  UNL     1     -34.793   5.492   6.617  1.00 20.00     0.016 C 
ENDROOT
TORSDOF 0
