REMARK  6 active torsions:
REMARK  status: ('A' for Active; 'I' for Inactive)
REMARK    1  A    between atoms: C1_1  and  C10_10 
REMARK    2  A    between atoms: C7_7  and  C8_8 
REMARK    3  A    between atoms: C8_8  and  C12_12 
REMARK    4  A    between atoms: C9_9  and  C10_10 
REMARK    5  A    between atoms: C9_9  and  C12_12 
REMARK    6  A    between atoms: C10_10  and  C11_11 
ROOT
HETATM    1  C10 UNL     1     -33.629   6.490   4.801  1.00 20.00     0.058 C 
ENDROOT
BRANCH   1   2
HETATM    2  C1  UNL     1     -34.070   6.481   6.266  1.00 20.00     0.127 C 
HETATM    3  C2  UNL     1     -33.279   7.340   7.220  1.00 20.00     0.091 C 
HETATM    4  O13 UNL     1     -35.036   5.827   6.659  1.00 20.00    -0.298 OA
ENDBRANCH   1   2
BRANCH   1   5
HETATM    5  C9  UNL     1     -33.659   7.932   4.249  1.00 20.00     0.016 C 
BRANCH   5   6
HETATM    6  C12 UNL     1     -32.830   8.163   2.959  1.00 20.00    -0.018 C 
HETATM    7  C6  UNL     1     -31.361   8.373   3.349  1.00 20.00     0.010 C 
BRANCH   6   8
HETATM    8  C8  UNL     1     -33.371   9.352   2.135  1.00 20.00     0.004 C 
BRANCH   8   9
HETATM    9  C7  UNL     1     -32.622   9.663   0.834  1.00 20.00    -0.004 C 
HETATM   10  C3  UNL     1     -32.681   8.534  -0.183  1.00 20.00     0.005 C 
ENDBRANCH   8   9
ENDBRANCH   6   8
ENDBRANCH   5   6
ENDBRANCH   1   5
BRANCH   1  11
HETATM   11  C11 UNL     1     -34.458   5.507   3.930  1.00 20.00    -0.012 C 
HETATM   12  C4  UNL     1     -34.251   4.052   4.366  1.00 20.00     0.010 C 
HETATM   13  C5  UNL     1     -35.956   5.815   3.859  1.00 20.00     0.010 C 
ENDBRANCH   1  11
TORSDOF 6
