REMARK  6 active torsions:
REMARK  status: ('A' for Active; 'I' for Inactive)
REMARK    1  A    between atoms: C5_5  and  C6_6 
REMARK    2  A    between atoms: C5_5  and  C7_7 
REMARK    3  A    between atoms: C6_6  and  C9_9 
REMARK    4  A    between atoms: C7_7  and  O11_11 
REMARK    5  A    between atoms: C8_8  and  C9_9 
REMARK    6  A    between atoms: C9_9  and  C10_10 
ROOT
HETATM    1  C9  UNL     1     -32.989   6.513   4.430  1.00 20.00     0.007 C 
ENDROOT
BRANCH   1   2
HETATM    2  C6  UNL     1     -32.021   6.882   3.271  1.00 20.00     0.008 C 
BRANCH   2   3
HETATM    3  C5  UNL     1     -32.709   7.565   2.079  1.00 20.00     0.027 C 
BRANCH   3   4
HETATM    4  C7  UNL     1     -31.719   7.930   0.978  1.00 20.00     0.167 C 
BRANCH   4   5
HETATM    5  O11 UNL     1     -32.404   8.540  -0.106  1.00 20.00    -0.396 OA
HETATM    6  C4  UNL     1     -32.682   9.909   0.155  1.00 20.00     0.201 C 
ENDBRANCH   4   5
ENDBRANCH   3   4
ENDBRANCH   2   3
ENDBRANCH   1   2
BRANCH   1   7
HETATM    7  C8  UNL     1     -34.026   5.407   4.038  1.00 20.00    -0.017 C 
HETATM    8  C1  UNL     1     -33.446   4.377   3.061  1.00 20.00     0.010 C 
HETATM    9  C2  UNL     1     -34.694   4.680   5.207  1.00 20.00     0.010 C 
ENDBRANCH   1   7
BRANCH   1  10
HETATM   10  C10 UNL     1     -33.597   7.772   5.121  1.00 20.00     0.082 C 
HETATM   11  C3  UNL     1     -32.621   8.950   5.167  1.00 20.00     0.027 C 
HETATM   12 CL12 UNL     1     -34.172   7.459   6.786  1.00 20.00    -0.125 Cl
ENDBRANCH   1  10
TORSDOF 6
