REMARK  4 active torsions:
REMARK  status: ('A' for Active; 'I' for Inactive)
REMARK    1  A    between atoms: C2_2  and  C8_8 
REMARK    2  A    between atoms: C3_3  and  C9_9 
REMARK    3  A    between atoms: C8_8  and  C9_9 
REMARK    4  A    between atoms: C9_9  and  C10_10 
ROOT
HETATM    1  C1  UNL     1     -32.361   8.031   1.179  1.00 20.00    -0.111 C 
HETATM    2  C2  UNL     1     -32.045   7.593   2.251  1.00 20.00    -0.106 C 
HETATM    3  C4  UNL     1     -32.749   8.563  -0.126  1.00 20.00     0.112 C 
ENDROOT
BRANCH   2   4
HETATM    4  C8  UNL     1     -31.656   7.057   3.565  1.00 20.00     0.106 C 
BRANCH   4   5
HETATM    5  C9  UNL     1     -32.795   6.306   4.281  1.00 20.00     0.069 C 
BRANCH   5   6
HETATM    6  C3  UNL     1     -33.653   7.322   5.045  1.00 20.00     0.128 C 
HETATM    7  C5  UNL     1     -34.239   6.866   6.357  1.00 20.00     0.091 C 
HETATM    8  O11 UNL     1     -33.842   8.467   4.633  1.00 20.00    -0.298 OA
ENDBRANCH   5   6
BRANCH   5   9
HETATM    9  C10 UNL     1     -33.668   5.398   3.371  1.00 20.00    -0.011 C 
HETATM   10  C6  UNL     1     -34.722   4.646   4.199  1.00 20.00     0.010 C 
HETATM   11  C7  UNL     1     -32.833   4.372   2.596  1.00 20.00     0.010 C 
ENDBRANCH   5   9
ENDBRANCH   4   5
ENDBRANCH   2   4
TORSDOF 4
