REMARK  2 active torsions:
REMARK  status: ('A' for Active; 'I' for Inactive)
REMARK    1  A    between atoms: C3_3  and  C8_8 
REMARK    2  A    between atoms: C4_4  and  C7_7 
ROOT
HETATM    1  C1  UNL     1     -32.410   8.897   0.809  1.00 20.00     0.065 C 
HETATM    2  C8  UNL     1     -32.158   7.639   1.539  1.00 20.00     0.183 C 
HETATM    3  N9  UNL     1     -32.613   9.890   0.243  1.00 20.00    -0.197 NA
ENDROOT
BRANCH   2   4
HETATM    4  C3  UNL     1     -32.445   7.793   2.979  1.00 20.00     0.055 A 
HETATM    5  C2  UNL     1     -32.322   8.959   3.705  1.00 20.00     0.079 A 
HETATM    6  S11 UNL     1     -32.763   8.669   5.338  1.00 20.00    -0.084 SA
HETATM    7  C4  UNL     1     -33.074   7.030   4.937  1.00 20.00     0.079 A 
HETATM    8  N10 UNL     1     -32.876   6.686   3.684  1.00 20.00    -0.249 NA
BRANCH   7   9
HETATM    9  C7  UNL     1     -33.560   6.018   5.988  1.00 20.00     0.045 A 
HETATM   10  C5  UNL     1     -34.354   4.819   5.525  1.00 20.00     0.012 A 
HETATM   11  C6  UNL     1     -35.041   5.921   6.269  1.00 20.00     0.012 A 
ENDBRANCH   7   9
ENDBRANCH   2   4
TORSDOF 2
