REMARK  2 active torsions:
REMARK  status: ('A' for Active; 'I' for Inactive)
REMARK    1  A    between atoms: C5_5  and  C6_6 
REMARK    2  A    between atoms: C5_5  and  C7_7 
ROOT
HETATM    1  C1  UNL     1     -32.757   8.495   2.452  1.00 20.00     0.079 C 
HETATM    2  C6  UNL     1     -33.384   7.959   3.666  1.00 20.00     0.189 C 
HETATM    3  N8  UNL     1     -32.264   8.916   1.489  1.00 20.00    -0.196 NA
HETATM    4 CL9  UNL     1     -32.546   8.753   5.044  1.00 20.00    -0.109 Cl
ENDROOT
BRANCH   2   5
HETATM    5  C5  UNL     1     -33.236   6.436   3.802  1.00 20.00     0.043 C 
BRANCH   5   6
HETATM    6  C7  UNL     1     -34.294   5.687   4.666  1.00 20.00    -0.049 C 
HETATM    7  C2  UNL     1     -34.241   6.095   6.146  1.00 20.00     0.014 C 
HETATM    8  C3  UNL     1     -35.716   5.927   4.129  1.00 20.00     0.014 C 
HETATM    9  C4  UNL     1     -33.992   4.176   4.575  1.00 20.00     0.014 C 
ENDBRANCH   5   6
ENDBRANCH   2   5
TORSDOF 2
