REMARK  3 active torsions:
REMARK  status: ('A' for Active; 'I' for Inactive)
REMARK    1  A    between atoms: C3_3  and  C4_4 
REMARK    2  A    between atoms: C4_4  and  C5_5 
REMARK    3  A    between atoms: C4_4  and  O6_6 
ROOT
HETATM    1  C1  UNL     1     -31.764   6.941   2.293  1.00 20.00     0.012 C 
HETATM    2  C2  UNL     1     -32.594   7.333   3.067  1.00 20.00    -0.115 C 
HETATM    3  C3  UNL     1     -33.612   7.816   4.015  1.00 20.00     0.133 C 
ENDROOT
BRANCH   3   4
HETATM    4  C4  UNL     1     -33.689   6.922   5.254  1.00 20.00     0.236 C 
BRANCH   4   5
HETATM    5  C5  UNL     1     -34.542   5.693   5.003  1.00 20.00     0.413 C 
HETATM    6  F7  UNL     1     -34.653   4.942   6.121  1.00 20.00    -0.168 F 
HETATM    7  F8  UNL     1     -35.787   6.025   4.602  1.00 20.00    -0.168 F 
HETATM    8  F9  UNL     1     -33.992   4.914   4.046  1.00 20.00    -0.168 F 
ENDBRANCH   4   5
BRANCH   4   9
HETATM    9  O6  UNL     1     -34.275   7.666   6.321  1.00 20.00    -0.386 OA
HETATM   10  H14 UNL     1     -33.696   8.429   6.473  1.00 20.00     0.210 HD
ENDBRANCH   4   9
ENDBRANCH   3   4
TORSDOF 3
