REMARK  1 active torsions:
REMARK  status: ('A' for Active; 'I' for Inactive)
REMARK    1  A    between atoms: C8_8  and  N10_10 
ROOT
HETATM    1  C1  UNL     1     -33.891   4.003   4.163  1.00 20.00     0.065 C 
HETATM    2  C4  UNL     1     -33.898   5.047   6.412  1.00 20.00     0.051 C 
HETATM    3  C5  UNL     1     -34.192   6.495   6.762  1.00 20.00     0.274 C 
HETATM    4  C6  UNL     1     -34.938   6.229   4.564  1.00 20.00     0.292 C 
HETATM    5  C7  UNL     1     -34.658   4.824   5.108  1.00 20.00     0.122 C 
HETATM    6  N9  UNL     1     -33.285   3.355   3.415  1.00 20.00    -0.197 NA
HETATM    7  N10 UNL     1     -34.277   7.187   5.469  1.00 20.00     0.094 N 
ENDROOT
BRANCH   7   8
HETATM    8  C8  UNL     1     -32.943   7.607   4.964  1.00 20.00     0.223 A 
HETATM    9  C2  UNL     1     -32.829   8.689   3.926  1.00 20.00     0.038 A 
HETATM   10  C3  UNL     1     -32.375   8.950   5.332  1.00 20.00     0.038 A 
ENDBRANCH   7   8
TORSDOF 1
