REMARK  1 active torsions:
REMARK  status: ('A' for Active; 'I' for Inactive)
REMARK    1  A    between atoms: C8_8  and  N10_10 
ROOT
HETATM    1  C1  UNL     1     -34.120   7.471   5.809  1.00 20.00     0.065 C 
HETATM    2  C4  UNL     1     -33.724   6.247   3.676  1.00 20.00     0.051 C 
HETATM    3  C5  UNL     1     -32.486   6.533   2.835  1.00 20.00     0.274 C 
HETATM    4  C6  UNL     1     -32.980   8.541   3.881  1.00 20.00     0.292 C 
HETATM    5  C7  UNL     1     -34.071   7.577   4.346  1.00 20.00     0.122 C 
HETATM    6  N9  UNL     1     -34.159   7.387   6.965  1.00 20.00    -0.197 NA
HETATM    7  N10 UNL     1     -32.471   7.986   2.618  1.00 20.00     0.094 N 
ENDROOT
BRANCH   7   8
HETATM    8  C8  UNL     1     -33.289   8.394   1.446  1.00 20.00     0.223 A 
HETATM    9  C2  UNL     1     -33.063   9.726   0.786  1.00 20.00     0.038 A 
HETATM   10  C3  UNL     1     -32.678   8.462   0.074  1.00 20.00     0.038 A 
ENDBRANCH   7   8
TORSDOF 1
