REMARK  1 active torsions:
REMARK  status: ('A' for Active; 'I' for Inactive)
REMARK    1  A    between atoms: C3_3  and  C7_7 
ROOT
HETATM    1  C1  UNL     1     -32.112   8.556   4.419  1.00 20.00     0.304 C 
HETATM    2  C2  UNL     1     -32.262   7.298   3.584  1.00 20.00     0.148 C 
HETATM    3  C3  UNL     1     -33.668   7.199   5.382  1.00 20.00     0.360 C 
HETATM    4  C4  UNL     1     -32.352   7.567   2.095  1.00 20.00     0.041 C 
HETATM    5  N8  UNL     1     -32.551   8.080   5.725  1.00 20.00     0.115 N 
HETATM    6  O9  UNL     1     -33.481   6.697   4.048  1.00 20.00    -0.350 OA
HETATM    7  H24 UNL     1     -31.800   7.525   6.137  1.00 20.00     0.319 HD
ENDROOT
BRANCH   3   8
HETATM    8  C7  UNL     1     -33.752   6.032   6.350  1.00 20.00     0.036 C 
HETATM    9  C5  UNL     1     -35.135   5.380   6.297  1.00 20.00     0.014 C 
HETATM   10  C6  UNL     1     -32.665   4.998   6.051  1.00 20.00     0.014 C 
ENDBRANCH   3   8
TORSDOF 1
