REMARK  1 active torsions:
REMARK  status: ('A' for Active; 'I' for Inactive)
REMARK    1  A    between atoms: C2_2  and  C7_7 
ROOT
HETATM    1  C1  UNL     1     -33.655   4.859   3.481  1.00 20.00     0.310 C 
HETATM    2  C2  UNL     1     -32.576   6.847   3.695  1.00 20.00     0.356 C 
HETATM    3  C3  UNL     1     -34.277   5.623   4.647  1.00 20.00     0.083 C 
HETATM    4  C4  UNL     1     -34.359   4.769   5.908  1.00 20.00     0.047 C 
HETATM    5  C5  UNL     1     -35.654   6.204   4.309  1.00 20.00     0.047 C 
HETATM    6  N8  UNL     1     -33.064   5.922   2.665  1.00 20.00     0.115 N 
HETATM    7  O9  UNL     1     -33.373   6.717   4.884  1.00 20.00    -0.345 OA
HETATM    8  H24 UNL     1     -32.293   5.563   2.105  1.00 20.00     0.319 HD
ENDROOT
BRANCH   2   9
HETATM    9  C7  UNL     1     -32.613   8.292   3.224  1.00 20.00     0.059 C 
HETATM   10  C6  UNL     1     -31.729   8.518   2.038  1.00 20.00     0.009 C 
ENDBRANCH   2   9
TORSDOF 1
