REMARK  2 active torsions:
REMARK  status: ('A' for Active; 'I' for Inactive)
REMARK    1  A    between atoms: C1_1  and  C9_9 
REMARK    2  A    between atoms: C8_8  and  C9_9 
ROOT
HETATM    1  C2  UNL     1     -34.370   4.686   6.557  1.00 20.00     0.005 C 
HETATM    2  C3  UNL     1     -34.069   4.318   5.097  1.00 20.00     0.005 C 
HETATM    3  C4  UNL     1     -35.545   6.175   5.119  1.00 20.00     0.009 C 
HETATM    4  C5  UNL     1     -33.586   7.035   6.159  1.00 20.00     0.010 C 
HETATM    5  C6  UNL     1     -34.814   6.155   6.459  1.00 20.00    -0.014 C 
HETATM    6  C7  UNL     1     -34.339   5.636   4.347  1.00 20.00    -0.010 C 
HETATM    7  C8  UNL     1     -33.220   6.640   4.712  1.00 20.00    -0.004 C 
ENDROOT
BRANCH   7   8
HETATM    8  C9  UNL     1     -33.178   7.844   3.777  1.00 20.00     0.074 C 
BRANCH   8   9
HETATM    9  C1  UNL     1     -32.420   7.560   2.508  1.00 20.00     0.231 C 
HETATM   10  O10 UNL     1     -31.905   6.484   2.221  1.00 20.00    -0.307 OA
ENDBRANCH   8   9
ENDBRANCH   7   8
TORSDOF 2
