REMARK  1 active torsions:
REMARK  status: ('A' for Active; 'I' for Inactive)
REMARK    1  A    between atoms: C3_3  and  C5_5 
ROOT
HETATM    1  C1  UNL     1     -32.594   7.725   4.166  1.00 20.00     0.030 A 
HETATM    2  C2  UNL     1     -33.298   6.992   5.143  1.00 20.00    -0.044 A 
HETATM    3  C3  UNL     1     -32.619   7.063   2.949  1.00 20.00     0.043 A 
HETATM    4  C4  UNL     1     -33.818   5.830   4.644  1.00 20.00    -0.010 A 
HETATM    5  C6  UNL     1     -33.626   7.155   6.579  1.00 20.00     0.040 C 
HETATM    6  C7  UNL     1     -34.568   5.029   5.639  1.00 20.00     0.047 C 
HETATM    7  C8  UNL     1     -34.136   5.730   6.965  1.00 20.00     0.010 C 
HETATM    8  S10 UNL     1     -33.496   5.572   3.024  1.00 20.00    -0.091 SA
ENDROOT
BRANCH   3   9
HETATM    9  C5  UNL     1     -32.034   7.453   1.707  1.00 20.00     0.277 C 
HETATM   10  O9  UNL     1     -31.383   8.505   1.538  1.00 20.00    -0.301 OA
ENDBRANCH   3   9
TORSDOF 1
