REMARK  0 active torsions:
REMARK  status: ('A' for Active; 'I' for Inactive)
ROOT
HETATM    1  C1  UNL     1     -32.665   8.350   1.169  1.00 20.00     0.107 C 
HETATM    2  C2  UNL     1     -33.038   8.000   3.600  1.00 20.00     0.038 A 
HETATM    3  C3  UNL     1     -32.982   7.545   2.300  1.00 20.00     0.086 A 
HETATM    4  C4  UNL     1     -33.382   6.964   4.519  1.00 20.00    -0.043 A 
HETATM    5  C5  UNL     1     -33.579   5.760   3.869  1.00 20.00    -0.010 A 
HETATM    6  C6  UNL     1     -33.550   7.106   6.000  1.00 20.00     0.040 C 
HETATM    7  C7  UNL     1     -33.925   4.468   4.539  1.00 20.00     0.046 C 
HETATM    8  C8  UNL     1     -33.542   5.742   6.708  1.00 20.00     0.005 C 
HETATM    9  C9  UNL     1     -34.419   4.718   5.973  1.00 20.00     0.005 C 
HETATM   10  N10 UNL     1     -32.406   9.006   0.247  1.00 20.00    -0.191 NA
HETATM   11  S11 UNL     1     -33.344   5.876   2.187  1.00 20.00    -0.083 SA
ENDROOT
TORSDOF 0
