REMARK  2 active torsions:
REMARK  status: ('A' for Active; 'I' for Inactive)
REMARK    1  A    between atoms: C1_1  and  C3_3 
REMARK    2  A    between atoms: C3_3  and  C5_5 
ROOT
HETATM    1  C3  UNL     1     -33.081   8.186   4.672  1.00 20.00     0.168 C 
HETATM    2  O6  UNL     1     -32.575   9.102   5.316  1.00 20.00    -0.292 OA
ENDROOT
BRANCH   1   3
HETATM    3  C1  UNL     1     -32.748   7.973   3.234  1.00 20.00     0.063 C 
HETATM    4  C2  UNL     1     -32.964   8.943   2.344  1.00 20.00     0.088 C 
HETATM    5 CL7  UNL     1     -32.605   8.764   0.677  1.00 20.00    -0.097 Cl
ENDBRANCH   1   3
BRANCH   1   6
HETATM    6  C5  UNL     1     -34.104   7.230   5.263  1.00 20.00     0.152 C 
HETATM    7  C4  UNL     1     -34.523   6.193   4.235  1.00 20.00     0.035 C 
HETATM    8 CL8  UNL     1     -33.383   6.429   6.683  1.00 20.00    -0.117 Cl
ENDBRANCH   1   6
TORSDOF 2
