REMARK  2 active torsions:
REMARK  status: ('A' for Active; 'I' for Inactive)
REMARK    1  A    between atoms: C4_4  and  C6_6 
REMARK    2  A    between atoms: C6_6  and  N7_7 
ROOT
HETATM    1  C1  UNL     1     -33.655   5.472   3.483  1.00 20.00     0.332 C 
HETATM    2  N7  UNL     1     -34.265   5.845   4.407  1.00 20.00    -0.242 NA
HETATM    3  O8  UNL     1     -33.054   5.088   2.547  1.00 20.00    -0.260 OA
ENDROOT
BRANCH   2   4
HETATM    4  C6  UNL     1     -33.501   6.740   5.301  1.00 20.00     0.112 C 
HETATM    5  C5  UNL     1     -33.968   6.472   6.738  1.00 20.00     0.035 C 
BRANCH   4   6
HETATM    6  C4  UNL     1     -33.687   8.158   4.887  1.00 20.00     0.010 A 
HETATM    7  C2  UNL     1     -32.682   9.202   5.288  1.00 20.00     0.007 A 
HETATM    8  C3  UNL     1     -32.782   8.769   3.853  1.00 20.00     0.007 A 
ENDBRANCH   4   6
ENDBRANCH   2   4
TORSDOF 2
