REMARK  1 active torsions:
REMARK  status: ('A' for Active; 'I' for Inactive)
REMARK    1  A    between atoms: C11_11  and  N13_13 
ROOT
HETATM    1  C1  UNL     1     -32.776   8.669   0.816  1.00 20.00     0.086 C 
HETATM    2  C11 UNL     1     -32.840   8.869   2.261  1.00 20.00     0.357 C 
HETATM    3  N12 UNL     1     -32.728   8.514  -0.333  1.00 20.00    -0.196 NA
ENDROOT
BRANCH   2   4
HETATM    4  N13 UNL     1     -32.146   7.731   2.960  1.00 20.00    -0.059 N 
HETATM    5  C8  UNL     1     -32.046   7.908   4.454  1.00 20.00     0.236 C 
HETATM    6  C6  UNL     1     -33.383   7.626   5.131  1.00 20.00     0.037 C 
HETATM    7  C10 UNL     1     -33.977   6.247   4.758  1.00 20.00    -0.037 C 
HETATM    8  C4  UNL     1     -33.220   5.087   5.432  1.00 20.00     0.010 C 
HETATM    9  C5  UNL     1     -35.379   6.070   5.366  1.00 20.00     0.010 C 
HETATM   10  C7  UNL     1     -34.018   6.101   3.227  1.00 20.00     0.037 C 
HETATM   11  C2  UNL     1     -33.756   5.034   6.862  1.00 20.00     0.001 C 
HETATM   12  C3  UNL     1     -35.137   5.686   6.822  1.00 20.00     0.001 C 
HETATM   13  C9  UNL     1     -32.669   6.371   2.573  1.00 20.00     0.236 C 
HETATM   14  H32 UNL     1     -31.146   7.759   2.606  1.00 20.00     0.281 HD
ENDBRANCH   2   4
TORSDOF 1
