REMARK  3 active torsions:
REMARK  status: ('A' for Active; 'I' for Inactive)
REMARK    1  A    between atoms: C4_4  and  C6_6 
REMARK    2  A    between atoms: C4_4  and  C7_7 
REMARK    3  A    between atoms: C5_5  and  C6_6 
ROOT
HETATM    1  C1  UNL     1     -32.870   8.196   4.726  1.00 20.00     0.065 C 
HETATM    2  C6  UNL     1     -33.294   6.915   4.124  1.00 20.00     0.107 C 
HETATM    3  N8  UNL     1     -32.534   9.200   5.199  1.00 20.00    -0.197 NA
ENDROOT
BRANCH   2   4
HETATM    4  C4  UNL     1     -34.759   6.584   4.481  1.00 20.00     0.024 C 
BRANCH   4   5
HETATM    5  C7  UNL     1     -34.969   5.938   5.869  1.00 20.00    -0.021 C 
HETATM    6  C2  UNL     1     -34.195   4.618   5.944  1.00 20.00     0.009 C 
HETATM    7  C3  UNL     1     -34.534   6.852   7.015  1.00 20.00     0.009 C 
ENDBRANCH   4   5
ENDBRANCH   2   4
BRANCH   2   8
HETATM    8  C5  UNL     1     -33.052   6.923   2.606  1.00 20.00     0.133 C 
HETATM    9 CL9  UNL     1     -32.977   5.295   1.882  1.00 20.00    -0.129 Cl
ENDBRANCH   2   8
TORSDOF 3
