REMARK  3 active torsions:
REMARK  status: ('A' for Active; 'I' for Inactive)
REMARK    1  A    between atoms: C5_5  and  C7_7 
REMARK    2  A    between atoms: C6_6  and  C7_7 
REMARK    3  A    between atoms: C7_7  and  O8_8 
ROOT
HETATM    1  C1  UNL     1     -32.805   8.311   3.638  1.00 20.00     0.012 C 
HETATM    2  C2  UNL     1     -33.041   7.605   4.580  1.00 20.00    -0.115 C 
HETATM    3  C5  UNL     1     -33.322   6.742   5.740  1.00 20.00     0.130 C 
ENDROOT
BRANCH   3   4
HETATM    4  C7  UNL     1     -34.375   5.653   5.446  1.00 20.00     0.064 C 
HETATM    5  C4  UNL     1     -35.494   6.246   4.576  1.00 20.00     0.046 C 
BRANCH   4   6
HETATM    6  C6  UNL     1     -33.803   4.370   4.807  1.00 20.00     0.034 C 
HETATM    7  C3  UNL     1     -33.195   4.541   3.422  1.00 20.00     0.008 C 
ENDBRANCH   4   6
BRANCH   4   8
HETATM    8  O8  UNL     1     -34.981   5.257   6.686  1.00 20.00    -0.389 OA
HETATM    9  H20 UNL     1     -35.654   4.602   6.455  1.00 20.00     0.210 HD
ENDBRANCH   4   8
ENDBRANCH   3   4
TORSDOF 3
