REMARK  2 active torsions:
REMARK  status: ('A' for Active; 'I' for Inactive)
REMARK    1  A    between atoms: C9_9  and  C10_10 
REMARK    2  A    between atoms: C10_10  and  N12_12 
ROOT
HETATM    1  C1  UNL     1     -32.169   7.673   1.566  1.00 20.00     0.061 C 
HETATM    2  C9  UNL     1     -31.580   6.688   2.487  1.00 20.00     0.159 C 
HETATM    3  N11 UNL     1     -32.633   8.451   0.840  1.00 20.00    -0.197 NA
ENDROOT
BRANCH   2   4
HETATM    4  C10 UNL     1     -32.654   5.900   3.246  1.00 20.00     0.233 C 
HETATM    5  C8  UNL     1     -33.558   5.144   2.276  1.00 20.00     0.044 C 
BRANCH   4   6
HETATM    6  N12 UNL     1     -33.455   6.779   4.082  1.00 20.00     0.102 N 
HETATM    7  C4  UNL     1     -32.652   7.809   4.737  1.00 20.00     0.274 C 
HETATM    8  C2  UNL     1     -33.655   8.424   5.688  1.00 20.00     0.033 C 
HETATM    9  C3  UNL     1     -34.420   7.221   6.217  1.00 20.00     0.043 C 
HETATM   10  C5  UNL     1     -34.291   6.138   5.119  1.00 20.00     0.153 C 
HETATM   11  C6  UNL     1     -35.667   5.836   4.509  1.00 20.00     0.049 C 
HETATM   12  C7  UNL     1     -33.714   4.849   5.730  1.00 20.00     0.049 C 
ENDBRANCH   4   6
ENDBRANCH   2   4
TORSDOF 2
