REMARK  3 active torsions:
REMARK  status: ('A' for Active; 'I' for Inactive)
REMARK    1  A    between atoms: C6_6  and  N10_10 
REMARK    2  A    between atoms: C7_7  and  C8_8 
REMARK    3  A    between atoms: C8_8  and  N10_10 
ROOT
HETATM    1  C1  UNL     1     -33.180   8.567   0.032  1.00 20.00     0.013 C 
HETATM    2  C2  UNL     1     -33.059   8.822   1.199  1.00 20.00    -0.087 C 
HETATM    3  C6  UNL     1     -32.910   9.139   2.621  1.00 20.00     0.364 C 
ENDROOT
BRANCH   3   4
HETATM    4  N10 UNL     1     -33.009   7.922   3.436  1.00 20.00     0.100 N 
HETATM    5  C5  UNL     1     -31.729   7.202   3.412  1.00 20.00     0.311 C 
BRANCH   4   6
HETATM    6  C8  UNL     1     -33.404   8.234   4.791  1.00 20.00     0.232 C 
HETATM    7  C4  UNL     1     -32.345   9.111   5.452  1.00 20.00     0.044 C 
BRANCH   6   8
HETATM    8  C7  UNL     1     -33.637   6.954   5.604  1.00 20.00     0.159 C 
HETATM    9  C3  UNL     1     -34.653   6.089   4.984  1.00 20.00     0.061 C 
HETATM   10  N9  UNL     1     -35.454   5.405   4.497  1.00 20.00    -0.197 NA
ENDBRANCH   6   8
ENDBRANCH   4   6
ENDBRANCH   3   4
TORSDOF 3
