REMARK  1 active torsions:
REMARK  status: ('A' for Active; 'I' for Inactive)
REMARK    1  A    between atoms: C1_1  and  C2_2 
ROOT
HETATM    1  C2  UNL     1     -34.190   5.766   4.836  1.00 20.00     0.299 C 
HETATM    2  F4  UNL     1     -35.494   6.075   4.598  1.00 20.00    -0.203 F 
HETATM    3 CL6  UNL     1     -34.142   4.433   6.023  1.00 20.00    -0.061 Cl
HETATM    4 CL7  UNL     1     -33.443   5.212   3.316  1.00 20.00    -0.061 Cl
ENDROOT
BRANCH   1   5
HETATM    5  C1  UNL     1     -33.483   6.992   5.401  1.00 20.00     0.336 C 
HETATM    6  F3  UNL     1     -34.081   7.347   6.572  1.00 20.00    -0.227 F 
HETATM    7 CL5  UNL     1     -33.574   8.389   4.299  1.00 20.00    -0.083 Cl
ENDBRANCH   1   5
TORSDOF 1
