REMARK  1 active torsions:
REMARK  status: ('A' for Active; 'I' for Inactive)
REMARK    1  A    between atoms: C2_2  and  C3_3 
ROOT
HETATM    1  C1  UNL     1     -34.073   4.248   4.201  1.00 20.00     0.071 C 
HETATM    2  C3  UNL     1     -34.359   5.659   4.693  1.00 20.00     0.187 C 
HETATM    3  F4  UNL     1     -35.624   5.997   4.317  1.00 20.00    -0.225 F 
HETATM    4 CL6  UNL     1     -34.301   5.671   6.484  1.00 20.00    -0.082 Cl
ENDROOT
BRANCH   2   5
HETATM    5  C2  UNL     1     -33.391   6.715   4.165  1.00 20.00     0.174 C 
HETATM    6 CL5  UNL     1     -33.743   8.337   4.815  1.00 20.00    -0.126 Cl
ENDBRANCH   2   5
TORSDOF 1
