REMARK  0 active torsions:
REMARK  status: ('A' for Active; 'I' for Inactive)
ROOT
HETATM    1  C1  UNL     1     -34.504   7.403   6.520  1.00 20.00     0.006 C 
HETATM    2  C2  UNL     1     -34.685   5.949   6.971  1.00 20.00     0.006 C 
HETATM    3  C3  UNL     1     -33.889   7.340   5.125  1.00 20.00     0.079 C 
HETATM    4  C4  UNL     1     -34.171   5.082   5.826  1.00 20.00     0.079 C 
HETATM    5  C5  UNL     1     -34.308   5.980   4.617  1.00 20.00     0.243 C 
HETATM    6  F6  UNL     1     -33.551   5.566   3.587  1.00 20.00    -0.206 F 
HETATM    7  F7  UNL     1     -35.595   6.012   4.201  1.00 20.00    -0.206 F 
ENDROOT
TORSDOF 0
