REMARK  2 active torsions:
REMARK  status: ('A' for Active; 'I' for Inactive)
REMARK    1  A    between atoms: C1_1  and  C3_3 
REMARK    2  A    between atoms: C3_3  and  C4_4 
ROOT
HETATM    1  C1  UNL     1     -33.090   7.916   4.660  1.00 20.00     0.162 C 
HETATM    2  C2  UNL     1     -33.848   6.991   5.259  1.00 20.00     0.301 C 
HETATM    3  F5  UNL     1     -32.717   8.993   5.389  1.00 20.00    -0.205 F 
HETATM    4  F6  UNL     1     -34.235   7.145   6.542  1.00 20.00    -0.170 F 
HETATM    5  F7  UNL     1     -34.226   5.892   4.574  1.00 20.00    -0.170 F 
ENDROOT
BRANCH   1   6
HETATM    6  C3  UNL     1     -32.613   7.831   3.241  1.00 20.00     0.086 C 
BRANCH   6   7
HETATM    7  C4  UNL     1     -33.144   9.000   2.413  1.00 20.00     0.086 C 
HETATM    8  I8  UNL     1     -32.429   8.882   0.399  1.00 20.00    -0.090 I 
ENDBRANCH   6   7
ENDBRANCH   1   6
TORSDOF 2
