REMARK  0 active torsions:
REMARK  status: ('A' for Active; 'I' for Inactive)
ROOT
HETATM    1  C1  UNL     1     -33.587   5.680   5.602  1.00 20.00     0.059 C 
HETATM    2  C2  UNL     1     -33.336   6.932   6.016  1.00 20.00     0.059 C 
HETATM    3  C3  UNL     1     -33.964   5.675   4.156  1.00 20.00     0.332 C 
HETATM    4  C4  UNL     1     -33.517   7.900   4.893  1.00 20.00     0.332 C 
HETATM    5  C5  UNL     1     -33.351   6.983   3.698  1.00 20.00     0.379 C 
HETATM    6  F6  UNL     1     -33.487   4.632   3.448  1.00 20.00    -0.195 F 
HETATM    7  F7  UNL     1     -35.310   5.699   4.006  1.00 20.00    -0.195 F 
HETATM    8  F8  UNL     1     -34.759   8.439   4.913  1.00 20.00    -0.195 F 
HETATM    9  F9  UNL     1     -32.626   8.912   4.865  1.00 20.00    -0.195 F 
HETATM   10  F10 UNL     1     -33.904   7.465   2.576  1.00 20.00    -0.192 F 
HETATM   11  F11 UNL     1     -32.027   6.797   3.455  1.00 20.00    -0.192 F 
ENDROOT
TORSDOF 0
