REMARK  0 active torsions:
REMARK  status: ('A' for Active; 'I' for Inactive)
ROOT
HETATM    1  C1  UNL     1     -34.238   6.578   5.683  1.00 20.00     0.219 C 
HETATM    2  C2  UNL     1     -33.826   6.725   4.417  1.00 20.00     0.153 C 
HETATM    3  F3  UNL     1     -34.208   7.647   6.514  1.00 20.00    -0.190 F 
HETATM    4 CL4  UNL     1     -34.816   5.086   6.333  1.00 20.00    -0.049 Cl
HETATM    5 CL5  UNL     1     -33.854   5.374   3.332  1.00 20.00    -0.067 Cl
HETATM    6 CL6  UNL     1     -33.248   8.221   3.770  1.00 20.00    -0.067 Cl
ENDROOT
TORSDOF 0
