REMARK  3 active torsions:
REMARK  status: ('A' for Active; 'I' for Inactive)
REMARK    1  A    between atoms: C2_2  and  C3_3 
REMARK    2  A    between atoms: C2_2  and  C4_4 
REMARK    3  A    between atoms: C3_3  and  N5_5 
ROOT
HETATM    1  C1  UNL     1     -32.174   7.703   3.045  1.00 20.00     0.332 C 
HETATM    2  N5  UNL     1     -32.319   7.940   4.186  1.00 20.00    -0.247 NA
HETATM    3  O6  UNL     1     -32.026   7.466   1.902  1.00 20.00    -0.260 OA
ENDROOT
BRANCH   2   4
HETATM    4  C3  UNL     1     -33.710   8.155   4.586  1.00 20.00     0.162 C 
BRANCH   4   5
HETATM    5  C2  UNL     1     -34.094   7.104   5.618  1.00 20.00     0.139 C 
BRANCH   5   6
HETATM    6  C4  UNL     1     -33.960   5.700   5.071  1.00 20.00     0.389 C 
HETATM    7  F7  UNL     1     -34.341   4.779   5.982  1.00 20.00    -0.171 F 
HETATM    8  F8  UNL     1     -34.738   5.541   3.978  1.00 20.00    -0.171 F 
HETATM    9  F9  UNL     1     -32.688   5.431   4.711  1.00 20.00    -0.171 F 
ENDBRANCH   5   6
ENDBRANCH   4   5
ENDBRANCH   2   4
TORSDOF 3
