REMARK  0 active torsions:
REMARK  status: ('A' for Active; 'I' for Inactive)
ROOT
HETATM    1  C1  UNL     1     -32.171   8.396   4.135  1.00 20.00     0.101 C 
HETATM    2  C2  UNL     1     -33.532   7.062   5.402  1.00 20.00     0.055 C 
HETATM    3  C3  UNL     1     -33.045   6.234   3.195  1.00 20.00     0.145 C 
HETATM    4  C4  UNL     1     -33.631   6.533   6.633  1.00 20.00     0.112 C 
HETATM    5  C5  UNL     1     -32.116   7.411   2.993  1.00 20.00     0.092 C 
HETATM    6  C6  UNL     1     -34.189   6.466   4.170  1.00 20.00     0.105 C 
HETATM    7  C7  UNL     1     -32.469   8.123   1.695  1.00 20.00     0.023 C 
HETATM    8  C8  UNL     1     -35.014   5.194   4.367  1.00 20.00     0.025 C 
HETATM    9  N9  UNL     1     -32.824   8.235   5.244  1.00 20.00    -0.267 NA
HETATM   10  O10 UNL     1     -32.910   5.197   2.548  1.00 20.00    -0.296 OA
HETATM   11 CL11 UNL     1     -34.516   5.112   6.963  1.00 20.00    -0.095 Cl
ENDROOT
TORSDOF 0
