REMARK  0 active torsions:
REMARK  status: ('A' for Active; 'I' for Inactive)
ROOT
HETATM    1  C1  UNL     1     -33.149   7.617   3.969  1.00 20.00    -0.011 C 
HETATM    2  C2  UNL     1     -32.918   6.880   2.872  1.00 20.00    -0.015 C 
HETATM    3  C3  UNL     1     -33.833   7.080   5.194  1.00 20.00     0.036 C 
HETATM    4  C4  UNL     1     -33.303   5.431   2.762  1.00 20.00     0.047 C 
HETATM    5  C5  UNL     1     -33.706   4.809   4.106  1.00 20.00     0.014 C 
HETATM    6  C6  UNL     1     -34.584   5.744   4.967  1.00 20.00    -0.044 C 
HETATM    7  C7  UNL     1     -34.857   5.078   6.327  1.00 20.00     0.015 C 
HETATM    8  C8  UNL     1     -35.940   6.001   4.279  1.00 20.00     0.015 C 
HETATM    9 BR9  UNL     1     -32.079   7.594   1.362  1.00 20.00    -0.056 Br
ENDROOT
TORSDOF 0
