REMARK  0 active torsions:
REMARK  status: ('A' for Active; 'I' for Inactive)
ROOT
HETATM    1  C1  UNL     1     -34.009   5.285   6.055  1.00 20.00     0.009 C 
HETATM    2  C2  UNL     1     -35.761   6.590   4.815  1.00 20.00     0.009 C 
HETATM    3  C3  UNL     1     -34.106   7.780   6.274  1.00 20.00     0.013 C 
HETATM    4  C4  UNL     1     -32.222   6.694   5.019  1.00 20.00     0.014 C 
HETATM    5  C5  UNL     1     -33.978   8.003   3.776  1.00 20.00     0.014 C 
HETATM    6  C6  UNL     1     -34.948   6.502   6.117  1.00 20.00    -0.013 C 
HETATM    7  C7  UNL     1     -33.057   5.410   4.849  1.00 20.00    -0.009 C 
HETATM    8  C8  UNL     1     -34.814   6.720   3.605  1.00 20.00    -0.009 C 
HETATM    9  C9  UNL     1     -33.906   5.468   3.556  1.00 20.00    -0.010 C 
HETATM   10  C10 UNL     1     -33.141   7.937   5.075  1.00 20.00    -0.043 C 
HETATM   11  C11 UNL     1     -33.056   5.402   2.286  1.00 20.00     0.010 C 
HETATM   12  C12 UNL     1     -32.304   9.210   5.233  1.00 20.00     0.015 C 
ENDROOT
TORSDOF 0
