REMARK  1 active torsions:
REMARK  status: ('A' for Active; 'I' for Inactive)
REMARK    1  A    between atoms: C5_5  and  N7_7 
ROOT
HETATM    1  C1  UNL     1     -32.640   6.491   2.725  1.00 20.00     0.160 C 
HETATM    2  N7  UNL     1     -32.956   5.615   3.436  1.00 20.00    -0.237 NA
HETATM    3  S9  UNL     1     -32.183   7.660   1.745  1.00 20.00    -0.055 SA
ENDROOT
BRANCH   2   4
HETATM    4  C5  UNL     1     -34.059   5.938   4.351  1.00 20.00     0.152 C 
HETATM    5  C3  UNL     1     -34.359   4.707   5.209  1.00 20.00     0.065 C 
HETATM    6  C2  UNL     1     -34.861   5.305   6.501  1.00 20.00     0.031 C 
HETATM    7  C4  UNL     1     -34.012   6.548   6.613  1.00 20.00     0.171 C 
HETATM    8  O8  UNL     1     -33.807   7.019   5.276  1.00 20.00    -0.359 OA
HETATM    9  C6  UNL     1     -35.262   6.350   3.501  1.00 20.00     0.073 C 
ENDBRANCH   2   4
TORSDOF 1
