REMARK  2 active torsions:
REMARK  status: ('A' for Active; 'I' for Inactive)
REMARK    1  A    between atoms: C1_1  and  C5_5 
REMARK    2  A    between atoms: C5_5  and  C7_7 
ROOT
HETATM    1  C2  UNL     1     -34.315   6.107   6.779  1.00 20.00     0.002 C 
HETATM    2  C3  UNL     1     -34.897   6.178   5.357  1.00 20.00     0.020 C 
HETATM    3  C4  UNL     1     -32.911   6.207   6.157  1.00 20.00     0.020 C 
HETATM    4  C5  UNL     1     -33.560   6.831   4.881  1.00 20.00     0.048 C 
ENDROOT
BRANCH   4   5
HETATM    5  C1  UNL     1     -33.007   6.300   3.530  1.00 20.00     0.181 C 
HETATM    6  O8  UNL     1     -31.927   6.827   3.145  1.00 20.00    -0.647 OA
HETATM    7  O9  UNL     1     -33.711   5.404   2.984  1.00 20.00    -0.647 OA
ENDBRANCH   4   5
BRANCH   4   8
HETATM    8  C7  UNL     1     -33.589   8.361   4.898  1.00 20.00     0.016 C 
HETATM    9  C6  UNL     1     -32.226   8.944   4.710  1.00 20.00     0.006 C 
ENDBRANCH   4   8
TORSDOF 2
