REMARK  1 active torsions:
REMARK  status: ('A' for Active; 'I' for Inactive)
REMARK    1  A    between atoms: C3_3  and  C4_4 
ROOT
HETATM    1  C1  UNL     1     -34.205   6.231   6.616  1.00 20.00     0.175 C 
HETATM    2  C2  UNL     1     -34.470   5.213   4.844  1.00 20.00     0.175 C 
HETATM    3  C3  UNL     1     -34.253   6.697   5.156  1.00 20.00     0.047 C 
HETATM    4  O5  UNL     1     -34.654   4.905   6.247  1.00 20.00    -0.390 OA
ENDROOT
BRANCH   3   5
HETATM    5  C4  UNL     1     -32.994   7.331   4.604  1.00 20.00     0.123 C 
HETATM    6 CL6  UNL     1     -32.878   9.030   5.110  1.00 20.00    -0.130 Cl
ENDBRANCH   3   5
TORSDOF 1
