REMARK  2 active torsions:
REMARK  status: ('A' for Active; 'I' for Inactive)
REMARK    1  A    between atoms: C1_1  and  C3_3 
REMARK    2  A    between atoms: C4_4  and  O10_10 
ROOT
HETATM    1  C3  UNL     1     -33.498   8.008   4.353  1.00 20.00     0.048 A 
HETATM    2  C4  UNL     1     -32.011   8.251   4.426  1.00 20.00     0.135 A 
HETATM    3  C5  UNL     1     -32.794   8.748   3.228  1.00 20.00    -0.012 A 
HETATM    4  C8  UNL     1     -33.079  10.224   3.093  1.00 20.00     0.018 C 
HETATM    5  C9  UNL     1     -32.535   8.065   1.907  1.00 20.00     0.018 C 
ENDROOT
BRANCH   1   6
HETATM    6  C1  UNL     1     -33.982   6.648   4.167  1.00 20.00    -0.017 C 
HETATM    7  C2  UNL     1     -34.159   5.700   5.108  1.00 20.00    -0.091 C 
HETATM    8  C6  UNL     1     -34.671   4.333   4.748  1.00 20.00     0.042 C 
HETATM    9  C7  UNL     1     -33.871   5.908   6.568  1.00 20.00     0.042 C 
ENDBRANCH   1   6
BRANCH   2  10
HETATM   10  O10 UNL     1     -31.584   9.232   5.387  1.00 20.00    -0.394 OA
HETATM   11  H26 UNL     1     -31.881   8.906   6.247  1.00 20.00     0.210 HD
ENDBRANCH   2  10
TORSDOF 2
