REMARK  0 active torsions:
REMARK  status: ('A' for Active; 'I' for Inactive)
ROOT
HETATM    1  C1  UNL     1     -34.119   6.185   5.122  1.00 20.00    -0.054 C 
HETATM    2  C2  UNL     1     -33.537   6.329   3.915  1.00 20.00     0.091 C 
HETATM    3  C3  UNL     1     -34.195   7.330   6.096  1.00 20.00     0.046 C 
HETATM    4  C4  UNL     1     -34.728   4.905   5.628  1.00 20.00     0.046 C 
HETATM    5  C5  UNL     1     -33.436   5.283   2.852  1.00 20.00     0.082 C 
HETATM    6  F6  UNL     1     -33.011   7.540   3.607  1.00 20.00    -0.211 F 
ENDROOT
TORSDOF 0
