REMARK  0 active torsions:
REMARK  status: ('A' for Active; 'I' for Inactive)
ROOT
HETATM    1  C1  UNL     1     -34.614   5.105   5.421  1.00 20.00     0.238 C 
HETATM    2  C2  UNL     1     -34.165   6.307   5.776  1.00 20.00     0.189 C 
HETATM    3  F3  UNL     1     -34.247   4.530   4.261  1.00 20.00    -0.216 F 
HETATM    4  F4  UNL     1     -34.572   6.828   6.955  1.00 20.00    -0.196 F 
HETATM    5 BR5  UNL     1     -33.003   7.303   4.721  1.00 20.00    -0.015 Br
ENDROOT
TORSDOF 0
