REMARK  1 active torsions:
REMARK  status: ('A' for Active; 'I' for Inactive)
REMARK    1  A    between atoms: C2_2  and  C4_4 
ROOT
HETATM    1  C1  UNL     1     -33.312   7.954   4.721  1.00 20.00     0.116 C 
HETATM    2  C2  UNL     1     -33.470   6.646   4.454  1.00 20.00     0.151 C 
HETATM    3  C3  UNL     1     -32.540   8.951   3.916  1.00 20.00     0.084 C 
HETATM    4  F5  UNL     1     -33.909   8.443   5.836  1.00 20.00    -0.209 F 
HETATM    5 CL9  UNL     1     -32.757   5.899   3.059  1.00 20.00    -0.076 Cl
ENDROOT
BRANCH   2   6
HETATM    6  C4  UNL     1     -34.256   5.696   5.299  1.00 20.00     0.430 C 
HETATM    7  F6  UNL     1     -34.242   4.437   4.786  1.00 20.00    -0.165 F 
HETATM    8  F7  UNL     1     -33.796   5.594   6.573  1.00 20.00    -0.165 F 
HETATM    9  F8  UNL     1     -35.560   6.067   5.391  1.00 20.00    -0.165 F 
ENDBRANCH   2   6
TORSDOF 1
