REMARK  1 active torsions:
REMARK  status: ('A' for Active; 'I' for Inactive)
REMARK    1  A    between atoms: C2_2  and  C3_3 
ROOT
HETATM    1  C3  UNL     1     -34.472   5.939   4.536  1.00 20.00     0.351 C 
HETATM    2  F5  UNL     1     -35.808   6.039   4.308  1.00 20.00    -0.185 F 
HETATM    3  F6  UNL     1     -34.325   5.077   5.577  1.00 20.00    -0.185 F 
HETATM    4 BR7  UNL     1     -33.605   5.200   2.958  1.00 20.00    -0.003 Br
ENDROOT
BRANCH   1   5
HETATM    5  C2  UNL     1     -33.840   7.253   4.846  1.00 20.00     0.167 C 
HETATM    6  C1  UNL     1     -33.716   7.760   6.077  1.00 20.00     0.059 C 
HETATM    7  F4  UNL     1     -33.326   7.970   3.819  1.00 20.00    -0.204 F 
ENDBRANCH   1   5
TORSDOF 1
