REMARK  0 active torsions:
REMARK  status: ('A' for Active; 'I' for Inactive)
ROOT
HETATM    1  C1  UNL     1     -32.813   7.271   4.201  1.00 20.00     0.145 C 
HETATM    2  C2  UNL     1     -33.783   6.851   5.004  1.00 20.00    -0.034 C 
HETATM    3  C3  UNL     1     -34.033   6.886   6.458  1.00 20.00     0.038 C 
HETATM    4  C4  UNL     1     -34.603   5.471   6.681  1.00 20.00     0.007 C 
HETATM    5  C5  UNL     1     -34.327   4.675   5.387  1.00 20.00     0.034 C 
HETATM    6  C6  UNL     1     -34.438   5.729   4.306  1.00 20.00     0.161 C 
HETATM    7  N7  UNL     1     -32.748   6.514   3.055  1.00 20.00    -0.167 NA
HETATM    8  N8  UNL     1     -33.577   5.551   3.121  1.00 20.00    -0.183 NA
ENDROOT
TORSDOF 0
