REMARK  0 active torsions:
REMARK  status: ('A' for Active; 'I' for Inactive)
ROOT
HETATM    1  C1  UNL     1     -33.760   5.422   4.252  1.00 20.00     0.164 C 
HETATM    2  C2  UNL     1     -34.823   4.762   5.099  1.00 20.00     0.107 C 
HETATM    3  C3  UNL     1     -34.613   5.150   6.554  1.00 20.00     0.175 C 
HETATM    4  C4  UNL     1     -33.434   7.123   6.017  1.00 20.00     0.212 C 
HETATM    5  C5  UNL     1     -33.535   6.890   4.520  1.00 20.00     0.263 C 
HETATM    6  O6  UNL     1     -33.185   4.826   3.345  1.00 20.00    -0.295 OA
HETATM    7  O7  UNL     1     -34.561   6.571   6.697  1.00 20.00    -0.388 OA
HETATM    8  F8  UNL     1     -32.394   7.331   3.927  1.00 20.00    -0.239 F 
ENDROOT
TORSDOF 0
