REMARK  0 active torsions:
REMARK  status: ('A' for Active; 'I' for Inactive)
ROOT
HETATM    1  C1  UNL     1     -34.086   5.457   3.793  1.00 20.00     0.009 C 
HETATM    2  C2  UNL     1     -35.053   5.533   4.978  1.00 20.00     0.035 C 
HETATM    3  C3  UNL     1     -33.033   6.580   3.739  1.00 20.00     0.082 C 
HETATM    4  C4  UNL     1     -34.321   5.859   6.240  1.00 20.00     0.157 A 
HETATM    5  C5  UNL     1     -33.334   6.989   6.173  1.00 20.00     0.223 A 
HETATM    6  C6  UNL     1     -33.172   7.626   4.838  1.00 20.00     0.271 C 
HETATM    7  O7  UNL     1     -34.611   7.146   6.798  1.00 20.00    -0.369 OA
HETATM    8  F8  UNL     1     -32.077   8.427   4.841  1.00 20.00    -0.203 F 
HETATM    9  F9  UNL     1     -34.234   8.429   4.565  1.00 20.00    -0.203 F 
ENDROOT
TORSDOF 0
