REMARK  3 active torsions:
REMARK  status: ('A' for Active; 'I' for Inactive)
REMARK    1  A    between atoms: C3_3  and  C5_5 
REMARK    2  A    between atoms: C5_5  and  C6_6 
REMARK    3  A    between atoms: C6_6  and  S9_9 
ROOT
HETATM    1  C1  UNL     1     -33.845   6.535   6.458  1.00 20.00     0.179 C 
HETATM    2  C2  UNL     1     -34.446   5.143   6.509  1.00 20.00     0.103 C 
HETATM    3  C3  UNL     1     -34.343   6.327   4.192  1.00 20.00     0.183 C 
HETATM    4  O7  UNL     1     -34.382   7.216   5.317  1.00 20.00    -0.375 OA
HETATM    5  S8  UNL     1     -34.387   4.616   4.789  1.00 20.00    -0.135 SA
ENDROOT
BRANCH   3   6
HETATM    6  C5  UNL     1     -33.086   6.585   3.376  1.00 20.00     0.057 C 
BRANCH   6   7
HETATM    7  C6  UNL     1     -32.717   8.071   3.255  1.00 20.00     0.043 C 
HETATM    8  C4  UNL     1     -32.014   8.561   4.518  1.00 20.00     0.021 C 
BRANCH   7   9
HETATM    9  S9  UNL     1     -31.630   8.389   1.819  1.00 20.00    -0.178 SA
HETATM   10  H21 UNL     1     -31.578   9.716   1.989  1.00 20.00     0.102 HD
ENDBRANCH   7   9
ENDBRANCH   6   7
ENDBRANCH   3   6
TORSDOF 3
