REMARK  1 active torsions:
REMARK  status: ('A' for Active; 'I' for Inactive)
REMARK    1  A    between atoms: C1_1  and  C3_3 
ROOT
HETATM    1  C1  UNL     1     -32.521   6.983   3.730  1.00 20.00     0.143 C 
HETATM    2  C2  UNL     1     -33.208   5.914   3.310  1.00 20.00     0.190 C 
HETATM    3  F4  UNL     1     -34.404   5.615   3.862  1.00 20.00    -0.193 F 
HETATM    4 CL8  UNL     1     -32.593   4.895   2.063  1.00 20.00    -0.051 Cl
ENDROOT
BRANCH   1   5
HETATM    5  C3  UNL     1     -32.965   7.922   4.797  1.00 20.00     0.411 C 
HETATM    6  F5  UNL     1     -32.088   8.928   5.038  1.00 20.00    -0.167 F 
HETATM    7  F6  UNL     1     -33.152   7.275   5.976  1.00 20.00    -0.167 F 
HETATM    8  F7  UNL     1     -34.150   8.504   4.479  1.00 20.00    -0.167 F 
ENDBRANCH   1   5
TORSDOF 1
