REMARK  1 active torsions:
REMARK  status: ('A' for Active; 'I' for Inactive)
REMARK    1  A    between atoms: C5_5  and  C6_6 
ROOT
HETATM    1  C1  UNL     1     -33.082   6.098   3.575  1.00 20.00     0.015 C 
HETATM    2  C2  UNL     1     -33.987   7.042   5.760  1.00 20.00     0.015 C 
HETATM    3  C3  UNL     1     -33.960   4.854   3.629  1.00 20.00     0.074 C 
HETATM    4  C4  UNL     1     -34.938   5.874   5.990  1.00 20.00     0.074 C 
HETATM    5  C5  UNL     1     -33.708   7.313   4.274  1.00 20.00    -0.003 C 
HETATM    6  S7  UNL     1     -34.270   4.320   5.335  1.00 20.00    -0.169 SA
ENDROOT
BRANCH   5   7
HETATM    7  C6  UNL     1     -32.797   8.533   4.124  1.00 20.00     0.089 C 
HETATM    8 BR8  UNL     1     -33.017   9.285   2.352  1.00 20.00    -0.096 Br
ENDBRANCH   5   7
TORSDOF 1
