REMARK  2 active torsions:
REMARK  status: ('A' for Active; 'I' for Inactive)
REMARK    1  A    between atoms: C1_1  and  C4_4 
REMARK    2  A    between atoms: C4_4  and  C5_5 
ROOT
HETATM    1  C2  UNL     1     -34.980   6.517   5.832  1.00 20.00     0.020 A 
HETATM    2  C3  UNL     1     -33.557   6.289   6.243  1.00 20.00     0.020 A 
HETATM    3  C4  UNL     1     -33.868   6.712   4.823  1.00 20.00     0.039 A 
ENDROOT
BRANCH   3   4
HETATM    4  C1  UNL     1     -33.536   8.109   4.451  1.00 20.00     0.243 C 
HETATM    5  O6  UNL     1     -32.429   8.609   4.622  1.00 20.00    -0.306 OA
ENDBRANCH   3   4
BRANCH   3   6
HETATM    6  C5  UNL     1     -33.726   5.664   3.748  1.00 20.00     0.238 C 
HETATM    7  F7  UNL     1     -34.049   4.451   4.271  1.00 20.00    -0.254 F 
ENDBRANCH   3   6
TORSDOF 2
