REMARK  1 active torsions:
REMARK  status: ('A' for Active; 'I' for Inactive)
REMARK    1  A    between atoms: C6_6  and  C7_7 
ROOT
HETATM    1  C1  UNL     1     -34.537   4.728   5.848  1.00 20.00     0.005 C 
HETATM    2  C2  UNL     1     -34.079   6.155   6.164  1.00 20.00     0.011 C 
HETATM    3  C3  UNL     1     -35.746   6.258   4.369  1.00 20.00     0.015 C 
HETATM    4  C4  UNL     1     -33.802   5.769   3.759  1.00 20.00     0.015 C 
HETATM    5  C5  UNL     1     -34.948   4.916   4.390  1.00 20.00    -0.013 C 
HETATM    6  C6  UNL     1     -34.343   6.806   4.800  1.00 20.00    -0.031 C 
ENDROOT
BRANCH   6   7
HETATM    7  C7  UNL     1     -34.016   8.265   4.673  1.00 20.00     0.094 C 
HETATM    8 BR8  UNL     1     -32.134   8.568   5.074  1.00 20.00    -0.096 Br
ENDBRANCH   6   7
TORSDOF 1
