REMARK  1 active torsions:
REMARK  status: ('A' for Active; 'I' for Inactive)
REMARK    1  A    between atoms: C2_2  and  C5_5 
ROOT
HETATM    1  C1  UNL     1     -33.139   6.130   3.338  1.00 20.00     0.077 C 
HETATM    2  C3  UNL     1     -35.295   5.767   4.595  1.00 20.00     0.034 A 
HETATM    3  C4  UNL     1     -34.220   5.030   5.333  1.00 20.00     0.034 A 
HETATM    4  C5  UNL     1     -33.873   6.288   4.565  1.00 20.00     0.109 A 
HETATM    5  N7  UNL     1     -32.547   6.003   2.349  1.00 20.00    -0.196 NA
ENDROOT
BRANCH   4   6
HETATM    6  C2  UNL     1     -33.574   7.504   5.344  1.00 20.00     0.145 C 
HETATM    7  C6  UNL     1     -32.544   8.439   4.770  1.00 20.00     0.093 C 
HETATM    8  O8  UNL     1     -34.141   7.744   6.409  1.00 20.00    -0.296 OA
ENDBRANCH   4   6
TORSDOF 1
