REMARK  1 active torsions:
REMARK  status: ('A' for Active; 'I' for Inactive)
REMARK    1  A    between atoms: C3_3  and  C4_4 
ROOT
HETATM    1  C1  UNL     1     -32.344   9.248   3.840  1.00 20.00     0.149 A 
HETATM    2  C2  UNL     1     -32.618   8.213   2.971  1.00 20.00     0.093 A 
HETATM    3  C3  UNL     1     -33.189   7.825   5.279  1.00 20.00     0.089 A 
HETATM    4  N5  UNL     1     -32.671   9.028   5.163  1.00 20.00    -0.255 NA
HETATM    5  S6  UNL     1     -33.312   6.905   3.836  1.00 20.00    -0.060 SA
HETATM    6 CL7  UNL     1     -32.354   8.124   1.286  1.00 20.00    -0.075 Cl
ENDROOT
BRANCH   3   7
HETATM    7  C4  UNL     1     -33.660   7.235   6.551  1.00 20.00     0.181 C 
HETATM    8 CL8  UNL     1     -34.668   5.796   6.254  1.00 20.00    -0.123 Cl
ENDBRANCH   3   7
TORSDOF 1
