REMARK  0 active torsions:
REMARK  status: ('A' for Active; 'I' for Inactive)
ROOT
HETATM    1  C1  UNL     1     -32.960   6.757   2.948  1.00 20.00     0.052 A 
HETATM    2  C2  UNL     1     -33.206   8.493   5.036  1.00 20.00     0.126 A 
HETATM    3  C3  UNL     1     -33.523   6.299   4.143  1.00 20.00    -0.047 A 
HETATM    4  C4  UNL     1     -33.635   7.182   5.226  1.00 20.00    -0.034 A 
HETATM    5  C5  UNL     1     -32.556   8.081   2.874  1.00 20.00     0.126 A 
HETATM    6  C6  UNL     1     -33.940   4.855   4.260  1.00 20.00     0.039 C 
HETATM    7  C7  UNL     1     -34.252   6.768   6.534  1.00 20.00     0.040 C 
HETATM    8  C8  UNL     1     -34.866   4.592   5.447  1.00 20.00     0.005 C 
HETATM    9  C9  UNL     1     -34.320   5.252   6.708  1.00 20.00     0.005 C 
HETATM   10  N10 UNL     1     -32.667   8.963   3.889  1.00 20.00    -0.248 NA
HETATM   11 CL11 UNL     1     -31.859   8.715   1.440  1.00 20.00    -0.062 Cl
ENDROOT
TORSDOF 0
