REMARK  2 active torsions:
REMARK  status: ('A' for Active; 'I' for Inactive)
REMARK    1  A    between atoms: C5_5  and  C6_6 
REMARK    2  A    between atoms: C6_6  and  C7_7 
ROOT
HETATM    1  C1  UNL     1     -34.206   8.097   6.060  1.00 20.00     0.012 C 
HETATM    2  C6  UNL     1     -33.616   7.229   4.933  1.00 20.00     0.002 C 
ENDROOT
BRANCH   2   3
HETATM    3  C5  UNL     1     -33.512   8.055   3.632  1.00 20.00     0.119 C 
HETATM    4 CL8  UNL     1     -32.316   7.375   2.491  1.00 20.00    -0.130 Cl
ENDBRANCH   2   3
BRANCH   2   5
HETATM    5  C7  UNL     1     -34.395   5.872   4.726  1.00 20.00    -0.047 C 
HETATM    6  C2  UNL     1     -34.422   5.063   6.042  1.00 20.00     0.015 C 
HETATM    7  C3  UNL     1     -33.687   4.992   3.672  1.00 20.00     0.015 C 
HETATM    8  C4  UNL     1     -35.849   6.095   4.268  1.00 20.00     0.015 C 
ENDBRANCH   2   5
TORSDOF 2
