REMARK  0 active torsions:
REMARK  status: ('A' for Active; 'I' for Inactive)
ROOT
HETATM    1  C1  UNL     1     -34.438   6.235   6.797  1.00 20.00     0.001 C 
HETATM    2  C2  UNL     1     -34.656   4.949   6.439  1.00 20.00     0.001 C 
HETATM    3  C3  UNL     1     -32.040   6.972   2.934  1.00 20.00     0.001 C 
HETATM    4  C4  UNL     1     -32.275   5.569   2.544  1.00 20.00     0.001 C 
HETATM    5  C5  UNL     1     -32.680   7.742   3.843  1.00 20.00     0.009 C 
HETATM    6  C6  UNL     1     -33.194   4.682   2.992  1.00 20.00     0.009 C 
HETATM    7  C7  UNL     1     -33.710   7.213   5.988  1.00 20.00     0.009 C 
HETATM    8  C8  UNL     1     -34.195   4.343   5.189  1.00 20.00     0.009 C 
HETATM    9  C9  UNL     1     -33.806   7.272   4.641  1.00 20.00    -0.039 C 
HETATM   10  C10 UNL     1     -34.189   5.004   4.010  1.00 20.00    -0.039 C 
HETATM   11  C11 UNL     1     -34.734   6.394   3.853  1.00 20.00     0.123 C 
HETATM   12 BR12 UNL     1     -36.617   6.590   4.291  1.00 20.00    -0.081 Br
ENDROOT
TORSDOF 0
