REMARK  2 active torsions:
REMARK  status: ('A' for Active; 'I' for Inactive)
REMARK    1  A    between atoms: C3_3  and  C4_4 
REMARK    2  A    between atoms: C3_3  and  C5_5 
ROOT
HETATM    1  C3  UNL     1     -33.800   6.865   5.378  1.00 20.00     0.157 C 
ENDROOT
BRANCH   1   2
HETATM    2  C4  UNL     1     -34.398   5.632   4.708  1.00 20.00     0.245 C 
HETATM    3  C1  UNL     1     -34.454   4.433   5.633  1.00 20.00     0.090 C 
HETATM    4  F6  UNL     1     -33.668   5.303   3.613  1.00 20.00    -0.207 F 
HETATM    5  F7  UNL     1     -35.654   5.907   4.275  1.00 20.00    -0.207 F 
ENDBRANCH   1   2
BRANCH   1   6
HETATM    6  C5  UNL     1     -33.315   7.898   4.366  1.00 20.00     0.245 C 
HETATM    7  C2  UNL     1     -34.421   8.387   3.454  1.00 20.00     0.090 C 
HETATM    8  F8  UNL     1     -32.783   8.964   5.015  1.00 20.00    -0.207 F 
HETATM    9  F9  UNL     1     -32.325   7.368   3.605  1.00 20.00    -0.207 F 
ENDBRANCH   1   6
TORSDOF 2
