REMARK  1 active torsions:
REMARK  status: ('A' for Active; 'I' for Inactive)
REMARK    1  A    between atoms: C4_4  and  C10_10 
ROOT
HETATM    1  C1  UNL     1     -34.232   5.531   5.938  1.00 20.00    -0.004 C 
HETATM    2  C2  UNL     1     -33.669   6.785   5.506  1.00 20.00     0.003 C 
HETATM    3  C3  UNL     1     -34.330   4.485   5.107  1.00 20.00    -0.026 C 
HETATM    4  C4  UNL     1     -33.070   6.919   4.311  1.00 20.00    -0.072 C 
HETATM    5  C5  UNL     1     -33.853   4.543   3.686  1.00 20.00     0.031 C 
HETATM    6  C6  UNL     1     -32.967   5.758   3.349  1.00 20.00     0.038 C 
ENDROOT
BRANCH   4   7
HETATM    7  C10 UNL     1     -32.451   8.211   3.869  1.00 20.00    -0.028 C 
HETATM    8  C7  UNL     1     -33.125   8.678   2.570  1.00 20.00     0.019 C 
HETATM    9  C8  UNL     1     -30.947   8.009   3.621  1.00 20.00     0.019 C 
HETATM   10  C9  UNL     1     -32.643   9.279   4.957  1.00 20.00     0.019 C 
ENDBRANCH   4   7
TORSDOF 1
