REMARK  1 active torsions:
REMARK  status: ('A' for Active; 'I' for Inactive)
REMARK    1  A    between atoms: C3_3  and  C5_5 
ROOT
HETATM    1  C1  UNL     1     -34.714   7.452   3.969  1.00 20.00     0.055 A 
HETATM    2  C2  UNL     1     -35.285   6.459   4.646  1.00 20.00     0.085 A 
HETATM    3  C3  UNL     1     -33.244   7.431   4.188  1.00 20.00     0.273 A 
HETATM    4  C4  UNL     1     -34.245   5.695   5.364  1.00 20.00     0.378 A 
HETATM    5  O6  UNL     1     -32.984   6.290   5.028  1.00 20.00    -0.273 OA
HETATM    6  F7  UNL     1     -32.836   8.534   4.869  1.00 20.00    -0.202 F 
HETATM    7  F8  UNL     1     -34.393   5.742   6.710  1.00 20.00    -0.171 F 
HETATM    8  F9  UNL     1     -34.208   4.391   4.999  1.00 20.00    -0.171 F 
ENDROOT
BRANCH   3   9
HETATM    9  C5  UNL     1     -32.435   7.313   2.910  1.00 20.00     0.337 C 
HETATM   10  F10 UNL     1     -32.762   6.148   2.294  1.00 20.00    -0.226 F 
HETATM   11 CL11 UNL     1     -32.782   8.668   1.821  1.00 20.00    -0.083 Cl
ENDBRANCH   3   9
TORSDOF 1
