REMARK  2 active torsions:
REMARK  status: ('A' for Active; 'I' for Inactive)
REMARK    1  A    between atoms: C3_3  and  O10_10 
REMARK    2  A    between atoms: C8_8  and  O10_10 
ROOT
HETATM    1  C1  UNL     1     -33.377   5.692   3.718  1.00 20.00     0.069 C 
HETATM    2  C2  UNL     1     -34.571   6.173   4.574  1.00 20.00     0.173 C 
HETATM    3  C3  UNL     1     -32.627   7.003   4.048  1.00 20.00     0.134 C 
HETATM    4  C4  UNL     1     -33.618   7.218   5.247  1.00 20.00     0.008 C 
HETATM    5  C5  UNL     1     -32.989   6.740   6.568  1.00 20.00     0.020 C 
HETATM    6  C6  UNL     1     -34.279   8.583   5.455  1.00 20.00     0.020 C 
HETATM    7  O9  UNL     1     -35.169   5.192   5.441  1.00 20.00    -0.234 OA
ENDROOT
BRANCH   3   8
HETATM    8  O10 UNL     1     -32.726   7.951   3.012  1.00 20.00    -0.385 OA
BRANCH   8   9
HETATM    9  C8  UNL     1     -32.178   7.445   1.810  1.00 20.00     0.163 C 
HETATM   10  C7  UNL     1     -32.306   8.495   0.728  1.00 20.00     0.033 C 
ENDBRANCH   8   9
ENDBRANCH   3   8
TORSDOF 2
