REMARK  1 active torsions:
REMARK  status: ('A' for Active; 'I' for Inactive)
REMARK    1  A    between atoms: C4_4  and  C9_9 
ROOT
HETATM    1  C1  UNL     1     -31.497   7.985   1.246  1.00 20.00     0.017 C 
HETATM    2  C2  UNL     1     -32.095   7.250   1.984  1.00 20.00    -0.089 C 
HETATM    3  C3  UNL     1     -32.797   6.360   2.846  1.00 20.00     0.066 C 
HETATM    4  C4  UNL     1     -33.557   6.747   3.893  1.00 20.00    -0.068 C 
HETATM    5  C5  UNL     1     -33.719   8.212   4.255  1.00 20.00     0.044 C 
ENDROOT
BRANCH   4   6
HETATM    6  C9  UNL     1     -34.314   5.736   4.798  1.00 20.00    -0.028 C 
HETATM    7  C6  UNL     1     -35.833   6.009   4.755  1.00 20.00     0.019 C 
HETATM    8  C7  UNL     1     -34.117   4.256   4.389  1.00 20.00     0.019 C 
HETATM    9  C8  UNL     1     -33.821   5.871   6.254  1.00 20.00     0.019 C 
ENDBRANCH   4   6
TORSDOF 1
