REMARK  2 active torsions:
REMARK  status: ('A' for Active; 'I' for Inactive)
REMARK    1  A    between atoms: C2_2  and  C3_3 
REMARK    2  A    between atoms: C3_3  and  C7_7 
ROOT
HETATM    1  C3  UNL     1     -33.387   7.015   4.516  1.00 20.00     0.255 C 
HETATM    2  O8  UNL     1     -33.435   7.996   5.253  1.00 20.00    -0.283 OA
ENDROOT
BRANCH   1   3
HETATM    3  C2  UNL     1     -32.403   6.904   3.406  1.00 20.00     0.062 C 
HETATM    4  C1  UNL     1     -32.382   7.797   2.416  1.00 20.00    -0.076 C 
HETATM    5  C4  UNL     1     -31.525   7.952   1.179  1.00 20.00     0.034 C 
HETATM    6  C5  UNL     1     -33.200   9.035   2.121  1.00 20.00     0.034 C 
HETATM    7  C6  UNL     1     -32.678   8.850   0.680  1.00 20.00     0.009 C 
ENDBRANCH   1   3
BRANCH   1   8
HETATM    8  C7  UNL     1     -34.325   5.855   4.686  1.00 20.00     0.455 C 
HETATM    9  F9  UNL     1     -34.100   4.882   3.768  1.00 20.00    -0.163 F 
HETATM   10  F10 UNL     1     -34.203   5.280   5.909  1.00 20.00    -0.163 F 
HETATM   11  F11 UNL     1     -35.624   6.225   4.555  1.00 20.00    -0.163 F 
ENDBRANCH   1   8
TORSDOF 2
