REMARK  1 active torsions:
REMARK  status: ('A' for Active; 'I' for Inactive)
REMARK    1  A    between atoms: C4_4  and  C8_8 
ROOT
HETATM    1  C5  UNL     1     -33.999   8.219   5.529  1.00 20.00     0.002 C 
HETATM    2  C6  UNL     1     -32.574   8.501   5.036  1.00 20.00     0.011 C 
HETATM    3  C7  UNL     1     -34.533   7.061   4.689  1.00 20.00     0.021 C 
HETATM    4  C8  UNL     1     -32.328   7.576   3.828  1.00 20.00     0.039 C 
HETATM    5  C9  UNL     1     -33.281   6.404   4.125  1.00 20.00     0.090 C 
HETATM    6 CL11 UNL     1     -33.639   5.340   2.755  1.00 20.00    -0.124 Cl
ENDROOT
BRANCH   4   7
HETATM    7  C4  UNL     1     -32.498   8.255   2.478  1.00 20.00    -0.028 A 
HETATM    8  C1  UNL     1     -32.848   9.606   2.242  1.00 20.00     0.034 A 
HETATM    9  C2  UNL     1     -32.881   9.759   0.876  1.00 20.00     0.142 A 
HETATM   10  O10 UNL     1     -32.573   8.589   0.257  1.00 20.00    -0.334 OA
HETATM   11  C3  UNL     1     -32.342   7.679   1.239  1.00 20.00     0.148 A 
ENDBRANCH   4   7
TORSDOF 1
