REMARK  1 active torsions:
REMARK  status: ('A' for Active; 'I' for Inactive)
REMARK    1  A    between atoms: C4_4  and  C8_8 
ROOT
HETATM    1  C5  UNL     1     -34.456   4.692   6.276  1.00 20.00     0.002 C 
HETATM    2  C6  UNL     1     -35.234   5.916   5.774  1.00 20.00     0.011 C 
HETATM    3  C7  UNL     1     -33.471   4.315   5.173  1.00 20.00     0.021 C 
HETATM    4  C8  UNL     1     -34.612   6.315   4.422  1.00 20.00     0.039 C 
HETATM    5  C9  UNL     1     -34.040   4.975   3.925  1.00 20.00     0.090 C 
HETATM    6 CL11 UNL     1     -32.848   5.086   2.619  1.00 20.00    -0.124 Cl
ENDROOT
BRANCH   4   7
HETATM    7  C4  UNL     1     -33.632   7.474   4.505  1.00 20.00    -0.028 A 
HETATM    8  C1  UNL     1     -32.910   8.058   3.436  1.00 20.00     0.034 A 
HETATM    9  C2  UNL     1     -32.156   9.066   3.991  1.00 20.00     0.142 A 
HETATM   10  O10 UNL     1     -32.368   9.139   5.331  1.00 20.00    -0.334 OA
HETATM   11  C3  UNL     1     -33.267   8.167   5.636  1.00 20.00     0.148 A 
ENDBRANCH   4   7
TORSDOF 1
