REMARK  1 active torsions:
REMARK  status: ('A' for Active; 'I' for Inactive)
REMARK    1  A    between atoms: C4_4  and  C9_9 
ROOT
HETATM    1  C5  UNL     1     -33.785   5.134   4.013  1.00 20.00     0.135 C 
HETATM    2  C6  UNL     1     -34.005   4.236   5.203  1.00 20.00     0.079 C 
HETATM    3  C7  UNL     1     -34.530   5.212   6.246  1.00 20.00     0.008 C 
HETATM    4  C8  UNL     1     -35.300   6.257   5.447  1.00 20.00     0.017 C 
HETATM    5  C9  UNL     1     -34.495   6.465   4.157  1.00 20.00     0.090 C 
HETATM    6  O10 UNL     1     -33.118   4.813   3.036  1.00 20.00    -0.297 OA
ENDROOT
BRANCH   5   7
HETATM    7  C4  UNL     1     -33.567   7.656   4.207  1.00 20.00    -0.023 A 
HETATM    8  C1  UNL     1     -32.659   8.071   3.205  1.00 20.00     0.034 A 
HETATM    9  C2  UNL     1     -32.037   9.196   3.695  1.00 20.00     0.142 A 
HETATM   10  O11 UNL     1     -32.505   9.498   4.935  1.00 20.00    -0.334 OA
HETATM   11  C3  UNL     1     -33.436   8.556   5.239  1.00 20.00     0.149 A 
ENDBRANCH   5   7
TORSDOF 1
