REMARK  4 active torsions:
REMARK  status: ('A' for Active; 'I' for Inactive)
REMARK    1  A    between atoms: C5_5  and  C8_8 
REMARK    2  A    between atoms: C7_7  and  N10_10 
REMARK    3  A    between atoms: C8_8  and  N10_10 
REMARK    4  A    between atoms: C9_9  and  N10_10 
ROOT
HETATM    1  C1  UNL     1     -34.482   4.484   4.438  1.00 20.00     0.013 C 
HETATM    2  C2  UNL     1     -33.745   5.362   4.081  1.00 20.00    -0.087 C 
HETATM    3  C7  UNL     1     -32.843   6.430   3.642  1.00 20.00     0.364 C 
ENDROOT
BRANCH   3   4
HETATM    4  N10 UNL     1     -33.410   7.743   3.950  1.00 20.00     0.099 N 
BRANCH   4   5
HETATM    5  C8  UNL     1     -32.784   8.775   3.125  1.00 20.00     0.278 C 
BRANCH   5   6
HETATM    6  C5  UNL     1     -33.371   8.800   1.755  1.00 20.00     0.014 A 
HETATM    7  C3  UNL     1     -32.882   9.793   0.738  1.00 20.00     0.007 A 
HETATM    8  C4  UNL     1     -32.563   8.333   0.576  1.00 20.00     0.007 A 
ENDBRANCH   5   6
ENDBRANCH   4   5
BRANCH   4   9
HETATM    9  C9  UNL     1     -33.244   8.052   5.369  1.00 20.00     0.269 C 
HETATM   10  C6  UNL     1     -33.929   7.040   6.224  1.00 20.00     0.037 C 
ENDBRANCH   4   9
ENDBRANCH   3   4
TORSDOF 4
