REMARK  1 active torsions:
REMARK  status: ('A' for Active; 'I' for Inactive)
REMARK    1  A    between atoms: C4_4  and  C9_9 
ROOT
HETATM    1  C5  UNL     1     -32.406   8.560   3.589  1.00 20.00     0.135 C 
HETATM    2  C6  UNL     1     -32.282   8.835   2.112  1.00 20.00     0.079 C 
HETATM    3  C7  UNL     1     -31.997   7.446   1.554  1.00 20.00     0.008 C 
HETATM    4  C8  UNL     1     -32.744   6.500   2.485  1.00 20.00     0.017 C 
HETATM    5  C9  UNL     1     -32.493   7.076   3.885  1.00 20.00     0.090 C 
HETATM    6  O10 UNL     1     -32.434   9.441   4.440  1.00 20.00    -0.297 OA
ENDROOT
BRANCH   5   7
HETATM    7  C4  UNL     1     -33.542   6.703   4.898  1.00 20.00    -0.023 A 
HETATM    8  C1  UNL     1     -34.278   5.495   4.958  1.00 20.00     0.034 A 
HETATM    9  C2  UNL     1     -35.112   5.609   6.046  1.00 20.00     0.142 A 
HETATM   10  O11 UNL     1     -34.937   6.810   6.657  1.00 20.00    -0.334 OA
HETATM   11  C3  UNL     1     -33.980   7.469   5.953  1.00 20.00     0.149 A 
ENDBRANCH   5   7
TORSDOF 1
