REMARK  2 active torsions:
REMARK  status: ('A' for Active; 'I' for Inactive)
REMARK    1  A    between atoms: C5_5  and  C6_6 
REMARK    2  A    between atoms: C6_6  and  C7_7 
ROOT
HETATM    1  C1  UNL     1     -34.329   5.769   3.998  1.00 20.00     0.031 C 
HETATM    2  C2  UNL     1     -33.358   7.321   5.714  1.00 20.00     0.031 C 
HETATM    3  C3  UNL     1     -34.526   4.761   5.124  1.00 20.00     0.168 C 
HETATM    4  C4  UNL     1     -33.610   6.226   6.744  1.00 20.00     0.168 C 
HETATM    5  C5  UNL     1     -33.168   6.718   4.317  1.00 20.00    -0.010 C 
HETATM    6  O8  UNL     1     -34.731   5.427   6.369  1.00 20.00    -0.391 OA
ENDROOT
BRANCH   5   7
HETATM    7  C6  UNL     1     -33.042   7.809   3.259  1.00 20.00     0.020 C 
BRANCH   7   8
HETATM    8  C7  UNL     1     -32.702   7.271   1.876  1.00 20.00     0.115 C 
HETATM    9 CL9  UNL     1     -32.536   8.571   0.674  1.00 20.00    -0.130 Cl
ENDBRANCH   7   8
ENDBRANCH   5   7
TORSDOF 2
