REMARK  4 active torsions:
REMARK  status: ('A' for Active; 'I' for Inactive)
REMARK    1  A    between atoms: C1_1  and  C2_2 
REMARK    2  A    between atoms: C1_1  and  N9_9 
REMARK    3  A    between atoms: C7_7  and  C8_8 
REMARK    4  A    between atoms: C8_8  and  N9_9 
ROOT
HETATM    1  C4  UNL     1     -34.700   4.883   6.077  1.00 20.00     0.038 C 
HETATM    2  C5  UNL     1     -35.833   6.026   4.165  1.00 20.00     0.038 C 
HETATM    3  C8  UNL     1     -34.472   5.622   4.749  1.00 20.00     0.024 C 
ENDROOT
BRANCH   3   4
HETATM    4  C7  UNL     1     -33.697   4.690   3.788  1.00 20.00     0.026 C 
HETATM    5  C3  UNL     1     -33.392   5.286   2.418  1.00 20.00     0.007 C 
ENDBRANCH   3   4
BRANCH   3   6
HETATM    6  N9  UNL     1     -33.694   6.819   5.021  1.00 20.00    -0.383 N 
HETATM    7  C6  UNL     1     -33.147   6.944   6.367  1.00 20.00     0.150 C 
BRANCH   6   8
HETATM    8  C1  UNL     1     -33.670   7.871   4.147  1.00 20.00     0.127 C 
BRANCH   8   9
HETATM    9  C2  UNL     1     -33.180   9.106   4.351  1.00 20.00     0.275 C 
HETATM   10  O10 UNL     1     -33.121  10.119   3.606  1.00 20.00    -0.301 OA
ENDBRANCH   8   9
ENDBRANCH   6   8
ENDBRANCH   3   6
TORSDOF 4
