REMARK  3 active torsions:
REMARK  status: ('A' for Active; 'I' for Inactive)
REMARK    1  A    between atoms: C3_3  and  C4_4 
REMARK    2  A    between atoms: C3_3  and  N5_5 
REMARK    3  A    between atoms: C4_4  and  S7_7 
ROOT
HETATM    1  C1  UNL     1     -33.627   7.994   5.912  1.00 20.00     0.157 C 
HETATM    2  N5  UNL     1     -34.298   7.288   6.568  1.00 20.00    -0.275 NA
HETATM    3  S6  UNL     1     -32.737   8.974   5.027  1.00 20.00    -0.055 SA
ENDROOT
BRANCH   2   4
HETATM    4  C3  UNL     1     -33.769   5.934   6.754  1.00 20.00     0.160 C 
BRANCH   4   5
HETATM    5  C4  UNL     1     -34.788   4.936   6.225  1.00 20.00     0.095 C 
BRANCH   5   6
HETATM    6  S7  UNL     1     -35.119   5.230   4.465  1.00 20.00    -0.172 SA
HETATM    7  C2  UNL     1     -33.691   4.359   3.779  1.00 20.00     0.089 C 
ENDBRANCH   5   6
ENDBRANCH   4   5
ENDBRANCH   2   4
TORSDOF 3
