REMARK  1 active torsions:
REMARK  status: ('A' for Active; 'I' for Inactive)
REMARK    1  A    between atoms: C10_10  and  N11_11 
ROOT
HETATM    1  C1  UNL     1     -36.743   6.227   3.836  1.00 20.00     0.015 C 
HETATM    2  C2  UNL     1     -35.714   6.126   4.447  1.00 20.00    -0.076 C 
HETATM    3  C8  UNL     1     -34.589   6.692   6.559  1.00 20.00     0.063 C 
HETATM    4  C9  UNL     1     -34.108   4.521   5.398  1.00 20.00     0.063 C 
HETATM    5  C10 UNL     1     -34.448   6.001   5.198  1.00 20.00     0.214 C 
ENDROOT
BRANCH   5   6
HETATM    6  N11 UNL     1     -33.376   6.641   4.435  1.00 20.00     0.110 N 
HETATM    7  C6  UNL     1     -33.679   8.066   4.226  1.00 20.00     0.282 C 
HETATM    8  C4  UNL     1     -32.534   8.779   3.513  1.00 20.00     0.108 C 
HETATM    9  C3  UNL     1     -32.162   8.046   2.247  1.00 20.00     0.130 C 
HETATM   10  C5  UNL     1     -32.016   6.549   2.369  1.00 20.00     0.108 C 
HETATM   11  O12 UNL     1     -31.884   8.644   1.209  1.00 20.00    -0.298 OA
HETATM   12  C7  UNL     1     -33.189   5.959   3.145  1.00 20.00     0.282 C 
ENDBRANCH   5   6
TORSDOF 1
