REMARK  3 active torsions:
REMARK  status: ('A' for Active; 'I' for Inactive)
REMARK    1  A    between atoms: C4_4  and  C6_6 
REMARK    2  A    between atoms: C6_6  and  C7_7 
REMARK    3  A    between atoms: C7_7  and  N8_8 
ROOT
HETATM    1  C1  UNL     1     -32.161   7.953   1.065  1.00 20.00     0.158 C 
HETATM    2  N8  UNL     1     -31.758   7.343   1.983  1.00 20.00    -0.271 NA
HETATM    3  S9  UNL     1     -32.676   8.789  -0.189  1.00 20.00    -0.055 SA
ENDROOT
BRANCH   2   4
HETATM    4  C7  UNL     1     -32.797   6.698   2.795  1.00 20.00     0.106 C 
HETATM    5  C5  UNL     1     -32.564   5.193   2.750  1.00 20.00     0.034 C 
BRANCH   4   6
HETATM    6  C6  UNL     1     -32.717   7.228   4.229  1.00 20.00     0.031 C 
BRANCH   6   7
HETATM    7  C4  UNL     1     -34.011   7.013   5.003  1.00 20.00    -0.013 A 
HETATM    8  C2  UNL     1     -34.224   5.746   5.785  1.00 20.00     0.005 A 
HETATM    9  C3  UNL     1     -34.009   7.047   6.506  1.00 20.00     0.005 A 
ENDBRANCH   6   7
ENDBRANCH   4   6
ENDBRANCH   2   4
TORSDOF 3
