REMARK  3 active torsions:
REMARK  status: ('A' for Active; 'I' for Inactive)
REMARK    1  A    between atoms: C2_2  and  C3_3 
REMARK    2  A    between atoms: C3_3  and  C11_11 
REMARK    3  A    between atoms: C11_11  and  C12_12 
ROOT
HETATM    1  C3  UNL     1     -32.689   8.241   4.108  1.00 20.00     0.159 C 
HETATM    2  O13 UNL     1     -31.838   8.934   4.659  1.00 20.00    -0.292 OA
ENDROOT
BRANCH   1   3
HETATM    3  C2  UNL     1     -33.572   7.401   4.920  1.00 20.00    -0.016 C 
HETATM    4  C1  UNL     1     -33.861   7.817   6.162  1.00 20.00    -0.016 C 
HETATM    5  C4  UNL     1     -34.746   7.035   7.090  1.00 20.00     0.028 C 
HETATM    6  C6  UNL     1     -35.019   5.607   6.609  1.00 20.00     0.004 C 
HETATM    7  C7  UNL     1     -35.294   5.568   5.108  1.00 20.00     0.005 C 
HETATM    8  C5  UNL     1     -34.118   6.143   4.313  1.00 20.00     0.042 C 
ENDBRANCH   1   3
BRANCH   1   9
HETATM    9  C11 UNL     1     -32.896   8.211   2.594  1.00 20.00     0.059 C 
HETATM   10  C8  UNL     1     -32.129   7.037   1.981  1.00 20.00     0.018 C 
BRANCH   9  11
HETATM   11  C12 UNL     1     -32.562   9.591   1.973  1.00 20.00    -0.012 C 
HETATM   12  C9  UNL     1     -32.709   9.629   0.449  1.00 20.00     0.010 C 
HETATM   13  C10 UNL     1     -33.403  10.705   2.601  1.00 20.00     0.010 C 
ENDBRANCH   9  11
ENDBRANCH   1   9
TORSDOF 3
