REMARK  3 active torsions:
REMARK  status: ('A' for Active; 'I' for Inactive)
REMARK    1  A    between atoms: C1_1  and  C7_7 
REMARK       I    between atoms: C1_1  and  N9_9 
REMARK    2  A    between atoms: C7_7  and  C8_8 
REMARK    3  A    between atoms: N9_9  and  O11_11 
ROOT
HETATM    1  C1  UNL     1     -33.036   7.669   4.588  1.00 20.00     0.247 C 
HETATM    2  C5  UNL     1     -34.320   7.448   6.712  1.00 20.00     0.189 C 
HETATM    3  N9  UNL     1     -34.018   7.071   5.343  1.00 20.00    -0.231 N 
HETATM    4  O10 UNL     1     -32.014   8.151   5.086  1.00 20.00    -0.271 OA
ENDROOT
BRANCH   1   5
HETATM    5  C7  UNL     1     -33.271   7.738   3.070  1.00 20.00     0.079 C 
HETATM    6  C2  UNL     1     -32.788   6.446   2.402  1.00 20.00     0.020 C 
BRANCH   5   7
HETATM    7  C8  UNL     1     -32.636   9.026   2.481  1.00 20.00    -0.010 C 
HETATM    8  C3  UNL     1     -33.191  10.282   3.161  1.00 20.00     0.010 C 
HETATM    9  C4  UNL     1     -32.792   9.149   0.962  1.00 20.00     0.010 C 
ENDBRANCH   5   7
ENDBRANCH   1   5
BRANCH   3  10
HETATM   10  O11 UNL     1     -34.836   6.029   4.871  1.00 20.00    -0.281 OA
HETATM   11  C6  UNL     1     -34.214   4.780   5.161  1.00 20.00     0.238 C 
ENDBRANCH   3  10
TORSDOF 3
