REMARK  3 active torsions:
REMARK  status: ('A' for Active; 'I' for Inactive)
REMARK    1  A    between atoms: C7_7  and  C8_8 
REMARK    2  A    between atoms: C8_8  and  N11_11 
REMARK    3  A    between atoms: C9_9  and  N11_11 
ROOT
HETATM    1  C1  UNL     1     -32.789   5.051   2.559  1.00 20.00     0.015 C 
HETATM    2  C2  UNL     1     -33.467   5.557   3.411  1.00 20.00    -0.076 C 
HETATM    3  C5  UNL     1     -35.783   5.935   4.146  1.00 20.00     0.063 C 
HETATM    4  C6  UNL     1     -33.952   5.580   5.824  1.00 20.00     0.063 C 
HETATM    5  C9  UNL     1     -34.302   6.179   4.458  1.00 20.00     0.213 C 
ENDROOT
BRANCH   5   6
HETATM    6  N11 UNL     1     -34.043   7.606   4.483  1.00 20.00     0.122 N 
HETATM    7  H25 UNL     1     -34.564   8.061   3.732  1.00 20.00     0.319 HD
BRANCH   6   8
HETATM    8  C8  UNL     1     -32.622   7.887   4.311  1.00 20.00     0.327 C 
HETATM    9  C3  UNL     1     -32.252   7.827   2.890  1.00 20.00     0.095 C 
HETATM   10  N10 UNL     1     -31.958   7.776   1.768  1.00 20.00    -0.195 NA
BRANCH   8  11
HETATM   11  C7  UNL     1     -32.234   9.221   4.960  1.00 20.00     0.046 C 
HETATM   12  C4  UNL     1     -32.584   9.334   6.441  1.00 20.00     0.008 C 
ENDBRANCH   8  11
ENDBRANCH   6   8
ENDBRANCH   5   6
TORSDOF 3
