REMARK  3 active torsions:
REMARK  status: ('A' for Active; 'I' for Inactive)
REMARK    1  A    between atoms: C4_4  and  C8_8 
REMARK    2  A    between atoms: C8_8  and  N10_10 
REMARK    3  A    between atoms: C9_9  and  N10_10 
ROOT
HETATM    1  C1  UNL     1     -33.415   7.484   6.200  1.00 20.00     0.015 C 
HETATM    2  C2  UNL     1     -33.886   6.737   5.386  1.00 20.00    -0.076 C 
HETATM    3  C6  UNL     1     -33.822   4.433   4.529  1.00 20.00     0.063 C 
HETATM    4  C7  UNL     1     -35.979   5.712   4.592  1.00 20.00     0.063 C 
HETATM    5  C9  UNL     1     -34.464   5.817   4.385  1.00 20.00     0.212 C 
ENDROOT
BRANCH   5   6
HETATM    6  N10 UNL     1     -34.199   6.337   3.058  1.00 20.00     0.115 N 
HETATM    7  H23 UNL     1     -34.596   5.707   2.358  1.00 20.00     0.319 HD
BRANCH   6   8
HETATM    8  C8  UNL     1     -32.766   6.467   2.818  1.00 20.00     0.365 C 
BRANCH   8   9
HETATM    9  C4  UNL     1     -32.500   7.416   1.733  1.00 20.00    -0.077 C 
HETATM   10  C3  UNL     1     -32.277   8.193   0.845  1.00 20.00    -0.109 C 
HETATM   11  C5  UNL     1     -32.005   9.138  -0.237  1.00 20.00     0.112 C 
ENDBRANCH   8   9
ENDBRANCH   6   8
ENDBRANCH   5   6
TORSDOF 3
