REMARK  4 active torsions:
REMARK  status: ('A' for Active; 'I' for Inactive)
REMARK    1  A    between atoms: C4_4  and  C6_6 
REMARK    2  A    between atoms: C6_6  and  C8_8 
REMARK    3  A    between atoms: C7_7  and  C8_8 
REMARK    4  A    between atoms: C8_8  and  N9_9 
ROOT
HETATM    1  C1  UNL     1     -33.996   7.437   5.175  1.00 20.00     0.158 C 
HETATM    2  N9  UNL     1     -33.809   7.972   4.148  1.00 20.00    -0.270 NA
HETATM    3  S10 UNL     1     -34.278   6.732   6.575  1.00 20.00    -0.055 SA
ENDROOT
BRANCH   2   4
HETATM    4  C8  UNL     1     -32.638   7.483   3.406  1.00 20.00     0.109 C 
BRANCH   4   5
HETATM    5  C6  UNL     1     -32.064   8.639   2.580  1.00 20.00     0.032 C 
BRANCH   5   6
HETATM    6  C4  UNL     1     -33.060   9.183   1.564  1.00 20.00    -0.013 A 
HETATM    7  C2  UNL     1     -32.580   9.986   0.387  1.00 20.00     0.005 A 
HETATM    8  C3  UNL     1     -33.123   8.600   0.180  1.00 20.00     0.005 A 
ENDBRANCH   5   6
ENDBRANCH   4   5
BRANCH   4   9
HETATM    9  C7  UNL     1     -33.081   6.328   2.499  1.00 20.00     0.023 C 
HETATM   10  C5  UNL     1     -33.682   5.189   3.267  1.00 20.00     0.007 C 
ENDBRANCH   4   9
ENDBRANCH   2   4
TORSDOF 4
