REMARK  3 active torsions:
REMARK  status: ('A' for Active; 'I' for Inactive)
REMARK    1  A    between atoms: C2_2  and  C6_6 
REMARK    2  A    between atoms: C2_2  and  C7_7 
REMARK    3  A    between atoms: C7_7  and  C8_8 
ROOT
HETATM    1  C1  UNL     1     -32.355   7.791   1.429  1.00 20.00     0.066 C 
HETATM    2  C6  UNL     1     -32.119   6.860   2.537  1.00 20.00     0.202 C 
HETATM    3  N9  UNL     1     -32.540   8.525   0.549  1.00 20.00    -0.197 NA
ENDROOT
BRANCH   2   4
HETATM    4  C2  UNL     1     -32.647   7.387   3.859  1.00 20.00     0.143 C 
HETATM    5  O10 UNL     1     -32.288   8.465   4.333  1.00 20.00    -0.297 OA
BRANCH   4   6
HETATM    6  C7  UNL     1     -33.686   6.513   4.565  1.00 20.00     0.055 C 
HETATM    7  C3  UNL     1     -35.057   6.892   4.004  1.00 20.00     0.018 C 
BRANCH   6   8
HETATM    8  C8  UNL     1     -33.584   6.661   6.104  1.00 20.00    -0.012 C 
HETATM    9  C4  UNL     1     -34.208   5.451   6.814  1.00 20.00     0.010 C 
HETATM   10  C5  UNL     1     -34.263   7.938   6.611  1.00 20.00     0.010 C 
ENDBRANCH   6   8
ENDBRANCH   4   6
ENDBRANCH   2   4
TORSDOF 3
