REMARK  2 active torsions:
REMARK  status: ('A' for Active; 'I' for Inactive)
REMARK    1  A    between atoms: C7_7  and  N9_9 
REMARK    2  A    between atoms: C8_8  and  N9_9 
ROOT
HETATM    1  C1  UNL     1     -34.107   5.106   6.816  1.00 20.00     0.015 C 
HETATM    2  C2  UNL     1     -34.176   5.299   5.633  1.00 20.00    -0.076 C 
HETATM    3  C5  UNL     1     -34.039   4.215   3.430  1.00 20.00     0.063 C 
HETATM    4  C6  UNL     1     -35.639   6.106   3.825  1.00 20.00     0.063 C 
HETATM    5  C8  UNL     1     -34.262   5.534   4.177  1.00 20.00     0.212 C 
ENDROOT
BRANCH   5   6
HETATM    6  N9  UNL     1     -33.238   6.486   3.792  1.00 20.00     0.108 N 
HETATM    7  H24 UNL     1     -33.062   6.412   2.788  1.00 20.00     0.318 HD
BRANCH   6   8
HETATM    8  C7  UNL     1     -33.646   7.853   4.099  1.00 20.00     0.214 C 
HETATM    9  C3  UNL     1     -32.806   8.821   3.279  1.00 20.00     0.042 C 
HETATM   10  C4  UNL     1     -33.482   8.092   5.593  1.00 20.00     0.042 C 
ENDBRANCH   6   8
ENDBRANCH   5   6
TORSDOF 2
