REMARK  4 active torsions:
REMARK  status: ('A' for Active; 'I' for Inactive)
REMARK    1  A    between atoms: C4_4  and  C6_6 
REMARK    2  A    between atoms: C6_6  and  C8_8 
REMARK    3  A    between atoms: C7_7  and  C8_8 
REMARK    4  A    between atoms: C8_8  and  N9_9 
ROOT
HETATM    1  C1  UNL     1     -32.463   8.322   1.750  1.00 20.00     0.158 C 
HETATM    2  N9  UNL     1     -32.210   7.702   2.713  1.00 20.00    -0.270 NA
HETATM    3  S10 UNL     1     -32.775   9.154   0.428  1.00 20.00    -0.055 SA
ENDROOT
BRANCH   2   4
HETATM    4  C8  UNL     1     -33.257   7.716   3.744  1.00 20.00     0.109 C 
BRANCH   4   5
HETATM    5  C6  UNL     1     -33.729   6.277   3.983  1.00 20.00     0.032 C 
BRANCH   5   6
HETATM    6  C4  UNL     1     -34.450   6.113   5.314  1.00 20.00    -0.013 A 
HETATM    7  C2  UNL     1     -34.595   4.750   5.933  1.00 20.00     0.005 A 
HETATM    8  C3  UNL     1     -33.676   5.764   6.556  1.00 20.00     0.005 A 
ENDBRANCH   5   6
ENDBRANCH   4   5
BRANCH   4   9
HETATM    9  C7  UNL     1     -32.673   8.321   5.026  1.00 20.00     0.023 C 
HETATM   10  C5  UNL     1     -32.167   9.719   4.825  1.00 20.00     0.007 C 
ENDBRANCH   4   9
ENDBRANCH   2   4
TORSDOF 4
