REMARK  2 active torsions:
REMARK  status: ('A' for Active; 'I' for Inactive)
REMARK    1  A    between atoms: C4_4  and  C5_5 
REMARK    2  A    between atoms: C5_5  and  N6_6 
ROOT
HETATM    1  C1  UNL     1     -33.053   5.568   2.933  1.00 20.00     0.012 C 
HETATM    2  C2  UNL     1     -33.646   5.328   3.949  1.00 20.00    -0.116 C 
HETATM    3  C4  UNL     1     -34.373   5.028   5.192  1.00 20.00     0.115 C 
ENDROOT
BRANCH   3   4
HETATM    4  C5  UNL     1     -34.569   6.271   6.049  1.00 20.00     0.162 C 
BRANCH   4   5
HETATM    5  N6  UNL     1     -33.265   6.851   6.386  1.00 20.00    -0.275 NA
HETATM    6  C3  UNL     1     -32.847   7.614   5.597  1.00 20.00     0.157 C 
HETATM    7  S7  UNL     1     -32.254   8.653   4.545  1.00 20.00    -0.055 SA
ENDBRANCH   4   5
ENDBRANCH   3   4
TORSDOF 2
