REMARK  1 active torsions:
REMARK  status: ('A' for Active; 'I' for Inactive)
REMARK    1  A    between atoms: C7_7  and  N9_9 
ROOT
HETATM    1  C1  UNL     1     -32.819   9.154   2.775  1.00 20.00     0.089 C 
HETATM    2  C7  UNL     1     -32.690   8.709   4.161  1.00 20.00     0.396 C 
HETATM    3  N8  UNL     1     -32.919   9.510   1.675  1.00 20.00    -0.195 NA
ENDROOT
BRANCH   2   4
HETATM    4  N9  UNL     1     -33.573   7.567   4.427  1.00 20.00     0.107 N 
HETATM    5  C2  UNL     1     -33.781   7.461   5.885  1.00 20.00     0.284 C 
HETATM    6  C3  UNL     1     -34.859   6.454   6.270  1.00 20.00     0.104 C 
HETATM    7  S10 UNL     1     -34.395   4.780   5.772  1.00 20.00    -0.165 SA
HETATM    8  C4  UNL     1     -34.053   5.145   4.031  1.00 20.00     0.109 C 
HETATM    9  C5  UNL     1     -33.050   6.302   3.856  1.00 20.00     0.229 C 
HETATM   10  C6  UNL     1     -32.749   6.417   2.350  1.00 20.00     0.043 C 
ENDBRANCH   2   4
TORSDOF 1
