REMARK  0 active torsions:
REMARK  status: ('A' for Active; 'I' for Inactive)
ROOT
HETATM    1  C1  UNL     1     -32.827   8.304   3.991  1.00 20.00     0.046 C 
HETATM    2  C2  UNL     1     -33.325   5.959   3.269  1.00 20.00     0.057 C 
HETATM    3  C3  UNL     1     -33.707   8.057   5.208  1.00 20.00     0.170 C 
HETATM    4  C4  UNL     1     -33.269   7.421   2.829  1.00 20.00     0.087 C 
HETATM    5  C5  UNL     1     -34.162   5.774   4.551  1.00 20.00     0.055 C 
HETATM    6  C6  UNL     1     -33.927   4.362   5.106  1.00 20.00     0.045 C 
HETATM    7  C7  UNL     1     -35.667   5.944   4.290  1.00 20.00     0.045 C 
HETATM    8  O8  UNL     1     -33.717   6.678   5.574  1.00 20.00    -0.381 OA
HETATM    9 CL9  UNL     1     -32.147   7.609   1.452  1.00 20.00    -0.125 Cl
ENDROOT
TORSDOF 0
