REMARK  0 active torsions:
REMARK  status: ('A' for Active; 'I' for Inactive)
ROOT
HETATM    1  C1  UNL     1     -34.267   5.271   6.518  1.00 20.00     0.000 C 
HETATM    2  C2  UNL     1     -34.654   6.712   6.839  1.00 20.00     0.000 C 
HETATM    3  C3  UNL     1     -34.490   4.841   5.062  1.00 20.00     0.003 C 
HETATM    4  C4  UNL     1     -33.734   7.783   6.242  1.00 20.00     0.003 C 
HETATM    5  C5  UNL     1     -34.730   5.962   4.047  1.00 20.00     0.038 C 
HETATM    6  C6  UNL     1     -32.825   7.343   5.094  1.00 20.00     0.038 C 
HETATM    7  C7  UNL     1     -31.965   7.984   1.556  1.00 20.00     0.046 C 
HETATM    8  C8  UNL     1     -34.041   8.100   2.953  1.00 20.00     0.058 C 
HETATM    9  C9  UNL     1     -31.499   6.848   2.454  1.00 20.00     0.170 C 
HETATM   10  C10 UNL     1     -32.907   8.907   2.320  1.00 20.00     0.087 C 
HETATM   11  C11 UNL     1     -33.528   6.900   3.789  1.00 20.00     0.062 C 
HETATM   12  O12 UNL     1     -32.605   6.126   2.992  1.00 20.00    -0.380 OA
HETATM   13 CL13 UNL     1     -33.574  10.149   1.222  1.00 20.00    -0.125 Cl
ENDROOT
TORSDOF 0
