REMARK  0 active torsions:
REMARK  status: ('A' for Active; 'I' for Inactive)
ROOT
HETATM    1  C1  UNL     1     -35.496   5.702   4.244  1.00 20.00     0.085 C 
HETATM    2  C2  UNL     1     -33.797   6.039   6.013  1.00 20.00     0.067 C 
HETATM    3  C3  UNL     1     -33.196   6.396   3.608  1.00 20.00     0.078 C 
HETATM    4  C4  UNL     1     -34.006   7.544   6.192  1.00 20.00     0.171 C 
HETATM    5  C5  UNL     1     -34.065   5.586   4.581  1.00 20.00     0.130 C 
HETATM    6  C6  UNL     1     -33.098   7.901   3.977  1.00 20.00     0.056 C 
HETATM    7  C7  UNL     1     -33.417   8.757   2.743  1.00 20.00     0.045 C 
HETATM    8  C8  UNL     1     -31.688   8.270   4.465  1.00 20.00     0.045 C 
HETATM    9  N9  UNL     1     -36.622   5.793   3.979  1.00 20.00    -0.195 NA
HETATM   10  O10 UNL     1     -34.074   8.260   4.962  1.00 20.00    -0.381 OA
HETATM   11 CL11 UNL     1     -33.673   3.841   4.421  1.00 20.00    -0.103 Cl
ENDROOT
TORSDOF 0
