REMARK  0 active torsions:
REMARK  status: ('A' for Active; 'I' for Inactive)
ROOT
HETATM    1  C1  UNL     1     -32.289   8.399   4.349  1.00 20.00     0.088 C 
HETATM    2  C2  UNL     1     -33.250   6.237   3.895  1.00 20.00    -0.066 C 
HETATM    3  C3  UNL     1     -32.194   7.062   3.886  1.00 20.00     0.096 C 
HETATM    4  C4  UNL     1     -33.188   4.815   3.413  1.00 20.00     0.061 C 
HETATM    5  C5  UNL     1     -34.604   6.637   4.412  1.00 20.00     0.066 C 
HETATM    6  C6  UNL     1     -33.731   3.887   4.495  1.00 20.00     0.172 C 
HETATM    7  C7  UNL     1     -35.116   5.617   5.437  1.00 20.00     0.121 C 
HETATM    8  C8  UNL     1     -34.429   5.727   6.798  1.00 20.00     0.040 C 
HETATM    9  N9  UNL     1     -32.360   9.494   4.726  1.00 20.00    -0.192 NA
HETATM   10  O10 UNL     1     -35.041   4.282   4.913  1.00 20.00    -0.386 OA
ENDROOT
TORSDOF 0
