REMARK  1 active torsions:
REMARK  status: ('A' for Active; 'I' for Inactive)
REMARK    1  A    between atoms: C5_5  and  C7_7 
ROOT
HETATM    1  C1  UNL     1     -34.749   4.795   4.511  1.00 20.00     0.046 C 
HETATM    2  C2  UNL     1     -33.431   6.821   3.836  1.00 20.00     0.052 C 
HETATM    3  C3  UNL     1     -34.717   5.333   5.937  1.00 20.00     0.169 C 
HETATM    4  C4  UNL     1     -33.539   5.301   3.729  1.00 20.00     0.086 C 
HETATM    5  C5  UNL     1     -33.462   7.250   5.306  1.00 20.00     0.122 C 
HETATM    6  O8  UNL     1     -34.649   6.759   5.939  1.00 20.00    -0.386 OA
HETATM    7 CL9  UNL     1     -33.654   4.805   2.020  1.00 20.00    -0.125 Cl
ENDROOT
BRANCH   5   8
HETATM    8  C7  UNL     1     -33.460   8.767   5.434  1.00 20.00     0.027 C 
HETATM    9  C6  UNL     1     -32.225   9.374   4.849  1.00 20.00     0.007 C 
ENDBRANCH   5   8
TORSDOF 1
