REMARK  1 active torsions:
REMARK  status: ('A' for Active; 'I' for Inactive)
REMARK    1  A    between atoms: C5_5  and  C9_9 
ROOT
HETATM    1  C1  UNL     1     -32.338   6.138   2.450  1.00 20.00     0.046 C 
HETATM    2  C2  UNL     1     -33.480   7.758   3.979  1.00 20.00     0.058 C 
HETATM    3  C3  UNL     1     -33.223   5.046   3.033  1.00 20.00     0.170 C 
HETATM    4  C4  UNL     1     -32.131   7.248   3.474  1.00 20.00     0.087 C 
HETATM    5  C5  UNL     1     -34.389   6.611   4.469  1.00 20.00     0.061 C 
HETATM    6  C6  UNL     1     -35.823   7.146   4.625  1.00 20.00     0.046 C 
HETATM    7  O10 UNL     1     -34.472   5.566   3.483  1.00 20.00    -0.380 OA
HETATM    8 CL11 UNL     1     -31.197   8.587   2.750  1.00 20.00    -0.125 Cl
ENDROOT
BRANCH   5   9
HETATM    9  C9  UNL     1     -33.938   6.052   5.803  1.00 20.00     0.012 C 
HETATM   10  C7  UNL     1     -33.925   7.151   6.858  1.00 20.00     0.012 C 
HETATM   11  C8  UNL     1     -34.843   4.902   6.226  1.00 20.00     0.012 C 
ENDBRANCH   5   9
TORSDOF 1
