REMARK  2 active torsions:
REMARK  status: ('A' for Active; 'I' for Inactive)
REMARK    1  A    between atoms: C6_6  and  C8_8 
REMARK    2  A    between atoms: C7_7  and  O11_11 
ROOT
HETATM    1  C3  UNL     1     -33.681   7.679   6.848  1.00 20.00     0.058 C 
HETATM    2  C4  UNL     1     -33.213   7.071   4.471  1.00 20.00     0.069 C 
HETATM    3  C5  UNL     1     -34.636   6.499   6.906  1.00 20.00     0.171 C 
HETATM    4  C7  UNL     1     -33.566   8.209   5.424  1.00 20.00     0.123 C 
HETATM    5  C8  UNL     1     -34.153   5.858   4.620  1.00 20.00     0.063 C 
HETATM    6  C9  UNL     1     -35.550   6.146   4.045  1.00 20.00     0.046 C 
HETATM    7  O10 UNL     1     -34.249   5.468   5.999  1.00 20.00    -0.380 OA
ENDROOT
BRANCH   5   8
HETATM    8  C6  UNL     1     -33.559   4.675   3.877  1.00 20.00     0.020 A 
HETATM    9  C1  UNL     1     -33.987   4.374   2.467  1.00 20.00     0.008 A 
HETATM   10  C2  UNL     1     -32.605   4.900   2.737  1.00 20.00     0.008 A 
ENDBRANCH   5   8
BRANCH   4  11
HETATM   11  O11 UNL     1     -32.548   9.201   5.357  1.00 20.00    -0.395 OA
HETATM   12  H27 UNL     1     -32.515   9.504   4.436  1.00 20.00     0.210 HD
ENDBRANCH   4  11
TORSDOF 2
