REMARK  1 active torsions:
REMARK  status: ('A' for Active; 'I' for Inactive)
REMARK    1  A    between atoms: C6_6  and  C7_7 
ROOT
HETATM    1  C3  UNL     1     -33.994   5.961   4.525  1.00 20.00     0.046 C 
HETATM    2  C4  UNL     1     -32.658   8.061   4.253  1.00 20.00     0.052 C 
HETATM    3  C5  UNL     1     -33.598   5.590   3.103  1.00 20.00     0.169 C 
HETATM    4  C7  UNL     1     -32.247   7.573   2.860  1.00 20.00     0.126 C 
HETATM    5  C8  UNL     1     -34.000   7.477   4.690  1.00 20.00     0.086 C 
HETATM    6  O9  UNL     1     -32.332   6.146   2.751  1.00 20.00    -0.385 OA
HETATM    7 CL10 UNL     1     -34.340   7.911   6.388  1.00 20.00    -0.125 Cl
ENDROOT
BRANCH   4   8
HETATM    8  C6  UNL     1     -32.989   8.253   1.742  1.00 20.00     0.015 A 
HETATM    9  C1  UNL     1     -32.598   9.638   1.307  1.00 20.00     0.007 A 
HETATM   10  C2  UNL     1     -32.323   8.463   0.411  1.00 20.00     0.007 A 
ENDBRANCH   4   8
TORSDOF 1
