REMARK  1 active torsions:
REMARK  status: ('A' for Active; 'I' for Inactive)
REMARK    1  A    between atoms: C4_4  and  S9_9 
ROOT
HETATM    1  C1  UNL     1     -32.046   7.310   3.179  1.00 20.00     0.041 C 
HETATM    2  C2  UNL     1     -33.671   7.076   5.071  1.00 20.00     0.052 C 
HETATM    3  C3  UNL     1     -32.717   6.106   2.530  1.00 20.00     0.170 C 
HETATM    4  C4  UNL     1     -33.037   8.050   4.074  1.00 20.00     0.049 C 
HETATM    5  C5  UNL     1     -34.261   5.835   4.370  1.00 20.00     0.054 C 
HETATM    6  C6  UNL     1     -35.546   6.163   3.594  1.00 20.00     0.045 C 
HETATM    7  C7  UNL     1     -34.596   4.772   5.426  1.00 20.00     0.045 C 
HETATM    8  O8  UNL     1     -33.284   5.235   3.506  1.00 20.00    -0.381 OA
ENDROOT
BRANCH   4   9
HETATM    9  S9  UNL     1     -32.195   9.406   4.957  1.00 20.00    -0.177 SA
HETATM   10  H23 UNL     1     -33.280   9.830   5.617  1.00 20.00     0.102 HD
ENDBRANCH   4   9
TORSDOF 1
