REMARK  0 active torsions:
REMARK  status: ('A' for Active; 'I' for Inactive)
ROOT
HETATM    1  C1  UNL     1     -33.322   8.435   4.163  1.00 20.00     0.046 C 
HETATM    2  C2  UNL     1     -33.485   6.076   3.346  1.00 20.00     0.057 C 
HETATM    3  C3  UNL     1     -33.645   7.974   5.582  1.00 20.00     0.170 C 
HETATM    4  C4  UNL     1     -32.619   7.336   3.385  1.00 20.00     0.087 C 
HETATM    5  C5  UNL     1     -34.155   5.774   4.708  1.00 20.00     0.055 C 
HETATM    6  C6  UNL     1     -35.674   6.004   4.655  1.00 20.00     0.045 C 
HETATM    7  C7  UNL     1     -33.905   4.310   5.095  1.00 20.00     0.045 C 
HETATM    8  O8  UNL     1     -33.565   6.560   5.752  1.00 20.00    -0.381 OA
HETATM    9 CL9  UNL     1     -32.240   7.881   1.730  1.00 20.00    -0.125 Cl
ENDROOT
TORSDOF 0
