REMARK  3 active torsions:
REMARK  status: ('A' for Active; 'I' for Inactive)
REMARK    1  A    between atoms: C4_4  and  N8_8 
REMARK    2  A    between atoms: C6_6  and  C7_7 
REMARK    3  A    between atoms: C6_6  and  N8_8 
ROOT
HETATM    1  C1  UNL     1     -33.851   7.145   6.218  1.00 20.00     0.064 C 
HETATM    2  C2  UNL     1     -34.103   5.672   6.450  1.00 20.00     0.170 C 
HETATM    3  C3  UNL     1     -33.907   6.015   4.154  1.00 20.00     0.203 C 
HETATM    4  C4  UNL     1     -33.169   7.132   4.869  1.00 20.00     0.248 C 
HETATM    5  O9  UNL     1     -34.343   5.090   5.162  1.00 20.00    -0.389 OA
ENDROOT
BRANCH   4   6
HETATM    6  N8  UNL     1     -33.240   8.389   4.184  1.00 20.00     0.092 N 
HETATM    7  C5  UNL     1     -32.600   9.439   4.975  1.00 20.00     0.310 C 
BRANCH   6   8
HETATM    8  C6  UNL     1     -32.614   8.287   2.866  1.00 20.00     0.287 C 
BRANCH   8   9
HETATM    9  C7  UNL     1     -33.126   9.338   1.895  1.00 20.00     0.144 C 
HETATM   10 CL10 UNL     1     -32.346   9.181   0.301  1.00 20.00    -0.129 Cl
ENDBRANCH   8   9
ENDBRANCH   6   8
ENDBRANCH   4   6
TORSDOF 3
