REMARK  1 active torsions:
REMARK  status: ('A' for Active; 'I' for Inactive)
REMARK    1  A    between atoms: C6_6  and  C8_8 
ROOT
HETATM    1  C3  UNL     1     -32.964   5.420   2.225  1.00 20.00     0.046 C 
HETATM    2  C4  UNL     1     -33.933   7.462   3.299  1.00 20.00     0.058 C 
HETATM    3  C5  UNL     1     -33.520   4.610   3.386  1.00 20.00     0.170 C 
HETATM    4  C7  UNL     1     -32.682   6.850   2.670  1.00 20.00     0.087 C 
HETATM    5  C8  UNL     1     -34.528   6.563   4.404  1.00 20.00     0.062 C 
HETATM    6  C9  UNL     1     -35.946   7.058   4.736  1.00 20.00     0.046 C 
HETATM    7  O10 UNL     1     -34.690   5.213   3.934  1.00 20.00    -0.380 OA
HETATM    8 CL11 UNL     1     -32.147   7.834   1.279  1.00 20.00    -0.125 Cl
ENDROOT
BRANCH   5   9
HETATM    9  C6  UNL     1     -33.701   6.593   5.673  1.00 20.00     0.020 A 
HETATM   10  C1  UNL     1     -34.272   7.172   6.937  1.00 20.00     0.008 A 
HETATM   11  C2  UNL     1     -34.048   5.690   6.824  1.00 20.00     0.008 A 
ENDBRANCH   5   9
TORSDOF 1
