REMARK  2 active torsions:
REMARK  status: ('A' for Active; 'I' for Inactive)
REMARK    1  A    between atoms: C4_4  and  S10_10 
REMARK    2  A    between atoms: C5_5  and  C8_8 
ROOT
HETATM    1  C1  UNL     1     -32.346   7.275   3.255  1.00 20.00     0.041 C 
HETATM    2  C2  UNL     1     -33.566   7.124   5.438  1.00 20.00     0.052 C 
HETATM    3  C3  UNL     1     -33.181   6.096   2.773  1.00 20.00     0.170 C 
HETATM    4  C4  UNL     1     -33.108   8.063   4.319  1.00 20.00     0.049 C 
HETATM    5  C5  UNL     1     -34.334   5.904   4.889  1.00 20.00     0.058 C 
HETATM    6  C6  UNL     1     -35.734   6.280   4.381  1.00 20.00     0.046 C 
HETATM    7  O9  UNL     1     -33.575   5.257   3.856  1.00 20.00    -0.381 OA
ENDROOT
BRANCH   5   8
HETATM    8  C8  UNL     1     -34.493   4.864   6.007  1.00 20.00     0.033 C 
HETATM    9  C7  UNL     1     -35.248   5.422   7.165  1.00 20.00     0.008 C 
ENDBRANCH   5   8
BRANCH   4  10
HETATM   10  S10 UNL     1     -32.056   9.389   5.000  1.00 20.00    -0.177 SA
HETATM   11  H26 UNL     1     -32.972   9.860   5.856  1.00 20.00     0.102 HD
ENDBRANCH   4  10
TORSDOF 2
