REMARK  1 active torsions:
REMARK  status: ('A' for Active; 'I' for Inactive)
REMARK    1  A    between atoms: C5_5  and  C8_8 
ROOT
HETATM    1  C1  UNL     1     -33.706   7.453   6.897  1.00 20.00     0.046 C 
HETATM    2  C2  UNL     1     -33.280   7.042   4.465  1.00 20.00     0.057 C 
HETATM    3  C3  UNL     1     -34.627   6.242   6.886  1.00 20.00     0.170 C 
HETATM    4  C4  UNL     1     -33.658   8.089   5.513  1.00 20.00     0.087 C 
HETATM    5  C5  UNL     1     -34.171   5.785   4.551  1.00 20.00     0.058 C 
HETATM    6  C6  UNL     1     -35.565   6.032   4.011  1.00 20.00     0.046 C 
HETATM    7  O9  UNL     1     -34.231   5.290   5.901  1.00 20.00    -0.380 OA
HETATM    8 CL10 UNL     1     -32.483   9.433   5.493  1.00 20.00    -0.125 Cl
ENDROOT
BRANCH   5   9
HETATM    9  C8  UNL     1     -33.523   4.659   3.727  1.00 20.00     0.033 C 
HETATM   10  C7  UNL     1     -33.376   5.048   2.296  1.00 20.00     0.008 C 
ENDBRANCH   5   9
TORSDOF 1
