REMARK  2 active torsions:
REMARK  status: ('A' for Active; 'I' for Inactive)
REMARK    1  A    between atoms: C5_5  and  C8_8 
REMARK    2  A    between atoms: C8_8  and  C9_9 
ROOT
HETATM    1  C1  UNL     1     -33.956   4.913   3.884  1.00 20.00     0.046 C 
HETATM    2  C2  UNL     1     -33.122   7.064   4.858  1.00 20.00     0.052 C 
HETATM    3  C3  UNL     1     -33.386   5.362   2.546  1.00 20.00     0.169 C 
HETATM    4  C4  UNL     1     -34.321   6.126   4.732  1.00 20.00     0.086 C 
HETATM    5  C5  UNL     1     -32.513   7.400   3.492  1.00 20.00     0.123 C 
HETATM    6  O10 UNL     1     -32.260   6.221   2.718  1.00 20.00    -0.386 OA
HETATM    7 CL11 UNL     1     -34.869   5.606   6.349  1.00 20.00    -0.125 Cl
ENDROOT
BRANCH   5   8
HETATM    8  C8  UNL     1     -33.311   8.408   2.711  1.00 20.00     0.035 C 
BRANCH   8   9
HETATM    9  C9  UNL     1     -32.483   9.163   1.657  1.00 20.00    -0.020 C 
HETATM   10  C6  UNL     1     -31.867   8.226   0.618  1.00 20.00     0.009 C 
HETATM   11  C7  UNL     1     -33.360  10.205   0.958  1.00 20.00     0.009 C 
ENDBRANCH   8   9
ENDBRANCH   5   8
TORSDOF 2
