REMARK  2 active torsions:
REMARK  status: ('A' for Active; 'I' for Inactive)
REMARK    1  A    between atoms: C4_4  and  O10_10 
REMARK    2  A    between atoms: C5_5  and  C8_8 
ROOT
HETATM    1  C1  UNL     1     -34.389   5.321   6.604  1.00 20.00     0.058 C 
HETATM    2  C2  UNL     1     -33.775   5.743   4.206  1.00 20.00     0.069 C 
HETATM    3  C3  UNL     1     -34.100   6.791   6.872  1.00 20.00     0.171 C 
HETATM    4  C4  UNL     1     -34.789   5.097   5.150  1.00 20.00     0.123 C 
HETATM    5  C5  UNL     1     -33.384   7.188   4.595  1.00 20.00     0.059 C 
HETATM    6  C6  UNL     1     -34.432   8.208   4.197  1.00 20.00     0.046 C 
HETATM    7  O9  UNL     1     -33.090   7.288   5.998  1.00 20.00    -0.380 OA
ENDROOT
BRANCH   5   8
HETATM    8  C8  UNL     1     -32.071   7.548   3.875  1.00 20.00     0.033 C 
HETATM    9  C7  UNL     1     -32.223   7.467   2.394  1.00 20.00     0.008 C 
ENDBRANCH   5   8
BRANCH   4  10
HETATM   10  O10 UNL     1     -36.083   5.636   4.907  1.00 20.00    -0.395 OA
HETATM   11  H26 UNL     1     -36.694   5.174   5.502  1.00 20.00     0.210 HD
ENDBRANCH   4  10
TORSDOF 2
