REMARK  1 active torsions:
REMARK  status: ('A' for Active; 'I' for Inactive)
REMARK    1  A    between atoms: C4_4  and  S9_9 
ROOT
HETATM    1  C1  UNL     1     -32.905   6.909   3.307  1.00 20.00     0.041 C 
HETATM    2  C2  UNL     1     -34.106   7.231   5.483  1.00 20.00     0.052 C 
HETATM    3  C3  UNL     1     -33.270   5.426   3.317  1.00 20.00     0.170 C 
HETATM    4  C4  UNL     1     -32.791   7.445   4.727  1.00 20.00     0.049 C 
HETATM    5  C5  UNL     1     -34.749   5.854   5.184  1.00 20.00     0.054 C 
HETATM    6  C6  UNL     1     -36.010   5.991   4.316  1.00 20.00     0.045 C 
HETATM    7  C7  UNL     1     -35.147   5.173   6.501  1.00 20.00     0.045 C 
HETATM    8  O8  UNL     1     -33.802   4.977   4.561  1.00 20.00    -0.381 OA
ENDROOT
BRANCH   4   9
HETATM    9  S9  UNL     1     -32.340   9.211   4.718  1.00 20.00    -0.177 SA
HETATM   10  H23 UNL     1     -32.326   9.352   6.049  1.00 20.00     0.102 HD
ENDBRANCH   4   9
TORSDOF 1
