REMARK  0 active torsions:
REMARK  status: ('A' for Active; 'I' for Inactive)
ROOT
HETATM    1  C1  UNL     1     -32.787   8.893   3.438  1.00 20.00     0.088 C 
HETATM    2  C2  UNL     1     -33.005   7.359   5.281  1.00 20.00    -0.065 C 
HETATM    3  C3  UNL     1     -32.972   8.614   4.815  1.00 20.00     0.096 C 
HETATM    4  C4  UNL     1     -33.198   7.022   6.733  1.00 20.00     0.061 C 
HETATM    5  C5  UNL     1     -32.875   6.146   4.399  1.00 20.00     0.072 C 
HETATM    6  C6  UNL     1     -34.352   6.036   6.878  1.00 20.00     0.173 C 
HETATM    7  C7  UNL     1     -34.038   5.163   4.645  1.00 20.00     0.057 C 
HETATM    8  C8  UNL     1     -33.709   3.819   3.980  1.00 20.00     0.046 C 
HETATM    9  C9  UNL     1     -35.366   5.676   4.065  1.00 20.00     0.046 C 
HETATM   10  N10 UNL     1     -32.637   9.128   2.311  1.00 20.00    -0.192 NA
HETATM   11  O11 UNL     1     -34.164   4.883   6.052  1.00 20.00    -0.380 OA
ENDROOT
TORSDOF 0
