REMARK  0 active torsions:
REMARK  status: ('A' for Active; 'I' for Inactive)
ROOT
HETATM    1  C1  UNL     1     -33.125   6.664   6.718  1.00 20.00     0.066 C 
HETATM    2  C2  UNL     1     -33.347   6.424   4.218  1.00 20.00     0.071 C 
HETATM    3  C3  UNL     1     -34.297   5.699   6.853  1.00 20.00     0.171 C 
HETATM    4  C4  UNL     1     -33.606   8.800   5.286  1.00 20.00     0.207 A 
HETATM    5  C5  UNL     1     -34.486   5.427   4.465  1.00 20.00     0.120 C 
HETATM    6  C6  UNL     1     -33.207   7.347   5.389  1.00 20.00     0.086 A 
HETATM    7  C7  UNL     1     -35.872   6.043   4.288  1.00 20.00     0.039 C 
HETATM    8  O8  UNL     1     -34.346   4.793   5.746  1.00 20.00    -0.386 OA
HETATM    9  O9  UNL     1     -32.235   8.385   5.204  1.00 20.00    -0.375 OA
ENDROOT
TORSDOF 0
