REMARK  4 active torsions:
REMARK  status: ('A' for Active; 'I' for Inactive)
REMARK    1  A    between atoms: C1_1  and  C3_3 
REMARK    2  A    between atoms: C1_1  and  C7_7 
REMARK    3  A    between atoms: C7_7  and  C8_8 
REMARK    4  A    between atoms: C8_8  and  S10_10 
ROOT
HETATM    1  C1  UNL     1     -32.887   7.923   4.460  1.00 20.00     0.132 C 
HETATM    2  O9  UNL     1     -32.773   9.041   4.962  1.00 20.00    -0.298 OA
ENDROOT
BRANCH   1   3
HETATM    3  C3  UNL     1     -33.991   6.988   4.879  1.00 20.00     0.059 A 
HETATM    4  C2  UNL     1     -34.590   7.175   6.227  1.00 20.00     0.017 A 
HETATM    5  C4  UNL     1     -33.691   5.997   5.961  1.00 20.00    -0.007 A 
HETATM    6  C5  UNL     1     -34.261   4.624   5.865  1.00 20.00     0.011 C 
ENDBRANCH   1   3
BRANCH   1   7
HETATM    7  C7  UNL     1     -31.911   7.430   3.408  1.00 20.00     0.088 C 
BRANCH   7   8
HETATM    8  C8  UNL     1     -32.357   7.722   1.981  1.00 20.00     0.081 C 
BRANCH   8   9
HETATM    9  S10 UNL     1     -32.596   9.501   1.691  1.00 20.00    -0.173 SA
HETATM   10  C6  UNL     1     -33.189   9.409  -0.014  1.00 20.00     0.089 C 
ENDBRANCH   8   9
ENDBRANCH   7   8
ENDBRANCH   1   7
TORSDOF 4
