REMARK  1 active torsions:
REMARK  status: ('A' for Active; 'I' for Inactive)
REMARK    1  A    between atoms: C4_4  and  C5_5 
ROOT
HETATM    1  C1  UNL     1     -34.441   5.474   6.696  1.00 20.00     0.011 C 
HETATM    2  C2  UNL     1     -33.501   6.643   6.441  1.00 20.00     0.017 C 
HETATM    3  C3  UNL     1     -34.186   4.468   5.588  1.00 20.00     0.074 C 
HETATM    4  C4  UNL     1     -33.702   7.046   4.983  1.00 20.00     0.061 C 
HETATM    5  S6  UNL     1     -33.917   5.467   4.097  1.00 20.00    -0.163 SA
ENDROOT
BRANCH   4   6
HETATM    6  C5  UNL     1     -32.535   7.843   4.427  1.00 20.00     0.129 C 
HETATM    7 CL7  UNL     1     -32.312   9.341   5.354  1.00 20.00    -0.129 Cl
ENDBRANCH   4   6
TORSDOF 1
