REMARK  0 active torsions:
REMARK  status: ('A' for Active; 'I' for Inactive)
ROOT
HETATM    1  C1  UNL     1     -33.201   5.213   3.431  1.00 20.00     0.066 C 
HETATM    2  C2  UNL     1     -33.502   7.010   5.181  1.00 20.00     0.071 C 
HETATM    3  C3  UNL     1     -32.655   6.303   2.514  1.00 20.00     0.171 C 
HETATM    4  C4  UNL     1     -35.594   5.650   4.392  1.00 20.00     0.207 A 
HETATM    5  C5  UNL     1     -32.939   8.001   4.154  1.00 20.00     0.120 C 
HETATM    6  C6  UNL     1     -34.098   5.842   4.453  1.00 20.00     0.086 A 
HETATM    7  C7  UNL     1     -32.191   9.135   4.840  1.00 20.00     0.039 C 
HETATM    8  O8  UNL     1     -32.016   7.330   3.282  1.00 20.00    -0.386 OA
HETATM    9  O9  UNL     1     -34.772   4.903   5.301  1.00 20.00    -0.375 OA
ENDROOT
TORSDOF 0
