REMARK  1 active torsions:
REMARK  status: ('A' for Active; 'I' for Inactive)
REMARK    1  A    between atoms: C4_4  and  C5_5 
ROOT
HETATM    1  C1  UNL     1     -34.172   4.678   4.952  1.00 20.00     0.011 C 
HETATM    2  C2  UNL     1     -34.973   5.875   4.461  1.00 20.00     0.016 C 
HETATM    3  C3  UNL     1     -33.918   4.904   6.432  1.00 20.00     0.074 C 
HETATM    4  C4  UNL     1     -34.263   7.135   4.952  1.00 20.00     0.057 C 
HETATM    5  S6  UNL     1     -33.619   6.686   6.599  1.00 20.00    -0.164 SA
ENDROOT
BRANCH   4   6
HETATM    6  C5  UNL     1     -33.116   7.563   4.045  1.00 20.00     0.100 C 
HETATM    7 BR7  UNL     1     -32.314   9.194   4.729  1.00 20.00    -0.095 Br
ENDBRANCH   4   6
TORSDOF 1
