REMARK  3 active torsions:
REMARK  status: ('A' for Active; 'I' for Inactive)
REMARK    1  A    between atoms: C1_1  and  C7_7 
REMARK    2  A    between atoms: C1_1  and  C9_9 
REMARK    3  A    between atoms: C8_8  and  C9_9 
ROOT
HETATM    1  C1  UNL     1     -32.697   8.080   4.095  1.00 20.00     0.141 C 
HETATM    2  O10 UNL     1     -31.896   8.729   4.765  1.00 20.00    -0.297 OA
ENDROOT
BRANCH   1   3
HETATM    3  C7  UNL     1     -34.018   7.676   4.655  1.00 20.00     0.116 C 
HETATM    4  C3  UNL     1     -34.482   6.324   4.135  1.00 20.00     0.024 C 
HETATM    5  C2  UNL     1     -35.421   5.754   5.188  1.00 20.00     0.012 C 
HETATM    6  C6  UNL     1     -34.695   5.864   6.517  1.00 20.00     0.075 C 
HETATM    7  S11 UNL     1     -33.842   7.463   6.449  1.00 20.00    -0.157 SA
ENDBRANCH   1   3
BRANCH   1   8
HETATM    8  C9  UNL     1     -32.414   7.643   2.669  1.00 20.00     0.084 C 
BRANCH   8   9
HETATM    9  C8  UNL     1     -32.197   8.816   1.730  1.00 20.00    -0.007 A 
HETATM   10  C4  UNL     1     -32.343   8.634   0.245  1.00 20.00     0.005 A 
HETATM   11  C5  UNL     1     -33.363   9.432   1.008  1.00 20.00     0.005 A 
ENDBRANCH   8   9
ENDBRANCH   1   8
TORSDOF 3
