REMARK  3 active torsions:
REMARK  status: ('A' for Active; 'I' for Inactive)
REMARK    1  A    between atoms: C1_1  and  C7_7 
REMARK    2  A    between atoms: C1_1  and  C9_9 
REMARK    3  A    between atoms: C8_8  and  C9_9 
ROOT
HETATM    1  C1  UNL     1     -32.937   7.385   4.036  1.00 20.00     0.141 C 
HETATM    2  O10 UNL     1     -32.628   8.019   5.043  1.00 20.00    -0.297 OA
ENDROOT
BRANCH   1   3
HETATM    3  C7  UNL     1     -34.147   6.510   4.019  1.00 20.00     0.116 C 
HETATM    4  C3  UNL     1     -34.850   6.406   5.372  1.00 20.00     0.024 C 
HETATM    5  C2  UNL     1     -34.131   5.332   6.180  1.00 20.00     0.012 C 
HETATM    6  C6  UNL     1     -34.003   4.124   5.271  1.00 20.00     0.075 C 
HETATM    7  S11 UNL     1     -33.645   4.803   3.627  1.00 20.00    -0.157 SA
ENDBRANCH   1   3
BRANCH   1   8
HETATM    8  C9  UNL     1     -32.132   7.436   2.750  1.00 20.00     0.084 C 
BRANCH   8   9
HETATM    9  C8  UNL     1     -32.950   7.917   1.566  1.00 20.00    -0.007 A 
HETATM   10  C4  UNL     1     -33.024   9.384   1.242  1.00 20.00     0.005 A 
HETATM   11  C5  UNL     1     -32.264   8.452   0.340  1.00 20.00     0.005 A 
ENDBRANCH   8   9
ENDBRANCH   1   8
TORSDOF 3
