REMARK  2 active torsions:
REMARK  status: ('A' for Active; 'I' for Inactive)
REMARK    1  A    between atoms: C3_3  and  C7_7 
REMARK    2  A    between atoms: C3_3  and  C10_10 
ROOT
HETATM    1  C1  UNL     1     -32.539   9.573  -0.155  1.00 20.00     0.012 C 
HETATM    2  C2  UNL     1     -32.537   8.706   0.675  1.00 20.00    -0.110 C 
HETATM    3  C10 UNL     1     -32.535   7.641   1.684  1.00 20.00     0.171 C 
ENDROOT
BRANCH   3   4
HETATM    4  C3  UNL     1     -32.749   8.170   3.088  1.00 20.00     0.144 C 
HETATM    5  O11 UNL     1     -32.931   9.361   3.338  1.00 20.00    -0.297 OA
BRANCH   4   6
HETATM    6  C7  UNL     1     -32.729   7.150   4.185  1.00 20.00     0.087 C 
HETATM    7  C6  UNL     1     -33.311   5.816   3.704  1.00 20.00     0.046 C 
HETATM    8  C8  UNL     1     -34.490   5.624   4.657  1.00 20.00     0.122 C 
HETATM    9  C4  UNL     1     -34.003   5.309   6.071  1.00 20.00     0.034 C 
HETATM   10  O12 UNL     1     -34.948   6.986   4.814  1.00 20.00    -0.380 OA
HETATM   11  C5  UNL     1     -33.465   6.664   6.536  1.00 20.00     0.035 C 
HETATM   12  C9  UNL     1     -33.701   7.538   5.305  1.00 20.00     0.133 C 
ENDBRANCH   4   6
ENDBRANCH   3   4
TORSDOF 2
