REMARK  1 active torsions:
REMARK  status: ('A' for Active; 'I' for Inactive)
REMARK    1  A    between atoms: C4_4  and  C6_6 
ROOT
HETATM    1  C1  UNL     1     -34.249   6.096   6.892  1.00 20.00     0.135 A 
HETATM    2  C2  UNL     1     -33.449   7.070   6.338  1.00 20.00     0.136 A 
HETATM    3  C3  UNL     1     -34.427   5.079   4.852  1.00 20.00     0.144 A 
HETATM    4  C4  UNL     1     -33.627   6.054   4.297  1.00 20.00     0.069 A 
HETATM    5  N7  UNL     1     -34.753   5.083   6.159  1.00 20.00    -0.270 NA
HETATM    6  N8  UNL     1     -33.123   7.066   5.030  1.00 20.00    -0.261 NA
ENDROOT
BRANCH   4   7
HETATM    7  C6  UNL     1     -33.288   6.018   2.847  1.00 20.00     0.131 C 
HETATM    8  C5  UNL     1     -32.522   4.764   2.403  1.00 20.00     0.033 C 
HETATM    9 CL9  UNL     1     -32.340   7.476   2.394  1.00 20.00    -0.119 Cl
ENDBRANCH   4   7
TORSDOF 1
