REMARK  4 active torsions:
REMARK  status: ('A' for Active; 'I' for Inactive)
REMARK    1  A    between atoms: C4_4  and  C6_6 
REMARK    2  A    between atoms: C4_4  and  O8_8 
REMARK    3  A    between atoms: C5_5  and  C6_6 
REMARK    4  A    between atoms: C7_7  and  O8_8 
ROOT
HETATM    1  C4  UNL     1     -33.969   7.209   5.358  1.00 20.00     0.173 C 
ENDROOT
BRANCH   1   2
HETATM    2  C6  UNL     1     -34.679   5.880   5.647  1.00 20.00     0.019 C 
HETATM    3  C1  UNL     1     -33.858   5.040   6.626  1.00 20.00     0.013 C 
BRANCH   2   4
HETATM    4  C5  UNL     1     -35.039   5.103   4.370  1.00 20.00     0.121 C 
HETATM    5 CL9  UNL     1     -33.619   4.535   3.458  1.00 20.00    -0.130 Cl
ENDBRANCH   2   4
ENDBRANCH   1   2
BRANCH   1   6
HETATM    6  O8  UNL     1     -32.681   6.987   4.801  1.00 20.00    -0.386 OA
BRANCH   6   7
HETATM    7  C7  UNL     1     -32.203   8.137   4.117  1.00 20.00     0.113 C 
HETATM    8  C2  UNL     1     -32.841   8.201   2.738  1.00 20.00     0.039 C 
HETATM    9  C3  UNL     1     -32.513   9.376   4.943  1.00 20.00     0.039 C 
ENDBRANCH   6   7
ENDBRANCH   1   6
TORSDOF 4
