REMARK  0 active torsions:
REMARK  status: ('A' for Active; 'I' for Inactive)
ROOT
HETATM    1  C1  UNL     1     -32.602   6.876   2.210  1.00 20.00     0.088 C 
HETATM    2  C2  UNL     1     -33.792   6.398   4.249  1.00 20.00    -0.046 C 
HETATM    3  C3  UNL     1     -33.025   5.987   3.230  1.00 20.00     0.098 C 
HETATM    4  C4  UNL     1     -34.255   5.476   5.343  1.00 20.00     0.039 C 
HETATM    5  C5  UNL     1     -34.237   7.825   4.409  1.00 20.00     0.202 C 
HETATM    6  C6  UNL     1     -33.967   6.104   6.706  1.00 20.00     0.030 C 
HETATM    7  C7  UNL     1     -34.459   7.548   6.759  1.00 20.00     0.168 C 
HETATM    8  N8  UNL     1     -32.251   7.598   1.372  1.00 20.00    -0.192 NA
HETATM    9  O9  UNL     1     -33.872   8.314   5.704  1.00 20.00    -0.387 OA
ENDROOT
TORSDOF 0
