REMARK  4 active torsions:
REMARK  status: ('A' for Active; 'I' for Inactive)
REMARK    1  A    between atoms: C5_5  and  C7_7 
REMARK    2  A    between atoms: C5_5  and  S9_9 
REMARK    3  A    between atoms: C6_6  and  C7_7 
REMARK    4  A    between atoms: C8_8  and  S9_9 
ROOT
HETATM    1  C5  UNL     1     -33.209   7.017   5.920  1.00 20.00     0.080 C 
ENDROOT
BRANCH   1   2
HETATM    2  C7  UNL     1     -34.022   5.882   6.570  1.00 20.00     0.004 C 
HETATM    3  C1  UNL     1     -35.423   6.397   6.925  1.00 20.00     0.012 C 
BRANCH   2   4
HETATM    4  C6  UNL     1     -34.101   4.588   5.740  1.00 20.00     0.119 C 
HETATM    5 CL10 UNL     1     -34.407   4.869   4.009  1.00 20.00    -0.130 Cl
ENDBRANCH   2   4
ENDBRANCH   1   2
BRANCH   1   6
HETATM    6  S9  UNL     1     -34.199   8.078   4.824  1.00 20.00    -0.160 SA
BRANCH   6   7
HETATM    7  C8  UNL     1     -32.847   8.789   3.860  1.00 20.00    -0.003 C 
HETATM    8  C2  UNL     1     -32.095   7.655   3.158  1.00 20.00     0.026 C 
HETATM    9  C3  UNL     1     -33.443   9.751   2.828  1.00 20.00     0.026 C 
HETATM   10  C4  UNL     1     -31.910   9.542   4.810  1.00 20.00     0.026 C 
ENDBRANCH   6   7
ENDBRANCH   1   6
TORSDOF 4
