REMARK  1 active torsions:
REMARK  status: ('A' for Active; 'I' for Inactive)
REMARK    1  A    between atoms: C1_1  and  C5_5 
ROOT
HETATM    1  C2  UNL     1     -33.196   7.136   6.126  1.00 20.00     0.022 C 
HETATM    2  C3  UNL     1     -34.169   6.300   6.939  1.00 20.00     0.075 C 
HETATM    3  C4  UNL     1     -33.927   5.633   4.347  1.00 20.00     0.085 C 
HETATM    4  C5  UNL     1     -33.691   7.099   4.686  1.00 20.00     0.057 C 
HETATM    5  S7  UNL     1     -34.581   4.894   5.871  1.00 20.00    -0.168 SA
ENDROOT
BRANCH   4   6
HETATM    6  C1  UNL     1     -32.682   7.691   3.754  1.00 20.00     0.236 C 
HETATM    7  O6  UNL     1     -32.533   7.320   2.594  1.00 20.00    -0.306 OA
ENDBRANCH   4   6
TORSDOF 1
