REMARK  0 active torsions:
REMARK  status: ('A' for Active; 'I' for Inactive)
ROOT
HETATM    1  C1  UNL     1     -33.538   5.134   2.960  1.00 20.00     0.087 C 
HETATM    2  C2  UNL     1     -34.500   5.489   6.648  1.00 20.00     0.029 C 
HETATM    3  C3  UNL     1     -34.084   4.801   5.348  1.00 20.00     0.045 C 
HETATM    4  C4  UNL     1     -33.769   6.813   6.810  1.00 20.00     0.167 C 
HETATM    5  C5  UNL     1     -33.483   7.088   4.471  1.00 20.00     0.208 C 
HETATM    6  C6  UNL     1     -34.156   5.750   4.144  1.00 20.00     0.146 C 
HETATM    7  N7  UNL     1     -33.050   4.648   2.026  1.00 20.00    -0.195 NA
HETATM    8  O8  UNL     1     -33.992   7.654   5.681  1.00 20.00    -0.388 OA
HETATM    9 CL9  UNL     1     -35.877   6.051   3.711  1.00 20.00    -0.101 Cl
ENDROOT
TORSDOF 0
