REMARK  0 active torsions:
REMARK  status: ('A' for Active; 'I' for Inactive)
ROOT
HETATM    1  C1  UNL     1     -35.292   5.963   4.418  1.00 20.00     0.087 C 
HETATM    2  C2  UNL     1     -33.173   8.206   3.921  1.00 20.00     0.029 C 
HETATM    3  C3  UNL     1     -33.533   7.508   5.232  1.00 20.00     0.045 C 
HETATM    4  C4  UNL     1     -32.181   7.371   3.124  1.00 20.00     0.167 C 
HETATM    5  C5  UNL     1     -32.921   5.336   4.100  1.00 20.00     0.208 C 
HETATM    6  C6  UNL     1     -33.939   6.047   4.999  1.00 20.00     0.146 C 
HETATM    7  N7  UNL     1     -36.356   5.897   3.960  1.00 20.00    -0.195 NA
HETATM    8  O8  UNL     1     -32.699   6.063   2.887  1.00 20.00    -0.388 OA
HETATM    9 CL9  UNL     1     -34.029   5.198   6.577  1.00 20.00    -0.101 Cl
ENDROOT
TORSDOF 0
