REMARK  1 active torsions:
REMARK  status: ('A' for Active; 'I' for Inactive)
REMARK    1  A    between atoms: C1_1  and  C5_5 
ROOT
HETATM    1  C2  UNL     1     -34.291   6.063   4.094  1.00 20.00     0.022 C 
HETATM    2  C3  UNL     1     -35.102   5.472   5.234  1.00 20.00     0.075 C 
HETATM    3  C4  UNL     1     -33.173   7.205   5.939  1.00 20.00     0.085 C 
HETATM    4  C5  UNL     1     -33.802   7.425   4.571  1.00 20.00     0.057 C 
HETATM    5  S7  UNL     1     -34.207   5.945   6.739  1.00 20.00    -0.168 SA
ENDROOT
BRANCH   4   6
HETATM    6  C1  UNL     1     -32.806   7.988   3.607  1.00 20.00     0.236 C 
HETATM    7  O6  UNL     1     -32.466   7.417   2.576  1.00 20.00    -0.306 OA
ENDBRANCH   4   6
TORSDOF 1
