REMARK  3 active torsions:
REMARK  status: ('A' for Active; 'I' for Inactive)
REMARK    1  A    between atoms: C2_2  and  C5_5 
REMARK    2  A    between atoms: C5_5  and  N7_7 
REMARK    3  A    between atoms: C6_6  and  N7_7 
ROOT
HETATM    1  C1  UNL     1     -34.882   5.118   6.414  1.00 20.00     0.052 A 
HETATM    2  C2  UNL     1     -33.933   6.160   5.888  1.00 20.00     0.055 A 
HETATM    3  C3  UNL     1     -34.692   5.274   4.925  1.00 20.00     0.119 A 
HETATM    4 CL8  UNL     1     -33.784   4.022   4.077  1.00 20.00    -0.101 Cl
HETATM    5 CL9  UNL     1     -36.030   5.917   3.985  1.00 20.00    -0.101 Cl
ENDROOT
BRANCH   2   6
HETATM    6  C5  UNL     1     -34.242   7.607   6.069  1.00 20.00     0.277 C 
BRANCH   6   7
HETATM    7  N7  UNL     1     -33.057   8.410   5.944  1.00 20.00     0.083 N 
HETATM    8  H20 UNL     1     -33.286   9.402   6.071  1.00 20.00     0.315 HD
BRANCH   7   9
HETATM    9  C6  UNL     1     -32.430   8.247   4.632  1.00 20.00     0.265 C 
HETATM   10  C4  UNL     1     -33.345   8.684   3.540  1.00 20.00     0.037 C 
ENDBRANCH   7   9
ENDBRANCH   6   7
ENDBRANCH   2   6
TORSDOF 3
