REMARK  3 active torsions:
REMARK  status: ('A' for Active; 'I' for Inactive)
REMARK    1  A    between atoms: C2_2  and  C5_5 
REMARK    2  A    between atoms: C5_5  and  N7_7 
REMARK    3  A    between atoms: C6_6  and  N7_7 
ROOT
HETATM    1  C1  UNL     1     -35.204   5.317   6.539  1.00 20.00     0.052 A 
HETATM    2  C2  UNL     1     -34.411   6.382   5.832  1.00 20.00     0.055 A 
HETATM    3  C3  UNL     1     -34.932   5.190   5.061  1.00 20.00     0.119 A 
HETATM    4 CL8  UNL     1     -33.837   3.922   4.527  1.00 20.00    -0.101 Cl
HETATM    5 CL9  UNL     1     -36.278   5.458   3.953  1.00 20.00    -0.101 Cl
ENDROOT
BRANCH   2   6
HETATM    6  C5  UNL     1     -32.966   6.568   6.150  1.00 20.00     0.277 C 
BRANCH   6   7
HETATM    7  N7  UNL     1     -32.509   7.868   5.742  1.00 20.00     0.083 N 
HETATM    8  H20 UNL     1     -31.515   7.982   5.967  1.00 20.00     0.315 HD
BRANCH   7   9
HETATM    9  C6  UNL     1     -32.683   8.076   4.304  1.00 20.00     0.265 C 
HETATM   10  C4  UNL     1     -31.886   7.091   3.518  1.00 20.00     0.037 C 
ENDBRANCH   7   9
ENDBRANCH   6   7
ENDBRANCH   2   6
TORSDOF 3
