REMARK  3 active torsions:
REMARK  status: ('A' for Active; 'I' for Inactive)
REMARK    1  A    between atoms: C1_1  and  C3_3 
REMARK       I    between atoms: C1_1  and  N9_9 
REMARK    2  A    between atoms: C7_7  and  C8_8 
REMARK    3  A    between atoms: C8_8  and  N9_9 
ROOT
HETATM    1  C1  UNL     1     -33.097   6.701   3.290  1.00 20.00     0.222 C 
HETATM    2  N9  UNL     1     -32.630   7.947   2.918  1.00 20.00    -0.361 N 
HETATM    3  O10 UNL     1     -32.738   5.622   2.833  1.00 20.00    -0.273 OA
HETATM    4  H25 UNL     1     -33.015   8.766   3.378  1.00 20.00     0.162 HD
ENDROOT
BRANCH   1   5
HETATM    5  C3  UNL     1     -34.121   6.737   4.340  1.00 20.00     0.082 A 
HETATM    6  C2  UNL     1     -33.828   7.452   5.633  1.00 20.00     0.019 A 
HETATM    7  C4  UNL     1     -33.896   5.948   5.615  1.00 20.00    -0.005 A 
HETATM    8  C5  UNL     1     -35.033   5.241   6.267  1.00 20.00     0.011 C 
ENDBRANCH   1   5
BRANCH   2   9
HETATM    9  C8  UNL     1     -31.619   8.140   1.903  1.00 20.00     0.122 C 
BRANCH   9  10
HETATM   10  C7  UNL     1     -32.217   8.300   0.510  1.00 20.00     0.015 C 
HETATM   11  C6  UNL     1     -33.139   9.506   0.401  1.00 20.00     0.006 C 
ENDBRANCH   9  10
ENDBRANCH   2   9
TORSDOF 3
