REMARK  4 active torsions:
REMARK  status: ('A' for Active; 'I' for Inactive)
REMARK    1  A    between atoms: C1_1  and  C6_6 
REMARK       I    between atoms: C1_1  and  N10_10 
REMARK    2  A    between atoms: C7_7  and  C8_8 
REMARK    3  A    between atoms: C7_7  and  C9_9 
REMARK    4  A    between atoms: C8_8  and  N10_10 
ROOT
HETATM    1  C1  UNL     1     -33.743   6.084   4.569  1.00 20.00     0.218 C 
HETATM    2  C5  UNL     1     -32.786   5.205   2.409  1.00 20.00     0.152 C 
HETATM    3  N10 UNL     1     -32.817   6.182   3.506  1.00 20.00    -0.356 N 
HETATM    4  O11 UNL     1     -34.589   5.192   4.673  1.00 20.00    -0.273 OA
ENDROOT
BRANCH   3   5
HETATM    5  C8  UNL     1     -31.851   7.242   3.433  1.00 20.00     0.125 C 
BRANCH   5   6
HETATM    6  C7  UNL     1     -32.376   8.460   2.677  1.00 20.00     0.024 C 
BRANCH   6   7
HETATM    7  C9  UNL     1     -32.810   8.188   1.223  1.00 20.00    -0.021 C 
HETATM    8  C3  UNL     1     -31.618   7.658   0.420  1.00 20.00     0.009 C 
HETATM    9  C4  UNL     1     -33.379   9.432   0.540  1.00 20.00     0.009 C 
ENDBRANCH   6   7
ENDBRANCH   5   6
ENDBRANCH   3   5
BRANCH   1  10
HETATM   10  C6  UNL     1     -33.642   7.177   5.623  1.00 20.00     0.098 C 
HETATM   11  C2  UNL     1     -34.674   7.022   6.730  1.00 20.00     0.014 C 
ENDBRANCH   1  10
TORSDOF 4
