REMARK  1 active torsions:
REMARK  status: ('A' for Active; 'I' for Inactive)
REMARK       I    between atoms: C1_1  and  N9_9 
REMARK    1  A    between atoms: C6_6  and  N9_9 
ROOT
HETATM    1  C2  UNL     1     -33.172   8.752   1.983  1.00 20.00     0.002 C 
HETATM    2  C3  UNL     1     -31.941   7.847   1.974  1.00 20.00     0.002 C 
HETATM    3  C4  UNL     1     -33.933   8.423   3.265  1.00 20.00     0.031 C 
HETATM    4  C5  UNL     1     -32.016   7.015   3.252  1.00 20.00     0.031 C 
HETATM    5  C6  UNL     1     -32.882   7.836   4.214  1.00 20.00     0.029 C 
HETATM    6  C8  UNL     1     -32.071   8.934   4.912  1.00 20.00     0.038 C 
ENDROOT
BRANCH   5   7
HETATM    7  N9  UNL     1     -33.496   6.990   5.212  1.00 20.00    -0.353 N 
HETATM    8  C1  UNL     1     -34.229   5.867   4.893  1.00 20.00     0.214 C 
HETATM    9  C7  UNL     1     -34.769   5.143   6.082  1.00 20.00     0.117 C 
HETATM   10  O10 UNL     1     -34.458   5.438   3.769  1.00 20.00    -0.274 OA
HETATM   11  H25 UNL     1     -33.383   7.233   6.188  1.00 20.00     0.163 HD
ENDBRANCH   5   7
TORSDOF 1
