REMARK  4 active torsions:
REMARK  status: ('A' for Active; 'I' for Inactive)
REMARK    1  A    between atoms: C1_1  and  C7_7 
REMARK    2  A    between atoms: C1_1  and  O10_10 
REMARK    3  A    between atoms: C4_4  and  C7_7 
REMARK    4  A    between atoms: C8_8  and  O10_10 
ROOT
HETATM    1  C1  UNL     1     -32.339   7.466   3.502  1.00 20.00     0.259 C 
HETATM    2  O9  UNL     1     -32.203   6.370   2.977  1.00 20.00    -0.265 OA
ENDROOT
BRANCH   1   3
HETATM    3  C7  UNL     1     -32.116   8.794   2.817  1.00 20.00     0.115 C 
BRANCH   3   4
HETATM    4  C4  UNL     1     -33.019   8.972   1.608  1.00 20.00    -0.005 A 
HETATM    5  C2  UNL     1     -32.674   9.981   0.548  1.00 20.00     0.005 A 
HETATM    6  C3  UNL     1     -32.565   8.511   0.251  1.00 20.00     0.005 A 
ENDBRANCH   3   4
ENDBRANCH   1   3
BRANCH   1   7
HETATM    7  O10 UNL     1     -32.715   7.694   4.796  1.00 20.00    -0.317 OA
BRANCH   7   8
HETATM    8  C8  UNL     1     -33.574   6.704   5.371  1.00 20.00     0.123 C 
HETATM    9  C5  UNL     1     -33.875   7.080   6.814  1.00 20.00     0.040 C 
HETATM   10  C6  UNL     1     -34.842   6.595   4.537  1.00 20.00     0.040 C 
ENDBRANCH   7   8
ENDBRANCH   1   7
TORSDOF 4
