REMARK  3 active torsions:
REMARK  status: ('A' for Active; 'I' for Inactive)
REMARK    1  A    between atoms: C5_5  and  S11_11 
REMARK    2  A    between atoms: C8_8  and  C9_9 
REMARK    3  A    between atoms: C8_8  and  S11_11 
ROOT
HETATM    1  C1  UNL     1     -34.218   5.133   4.588  1.00 20.00     0.128 C 
HETATM    2  C2  UNL     1     -35.162   5.857   5.514  1.00 20.00     0.079 C 
HETATM    3  C3  UNL     1     -33.220   6.065   3.946  1.00 20.00     0.093 C 
HETATM    4  C4  UNL     1     -34.498   7.226   5.629  1.00 20.00     0.023 C 
HETATM    5  C5  UNL     1     -33.833   7.426   4.269  1.00 20.00     0.054 C 
HETATM    6  O10 UNL     1     -34.256   3.927   4.382  1.00 20.00    -0.298 OA
ENDROOT
BRANCH   5   7
HETATM    7  S11 UNL     1     -32.594   8.748   4.289  1.00 20.00    -0.164 SA
BRANCH   7   8
HETATM    8  C8  UNL     1     -31.627   8.205   2.865  1.00 20.00     0.078 C 
BRANCH   8   9
HETATM    9  C9  UNL     1     -32.382   8.188   1.524  1.00 20.00    -0.013 C 
HETATM   10  C6  UNL     1     -32.911   9.568   1.126  1.00 20.00     0.010 C 
HETATM   11  C7  UNL     1     -31.556   7.581   0.388  1.00 20.00     0.010 C 
ENDBRANCH   8   9
ENDBRANCH   7   8
ENDBRANCH   5   7
TORSDOF 3
