REMARK  3 active torsions:
REMARK  status: ('A' for Active; 'I' for Inactive)
REMARK    1  A    between atoms: C1_1  and  C6_6 
REMARK    2  A    between atoms: C1_1  and  C10_10 
REMARK    3  A    between atoms: C7_7  and  C11_11 
ROOT
HETATM    1  C2  UNL     1     -32.504   9.211   6.014  1.00 20.00     0.001 C 
HETATM    2  C3  UNL     1     -31.930   8.839   4.649  1.00 20.00     0.012 C 
HETATM    3  C4  UNL     1     -33.180   8.016   6.684  1.00 20.00     0.005 C 
HETATM    4  C5  UNL     1     -33.665   7.018   4.413  1.00 20.00     0.016 C 
HETATM    5  C6  UNL     1     -32.997   8.220   3.754  1.00 20.00     0.055 C 
HETATM    6  C7  UNL     1     -34.252   7.390   5.782  1.00 20.00    -0.014 C 
ENDROOT
BRANCH   5   7
HETATM    7  C1  UNL     1     -32.311   7.732   2.493  1.00 20.00     0.130 C 
HETATM    8  O12 UNL     1     -32.350   6.546   2.168  1.00 20.00    -0.298 OA
BRANCH   7   9
HETATM    9  C10 UNL     1     -31.586   8.785   1.675  1.00 20.00     0.074 C 
HETATM   10  C8  UNL     1     -32.469   9.409   0.610  1.00 20.00     0.013 C 
ENDBRANCH   7   9
ENDBRANCH   5   7
BRANCH   6  11
HETATM   11  C11 UNL     1     -34.874   6.167   6.454  1.00 20.00     0.000 C 
HETATM   12  C9  UNL     1     -33.860   5.100   6.706  1.00 20.00     0.005 C 
ENDBRANCH   6  11
TORSDOF 3
