REMARK  1 active torsions:
REMARK  status: ('A' for Active; 'I' for Inactive)
REMARK    1  A    between atoms: C6_6  and  C9_9 
ROOT
HETATM    1  C1  UNL     1     -34.863   6.454   4.468  1.00 20.00     0.085 C 
HETATM    2  C2  UNL     1     -32.753   5.833   2.348  1.00 20.00     0.003 C 
HETATM    3  C3  UNL     1     -33.268   7.126   1.714  1.00 20.00     0.005 C 
HETATM    4  C4  UNL     1     -32.521   5.933   3.862  1.00 20.00     0.041 C 
HETATM    5  C5  UNL     1     -33.328   8.343   3.949  1.00 20.00     0.045 C 
HETATM    6  C6  UNL     1     -32.817   8.363   2.492  1.00 20.00    -0.012 C 
HETATM    7  C7  UNL     1     -33.467   6.926   4.545  1.00 20.00     0.125 C 
HETATM    8  N10 UNL     1     -35.961   6.083   4.407  1.00 20.00    -0.195 NA
HETATM    9 CL11 UNL     1     -33.090   6.983   6.304  1.00 20.00    -0.103 Cl
ENDROOT
BRANCH   6  10
HETATM   10  C9  UNL     1     -33.248   9.647   1.785  1.00 20.00     0.000 C 
HETATM   11  C8  UNL     1     -32.713   9.715   0.393  1.00 20.00     0.005 C 
ENDBRANCH   6  10
TORSDOF 1
