REMARK  3 active torsions:
REMARK  status: ('A' for Active; 'I' for Inactive)
REMARK    1  A    between atoms: C1_1  and  C9_9 
REMARK    2  A    between atoms: C6_6  and  C9_9 
REMARK    3  A    between atoms: C7_7  and  C10_10 
ROOT
HETATM    1  C2  UNL     1     -33.013   5.675   3.244  1.00 20.00     0.001 C 
HETATM    2  C3  UNL     1     -32.494   6.928   2.544  1.00 20.00     0.005 C 
HETATM    3  C4  UNL     1     -34.352   5.926   3.932  1.00 20.00     0.005 C 
HETATM    4  C5  UNL     1     -33.761   8.372   4.188  1.00 20.00     0.009 C 
HETATM    5  C6  UNL     1     -32.409   8.124   3.500  1.00 20.00    -0.008 C 
HETATM    6  C7  UNL     1     -34.320   7.125   4.891  1.00 20.00    -0.014 C 
ENDROOT
BRANCH   5   7
HETATM    7  C9  UNL     1     -31.950   9.377   2.754  1.00 20.00     0.074 C 
BRANCH   7   8
HETATM    8  C1  UNL     1     -32.912   9.779   1.669  1.00 20.00     0.231 C 
HETATM    9  O11 UNL     1     -32.642   9.844   0.475  1.00 20.00    -0.307 OA
ENDBRANCH   7   8
ENDBRANCH   5   7
BRANCH   6  10
HETATM   10  C10 UNL     1     -33.549   6.803   6.174  1.00 20.00     0.000 C 
HETATM   11  C8  UNL     1     -34.132   5.626   6.883  1.00 20.00     0.005 C 
ENDBRANCH   6  10
TORSDOF 3
