REMARK  3 active torsions:
REMARK  status: ('A' for Active; 'I' for Inactive)
REMARK    1  A    between atoms: C5_5  and  C9_9 
REMARK    2  A    between atoms: C6_6  and  C10_10 
REMARK    3  A    between atoms: C10_10  and  O11_11 
ROOT
HETATM    1  C1  UNL     1     -33.898   8.569   5.210  1.00 20.00     0.001 C 
HETATM    2  C2  UNL     1     -33.083   8.740   3.931  1.00 20.00     0.005 C 
HETATM    3  C3  UNL     1     -33.319   7.478   6.107  1.00 20.00     0.007 C 
HETATM    4  C4  UNL     1     -32.348   6.325   4.077  1.00 20.00     0.011 C 
HETATM    5  C5  UNL     1     -32.933   7.417   3.168  1.00 20.00    -0.014 C 
HETATM    6  C6  UNL     1     -33.137   6.137   5.383  1.00 20.00     0.014 C 
ENDROOT
BRANCH   6   7
HETATM    7  C10 UNL     1     -34.477   5.438   5.141  1.00 20.00     0.118 C 
HETATM    8  C8  UNL     1     -34.289   4.095   4.459  1.00 20.00     0.040 C 
BRANCH   7   9
HETATM    9  O11 UNL     1     -35.128   5.251   6.390  1.00 20.00    -0.396 OA
HETATM   10  H31 UNL     1     -35.971   4.807   6.203  1.00 20.00     0.210 HD
ENDBRANCH   7   9
ENDBRANCH   6   7
BRANCH   5  11
HETATM   11  C9  UNL     1     -32.058   7.609   1.929  1.00 20.00     0.000 C 
HETATM   12  C7  UNL     1     -32.622   8.644   1.013  1.00 20.00     0.005 C 
ENDBRANCH   5  11
TORSDOF 3
