REMARK  0 active torsions:
REMARK  status: ('A' for Active; 'I' for Inactive)
ROOT
HETATM    1  C1  UNL     1     -32.173   6.470   3.267  1.00 20.00     0.066 C 
HETATM    2  C2  UNL     1     -33.513   6.956   5.359  1.00 20.00     0.077 C 
HETATM    3  C3  UNL     1     -33.183   5.375   2.955  1.00 20.00     0.171 C 
HETATM    4  C4  UNL     1     -32.265   8.907   4.172  1.00 20.00     0.207 A 
HETATM    5  C5  UNL     1     -32.799   7.496   4.157  1.00 20.00     0.087 A 
HETATM    6  C6  UNL     1     -34.435   5.777   4.984  1.00 20.00     0.056 C 
HETATM    7  C7  UNL     1     -34.812   5.011   6.260  1.00 20.00     0.045 C 
HETATM    8  C8  UNL     1     -35.731   6.248   4.307  1.00 20.00     0.045 C 
HETATM    9  O9  UNL     1     -33.472   8.561   3.475  1.00 20.00    -0.375 OA
HETATM   10  O10 UNL     1     -33.735   4.831   4.155  1.00 20.00    -0.381 OA
ENDROOT
TORSDOF 0
