REMARK  3 active torsions:
REMARK  status: ('A' for Active; 'I' for Inactive)
REMARK    1  A    between atoms: C5_5  and  C8_8 
REMARK    2  A    between atoms: C6_6  and  C9_9 
REMARK    3  A    between atoms: C9_9  and  C10_10 
ROOT
HETATM    1  C1  UNL     1     -33.420   5.516   2.241  1.00 20.00     0.001 C 
HETATM    2  C2  UNL     1     -33.687   5.069   3.676  1.00 20.00     0.005 C 
HETATM    3  C3  UNL     1     -32.288   6.538   2.170  1.00 20.00     0.005 C 
HETATM    4  C4  UNL     1     -32.813   7.282   4.530  1.00 20.00     0.009 C 
HETATM    5  C5  UNL     1     -33.957   6.258   4.605  1.00 20.00    -0.014 C 
HETATM    6  C6  UNL     1     -32.507   7.743   3.096  1.00 20.00    -0.013 C 
ENDROOT
BRANCH   6   7
HETATM    7  C9  UNL     1     -33.591   8.681   2.558  1.00 20.00     0.020 C 
BRANCH   7   8
HETATM    8  C10 UNL     1     -33.069   9.666   1.524  1.00 20.00     0.115 C 
HETATM    9 CL11 UNL     1     -32.405   8.846   0.092  1.00 20.00    -0.130 Cl
ENDBRANCH   7   8
ENDBRANCH   6   7
BRANCH   5  10
HETATM   10  C8  UNL     1     -34.154   5.781   6.044  1.00 20.00     0.000 C 
HETATM   11  C7  UNL     1     -34.461   6.916   6.964  1.00 20.00     0.005 C 
ENDBRANCH   5  10
TORSDOF 3
