REMARK  3 active torsions:
REMARK  status: ('A' for Active; 'I' for Inactive)
REMARK    1  A    between atoms: C5_5  and  C9_9 
REMARK    2  A    between atoms: C6_6  and  C10_10 
REMARK    3  A    between atoms: C6_6  and  O11_11 
ROOT
HETATM    1  C1  UNL     1     -34.311   6.731   6.652  1.00 20.00     0.003 C 
HETATM    2  C2  UNL     1     -33.483   7.869   6.063  1.00 20.00     0.005 C 
HETATM    3  C3  UNL     1     -34.010   5.399   5.965  1.00 20.00     0.038 C 
HETATM    4  C4  UNL     1     -33.370   6.653   3.848  1.00 20.00     0.042 C 
HETATM    5  C5  UNL     1     -33.678   7.988   4.547  1.00 20.00    -0.012 C 
HETATM    6  C6  UNL     1     -34.157   5.469   4.436  1.00 20.00     0.058 C 
ENDROOT
BRANCH   6   7
HETATM    7  C10 UNL     1     -33.719   4.151   3.795  1.00 20.00     0.033 C 
HETATM    8  C8  UNL     1     -33.852   4.193   2.309  1.00 20.00     0.008 C 
ENDBRANCH   6   7
BRANCH   6   9
HETATM    9  O11 UNL     1     -35.547   5.654   4.146  1.00 20.00    -0.390 OA
HETATM   10  H31 UNL     1     -35.617   5.695   3.181  1.00 20.00     0.210 HD
ENDBRANCH   6   9
BRANCH   5  11
HETATM   11  C9  UNL     1     -32.809   9.108   3.978  1.00 20.00     0.000 C 
HETATM   12  C7  UNL     1     -33.013   9.271   2.508  1.00 20.00     0.005 C 
ENDBRANCH   5  11
TORSDOF 3
