REMARK  3 active torsions:
REMARK  status: ('A' for Active; 'I' for Inactive)
REMARK    1  A    between atoms: C1_1  and  C9_9 
REMARK    2  A    between atoms: C6_6  and  C9_9 
REMARK    3  A    between atoms: C7_7  and  C10_10 
ROOT
HETATM    1  C2  UNL     1     -33.015   8.872   5.101  1.00 20.00     0.001 C 
HETATM    2  C3  UNL     1     -32.771   8.900   3.595  1.00 20.00     0.005 C 
HETATM    3  C4  UNL     1     -34.023   7.793   5.488  1.00 20.00     0.005 C 
HETATM    4  C5  UNL     1     -33.358   6.446   3.456  1.00 20.00     0.009 C 
HETATM    5  C6  UNL     1     -32.339   7.526   3.067  1.00 20.00    -0.008 C 
HETATM    6  C7  UNL     1     -33.600   6.412   4.972  1.00 20.00    -0.014 C 
ENDROOT
BRANCH   5   7
HETATM    7  C9  UNL     1     -32.149   7.567   1.551  1.00 20.00     0.074 C 
BRANCH   7   8
HETATM    8  C1  UNL     1     -33.228   8.355   0.860  1.00 20.00     0.231 C 
HETATM    9  O11 UNL     1     -33.041   9.342   0.157  1.00 20.00    -0.307 OA
ENDBRANCH   7   8
ENDBRANCH   5   7
BRANCH   6  10
HETATM   10  C10 UNL     1     -34.648   5.360   5.327  1.00 20.00     0.000 C 
HETATM   11  C8  UNL     1     -35.968   5.660   4.697  1.00 20.00     0.005 C 
ENDBRANCH   6  10
TORSDOF 3
