REMARK  1 active torsions:
REMARK  status: ('A' for Active; 'I' for Inactive)
REMARK    1  A    between atoms: C8_8  and  C10_10 
ROOT
HETATM    1  C1  UNL     1     -32.818   9.325   1.446  1.00 20.00     0.088 C 
HETATM    2  C2  UNL     1     -32.719   7.932   3.408  1.00 20.00    -0.070 C 
HETATM    3  C3  UNL     1     -32.947   9.127   2.843  1.00 20.00     0.096 C 
HETATM    4  C4  UNL     1     -32.313   6.724   2.608  1.00 20.00     0.035 C 
HETATM    5  C5  UNL     1     -32.872   7.696   4.889  1.00 20.00     0.039 C 
HETATM    6  C6  UNL     1     -33.255   5.552   2.882  1.00 20.00     0.005 C 
HETATM    7  C7  UNL     1     -33.388   5.266   4.380  1.00 20.00     0.005 C 
HETATM    8  C8  UNL     1     -33.825   6.519   5.158  1.00 20.00    -0.011 C 
HETATM    9  N11 UNL     1     -32.714   9.495   0.303  1.00 20.00    -0.192 NA
ENDROOT
BRANCH   8  10
HETATM   10  C10 UNL     1     -33.904   6.222   6.655  1.00 20.00     0.000 C 
HETATM   11  C9  UNL     1     -34.852   5.106   6.946  1.00 20.00     0.005 C 
ENDBRANCH   8  10
TORSDOF 1
