REMARK  3 active torsions:
REMARK  status: ('A' for Active; 'I' for Inactive)
REMARK    1  A    between atoms: C6_6  and  C10_10 
REMARK    2  A    between atoms: C7_7  and  N11_11 
REMARK    3  A    between atoms: C9_9  and  N11_11 
ROOT
HETATM    1  C1  UNL     1     -32.390   8.045  -0.220  1.00 20.00     0.013 C 
HETATM    2  C2  UNL     1     -32.712   8.912   0.546  1.00 20.00    -0.087 C 
HETATM    3  C9  UNL     1     -33.103   9.973   1.478  1.00 20.00     0.362 C 
ENDROOT
BRANCH   3   4
HETATM    4  N11 UNL     1     -33.741   9.410   2.658  1.00 20.00     0.098 N 
HETATM    5  H28 UNL     1     -34.290  10.130   3.122  1.00 20.00     0.317 HD
BRANCH   4   6
HETATM    6  C7  UNL     1     -32.752   8.908   3.582  1.00 20.00     0.222 C 
HETATM    7  C4  UNL     1     -32.239   7.535   3.149  1.00 20.00     0.036 C 
HETATM    8  C3  UNL     1     -33.155   6.558   3.871  1.00 20.00     0.007 C 
HETATM    9  C6  UNL     1     -33.301   7.193   5.251  1.00 20.00    -0.013 C 
HETATM   10  C5  UNL     1     -33.361   8.703   4.977  1.00 20.00     0.040 C 
BRANCH   9  11
HETATM   11  C10 UNL     1     -34.504   6.674   6.021  1.00 20.00     0.000 C 
HETATM   12  C8  UNL     1     -34.420   5.199   6.262  1.00 20.00     0.005 C 
ENDBRANCH   9  11
ENDBRANCH   4   6
ENDBRANCH   3   4
TORSDOF 3
