REMARK  0 active torsions:
REMARK  status: ('A' for Active; 'I' for Inactive)
ROOT
HETATM    1  C1  UNL     1     -33.227   4.858   2.728  1.00 20.00     0.035 C 
HETATM    2  C2  UNL     1     -33.690   4.482   4.136  1.00 20.00     0.011 C 
HETATM    3  C3  UNL     1     -33.352   6.828   5.049  1.00 20.00     0.043 C 
HETATM    4  C4  UNL     1     -32.402   6.101   2.724  1.00 20.00     0.151 A 
HETATM    5  C5  UNL     1     -32.490   7.090   3.854  1.00 20.00     0.151 A 
HETATM    6  C6  UNL     1     -34.349   5.650   4.905  1.00 20.00    -0.045 C 
HETATM    7  C7  UNL     1     -35.648   6.108   4.213  1.00 20.00     0.015 C 
HETATM    8  C8  UNL     1     -34.730   5.155   6.316  1.00 20.00     0.015 C 
HETATM    9  O9  UNL     1     -33.174   7.311   2.620  1.00 20.00    -0.375 OA
ENDROOT
TORSDOF 0
