REMARK  3 active torsions:
REMARK  status: ('A' for Active; 'I' for Inactive)
REMARK    1  A    between atoms: C6_6  and  C10_10 
REMARK    2  A    between atoms: C7_7  and  N11_11 
REMARK    3  A    between atoms: C9_9  and  N11_11 
ROOT
HETATM    1  C1  UNL     1     -34.526   4.499   4.744  1.00 20.00     0.013 C 
HETATM    2  C2  UNL     1     -34.430   5.507   5.390  1.00 20.00    -0.087 C 
HETATM    3  C9  UNL     1     -34.314   6.733   6.183  1.00 20.00     0.362 C 
ENDROOT
BRANCH   3   4
HETATM    4  N11 UNL     1     -33.984   7.868   5.329  1.00 20.00     0.098 N 
HETATM    5  H28 UNL     1     -34.231   8.732   5.814  1.00 20.00     0.317 HD
BRANCH   4   6
HETATM    6  C7  UNL     1     -32.559   7.884   5.002  1.00 20.00     0.222 C 
HETATM    7  C4  UNL     1     -32.116   9.271   4.540  1.00 20.00     0.036 C 
HETATM    8  C3  UNL     1     -32.473   9.346   3.053  1.00 20.00     0.007 C 
HETATM    9  C6  UNL     1     -32.653   7.893   2.582  1.00 20.00    -0.013 C 
HETATM   10  C5  UNL     1     -32.240   7.027   3.777  1.00 20.00     0.040 C 
BRANCH   9  11
HETATM   11  C10 UNL     1     -31.860   7.572   1.324  1.00 20.00     0.000 C 
HETATM   12  C8  UNL     1     -32.279   8.424   0.169  1.00 20.00     0.005 C 
ENDBRANCH   9  11
ENDBRANCH   4   6
ENDBRANCH   3   4
TORSDOF 3
