REMARK  1 active torsions:
REMARK  status: ('A' for Active; 'I' for Inactive)
REMARK    1  A    between atoms: C8_8  and  N10_10 
ROOT
HETATM    1  C1  UNL     1     -32.574   8.492   2.889  1.00 20.00     0.177 C 
HETATM    2  N9  UNL     1     -32.018   8.746   1.903  1.00 20.00    -0.172 NA
HETATM    3  N10 UNL     1     -33.220   8.200   4.031  1.00 20.00    -0.324 N 
HETATM    4  H22 UNL     1     -34.057   8.734   4.302  1.00 20.00     0.172 HD
ENDROOT
BRANCH   3   5
HETATM    5  C8  UNL     1     -33.174   6.871   4.680  1.00 20.00     0.096 C 
HETATM    6  C5  UNL     1     -33.403   6.992   6.198  1.00 20.00     0.031 C 
HETATM    7  C6  UNL     1     -34.661   6.132   6.427  1.00 20.00    -0.012 C 
HETATM    8  C2  UNL     1     -34.301   4.651   6.213  1.00 20.00     0.005 C 
HETATM    9  C4  UNL     1     -35.482   6.437   5.176  1.00 20.00     0.011 C 
HETATM   10  C3  UNL     1     -34.115   4.556   4.691  1.00 20.00     0.007 C 
HETATM   11  C7  UNL     1     -34.364   6.002   4.223  1.00 20.00     0.009 C 
ENDBRANCH   3   5
TORSDOF 1
