REMARK  3 active torsions:
REMARK  status: ('A' for Active; 'I' for Inactive)
REMARK    1  A    between atoms: C4_4  and  C6_6 
REMARK    2  A    between atoms: C5_5  and  C6_6 
REMARK    3  A    between atoms: C5_5  and  O8_8 
ROOT
HETATM    1  C1  UNL     1     -33.302   6.652   3.662  1.00 20.00     0.066 C 
HETATM    2  C6  UNL     1     -33.552   7.935   4.353  1.00 20.00     0.116 C 
HETATM    3  N7  UNL     1     -33.109   5.644   3.120  1.00 20.00    -0.197 NA
ENDROOT
BRANCH   2   4
HETATM    4  C4  UNL     1     -32.722   9.065   3.723  1.00 20.00     0.017 C 
HETATM    5  C2  UNL     1     -33.023   9.274   2.243  1.00 20.00     0.006 C 
ENDBRANCH   2   4
BRANCH   2   6
HETATM    6  C5  UNL     1     -33.210   7.796   5.842  1.00 20.00     0.186 C 
BRANCH   6   7
HETATM    7  O8  UNL     1     -34.300   7.187   6.527  1.00 20.00    -0.395 OA
HETATM    8  C3  UNL     1     -34.305   5.779   6.346  1.00 20.00     0.201 C 
ENDBRANCH   6   7
ENDBRANCH   2   6
TORSDOF 3
