REMARK  0 active torsions:
REMARK  status: ('A' for Active; 'I' for Inactive)
ROOT
HETATM    1  C1  UNL     1     -32.439   7.846   1.472  1.00 20.00     0.064 C 
HETATM    2  C2  UNL     1     -32.945   5.745   2.661  1.00 20.00     0.020 C 
HETATM    3  C3  UNL     1     -33.514   7.984   3.688  1.00 20.00     0.020 C 
HETATM    4  C4  UNL     1     -33.119   5.075   4.024  1.00 20.00     0.010 C 
HETATM    5  C5  UNL     1     -33.688   7.313   5.052  1.00 20.00     0.010 C 
HETATM    6  C6  UNL     1     -32.533   7.214   2.799  1.00 20.00     0.093 C 
HETATM    7  C7  UNL     1     -34.094   5.826   4.958  1.00 20.00    -0.048 C 
HETATM    8  C8  UNL     1     -34.025   5.199   6.364  1.00 20.00     0.015 C 
HETATM    9  C9  UNL     1     -35.543   5.691   4.451  1.00 20.00     0.015 C 
HETATM   10  N10 UNL     1     -32.365   8.345   0.427  1.00 20.00    -0.197 NA
ENDROOT
TORSDOF 0
