REMARK  0 active torsions:
REMARK  status: ('A' for Active; 'I' for Inactive)
ROOT
HETATM    1  C1  UNL     1     -33.208   7.992   5.870  1.00 20.00     0.035 C 
HETATM    2  C2  UNL     1     -33.359   6.474   5.966  1.00 20.00     0.011 C 
HETATM    3  C3  UNL     1     -32.925   6.111   3.490  1.00 20.00     0.043 C 
HETATM    4  C4  UNL     1     -32.446   8.402   4.655  1.00 20.00     0.151 A 
HETATM    5  C5  UNL     1     -32.336   7.487   3.466  1.00 20.00     0.151 A 
HETATM    6  C6  UNL     1     -33.887   5.819   4.668  1.00 20.00    -0.045 C 
HETATM    7  C7  UNL     1     -35.316   6.300   4.346  1.00 20.00     0.015 C 
HETATM    8  C8  UNL     1     -33.953   4.292   4.882  1.00 20.00     0.015 C 
HETATM    9  O9  UNL     1     -33.266   8.570   3.483  1.00 20.00    -0.375 OA
ENDROOT
TORSDOF 0
