REMARK  2 active torsions:
REMARK  status: ('A' for Active; 'I' for Inactive)
REMARK    1  A    between atoms: C2_2  and  C9_9 
REMARK    2  A    between atoms: C9_9  and  N11_11 
ROOT
HETATM    1  C1  UNL     1     -32.369   8.316   0.960  1.00 20.00    -0.109 C 
HETATM    2  C2  UNL     1     -32.168   7.701   1.972  1.00 20.00    -0.077 C 
HETATM    3  C8  UNL     1     -32.614   9.064  -0.273  1.00 20.00     0.112 C 
ENDROOT
BRANCH   2   4
HETATM    4  C9  UNL     1     -31.916   6.949   3.205  1.00 20.00     0.367 C 
BRANCH   4   5
HETATM    5  N11 UNL     1     -33.022   7.100   4.142  1.00 20.00     0.117 N 
HETATM    6  C6  UNL     1     -32.953   8.367   4.871  1.00 20.00     0.275 C 
HETATM    7  C4  UNL     1     -33.965   8.143   5.976  1.00 20.00     0.033 C 
HETATM    8  C5  UNL     1     -33.750   6.688   6.370  1.00 20.00     0.053 C 
HETATM    9  C7  UNL     1     -33.069   6.038   5.158  1.00 20.00     0.329 C 
HETATM   10  C3  UNL     1     -33.831   4.877   4.678  1.00 20.00     0.095 C 
HETATM   11  N10 UNL     1     -34.433   3.961   4.299  1.00 20.00    -0.195 NA
ENDBRANCH   4   5
ENDBRANCH   2   4
TORSDOF 2
