REMARK  0 active torsions:
REMARK  status: ('A' for Active; 'I' for Inactive)
ROOT
HETATM    1  C1  UNL     1     -34.101   8.182   5.847  1.00 20.00     0.004 C 
HETATM    2  C2  UNL     1     -33.740   8.569   4.414  1.00 20.00     0.040 C 
HETATM    3  C3  UNL     1     -34.065   6.675   6.121  1.00 20.00     0.009 C 
HETATM    4  C4  UNL     1     -33.507   6.108   3.710  1.00 20.00     0.049 C 
HETATM    5  C5  UNL     1     -31.921   7.894   2.688  1.00 20.00     0.207 A 
HETATM    6  C6  UNL     1     -32.940   7.504   3.734  1.00 20.00     0.083 A 
HETATM    7  C7  UNL     1     -34.448   5.804   4.905  1.00 20.00    -0.045 C 
HETATM    8  C8  UNL     1     -35.920   6.039   4.513  1.00 20.00     0.015 C 
HETATM    9  C9  UNL     1     -34.303   4.319   5.295  1.00 20.00     0.015 C 
HETATM   10  O10 UNL     1     -31.534   7.560   4.028  1.00 20.00    -0.375 OA
ENDROOT
TORSDOF 0
