REMARK  4 active torsions:
REMARK  status: ('A' for Active; 'I' for Inactive)
REMARK    1  A    between atoms: C7_7  and  C10_10 
REMARK    2  A    between atoms: C8_8  and  N11_11 
REMARK    3  A    between atoms: C9_9  and  N11_11 
REMARK    4  A    between atoms: C10_10  and  N11_11 
ROOT
HETATM    1  C1  UNL     1     -34.426   5.748   6.584  1.00 20.00     0.013 C 
HETATM    2  C2  UNL     1     -34.125   5.748   5.422  1.00 20.00    -0.087 C 
HETATM    3  C9  UNL     1     -33.763   5.743   4.002  1.00 20.00     0.365 C 
ENDROOT
BRANCH   3   4
HETATM    4  N11 UNL     1     -32.807   6.810   3.710  1.00 20.00     0.104 N 
BRANCH   4   5
HETATM    5  C8  UNL     1     -33.383   8.115   4.034  1.00 20.00     0.224 A 
HETATM    6  C5  UNL     1     -33.410   8.603   5.456  1.00 20.00     0.038 A 
HETATM    7  C6  UNL     1     -32.500   9.256   4.457  1.00 20.00     0.038 A 
ENDBRANCH   4   5
BRANCH   4   8
HETATM    8  C10 UNL     1     -32.403   6.764   2.305  1.00 20.00     0.278 C 
BRANCH   8   9
HETATM    9  C7  UNL     1     -31.781   8.052   1.882  1.00 20.00     0.014 A 
HETATM   10  C3  UNL     1     -31.692   8.406   0.423  1.00 20.00     0.007 A 
HETATM   11  C4  UNL     1     -32.635   9.156   1.323  1.00 20.00     0.007 A 
ENDBRANCH   8   9
ENDBRANCH   4   8
ENDBRANCH   3   4
TORSDOF 4
