REMARK  3 active torsions:
REMARK  status: ('A' for Active; 'I' for Inactive)
REMARK    1  A    between atoms: C4_4  and  C6_6 
REMARK    2  A    between atoms: C5_5  and  C6_6 
REMARK    3  A    between atoms: C5_5  and  O8_8 
ROOT
HETATM    1  C1  UNL     1     -33.530   5.911   3.728  1.00 20.00     0.066 C 
HETATM    2  C6  UNL     1     -34.436   6.696   4.594  1.00 20.00     0.116 C 
HETATM    3  N7  UNL     1     -32.822   5.292   3.049  1.00 20.00    -0.197 NA
ENDROOT
BRANCH   2   4
HETATM    4  C4  UNL     1     -34.263   6.298   6.069  1.00 20.00     0.017 C 
HETATM    5  C2  UNL     1     -34.546   4.823   6.327  1.00 20.00     0.006 C 
ENDBRANCH   2   4
BRANCH   2   6
HETATM    6  C5  UNL     1     -34.154   8.193   4.415  1.00 20.00     0.186 C 
BRANCH   6   7
HETATM    7  O8  UNL     1     -33.033   8.566   5.210  1.00 20.00    -0.395 OA
HETATM    8  C3  UNL     1     -31.810   8.210   4.582  1.00 20.00     0.201 C 
ENDBRANCH   6   7
ENDBRANCH   2   6
TORSDOF 3
