REMARK  1 active torsions:
REMARK  status: ('A' for Active; 'I' for Inactive)
REMARK    1  A    between atoms: C4_4  and  C9_9 
ROOT
HETATM    1  C1  UNL     1     -33.506   7.119   5.174  1.00 20.00     0.052 A 
HETATM    2  C2  UNL     1     -33.173   6.098   3.052  1.00 20.00     0.123 A 
HETATM    3  C3  UNL     1     -33.839   4.791   4.820  1.00 20.00     0.158 A 
HETATM    4  C4  UNL     1     -33.158   7.242   3.834  1.00 20.00    -0.034 A 
HETATM    5  C5  UNL     1     -33.854   5.874   5.685  1.00 20.00     0.134 A 
HETATM    6  N11 UNL     1     -33.506   4.872   3.512  1.00 20.00    -0.269 NA
HETATM    7  F12 UNL     1     -34.194   5.726   6.970  1.00 20.00    -0.205 F 
ENDROOT
BRANCH   4   8
HETATM    8  C9  UNL     1     -32.773   8.584   3.248  1.00 20.00     0.021 C 
HETATM    9  C6  UNL     1     -32.357   8.531   1.761  1.00 20.00     0.011 C 
HETATM   10  C7  UNL     1     -32.789   9.861   1.134  1.00 20.00     0.021 C 
HETATM   11  C10 UNL     1     -33.264  10.714   2.301  1.00 20.00     0.083 C 
HETATM   12  C8  UNL     1     -33.836   9.693   3.273  1.00 20.00     0.029 C 
HETATM   13 CL13 UNL     1     -34.459  11.924   1.813  1.00 20.00    -0.125 Cl
ENDBRANCH   4   8
TORSDOF 1
