REMARK  2 active torsions:
REMARK  status: ('A' for Active; 'I' for Inactive)
REMARK    1  A    between atoms: C2_2  and  C9_9 
REMARK    2  A    between atoms: C7_7  and  C9_9 
ROOT
HETATM    1  C3  UNL     1     -32.921   8.840   5.408  1.00 20.00     0.002 C 
HETATM    2  C4  UNL     1     -32.648   8.669   3.920  1.00 20.00     0.005 C 
HETATM    3  C5  UNL     1     -34.005   7.883   5.911  1.00 20.00     0.020 C 
HETATM    4  C6  UNL     1     -32.808   6.170   4.485  1.00 20.00     0.025 C 
HETATM    5  C7  UNL     1     -32.155   7.247   3.594  1.00 20.00    -0.010 C 
HETATM    6  C8  UNL     1     -34.154   6.632   5.038  1.00 20.00     0.082 C 
HETATM    7 CL10 UNL     1     -34.927   5.321   5.975  1.00 20.00    -0.125 Cl
ENDROOT
BRANCH   5   8
HETATM    8  C9  UNL     1     -32.370   6.946   2.110  1.00 20.00     0.031 C 
BRANCH   8   9
HETATM    9  C2  UNL     1     -31.695   7.967   1.248  1.00 20.00    -0.037 C 
HETATM   10  C1  UNL     1     -32.334   8.725   0.351  1.00 20.00     0.007 C 
ENDBRANCH   8   9
ENDBRANCH   5   8
TORSDOF 2
