REMARK  5 active torsions:
REMARK  status: ('A' for Active; 'I' for Inactive)
REMARK    1  A    between atoms: C2_2  and  C8_8 
REMARK    2  A    between atoms: C3_3  and  C9_9 
REMARK    3  A    between atoms: C3_3  and  C11_11 
REMARK    4  A    between atoms: C8_8  and  C10_10 
REMARK    5  A    between atoms: C9_9  and  C10_10 
ROOT
HETATM    1  C1  UNL     1     -32.873   9.166   1.055  1.00 20.00    -0.111 C 
HETATM    2  C2  UNL     1     -32.843   9.461   2.219  1.00 20.00    -0.107 C 
HETATM    3  C4  UNL     1     -32.903   8.807  -0.362  1.00 20.00     0.112 C 
ENDROOT
BRANCH   2   4
HETATM    4  C8  UNL     1     -32.801   9.828   3.641  1.00 20.00     0.094 C 
BRANCH   4   5
HETATM    5  C10 UNL     1     -31.936   8.869   4.465  1.00 20.00     0.020 C 
BRANCH   5   6
HETATM    6  C9  UNL     1     -32.443   7.424   4.481  1.00 20.00     0.080 C 
BRANCH   6   7
HETATM    7  C3  UNL     1     -33.864   7.287   5.018  1.00 20.00     0.134 C 
HETATM    8  O12 UNL     1     -34.477   8.274   5.431  1.00 20.00    -0.297 OA
BRANCH   7   9
HETATM    9  C11 UNL     1     -34.510   5.886   5.010  1.00 20.00     0.009 C 
HETATM   10  C5  UNL     1     -33.539   4.849   4.430  1.00 20.00     0.022 C 
HETATM   11  C6  UNL     1     -35.778   5.910   4.137  1.00 20.00     0.022 C 
HETATM   12  C7  UNL     1     -34.905   5.509   6.444  1.00 20.00     0.022 C 
ENDBRANCH   7   9
ENDBRANCH   6   7
ENDBRANCH   5   6
ENDBRANCH   4   5
ENDBRANCH   2   4
TORSDOF 5
