REMARK  1 active torsions:
REMARK  status: ('A' for Active; 'I' for Inactive)
REMARK    1  A    between atoms: C5_5  and  C8_8 
ROOT
HETATM    1  C1  UNL     1     -33.601   5.611   3.877  1.00 20.00     0.007 C 
HETATM    2  C2  UNL     1     -32.911   6.780   3.170  1.00 20.00     0.041 C 
HETATM    3  C3  UNL     1     -34.165   7.585   5.140  1.00 20.00     0.045 C 
HETATM    4  C4  UNL     1     -32.733   9.341   3.780  1.00 20.00     0.207 A 
HETATM    5  C5  UNL     1     -34.773   6.275   4.611  1.00 20.00    -0.012 C 
HETATM    6  C6  UNL     1     -33.132   7.925   4.108  1.00 20.00     0.083 A 
HETATM    7  O9  UNL     1     -31.935   8.513   4.635  1.00 20.00    -0.375 OA
ENDROOT
BRANCH   5   8
HETATM    8  C8  UNL     1     -35.359   5.402   5.707  1.00 20.00     0.000 C 
HETATM    9  C7  UNL     1     -34.339   5.038   6.740  1.00 20.00     0.005 C 
ENDBRANCH   5   8
TORSDOF 1
