REMARK  4 active torsions:
REMARK  status: ('A' for Active; 'I' for Inactive)
REMARK    1  A    between atoms: C5_5  and  C6_6 
REMARK    2  A    between atoms: C6_6  and  C7_7 
REMARK    3  A    between atoms: C7_7  and  C9_9 
REMARK    4  A    between atoms: C8_8  and  C9_9 
ROOT
HETATM    1  C1  UNL     1     -32.863   9.573   0.432  1.00 20.00     0.012 C 
HETATM    2  C2  UNL     1     -33.084   9.765   1.597  1.00 20.00    -0.117 C 
HETATM    3  C5  UNL     1     -33.357  10.002   3.021  1.00 20.00     0.093 C 
ENDROOT
BRANCH   3   4
HETATM    4  C6  UNL     1     -32.269   9.417   3.925  1.00 20.00     0.014 C 
BRANCH   4   5
HETATM    5  C7  UNL     1     -32.108   7.900   3.754  1.00 20.00     0.021 C 
BRANCH   5   6
HETATM    6  C9  UNL     1     -33.411   7.115   3.986  1.00 20.00     0.085 C 
HETATM    7 CL10 UNL     1     -34.067   7.591   5.593  1.00 20.00    -0.125 Cl
BRANCH   6   8
HETATM    8  C8  UNL     1     -33.291   5.575   3.862  1.00 20.00    -0.004 C 
HETATM    9  C3  UNL     1     -34.626   4.872   4.141  1.00 20.00     0.011 C 
HETATM   10  C4  UNL     1     -32.728   5.101   2.519  1.00 20.00     0.011 C 
ENDBRANCH   6   8
ENDBRANCH   5   6
ENDBRANCH   4   5
ENDBRANCH   3   4
TORSDOF 4
