REMARK  1 active torsions:
REMARK  status: ('A' for Active; 'I' for Inactive)
REMARK    1  A    between atoms: C7_7  and  C8_8 
ROOT
HETATM    1  C1  UNL     1     -32.436   9.138   2.140  1.00 20.00     0.012 C 
HETATM    2  C2  UNL     1     -32.743   8.963   3.287  1.00 20.00    -0.117 C 
HETATM    3  C8  UNL     1     -33.118   8.754   4.691  1.00 20.00     0.098 C 
ENDROOT
BRANCH   3   4
HETATM    4  C7  UNL     1     -33.073   7.281   5.062  1.00 20.00     0.004 C 
HETATM    5  C5  UNL     1     -34.047   6.432   4.243  1.00 20.00     0.083 C 
HETATM    6  C3  UNL     1     -34.292   5.268   5.169  1.00 20.00     0.127 C 
HETATM    7  C4  UNL     1     -33.772   5.525   6.559  1.00 20.00     0.079 C 
HETATM    8  O9  UNL     1     -34.850   4.232   4.830  1.00 20.00    -0.298 OA
HETATM    9  C6  UNL     1     -33.485   7.021   6.511  1.00 20.00     0.013 C 
ENDBRANCH   3   4
TORSDOF 1
