REMARK  2 active torsions:
REMARK  status: ('A' for Active; 'I' for Inactive)
REMARK    1  A    between atoms: C7_7  and  C10_10 
REMARK    2  A    between atoms: C9_9  and  C10_10 
ROOT
HETATM    1  C1  UNL     1     -32.670   9.772   0.095  1.00 20.00     0.012 C 
HETATM    2  C2  UNL     1     -32.964   9.438   1.210  1.00 20.00    -0.117 C 
HETATM    3  C9  UNL     1     -33.328   9.033   2.574  1.00 20.00     0.093 C 
ENDROOT
BRANCH   3   4
HETATM    4  C10 UNL     1     -32.490   7.845   3.007  1.00 20.00     0.017 C 
BRANCH   4   5
HETATM    5  C7  UNL     1     -32.865   7.405   4.422  1.00 20.00    -0.012 C 
HETATM    6  C4  UNL     1     -32.679   8.561   5.413  1.00 20.00     0.005 C 
HETATM    7  C3  UNL     1     -33.103   8.172   6.827  1.00 20.00     0.002 C 
HETATM    8  C5  UNL     1     -34.537   7.645   6.860  1.00 20.00     0.020 C 
HETATM    9  C8  UNL     1     -34.779   6.507   5.867  1.00 20.00     0.082 C 
HETATM   10  C6  UNL     1     -34.310   6.881   4.458  1.00 20.00     0.024 C 
HETATM   11 CL11 UNL     1     -33.963   5.010   6.421  1.00 20.00    -0.125 Cl
ENDBRANCH   4   5
ENDBRANCH   3   4
TORSDOF 2
