REMARK  6 active torsions:
REMARK  status: ('A' for Active; 'I' for Inactive)
REMARK    1  A    between atoms: C1_1  and  C4_4 
REMARK    2  A    between atoms: C1_1  and  C8_8 
REMARK    3  A    between atoms: C8_8  and  C9_9 
REMARK    4  A    between atoms: C9_9  and  C10_10 
REMARK    5  A    between atoms: C10_10  and  C11_11 
REMARK    6  A    between atoms: C11_11  and  C12_12 
ROOT
HETATM    1  C9  UNL     1     -32.746   8.946   5.081  1.00 20.00     0.007 C 
ENDROOT
BRANCH   1   2
HETATM    2  C8  UNL     1     -31.994   8.987   3.752  1.00 20.00     0.079 C 
BRANCH   2   3
HETATM    3  C1  UNL     1     -32.879   9.325   2.569  1.00 20.00     0.131 C 
HETATM    4  O13 UNL     1     -34.087   9.516   2.635  1.00 20.00    -0.298 OA
BRANCH   3   5
HETATM    5  C4  UNL     1     -32.187   9.384   1.249  1.00 20.00     0.055 A 
HETATM    6  C2  UNL     1     -32.559   8.386   0.203  1.00 20.00     0.013 A 
HETATM    7  C3  UNL     1     -32.969   9.821   0.055  1.00 20.00     0.013 A 
ENDBRANCH   3   5
ENDBRANCH   2   3
ENDBRANCH   1   2
BRANCH   1   8
HETATM    8  C10 UNL     1     -33.862   7.894   5.090  1.00 20.00     0.001 C 
BRANCH   8   9
HETATM    9  C11 UNL     1     -33.290   6.485   4.885  1.00 20.00     0.008 C 
BRANCH   9  10
HETATM   10  C12 UNL     1     -34.319   5.324   4.937  1.00 20.00    -0.051 C 
HETATM   11  C5  UNL     1     -33.782   4.168   4.070  1.00 20.00     0.014 C 
HETATM   12  C6  UNL     1     -35.681   5.762   4.376  1.00 20.00     0.014 C 
HETATM   13  C7  UNL     1     -34.505   4.809   6.374  1.00 20.00     0.014 C 
ENDBRANCH   9  10
ENDBRANCH   8   9
ENDBRANCH   1   8
TORSDOF 6
