REMARK  1 active torsions:
REMARK  status: ('A' for Active; 'I' for Inactive)
REMARK    1  A    between atoms: C4_4  and  C7_7 
ROOT
HETATM    1  C1  UNL     1     -33.377   5.983   3.929  1.00 20.00     0.006 C 
HETATM    2  C2  UNL     1     -33.092   6.157   2.434  1.00 20.00     0.020 C 
HETATM    3  C3  UNL     1     -32.742   8.281   3.463  1.00 20.00     0.024 C 
HETATM    4  C4  UNL     1     -32.918   7.283   4.609  1.00 20.00    -0.013 C 
HETATM    5  C5  UNL     1     -32.211   7.396   2.345  1.00 20.00     0.082 C 
HETATM    6 CL8  UNL     1     -32.306   8.180   0.762  1.00 20.00    -0.125 Cl
ENDROOT
BRANCH   4   7
HETATM    7  C7  UNL     1     -33.879   7.772   5.680  1.00 20.00     0.000 C 
HETATM    8  C6  UNL     1     -34.035   6.776   6.784  1.00 20.00     0.005 C 
ENDBRANCH   4   7
TORSDOF 1
