REMARK  1 active torsions:
REMARK  status: ('A' for Active; 'I' for Inactive)
REMARK    1  A    between atoms: C6_6  and  C7_7 
ROOT
HETATM    1  C1  UNL     1     -34.740   4.852   6.123  1.00 20.00     0.002 C 
HETATM    2  C2  UNL     1     -35.229   5.072   4.688  1.00 20.00     0.006 C 
HETATM    3  C5  UNL     1     -33.889   6.070   6.485  1.00 20.00     0.020 C 
HETATM    4  C7  UNL     1     -34.341   6.183   4.114  1.00 20.00     0.008 C 
HETATM    5  C8  UNL     1     -34.127   7.062   5.352  1.00 20.00     0.086 C 
HETATM    6 CL9  UNL     1     -32.831   8.259   5.214  1.00 20.00    -0.125 Cl
ENDROOT
BRANCH   4   7
HETATM    7  C6  UNL     1     -33.085   5.615   3.502  1.00 20.00    -0.009 A 
HETATM    8  C3  UNL     1     -33.094   5.111   2.085  1.00 20.00     0.005 A 
HETATM    9  C4  UNL     1     -32.355   6.375   2.429  1.00 20.00     0.005 A 
ENDBRANCH   4   7
TORSDOF 1
