REMARK  1 active torsions:
REMARK  status: ('A' for Active; 'I' for Inactive)
REMARK    1  A    between atoms: C7_7  and  C8_8 
ROOT
HETATM    1  C1  UNL     1     -33.841   5.582   2.851  1.00 20.00     0.002 C 
HETATM    2  C2  UNL     1     -32.511   6.215   2.444  1.00 20.00     0.005 C 
HETATM    3  C5  UNL     1     -34.129   5.781   4.337  1.00 20.00     0.016 C 
HETATM    4  C6  UNL     1     -32.725   7.887   4.329  1.00 20.00     0.020 C 
HETATM    5  C8  UNL     1     -32.400   7.695   2.839  1.00 20.00    -0.009 C 
HETATM    6  C9  UNL     1     -34.059   7.255   4.721  1.00 20.00     0.058 C 
HETATM    7 BR10 UNL     1     -34.306   7.426   6.655  1.00 20.00    -0.091 Br
ENDROOT
BRANCH   5   8
HETATM    8  C7  UNL     1     -33.274   8.585   1.951  1.00 20.00    -0.010 A 
HETATM    9  C3  UNL     1     -32.934  10.038   1.766  1.00 20.00     0.005 A 
HETATM   10  C4  UNL     1     -32.756   9.073   0.627  1.00 20.00     0.005 A 
ENDBRANCH   5   8
TORSDOF 1
