REMARK  2 active torsions:
REMARK  status: ('A' for Active; 'I' for Inactive)
REMARK    1  A    between atoms: C6_6  and  C7_7 
REMARK    2  A    between atoms: C8_8  and  O9_9 
ROOT
HETATM    1  C1  UNL     1     -33.705   5.310   3.521  1.00 20.00     0.003 C 
HETATM    2  C2  UNL     1     -32.778   5.618   4.695  1.00 20.00     0.007 C 
HETATM    3  C5  UNL     1     -35.121   5.673   3.974  1.00 20.00     0.032 C 
HETATM    4  C7  UNL     1     -33.568   6.563   5.603  1.00 20.00     0.018 C 
HETATM    5  C8  UNL     1     -35.002   6.052   5.447  1.00 20.00     0.122 C 
ENDROOT
BRANCH   4   6
HETATM    6  C6  UNL     1     -33.423   8.021   5.168  1.00 20.00    -0.008 A 
HETATM    7  C3  UNL     1     -32.059   8.638   5.032  1.00 20.00     0.005 A 
HETATM    8  C4  UNL     1     -32.881   8.353   3.806  1.00 20.00     0.005 A 
ENDBRANCH   4   6
BRANCH   5   9
HETATM    9  O9  UNL     1     -35.184   4.875   6.232  1.00 20.00    -0.395 OA
HETATM   10  H23 UNL     1     -36.070   4.532   6.029  1.00 20.00     0.210 HD
ENDBRANCH   5   9
TORSDOF 2
