REMARK  1 active torsions:
REMARK  status: ('A' for Active; 'I' for Inactive)
REMARK    1  A    between atoms: C8_8  and  C9_9 
ROOT
HETATM    1  C1  UNL     1     -32.866   9.627   0.122  1.00 20.00     0.012 C 
HETATM    2  C2  UNL     1     -32.536   8.679   0.780  1.00 20.00    -0.117 C 
HETATM    3  C9  UNL     1     -32.125   7.518   1.576  1.00 20.00     0.098 C 
ENDROOT
BRANCH   3   4
HETATM    4  C8  UNL     1     -32.914   7.442   2.881  1.00 20.00     0.004 C 
HETATM    5  C5  UNL     1     -32.893   6.017   3.439  1.00 20.00     0.083 C 
HETATM    6  C3  UNL     1     -33.580   5.960   4.786  1.00 20.00     0.127 C 
HETATM    7  C4  UNL     1     -33.139   6.978   5.812  1.00 20.00     0.078 C 
HETATM    8  O10 UNL     1     -34.380   5.068   5.064  1.00 20.00    -0.298 OA
HETATM    9  C6  UNL     1     -33.151   8.378   5.215  1.00 20.00     0.008 C 
HETATM   10  C7  UNL     1     -32.363   8.444   3.907  1.00 20.00     0.006 C 
ENDBRANCH   3   4
TORSDOF 1
