REMARK  2 active torsions:
REMARK  status: ('A' for Active; 'I' for Inactive)
REMARK    1  A    between atoms: C9_9  and  C11_11 
REMARK    2  A    between atoms: C10_10  and  C11_11 
ROOT
HETATM    1  C1  UNL     1     -32.473  10.148   0.349  1.00 20.00     0.012 C 
HETATM    2  C2  UNL     1     -32.911   9.529   1.280  1.00 20.00    -0.117 C 
HETATM    3  C10 UNL     1     -33.452   8.773   2.417  1.00 20.00     0.093 C 
ENDROOT
BRANCH   3   4
HETATM    4  C11 UNL     1     -32.342   8.001   3.099  1.00 20.00     0.017 C 
BRANCH   4   5
HETATM    5  C9  UNL     1     -32.895   7.191   4.278  1.00 20.00    -0.007 C 
HETATM    6  C5  UNL     1     -33.914   6.168   3.760  1.00 20.00     0.082 C 
HETATM    7  C3  UNL     1     -34.033   4.932   4.625  1.00 20.00     0.127 C 
HETATM    8  C4  UNL     1     -34.079   5.068   6.130  1.00 20.00     0.078 C 
HETATM    9  O12 UNL     1     -34.087   3.814   4.104  1.00 20.00    -0.298 OA
HETATM   10  C6  UNL     1     -34.766   6.332   6.629  1.00 20.00     0.007 C 
HETATM   11  C7  UNL     1     -33.834   7.540   6.661  1.00 20.00     0.001 C 
HETATM   12  C8  UNL     1     -33.525   8.155   5.298  1.00 20.00     0.005 C 
ENDBRANCH   4   5
ENDBRANCH   3   4
TORSDOF 2
