REMARK  2 active torsions:
REMARK  status: ('A' for Active; 'I' for Inactive)
REMARK    1  A    between atoms: C8_8  and  C10_10 
REMARK    2  A    between atoms: C9_9  and  C10_10 
ROOT
HETATM    1  C1  UNL     1     -32.581   9.257  -0.227  1.00 20.00     0.012 C 
HETATM    2  C2  UNL     1     -32.531   8.542   0.736  1.00 20.00    -0.117 C 
HETATM    3  C9  UNL     1     -32.465   7.665   1.913  1.00 20.00     0.093 C 
ENDROOT
BRANCH   3   4
HETATM    4  C10 UNL     1     -33.387   8.179   3.001  1.00 20.00     0.017 C 
BRANCH   4   5
HETATM    5  C8  UNL     1     -33.322   7.281   4.235  1.00 20.00    -0.007 C 
HETATM    6  C5  UNL     1     -34.146   6.009   4.019  1.00 20.00     0.082 C 
HETATM    7  C3  UNL     1     -34.172   5.169   5.276  1.00 20.00     0.127 C 
HETATM    8  C4  UNL     1     -34.553   5.880   6.554  1.00 20.00     0.078 C 
HETATM    9  O11 UNL     1     -33.993   3.953   5.244  1.00 20.00    -0.298 OA
HETATM   10  C6  UNL     1     -33.731   7.150   6.724  1.00 20.00     0.008 C 
HETATM   11  C7  UNL     1     -33.799   8.039   5.483  1.00 20.00     0.005 C 
ENDBRANCH   4   5
ENDBRANCH   3   4
TORSDOF 2
