REMARK  1 active torsions:
REMARK  status: ('A' for Active; 'I' for Inactive)
REMARK    1  A    between atoms: C4_4  and  C9_9 
ROOT
HETATM    1  C1  UNL     1     -33.309   6.221   3.274  1.00 20.00     0.006 C 
HETATM    2  C2  UNL     1     -34.448   5.304   3.729  1.00 20.00     0.016 C 
HETATM    3  C3  UNL     1     -34.497   7.407   4.969  1.00 20.00     0.021 C 
HETATM    4  C4  UNL     1     -33.080   7.177   4.441  1.00 20.00    -0.006 C 
HETATM    5  C5  UNL     1     -35.145   6.031   4.879  1.00 20.00     0.058 C 
HETATM    6 BR10 UNL     1     -34.872   5.056   6.554  1.00 20.00    -0.091 Br
ENDROOT
BRANCH   4   7
HETATM    7  C9  UNL     1     -32.381   8.462   4.032  1.00 20.00    -0.048 C 
HETATM    8  C6  UNL     1     -30.984   8.145   3.463  1.00 20.00     0.015 C 
HETATM    9  C7  UNL     1     -32.224   9.390   5.252  1.00 20.00     0.015 C 
HETATM   10  C8  UNL     1     -33.205   9.191   2.953  1.00 20.00     0.015 C 
ENDBRANCH   4   7
TORSDOF 1
