REMARK  4 active torsions:
REMARK  status: ('A' for Active; 'I' for Inactive)
REMARK    1  A    between atoms: C5_5  and  C8_8 
REMARK    2  A    between atoms: C6_6  and  C7_7 
REMARK    3  A    between atoms: C6_6  and  C8_8 
REMARK    4  A    between atoms: C7_7  and  C9_9 
ROOT
HETATM    1  C6  UNL     1     -33.344   7.487   3.686  1.00 20.00     0.021 C 
ENDROOT
BRANCH   1   2
HETATM    2  C7  UNL     1     -34.002   7.221   5.050  1.00 20.00     0.010 C 
BRANCH   2   3
HETATM    3  C9  UNL     1     -34.578   5.792   5.253  1.00 20.00    -0.051 C 
HETATM    4  C2  UNL     1     -34.553   5.476   6.761  1.00 20.00     0.014 C 
HETATM    5  C3  UNL     1     -33.728   4.741   4.520  1.00 20.00     0.014 C 
HETATM    6  C4  UNL     1     -36.032   5.700   4.762  1.00 20.00     0.014 C 
ENDBRANCH   2   3
ENDBRANCH   1   2
BRANCH   1   7
HETATM    7  C8  UNL     1     -32.845   8.934   3.525  1.00 20.00     0.082 C 
HETATM    8 CL10 UNL     1     -32.081   9.505   5.043  1.00 20.00    -0.125 Cl
BRANCH   7   9
HETATM    9  C5  UNL     1     -31.852   9.038   2.358  1.00 20.00     0.016 C 
HETATM   10  C1  UNL     1     -32.447   8.640   1.013  1.00 20.00     0.006 C 
ENDBRANCH   7   9
ENDBRANCH   1   7
TORSDOF 4
