REMARK  1 active torsions:
REMARK  status: ('A' for Active; 'I' for Inactive)
REMARK    1  A    between atoms: C8_8  and  C10_10 
ROOT
HETATM    1  C1  UNL     1     -32.884   9.809   1.966  1.00 20.00     0.012 C 
HETATM    2  C2  UNL     1     -32.551   9.229   2.963  1.00 20.00    -0.117 C 
HETATM    3  C10 UNL     1     -32.127   8.531   4.176  1.00 20.00     0.097 C 
ENDROOT
BRANCH   3   4
HETATM    4  C8  UNL     1     -33.250   7.625   4.702  1.00 20.00    -0.002 C 
HETATM    5  C5  UNL     1     -33.033   7.362   6.200  1.00 20.00     0.005 C 
HETATM    6  C3  UNL     1     -34.292   6.864   6.901  1.00 20.00     0.000 C 
HETATM    7  C4  UNL     1     -34.541   5.363   6.830  1.00 20.00     0.001 C 
HETATM    8  C6  UNL     1     -34.103   4.615   5.573  1.00 20.00     0.016 C 
HETATM    9  C9  UNL     1     -34.311   5.268   4.214  1.00 20.00     0.058 C 
HETATM   10  C7  UNL     1     -33.301   6.351   3.845  1.00 20.00     0.021 C 
HETATM   11 BR11 UNL     1     -36.147   5.863   3.946  1.00 20.00    -0.091 Br
ENDBRANCH   3   4
TORSDOF 1
