REMARK  3 active torsions:
REMARK  status: ('A' for Active; 'I' for Inactive)
REMARK    1  A    between atoms: C5_5  and  C9_9 
REMARK    2  A    between atoms: C9_9  and  C11_11 
REMARK    3  A    between atoms: C10_10  and  C11_11 
ROOT
HETATM    1  C1  UNL     1     -33.018   5.750   6.685  1.00 20.00     0.002 C 
HETATM    2  C2  UNL     1     -33.268   7.187   6.236  1.00 20.00     0.005 C 
HETATM    3  C3  UNL     1     -34.251   4.878   6.464  1.00 20.00     0.020 C 
HETATM    4  C4  UNL     1     -34.911   6.340   4.494  1.00 20.00     0.024 C 
HETATM    5  C5  UNL     1     -33.734   7.291   4.778  1.00 20.00    -0.013 C 
HETATM    6  C6  UNL     1     -34.757   4.909   5.022  1.00 20.00     0.082 C 
HETATM    7 CL12 UNL     1     -33.696   3.933   3.962  1.00 20.00    -0.125 Cl
ENDROOT
BRANCH   5   8
HETATM    8  C9  UNL     1     -32.569   7.119   3.801  1.00 20.00     0.009 C 
BRANCH   8   9
HETATM    9  C11 UNL     1     -32.843   7.705   2.402  1.00 20.00    -0.019 C 
HETATM   10  C8  UNL     1     -31.928   7.088   1.340  1.00 20.00     0.010 C 
BRANCH   9  11
HETATM   11  C10 UNL     1     -32.682   9.239   2.469  1.00 20.00    -0.000 C 
HETATM   12  C7  UNL     1     -32.987   9.948   1.157  1.00 20.00     0.005 C 
ENDBRANCH   9  11
ENDBRANCH   8   9
ENDBRANCH   5   8
TORSDOF 3
