REMARK  1 active torsions:
REMARK  status: ('A' for Active; 'I' for Inactive)
REMARK    1  A    between atoms: C7_7  and  C9_9 
ROOT
HETATM    1  C1  UNL     1     -32.508   9.163   0.148  1.00 20.00     0.012 C 
HETATM    2  C2  UNL     1     -32.393   8.326   1.002  1.00 20.00    -0.117 C 
HETATM    3  C9  UNL     1     -32.244   7.300   2.037  1.00 20.00     0.097 C 
ENDROOT
BRANCH   3   4
HETATM    4  C7  UNL     1     -33.221   7.535   3.187  1.00 20.00    -0.002 C 
HETATM    5  C4  UNL     1     -32.712   8.650   4.110  1.00 20.00     0.005 C 
HETATM    6  C3  UNL     1     -33.647   8.871   5.298  1.00 20.00     0.002 C 
HETATM    7  C5  UNL     1     -33.886   7.579   6.075  1.00 20.00     0.020 C 
HETATM    8  C8  UNL     1     -34.398   6.470   5.157  1.00 20.00     0.082 C 
HETATM    9  C6  UNL     1     -33.456   6.237   3.974  1.00 20.00     0.025 C 
HETATM   10 CL10 UNL     1     -34.591   4.955   6.085  1.00 20.00    -0.125 Cl
ENDBRANCH   3   4
TORSDOF 1
