REMARK  2 active torsions:
REMARK  status: ('A' for Active; 'I' for Inactive)
REMARK    1  A    between atoms: C4_4  and  C10_10 
REMARK    2  A    between atoms: C8_8  and  C10_10 
ROOT
HETATM    1  C5  UNL     1     -34.635   6.365   3.499  1.00 20.00     0.006 C 
HETATM    2  C6  UNL     1     -35.535   5.674   4.525  1.00 20.00     0.020 C 
HETATM    3  C7  UNL     1     -33.795   6.717   5.763  1.00 20.00     0.025 C 
HETATM    4  C8  UNL     1     -33.451   6.947   4.287  1.00 20.00    -0.009 C 
HETATM    5  C9  UNL     1     -34.663   5.464   5.757  1.00 20.00     0.082 C 
HETATM    6 CL12 UNL     1     -33.666   3.992   5.585  1.00 20.00    -0.125 Cl
ENDROOT
BRANCH   4   7
HETATM    7  C10 UNL     1     -33.184   8.410   3.969  1.00 20.00     0.043 C 
BRANCH   7   8
HETATM    8  C4  UNL     1     -32.861   8.617   2.512  1.00 20.00    -0.051 A 
HETATM    9  C1  UNL     1     -32.185   7.657   1.705  1.00 20.00     0.014 A 
HETATM   10  C2  UNL     1     -32.016   8.098   0.410  1.00 20.00     0.050 A 
HETATM   11  S11 UNL     1     -32.670   9.663   0.173  1.00 20.00    -0.113 SA
HETATM   12  C3  UNL     1     -33.182   9.755   1.805  1.00 20.00     0.056 A 
ENDBRANCH   7   8
ENDBRANCH   4   7
TORSDOF 2
