REMARK  2 active torsions:
REMARK  status: ('A' for Active; 'I' for Inactive)
REMARK    1  A    between atoms: C8_8  and  C10_10 
REMARK    2  A    between atoms: C9_9  and  O11_11 
ROOT
HETATM    1  C1  UNL     1     -32.607   9.124   0.349  1.00 20.00     0.012 C 
HETATM    2  C2  UNL     1     -32.485   8.139   1.024  1.00 20.00    -0.117 C 
HETATM    3  C10 UNL     1     -32.326   6.931   1.834  1.00 20.00     0.097 C 
ENDROOT
BRANCH   3   4
HETATM    4  C8  UNL     1     -32.997   7.101   3.203  1.00 20.00    -0.001 C 
HETATM    5  C5  UNL     1     -32.100   7.975   4.092  1.00 20.00     0.005 C 
HETATM    6  C3  UNL     1     -32.386   7.977   5.592  1.00 20.00     0.000 C 
HETATM    7  C4  UNL     1     -33.858   7.898   5.978  1.00 20.00     0.002 C 
HETATM    8  C6  UNL     1     -34.363   6.461   6.059  1.00 20.00     0.032 C 
HETATM    9  C9  UNL     1     -34.556   5.755   4.719  1.00 20.00     0.118 C 
HETATM   10  C7  UNL     1     -33.326   5.729   3.806  1.00 20.00     0.037 C 
BRANCH   9  11
HETATM   11  O11 UNL     1     -34.917   4.396   4.985  1.00 20.00    -0.396 OA
HETATM   12  H27 UNL     1     -35.739   4.431   5.494  1.00 20.00     0.210 HD
ENDBRANCH   9  11
ENDBRANCH   3   4
TORSDOF 2
