REMARK  4 active torsions:
REMARK  status: ('A' for Active; 'I' for Inactive)
REMARK    1  A    between atoms: C1_1  and  C6_6 
REMARK    2  A    between atoms: C1_1  and  C8_8 
REMARK    3  A    between atoms: C7_7  and  C9_9 
REMARK    4  A    between atoms: C8_8  and  C9_9 
ROOT
HETATM    1  C1  UNL     1     -32.319   7.502   3.084  1.00 20.00     0.131 C 
HETATM    2  O10 UNL     1     -32.373   6.284   2.926  1.00 20.00    -0.298 OA
ENDROOT
BRANCH   1   3
HETATM    3  C6  UNL     1     -31.852   8.409   1.975  1.00 20.00     0.055 A 
HETATM    4  C2  UNL     1     -32.548   8.327   0.665  1.00 20.00     0.013 A 
HETATM    5  C3  UNL     1     -32.750   9.516   1.555  1.00 20.00     0.013 A 
ENDBRANCH   1   3
BRANCH   1   6
HETATM    6  C8  UNL     1     -32.711   8.183   4.384  1.00 20.00     0.079 C 
BRANCH   6   7
HETATM    7  C9  UNL     1     -33.137   7.189   5.460  1.00 20.00     0.012 C 
BRANCH   7   8
HETATM    8  C7  UNL     1     -34.356   6.389   5.029  1.00 20.00    -0.014 A 
HETATM    9  C4  UNL     1     -34.188   5.095   4.283  1.00 20.00     0.005 A 
HETATM   10  C5  UNL     1     -34.682   5.085   5.702  1.00 20.00     0.005 A 
ENDBRANCH   7   8
ENDBRANCH   6   7
ENDBRANCH   1   6
TORSDOF 4
