REMARK  4 active torsions:
REMARK  status: ('A' for Active; 'I' for Inactive)
REMARK    1  A    between atoms: C5_5  and  C8_8 
REMARK    2  A    between atoms: C6_6  and  C9_9 
REMARK    3  A    between atoms: C9_9  and  C10_10 
REMARK    4  A    between atoms: C10_10  and  C11_11 
ROOT
HETATM    1  C1  UNL     1     -33.958   4.919   2.575  1.00 20.00     0.001 C 
HETATM    2  C2  UNL     1     -34.526   5.056   3.985  1.00 20.00     0.005 C 
HETATM    3  C3  UNL     1     -32.530   5.454   2.488  1.00 20.00     0.005 C 
HETATM    4  C4  UNL     1     -33.004   7.030   4.408  1.00 20.00     0.009 C 
HETATM    5  C5  UNL     1     -34.443   6.499   4.497  1.00 20.00    -0.014 C 
HETATM    6  C6  UNL     1     -32.394   6.893   3.004  1.00 20.00    -0.014 C 
ENDROOT
BRANCH   6   7
HETATM    7  C9  UNL     1     -32.994   7.905   2.024  1.00 20.00     0.005 C 
BRANCH   7   8
HETATM    8  C10 UNL     1     -32.414   9.297   2.249  1.00 20.00     0.015 C 
BRANCH   8   9
HETATM    9  C11 UNL     1     -32.992  10.289   1.248  1.00 20.00     0.114 C 
HETATM   10 CL12 UNL     1     -32.598   9.794  -0.415  1.00 20.00    -0.130 Cl
ENDBRANCH   8   9
ENDBRANCH   7   8
ENDBRANCH   6   7
BRANCH   5  11
HETATM   11  C8  UNL     1     -34.960   6.589   5.933  1.00 20.00     0.000 C 
HETATM   12  C7  UNL     1     -34.138   5.762   6.866  1.00 20.00     0.005 C 
ENDBRANCH   5  11
TORSDOF 4
