REMARK  2 active torsions:
REMARK  status: ('A' for Active; 'I' for Inactive)
REMARK    1  A    between atoms: C7_7  and  C10_10 
REMARK    2  A    between atoms: C9_9  and  C10_10 
ROOT
HETATM    1  C2  UNL     1     -33.133   9.769   1.566  1.00 20.00     0.006 C 
HETATM    2  C3  UNL     1     -33.241   9.467   0.068  1.00 20.00     0.020 C 
HETATM    3  C5  UNL     1     -31.931   7.726   1.038  1.00 20.00     0.025 C 
HETATM    4  C7  UNL     1     -32.095   8.786   2.128  1.00 20.00    -0.011 C 
HETATM    5  C8  UNL     1     -32.062   8.550  -0.233  1.00 20.00     0.082 C 
HETATM    6 CL12 UNL     1     -32.337   7.544  -1.662  1.00 20.00    -0.125 Cl
ENDROOT
BRANCH   4   7
HETATM    7  C10 UNL     1     -32.491   8.199   3.473  1.00 20.00     0.036 C 
BRANCH   7   8
HETATM    8  C9  UNL     1     -33.510   7.086   3.325  1.00 20.00     0.121 C 
HETATM    9  C4  UNL     1     -34.306   6.820   4.591  1.00 20.00     0.034 C 
HETATM   10  C1  UNL     1     -34.699   5.377   4.402  1.00 20.00     0.029 C 
HETATM   11  C6  UNL     1     -33.458   4.796   3.758  1.00 20.00     0.168 C 
HETATM   12  O11 UNL     1     -32.843   5.853   3.005  1.00 20.00    -0.386 OA
ENDBRANCH   7   8
ENDBRANCH   4   7
TORSDOF 2
