REMARK  2 active torsions:
REMARK  status: ('A' for Active; 'I' for Inactive)
REMARK    1  A    between atoms: C6_6  and  C7_7 
REMARK    2  A    between atoms: C8_8  and  O9_9 
ROOT
HETATM    1  C3  UNL     1     -34.555   6.252   5.730  1.00 20.00     0.007 C 
HETATM    2  C4  UNL     1     -33.482   7.033   6.481  1.00 20.00     0.032 C 
HETATM    3  C5  UNL     1     -33.982   8.094   4.325  1.00 20.00     0.036 C 
HETATM    4  C7  UNL     1     -34.330   6.605   4.261  1.00 20.00    -0.008 C 
HETATM    5  C8  UNL     1     -33.217   8.282   5.637  1.00 20.00     0.118 C 
ENDROOT
BRANCH   4   6
HETATM    6  C6  UNL     1     -33.216   5.775   3.626  1.00 20.00    -0.010 A 
HETATM    7  C1  UNL     1     -33.501   4.391   3.112  1.00 20.00     0.005 A 
HETATM    8  C2  UNL     1     -33.221   5.509   2.146  1.00 20.00     0.005 A 
ENDBRANCH   4   6
BRANCH   5   9
HETATM    9  O9  UNL     1     -31.827   8.405   5.366  1.00 20.00    -0.396 OA
HETATM   10  H23 UNL     1     -31.382   8.473   6.226  1.00 20.00     0.210 HD
ENDBRANCH   5   9
TORSDOF 2
