REMARK  2 active torsions:
REMARK  status: ('A' for Active; 'I' for Inactive)
REMARK    1  A    between atoms: C2_2  and  C9_9 
REMARK    2  A    between atoms: C7_7  and  C9_9 
ROOT
HETATM    1  C1  UNL     1     -32.491   7.905   1.272  1.00 20.00    -0.111 C 
HETATM    2  C2  UNL     1     -32.615   6.897   1.913  1.00 20.00    -0.107 C 
HETATM    3  C8  UNL     1     -32.341   9.132   0.491  1.00 20.00     0.112 C 
ENDROOT
BRANCH   2   4
HETATM    4  C9  UNL     1     -32.764   5.663   2.694  1.00 20.00     0.099 C 
BRANCH   4   5
HETATM    5  C7  UNL     1     -33.876   5.792   3.722  1.00 20.00     0.004 C 
HETATM    6  C5  UNL     1     -33.616   6.900   4.744  1.00 20.00     0.083 C 
HETATM    7  C3  UNL     1     -34.418   6.421   5.927  1.00 20.00     0.127 C 
HETATM    8  C4  UNL     1     -34.876   4.995   5.766  1.00 20.00     0.079 C 
HETATM    9  O10 UNL     1     -34.671   7.113   6.905  1.00 20.00    -0.298 OA
HETATM   10  C6  UNL     1     -34.044   4.534   4.575  1.00 20.00     0.013 C 
ENDBRANCH   4   5
ENDBRANCH   2   4
TORSDOF 2
