REMARK  1 active torsions:
REMARK  status: ('A' for Active; 'I' for Inactive)
REMARK    1  A    between atoms: C4_4  and  C8_8 
ROOT
HETATM    1  C1  UNL     1     -32.594   9.579   0.530  1.00 20.00     0.135 A 
HETATM    2  C2  UNL     1     -32.857  10.049   1.798  1.00 20.00     0.136 A 
HETATM    3  C3  UNL     1     -32.212   7.492   1.383  1.00 20.00     0.143 A 
HETATM    4  C4  UNL     1     -32.474   7.962   2.651  1.00 20.00     0.056 A 
HETATM    5  N10 UNL     1     -32.267   8.292   0.300  1.00 20.00    -0.270 NA
HETATM    6  N11 UNL     1     -32.802   9.248   2.881  1.00 20.00    -0.262 NA
ENDROOT
BRANCH   4   7
HETATM    7  C8  UNL     1     -32.402   7.030   3.849  1.00 20.00     0.041 C 
HETATM    8  C5  UNL     1     -32.771   7.639   5.213  1.00 20.00     0.012 C 
HETATM    9  C6  UNL     1     -34.225   7.242   5.499  1.00 20.00     0.021 C 
HETATM   10  C9  UNL     1     -34.671   6.397   4.309  1.00 20.00     0.083 C 
HETATM   11  C7  UNL     1     -33.377   5.852   3.718  1.00 20.00     0.031 C 
HETATM   12 CL12 UNL     1     -35.788   5.103   4.779  1.00 20.00    -0.125 Cl
ENDBRANCH   4   7
TORSDOF 1
