REMARK  1 active torsions:
REMARK  status: ('A' for Active; 'I' for Inactive)
REMARK    1  A    between atoms: C9_9  and  C10_10 
ROOT
HETATM    1  C1  UNL     1     -32.502   8.615   0.597  1.00 20.00     0.012 C 
HETATM    2  C2  UNL     1     -32.469   7.664   1.330  1.00 20.00    -0.117 C 
HETATM    3  C10 UNL     1     -32.416   6.499   2.213  1.00 20.00     0.098 C 
ENDROOT
BRANCH   3   4
HETATM    4  C9  UNL     1     -33.441   6.627   3.345  1.00 20.00     0.004 C 
HETATM    5  C5  UNL     1     -32.900   7.591   4.403  1.00 20.00     0.083 C 
HETATM    6  C3  UNL     1     -33.835   7.738   5.582  1.00 20.00     0.127 C 
HETATM    7  C4  UNL     1     -33.832   6.607   6.580  1.00 20.00     0.078 C 
HETATM    8  O11 UNL     1     -34.588   8.703   5.699  1.00 20.00    -0.298 OA
HETATM    9  C6  UNL     1     -34.856   5.536   6.244  1.00 20.00     0.007 C 
HETATM   10  C7  UNL     1     -35.050   5.211   4.761  1.00 20.00     0.001 C 
HETATM   11  C8  UNL     1     -33.785   5.228   3.897  1.00 20.00     0.006 C 
ENDBRANCH   3   4
TORSDOF 1
