REMARK  3 active torsions:
REMARK  status: ('A' for Active; 'I' for Inactive)
REMARK    1  A    between atoms: C2_2  and  C9_9 
REMARK    2  A    between atoms: C6_6  and  C9_9 
REMARK    3  A    between atoms: C7_7  and  O10_10 
ROOT
HETATM    1  C1  UNL     1     -32.290   7.929   1.206  1.00 20.00    -0.111 C 
HETATM    2  C2  UNL     1     -32.365   7.408   2.285  1.00 20.00    -0.107 C 
HETATM    3  C8  UNL     1     -32.199   8.564  -0.108  1.00 20.00     0.112 C 
ENDROOT
BRANCH   2   4
HETATM    4  C9  UNL     1     -32.454   6.767   3.603  1.00 20.00     0.098 C 
BRANCH   4   5
HETATM    5  C6  UNL     1     -33.221   7.642   4.593  1.00 20.00    -0.001 C 
HETATM    6  C3  UNL     1     -32.976   7.232   6.043  1.00 20.00     0.008 C 
HETATM    7  C4  UNL     1     -33.924   6.062   6.279  1.00 20.00     0.032 C 
HETATM    8  C7  UNL     1     -35.109   6.295   5.340  1.00 20.00     0.118 C 
HETATM    9  C5  UNL     1     -34.738   7.487   4.455  1.00 20.00     0.037 C 
BRANCH   8  10
HETATM   10  O10 UNL     1     -35.317   5.132   4.550  1.00 20.00    -0.396 OA
HETATM   11  H24 UNL     1     -35.500   4.406   5.167  1.00 20.00     0.210 HD
ENDBRANCH   8  10
ENDBRANCH   4   5
ENDBRANCH   2   4
TORSDOF 3
