REMARK  4 active torsions:
REMARK  status: ('A' for Active; 'I' for Inactive)
REMARK    1  A    between atoms: C4_4  and  C8_8 
REMARK    2  A    between atoms: C5_5  and  C9_9 
REMARK    3  A    between atoms: C5_5  and  O11_11 
REMARK    4  A    between atoms: C9_9  and  C10_10 
ROOT
HETATM    1  C1  UNL     1     -32.532   6.313   2.185  1.00 20.00     0.007 C 
HETATM    2  C2  UNL     1     -33.371   6.031   3.437  1.00 20.00     0.038 C 
HETATM    3  C3  UNL     1     -33.623   8.355   2.934  1.00 20.00     0.042 C 
HETATM    4  C4  UNL     1     -32.524   7.837   2.000  1.00 20.00    -0.012 C 
HETATM    5  C5  UNL     1     -33.559   7.389   4.115  1.00 20.00     0.058 C 
ENDROOT
BRANCH   5   6
HETATM    6  C9  UNL     1     -34.790   7.455   5.006  1.00 20.00     0.037 C 
BRANCH   6   7
HETATM    7  C10 UNL     1     -35.001   6.146   5.765  1.00 20.00    -0.002 C 
HETATM    8  C7  UNL     1     -33.801   5.806   6.634  1.00 20.00     0.005 C 
ENDBRANCH   6   7
ENDBRANCH   5   6
BRANCH   5   9
HETATM    9  O11 UNL     1     -32.407   7.694   4.900  1.00 20.00    -0.390 OA
HETATM   10  H31 UNL     1     -32.573   8.558   5.306  1.00 20.00     0.210 HD
ENDBRANCH   5   9
BRANCH   4  11
HETATM   11  C8  UNL     1     -32.726   8.266   0.556  1.00 20.00     0.000 C 
HETATM   12  C6  UNL     1     -32.721   9.755   0.410  1.00 20.00     0.005 C 
ENDBRANCH   4  11
TORSDOF 4
