REMARK  1 active torsions:
REMARK  status: ('A' for Active; 'I' for Inactive)
REMARK    1  A    between atoms: C7_7  and  C9_9 
ROOT
HETATM    1  C1  UNL     1     -32.492   9.352   0.237  1.00 20.00     0.012 C 
HETATM    2  C2  UNL     1     -32.397   8.410   0.975  1.00 20.00    -0.117 C 
HETATM    3  C9  UNL     1     -32.273   7.254   1.866  1.00 20.00     0.097 C 
ENDROOT
BRANCH   3   4
HETATM    4  C7  UNL     1     -33.148   7.424   3.106  1.00 20.00    -0.002 C 
HETATM    5  C4  UNL     1     -32.504   8.378   4.115  1.00 20.00     0.005 C 
HETATM    6  C3  UNL     1     -33.424   8.647   5.309  1.00 20.00     0.002 C 
HETATM    7  C5  UNL     1     -34.333   7.467   5.665  1.00 20.00     0.020 C 
HETATM    8  C8  UNL     1     -33.702   6.140   5.261  1.00 20.00     0.082 C 
HETATM    9  C6  UNL     1     -33.463   6.057   3.747  1.00 20.00     0.025 C 
HETATM   10 CL10 UNL     1     -34.719   4.774   5.798  1.00 20.00    -0.125 Cl
ENDBRANCH   3   4
TORSDOF 1
