REMARK  2 active torsions:
REMARK  status: ('A' for Active; 'I' for Inactive)
REMARK    1  A    between atoms: C5_5  and  C8_8 
REMARK    2  A    between atoms: C8_8  and  C9_9 
ROOT
HETATM    1  C1  UNL     1     -34.004   8.223   5.697  1.00 20.00     0.002 C 
HETATM    2  C2  UNL     1     -32.591   8.465   5.181  1.00 20.00     0.005 C 
HETATM    3  C3  UNL     1     -34.328   6.731   5.825  1.00 20.00     0.020 C 
HETATM    4  C4  UNL     1     -33.214   6.572   3.565  1.00 20.00     0.024 C 
HETATM    5  C5  UNL     1     -32.357   7.832   3.796  1.00 20.00    -0.013 C 
HETATM    6  C6  UNL     1     -33.503   5.852   4.878  1.00 20.00     0.082 C 
HETATM    7 CL10 UNL     1     -34.354   4.312   4.575  1.00 20.00    -0.125 Cl
ENDROOT
BRANCH   5   8
HETATM    8  C8  UNL     1     -32.590   8.842   2.672  1.00 20.00     0.004 C 
BRANCH   8   9
HETATM    9  C9  UNL     1     -32.320   8.221   1.306  1.00 20.00    -0.004 C 
HETATM   10  C7  UNL     1     -32.577   9.217   0.187  1.00 20.00     0.005 C 
ENDBRANCH   8   9
ENDBRANCH   5   8
TORSDOF 2
