REMARK  2 active torsions:
REMARK  status: ('A' for Active; 'I' for Inactive)
REMARK    1  A    between atoms: C6_6  and  C9_9 
REMARK    2  A    between atoms: C8_8  and  C9_9 
ROOT
HETATM    1  C1  UNL     1     -34.106   4.158   4.913  1.00 20.00     0.012 C 
HETATM    2  C2  UNL     1     -34.307   5.041   5.701  1.00 20.00    -0.117 C 
HETATM    3  C8  UNL     1     -34.556   6.118   6.668  1.00 20.00     0.093 C 
ENDROOT
BRANCH   3   4
HETATM    4  C9  UNL     1     -33.664   7.312   6.373  1.00 20.00     0.017 C 
BRANCH   4   5
HETATM    5  C6  UNL     1     -33.925   7.857   4.977  1.00 20.00    -0.012 C 
HETATM    6  C3  UNL     1     -33.395   9.285   4.798  1.00 20.00     0.006 C 
HETATM    7  C4  UNL     1     -32.992   9.350   3.333  1.00 20.00     0.020 C 
HETATM    8  C7  UNL     1     -32.344   7.990   3.124  1.00 20.00     0.082 C 
HETATM    9  C5  UNL     1     -33.259   7.020   3.869  1.00 20.00     0.024 C 
HETATM   10 CL10 UNL     1     -32.172   7.583   1.410  1.00 20.00    -0.125 Cl
ENDBRANCH   4   5
ENDBRANCH   3   4
TORSDOF 2
