REMARK  2 active torsions:
REMARK  status: ('A' for Active; 'I' for Inactive)
REMARK    1  A    between atoms: C6_6  and  C7_7 
REMARK    2  A    between atoms: C8_8  and  O9_9 
ROOT
HETATM    1  C3  UNL     1     -33.882   6.847   6.513  1.00 20.00     0.007 C 
HETATM    2  C4  UNL     1     -34.566   5.530   6.133  1.00 20.00     0.032 C 
HETATM    3  C5  UNL     1     -33.933   6.746   4.127  1.00 20.00     0.036 C 
HETATM    4  C7  UNL     1     -34.010   7.743   5.282  1.00 20.00    -0.008 C 
HETATM    5  C8  UNL     1     -34.786   5.583   4.619  1.00 20.00     0.118 C 
ENDROOT
BRANCH   4   6
HETATM    6  C6  UNL     1     -32.943   8.822   5.213  1.00 20.00    -0.010 A 
HETATM    7  C1  UNL     1     -31.553   8.484   4.750  1.00 20.00     0.005 A 
HETATM    8  C2  UNL     1     -32.453   9.317   3.880  1.00 20.00     0.005 A 
ENDBRANCH   4   6
BRANCH   5   9
HETATM    9  O9  UNL     1     -36.154   5.865   4.341  1.00 20.00    -0.396 OA
HETATM   10  H23 UNL     1     -36.671   5.147   4.738  1.00 20.00     0.210 HD
ENDBRANCH   5   9
TORSDOF 2
