REMARK  3 active torsions:
REMARK  status: ('A' for Active; 'I' for Inactive)
REMARK    1  A    between atoms: C1_1  and  C4_4 
REMARK    2  A    between atoms: C1_1  and  C5_5 
REMARK    3  A    between atoms: C5_5  and  C6_6 
ROOT
HETATM    1  C1  UNL     1     -33.162   6.871   3.601  1.00 20.00     0.139 C 
HETATM    2  O7  UNL     1     -32.113   7.281   3.122  1.00 20.00    -0.297 OA
ENDROOT
BRANCH   1   3
HETATM    3  C4  UNL     1     -33.805   5.643   3.048  1.00 20.00     0.056 A 
HETATM    4  C2  UNL     1     -32.945   4.638   2.356  1.00 20.00     0.013 A 
HETATM    5  C3  UNL     1     -33.522   4.334   3.706  1.00 20.00     0.013 A 
ENDBRANCH   1   3
BRANCH   1   6
HETATM    6  C5  UNL     1     -33.898   7.523   4.751  1.00 20.00     0.196 C 
BRANCH   6   7
HETATM    7  C6  UNL     1     -34.078   6.594   5.930  1.00 20.00     0.394 C 
HETATM    8  F8  UNL     1     -34.747   7.195   6.936  1.00 20.00    -0.171 F 
HETATM    9  F9  UNL     1     -32.891   6.165   6.408  1.00 20.00    -0.171 F 
HETATM   10  F10 UNL     1     -34.788   5.503   5.563  1.00 20.00    -0.171 F 
ENDBRANCH   6   7
ENDBRANCH   1   6
TORSDOF 3
