REMARK  1 active torsions:
REMARK  status: ('A' for Active; 'I' for Inactive)
REMARK    1  A    between atoms: C8_8  and  C10_10 
ROOT
HETATM    1  C1  UNL     1     -32.954   9.366  -0.218  1.00 20.00     0.012 C 
HETATM    2  C2  UNL     1     -32.539   8.534   0.541  1.00 20.00    -0.117 C 
HETATM    3  C10 UNL     1     -32.017   7.518   1.454  1.00 20.00     0.097 C 
ENDROOT
BRANCH   3   4
HETATM    4  C8  UNL     1     -32.953   7.337   2.657  1.00 20.00    -0.002 C 
HETATM    5  C5  UNL     1     -32.709   8.488   3.649  1.00 20.00     0.005 C 
HETATM    6  C3  UNL     1     -33.745   8.634   4.760  1.00 20.00     0.000 C 
HETATM    7  C4  UNL     1     -33.960   7.395   5.627  1.00 20.00     0.001 C 
HETATM    8  C6  UNL     1     -34.734   6.296   4.901  1.00 20.00     0.016 C 
HETATM    9  C9  UNL     1     -33.889   5.367   4.035  1.00 20.00     0.058 C 
HETATM   10  C7  UNL     1     -32.688   5.967   3.305  1.00 20.00     0.021 C 
HETATM   11 BR11 UNL     1     -33.232   3.874   5.147  1.00 20.00    -0.091 Br
ENDBRANCH   3   4
TORSDOF 1
