REMARK  1 active torsions:
REMARK  status: ('A' for Active; 'I' for Inactive)
REMARK    1  A    between atoms: C8_8  and  C9_9 
ROOT
HETATM    1  C1  UNL     1     -32.917   9.816   3.491  1.00 20.00     0.002 C 
HETATM    2  C2  UNL     1     -32.069   8.722   4.142  1.00 20.00     0.005 C 
HETATM    3  C3  UNL     1     -33.167   9.594   1.997  1.00 20.00     0.020 C 
HETATM    4  C5  UNL     1     -32.251   7.240   2.073  1.00 20.00     0.025 C 
HETATM    5  C8  UNL     1     -32.378   7.318   3.609  1.00 20.00    -0.007 C 
HETATM    6  C10 UNL     1     -32.170   8.612   1.393  1.00 20.00     0.082 C 
HETATM    7 CL12 UNL     1     -32.458   8.439  -0.363  1.00 20.00    -0.125 Cl
ENDROOT
BRANCH   5   8
HETATM    8  C9  UNL     1     -33.745   6.847   4.066  1.00 20.00     0.015 C 
HETATM    9  C4  UNL     1     -33.888   6.722   5.568  1.00 20.00     0.033 C 
HETATM   10  C6  UNL     1     -35.090   5.809   5.686  1.00 20.00     0.168 C 
HETATM   11  O11 UNL     1     -35.068   4.943   4.543  1.00 20.00    -0.391 OA
HETATM   12  C7  UNL     1     -34.092   5.439   3.614  1.00 20.00     0.172 C 
ENDBRANCH   5   8
TORSDOF 1
