REMARK  1 active torsions:
REMARK  status: ('A' for Active; 'I' for Inactive)
REMARK    1  A    between atoms: C6_6  and  C8_8 
ROOT
HETATM    1  C1  UNL     1     -32.291   7.907   1.655  1.00 20.00     0.064 C 
HETATM    2  C2  UNL     1     -32.607   8.607   4.019  1.00 20.00     0.019 C 
HETATM    3  C3  UNL     1     -33.952   8.162   4.579  1.00 20.00     0.006 C 
HETATM    4  C4  UNL     1     -33.097   6.295   3.362  1.00 20.00     0.024 C 
HETATM    5  C5  UNL     1     -32.175   7.488   3.060  1.00 20.00     0.093 C 
HETATM    6  C6  UNL     1     -33.797   6.649   4.675  1.00 20.00    -0.014 C 
HETATM    7  N9  UNL     1     -32.382   8.237   0.547  1.00 20.00    -0.197 NA
ENDROOT
BRANCH   6   8
HETATM    8  C8  UNL     1     -35.117   5.923   4.865  1.00 20.00     0.000 C 
HETATM    9  C7  UNL     1     -34.938   4.438   4.912  1.00 20.00     0.005 C 
ENDBRANCH   6   8
TORSDOF 1
