REMARK  6 active torsions:
REMARK  status: ('A' for Active; 'I' for Inactive)
REMARK    1  A    between atoms: C3_3  and  C6_6 
REMARK    2  A    between atoms: C4_4  and  C5_5 
REMARK    3  A    between atoms: C4_4  and  C7_7 
REMARK    4  A    between atoms: C5_5  and  C8_8 
REMARK    5  A    between atoms: C6_6  and  C9_9 
REMARK    6  A    between atoms: C7_7  and  C9_9 
ROOT
HETATM    1  C7  UNL     1     -33.258   6.950   3.463  1.00 20.00     0.004 C 
ENDROOT
BRANCH   1   2
HETATM    2  C4  UNL     1     -34.490   7.020   4.371  1.00 20.00     0.001 C 
BRANCH   2   3
HETATM    3  C5  UNL     1     -35.161   5.650   4.501  1.00 20.00     0.015 C 
BRANCH   3   4
HETATM    4  C8  UNL     1     -34.214   4.634   5.126  1.00 20.00     0.114 C 
HETATM    5 CL10 UNL     1     -33.731   5.156   6.756  1.00 20.00    -0.130 Cl
ENDBRANCH   3   4
ENDBRANCH   2   3
ENDBRANCH   1   2
BRANCH   1   6
HETATM    6  C9  UNL     1     -32.485   8.280   3.368  1.00 20.00    -0.019 C 
HETATM    7  C2  UNL     1     -32.507   8.988   4.728  1.00 20.00     0.010 C 
BRANCH   6   8
HETATM    8  C6  UNL     1     -32.964   9.217   2.240  1.00 20.00     0.004 C 
BRANCH   8   9
HETATM    9  C3  UNL     1     -32.590   8.774   0.822  1.00 20.00    -0.004 C 
HETATM   10  C1  UNL     1     -33.150   9.732  -0.220  1.00 20.00     0.005 C 
ENDBRANCH   8   9
ENDBRANCH   6   8
ENDBRANCH   1   6
TORSDOF 6
