REMARK  3 active torsions:
REMARK  status: ('A' for Active; 'I' for Inactive)
REMARK    1  A    between atoms: C4_4  and  C5_5 
REMARK    2  A    between atoms: C5_5  and  C6_6 
REMARK    3  A    between atoms: C6_6  and  C7_7 
ROOT
HETATM    1  C1  UNL     1     -34.732   6.931   4.532  1.00 20.00     0.033 C 
HETATM    2  C2  UNL     1     -35.108   5.736   5.383  1.00 20.00     0.168 C 
HETATM    3  C3  UNL     1     -33.340   6.846   6.419  1.00 20.00     0.172 C 
HETATM    4  C4  UNL     1     -33.289   7.150   4.932  1.00 20.00     0.011 C 
HETATM    5  O8  UNL     1     -34.340   5.829   6.592  1.00 20.00    -0.391 OA
ENDROOT
BRANCH   4   6
HETATM    6  C5  UNL     1     -32.757   8.533   4.608  1.00 20.00     0.008 C 
BRANCH   6   7
HETATM    7  C6  UNL     1     -32.859   8.841   3.113  1.00 20.00     0.015 C 
BRANCH   7   8
HETATM    8  C7  UNL     1     -32.031   7.861   2.290  1.00 20.00     0.114 C 
HETATM    9 CL9  UNL     1     -32.178   8.229   0.556  1.00 20.00    -0.130 Cl
ENDBRANCH   7   8
ENDBRANCH   6   7
ENDBRANCH   4   6
TORSDOF 3
