REMARK  2 active torsions:
REMARK  status: ('A' for Active; 'I' for Inactive)
REMARK    1  A    between atoms: C7_7  and  C9_9 
REMARK    2  A    between atoms: C8_8  and  O10_10 
ROOT
HETATM    1  C1  UNL     1     -32.269   9.448   1.142  1.00 20.00     0.012 C 
HETATM    2  C2  UNL     1     -32.368   8.959   2.234  1.00 20.00    -0.117 C 
HETATM    3  C9  UNL     1     -32.481   8.370   3.571  1.00 20.00     0.097 C 
ENDROOT
BRANCH   3   4
HETATM    4  C7  UNL     1     -33.358   7.120   3.546  1.00 20.00    -0.001 C 
HETATM    5  C4  UNL     1     -32.575   5.918   2.999  1.00 20.00     0.005 C 
HETATM    6  C3  UNL     1     -33.413   4.641   3.013  1.00 20.00     0.003 C 
HETATM    7  C5  UNL     1     -33.969   4.350   4.403  1.00 20.00     0.032 C 
HETATM    8  C8  UNL     1     -34.751   5.541   4.954  1.00 20.00     0.118 C 
HETATM    9  C6  UNL     1     -33.912   6.819   4.944  1.00 20.00     0.037 C 
BRANCH   8  10
HETATM   10  O10 UNL     1     -35.175   5.258   6.283  1.00 20.00    -0.396 OA
HETATM   11  H24 UNL     1     -35.738   4.469   6.234  1.00 20.00     0.210 HD
ENDBRANCH   8  10
ENDBRANCH   3   4
TORSDOF 2
