REMARK  1 active torsions:
REMARK  status: ('A' for Active; 'I' for Inactive)
REMARK    1  A    between atoms: C8_8  and  C9_9 
ROOT
HETATM    1  C1  UNL     1     -31.869   7.960   3.780  1.00 20.00     0.006 C 
HETATM    2  C2  UNL     1     -31.508   8.460   2.378  1.00 20.00     0.020 C 
HETATM    3  C5  UNL     1     -33.886   8.537   2.556  1.00 20.00     0.025 C 
HETATM    4  C8  UNL     1     -33.368   8.241   3.964  1.00 20.00    -0.009 C 
HETATM    5  C10 UNL     1     -32.713   9.278   1.932  1.00 20.00     0.082 C 
HETATM    6 CL12 UNL     1     -32.843   9.384   0.171  1.00 20.00    -0.125 Cl
ENDROOT
BRANCH   4   7
HETATM    7  C9  UNL     1     -34.116   7.099   4.647  1.00 20.00    -0.006 C 
HETATM    8  C3  UNL     1     -33.569   6.844   6.056  1.00 20.00     0.031 C 
HETATM    9  C6  UNL     1     -34.234   5.623   6.679  1.00 20.00     0.168 C 
HETATM   10  O11 UNL     1     -34.069   4.476   5.845  1.00 20.00    -0.391 OA
HETATM   11  C7  UNL     1     -34.675   4.649   4.565  1.00 20.00     0.168 C 
HETATM   12  C4  UNL     1     -34.036   5.812   3.817  1.00 20.00     0.031 C 
ENDBRANCH   4   7
TORSDOF 1
