REMARK  7 active torsions:
REMARK  status: ('A' for Active; 'I' for Inactive)
REMARK    1  A    between atoms: C4_4  and  C8_8 
REMARK    2  A    between atoms: C5_5  and  C6_6 
REMARK    3  A    between atoms: C5_5  and  C7_7 
REMARK    4  A    between atoms: C6_6  and  C9_9 
REMARK    5  A    between atoms: C7_7  and  C10_10 
REMARK    6  A    between atoms: C8_8  and  C11_11 
REMARK    7  A    between atoms: C9_9  and  C11_11 
ROOT
HETATM    1  C6  UNL     1     -32.679   8.095   3.440  1.00 20.00     0.001 C 
ENDROOT
BRANCH   1   2
HETATM    2  C5  UNL     1     -34.179   7.894   3.684  1.00 20.00     0.000 C 
BRANCH   2   3
HETATM    3  C7  UNL     1     -34.481   7.074   4.943  1.00 20.00     0.004 C 
BRANCH   3   4
HETATM    4  C10 UNL     1     -33.857   5.666   4.918  1.00 20.00    -0.023 C 
HETATM    5  C2  UNL     1     -34.397   4.880   3.721  1.00 20.00     0.009 C 
HETATM    6  C3  UNL     1     -34.120   4.889   6.209  1.00 20.00     0.009 C 
ENDBRANCH   3   4
ENDBRANCH   2   3
ENDBRANCH   1   2
BRANCH   1   7
HETATM    7  C9  UNL     1     -32.378   8.984   2.225  1.00 20.00     0.020 C 
BRANCH   7   8
HETATM    8  C11 UNL     1     -32.875   8.391   0.896  1.00 20.00     0.082 C 
HETATM    9 CL12 UNL     1     -32.168   6.758   0.644  1.00 20.00    -0.125 Cl
BRANCH   8  10
HETATM   10  C8  UNL     1     -32.519   9.257  -0.324  1.00 20.00     0.020 C 
BRANCH  10  11
HETATM   11  C4  UNL     1     -32.954   8.640  -1.656  1.00 20.00    -0.003 C 
HETATM   12  C1  UNL     1     -34.449   8.359  -1.675  1.00 20.00     0.005 C 
ENDBRANCH  10  11
ENDBRANCH   8  10
ENDBRANCH   7   8
ENDBRANCH   1   7
TORSDOF 7
