REMARK  3 active torsions:
REMARK  status: ('A' for Active; 'I' for Inactive)
REMARK    1  A    between atoms: C4_4  and  C7_7 
REMARK    2  A    between atoms: C7_7  and  C9_9 
REMARK    3  A    between atoms: C8_8  and  C9_9 
ROOT
HETATM    1  C1  UNL     1     -33.542   7.078   5.935  1.00 20.00     0.006 C 
HETATM    2  C2  UNL     1     -34.718   6.146   6.236  1.00 20.00     0.020 C 
HETATM    3  C3  UNL     1     -34.567   6.280   3.868  1.00 20.00     0.024 C 
HETATM    4  C4  UNL     1     -33.375   7.081   4.407  1.00 20.00    -0.013 C 
HETATM    5  C5  UNL     1     -34.896   5.296   4.984  1.00 20.00     0.082 C 
HETATM    6 CL10 UNL     1     -33.757   3.920   4.984  1.00 20.00    -0.125 Cl
ENDROOT
BRANCH   4   7
HETATM    7  C7  UNL     1     -33.296   8.481   3.819  1.00 20.00     0.005 C 
BRANCH   7   8
HETATM    8  C9  UNL     1     -33.092   8.441   2.305  1.00 20.00     0.000 C 
BRANCH   8   9
HETATM    9  C8  UNL     1     -32.980   9.850   1.722  1.00 20.00    -0.005 C 
HETATM   10  C6  UNL     1     -32.743   9.815   0.221  1.00 20.00     0.005 C 
ENDBRANCH   8   9
ENDBRANCH   7   8
ENDBRANCH   4   7
TORSDOF 3
