REMARK  3 active torsions:
REMARK  status: ('A' for Active; 'I' for Inactive)
REMARK    1  A    between atoms: C4_4  and  C7_7 
REMARK    2  A    between atoms: C7_7  and  C9_9 
REMARK    3  A    between atoms: C8_8  and  C9_9 
ROOT
HETATM    1  C1  UNL     1     -33.117   7.025   5.943  1.00 20.00     0.006 C 
HETATM    2  C2  UNL     1     -34.087   5.956   6.429  1.00 20.00     0.020 C 
HETATM    3  C3  UNL     1     -35.161   7.037   4.581  1.00 20.00     0.024 C 
HETATM    4  C4  UNL     1     -33.945   7.891   4.985  1.00 20.00    -0.013 C 
HETATM    5  C5  UNL     1     -34.945   5.661   5.206  1.00 20.00     0.082 C 
HETATM    6 CL10 UNL     1     -34.081   4.584   4.069  1.00 20.00    -0.125 Cl
ENDROOT
BRANCH   4   7
HETATM    7  C7  UNL     1     -33.133   8.369   3.789  1.00 20.00     0.005 C 
BRANCH   7   8
HETATM    8  C9  UNL     1     -32.563   7.194   2.997  1.00 20.00     0.000 C 
BRANCH   8   9
HETATM    9  C8  UNL     1     -31.721   7.677   1.817  1.00 20.00    -0.005 C 
HETATM   10  C6  UNL     1     -32.550   8.493   0.838  1.00 20.00     0.005 C 
ENDBRANCH   8   9
ENDBRANCH   7   8
ENDBRANCH   4   7
TORSDOF 3
