REMARK  3 active torsions:
REMARK  status: ('A' for Active; 'I' for Inactive)
REMARK    1  A    between atoms: C1_1  and  C3_3 
REMARK    2  A    between atoms: C2_2  and  C7_7 
REMARK    3  A    between atoms: C7_7  and  C8_8 
ROOT
HETATM    1  C1  UNL     1     -33.060   8.304   2.168  1.00 20.00     0.005 C 
HETATM    2  C2  UNL     1     -33.166   7.384   2.933  1.00 20.00    -0.090 C 
ENDROOT
BRANCH   2   3
HETATM    3  C7  UNL     1     -33.291   6.253   3.875  1.00 20.00     0.065 C 
HETATM    4  C4  UNL     1     -33.569   4.962   3.101  1.00 20.00     0.024 C 
BRANCH   3   5
HETATM    5  C8  UNL     1     -34.352   6.507   4.978  1.00 20.00    -0.007 C 
HETATM    6  C5  UNL     1     -34.535   5.337   5.951  1.00 20.00     0.011 C 
HETATM    7  C6  UNL     1     -34.056   7.792   5.760  1.00 20.00     0.011 C 
ENDBRANCH   3   5
ENDBRANCH   2   3
BRANCH   1   8
HETATM    8  C3  UNL     1     -32.928   9.481   1.184  1.00 20.00     0.258 C 
HETATM    9  O9  UNL     1     -32.809   9.170  -0.036  1.00 20.00    -0.637 OA
HETATM   10  O10 UNL     1     -32.951  10.637   1.698  1.00 20.00    -0.637 OA
ENDBRANCH   1   8
TORSDOF 3
