REMARK  0 active torsions:
REMARK  status: ('A' for Active; 'I' for Inactive)
ROOT
HETATM    1  C1  UNL     1     -32.553   6.559   2.184  1.00 20.00     0.088 C 
HETATM    2  C2  UNL     1     -33.913   5.632   3.942  1.00 20.00    -0.044 C 
HETATM    3  C3  UNL     1     -33.313   5.505   2.755  1.00 20.00     0.098 C 
HETATM    4  C4  UNL     1     -34.729   4.590   4.623  1.00 20.00     0.063 C 
HETATM    5  C5  UNL     1     -33.805   6.813   4.846  1.00 20.00     0.202 C 
HETATM    6  C6  UNL     1     -34.551   5.004   6.069  1.00 20.00     0.172 C 
HETATM    7  N7  UNL     1     -31.930   7.418   1.713  1.00 20.00    -0.192 NA
HETATM    8  O8  UNL     1     -34.494   6.437   6.053  1.00 20.00    -0.387 OA
ENDROOT
TORSDOF 0
