REMARK  1 active torsions:
REMARK  status: ('A' for Active; 'I' for Inactive)
REMARK    1  A    between atoms: C8_8  and  N9_9 
ROOT
HETATM    1  C1  UNL     1     -33.083   6.381   2.230  1.00 20.00     0.050 C 
HETATM    2  C2  UNL     1     -32.555   8.626   3.215  1.00 20.00     0.050 C 
HETATM    3  C3  UNL     1     -33.261   5.844   3.653  1.00 20.00     0.274 C 
HETATM    4  C4  UNL     1     -32.750   8.017   4.606  1.00 20.00     0.274 C 
HETATM    5  C5  UNL     1     -32.115   7.562   2.212  1.00 20.00     0.085 C 
HETATM    6  N9  UNL     1     -33.709   6.904   4.568  1.00 20.00     0.092 N 
HETATM    7 CL10 UNL     1     -32.021   8.258   0.573  1.00 20.00    -0.125 Cl
ENDROOT
BRANCH   6   8
HETATM    8  C8  UNL     1     -33.921   6.365   5.911  1.00 20.00     0.215 C 
HETATM    9  C6  UNL     1     -34.965   5.260   5.846  1.00 20.00     0.042 C 
HETATM   10  C7  UNL     1     -34.354   7.496   6.833  1.00 20.00     0.042 C 
ENDBRANCH   6   8
TORSDOF 1
