REMARK  3 active torsions:
REMARK  status: ('A' for Active; 'I' for Inactive)
REMARK    1  A    between atoms: C7_7  and  C8_8 
REMARK    2  A    between atoms: C7_7  and  C9_9 
REMARK    3  A    between atoms: C8_8  and  N10_10 
ROOT
HETATM    1  C1  UNL     1     -35.193   5.280   4.927  1.00 20.00     0.052 C 
HETATM    2  C2  UNL     1     -34.436   5.894   3.749  1.00 20.00     0.274 C 
HETATM    3  C3  UNL     1     -33.721   7.031   5.659  1.00 20.00     0.292 C 
HETATM    4  C4  UNL     1     -34.528   5.850   6.178  1.00 20.00     0.112 C 
HETATM    5  N10 UNL     1     -33.274   6.548   4.351  1.00 20.00     0.089 N 
HETATM    6 CL11 UNL     1     -33.450   4.634   6.929  1.00 20.00    -0.123 Cl
ENDROOT
BRANCH   5   7
HETATM    7  C8  UNL     1     -32.733   7.609   3.516  1.00 20.00     0.272 C 
BRANCH   7   8
HETATM    8  C7  UNL     1     -32.285   7.104   2.146  1.00 20.00     0.034 C 
BRANCH   8   9
HETATM    9  C9  UNL     1     -31.675   8.178   1.223  1.00 20.00    -0.021 C 
HETATM   10  C5  UNL     1     -32.704   9.282   0.964  1.00 20.00     0.009 C 
HETATM   11  C6  UNL     1     -31.195   7.598  -0.109  1.00 20.00     0.009 C 
ENDBRANCH   8   9
ENDBRANCH   7   8
ENDBRANCH   5   7
TORSDOF 3
