REMARK  2 active torsions:
REMARK  status: ('A' for Active; 'I' for Inactive)
REMARK    1  A    between atoms: C3_3  and  C6_6 
REMARK    2  A    between atoms: C5_5  and  C6_6 
ROOT
HETATM    1  C6  UNL     1     -33.161   6.957   4.697  1.00 20.00     0.086 C 
HETATM    2 CL7  UNL     1     -32.551   8.464   3.948  1.00 20.00    -0.125 Cl
ENDROOT
BRANCH   1   3
HETATM    3  C3  UNL     1     -33.700   6.073   3.609  1.00 20.00     0.004 A 
HETATM    4  C1  UNL     1     -32.759   5.319   2.711  1.00 20.00     0.006 A 
HETATM    5  C2  UNL     1     -33.586   4.578   3.724  1.00 20.00     0.006 A 
ENDBRANCH   1   3
BRANCH   1   6
HETATM    6  C5  UNL     1     -34.229   7.262   5.754  1.00 20.00     0.016 C 
HETATM    7  C4  UNL     1     -34.754   6.020   6.462  1.00 20.00     0.006 C 
ENDBRANCH   1   6
TORSDOF 2
