REMARK  1 active torsions:
REMARK  status: ('A' for Active; 'I' for Inactive)
REMARK    1  A    between atoms: C6_6  and  N7_7 
ROOT
HETATM    1  C1  UNL     1     -32.207   7.637   2.570  1.00 20.00     0.158 C 
HETATM    2  N7  UNL     1     -32.069   7.242   3.665  1.00 20.00    -0.268 NA
HETATM    3  S9  UNL     1     -32.357   8.180   1.080  1.00 20.00    -0.055 SA
ENDROOT
BRANCH   2   4
HETATM    4  C6  UNL     1     -33.309   6.831   4.324  1.00 20.00     0.133 C 
HETATM    5  C3  UNL     1     -33.569   5.355   4.032  1.00 20.00     0.032 C 
HETATM    6  C2  UNL     1     -34.737   4.845   4.869  1.00 20.00     0.028 C 
HETATM    7  C4  UNL     1     -34.539   5.193   6.339  1.00 20.00     0.167 C 
HETATM    8  O8  UNL     1     -34.349   6.597   6.507  1.00 20.00    -0.389 OA
HETATM    9  C5  UNL     1     -33.187   7.069   5.825  1.00 20.00     0.195 C 
ENDBRANCH   2   4
TORSDOF 1
