REMARK  2 active torsions:
REMARK  status: ('A' for Active; 'I' for Inactive)
REMARK    1  A    between atoms: C3_3  and  C6_6 
REMARK    2  A    between atoms: C5_5  and  C6_6 
ROOT
HETATM    1  C6  UNL     1     -32.747   7.640   4.690  1.00 20.00     0.086 C 
HETATM    2 CL7  UNL     1     -32.552   9.340   5.215  1.00 20.00    -0.125 Cl
ENDROOT
BRANCH   1   3
HETATM    3  C3  UNL     1     -34.085   7.150   5.164  1.00 20.00     0.004 A 
HETATM    4  C1  UNL     1     -34.326   5.680   5.367  1.00 20.00     0.006 A 
HETATM    5  C2  UNL     1     -34.241   6.598   6.554  1.00 20.00     0.006 A 
ENDBRANCH   1   3
BRANCH   1   6
HETATM    6  C5  UNL     1     -32.609   7.513   3.169  1.00 20.00     0.016 C 
HETATM    7  C4  UNL     1     -32.720   6.080   2.667  1.00 20.00     0.006 C 
ENDBRANCH   1   6
TORSDOF 2
