REMARK  3 active torsions:
REMARK  status: ('A' for Active; 'I' for Inactive)
REMARK    1  A    between atoms: C1_1  and  C7_7 
REMARK       I    between atoms: C1_1  and  N8_8 
REMARK    2  A    between atoms: C5_5  and  C6_6 
REMARK    3  A    between atoms: C5_5  and  N8_8 
ROOT
HETATM    1  C1  UNL     1     -33.784   7.309   4.637  1.00 20.00     0.222 C 
HETATM    2  C4  UNL     1     -32.247   9.220   4.889  1.00 20.00     0.152 C 
HETATM    3  N8  UNL     1     -32.899   8.220   4.050  1.00 20.00    -0.355 N 
HETATM    4  O9  UNL     1     -34.041   7.313   5.846  1.00 20.00    -0.273 OA
ENDROOT
BRANCH   1   5
HETATM    5  C7  UNL     1     -34.472   6.291   3.722  1.00 20.00     0.070 C 
HETATM    6  C2  UNL     1     -35.840   5.918   4.291  1.00 20.00     0.019 C 
HETATM    7  C3  UNL     1     -33.616   5.030   3.569  1.00 20.00     0.019 C 
ENDBRANCH   1   5
BRANCH   3   8
HETATM    8  C5  UNL     1     -32.514   8.262   2.641  1.00 20.00     0.140 C 
BRANCH   8   9
HETATM    9  C6  UNL     1     -33.430   9.145   1.811  1.00 20.00     0.134 C 
HETATM   10 CL10 UNL     1     -32.935   9.167   0.101  1.00 20.00    -0.129 Cl
ENDBRANCH   8   9
ENDBRANCH   3   8
TORSDOF 3
