REMARK  1 active torsions:
REMARK  status: ('A' for Active; 'I' for Inactive)
REMARK    1  A    between atoms: C1_1  and  C8_8 
REMARK       I    between atoms: C1_1  and  N10_10 
ROOT
HETATM    1  C1  UNL     1     -33.579   7.682   5.291  1.00 20.00     0.224 C 
HETATM    2  C2  UNL     1     -32.562   6.213   2.162  1.00 20.00     0.021 C 
HETATM    3  C5  UNL     1     -32.332   7.426   1.262  1.00 20.00     0.023 C 
HETATM    4  C6  UNL     1     -32.188   6.515   3.610  1.00 20.00     0.126 C 
HETATM    5  C7  UNL     1     -32.656   8.924   3.272  1.00 20.00     0.145 C 
HETATM    6  C9  UNL     1     -33.048   8.657   1.818  1.00 20.00     0.100 C 
HETATM    7  N10 UNL     1     -32.859   7.723   4.092  1.00 20.00    -0.350 N 
HETATM    8  O11 UNL     1     -34.176   8.637   5.782  1.00 20.00    -0.273 OA
HETATM    9 CL12 UNL     1     -32.667  10.085   0.815  1.00 20.00    -0.123 Cl
ENDROOT
BRANCH   1  10
HETATM   10  C8  UNL     1     -33.620   6.381   6.024  1.00 20.00     0.078 A 
HETATM   11  C3  UNL     1     -34.770   6.114   6.935  1.00 20.00     0.015 A 
HETATM   12  C4  UNL     1     -34.653   5.379   5.634  1.00 20.00     0.015 A 
ENDBRANCH   1  10
TORSDOF 1
