REMARK  2 active torsions:
REMARK  status: ('A' for Active; 'I' for Inactive)
REMARK    1  A    between atoms: C6_6  and  C7_7 
REMARK    2  A    between atoms: C6_6  and  N8_8 
ROOT
HETATM    1  C1  UNL     1     -34.201   5.505   3.784  1.00 20.00     0.050 C 
HETATM    2  C2  UNL     1     -33.214   7.339   5.181  1.00 20.00     0.050 C 
HETATM    3  C3  UNL     1     -33.707   6.245   2.538  1.00 20.00     0.274 C 
HETATM    4  C4  UNL     1     -32.752   8.019   3.890  1.00 20.00     0.274 C 
HETATM    5  C5  UNL     1     -34.452   6.481   4.931  1.00 20.00     0.085 C 
HETATM    6  N8  UNL     1     -32.500   7.031   2.831  1.00 20.00     0.093 N 
HETATM    7 CL11 UNL     1     -34.898   5.593   6.412  1.00 20.00    -0.125 Cl
ENDROOT
BRANCH   6   8
HETATM    8  C6  UNL     1     -32.014   7.692   1.620  1.00 20.00     0.343 C 
BRANCH   8   9
HETATM    9  C7  UNL     1     -33.064   8.636   1.071  1.00 20.00     0.381 C 
HETATM   10  F9  UNL     1     -32.781   8.941  -0.221  1.00 20.00    -0.213 F 
HETATM   11  F10 UNL     1     -33.016   9.804   1.761  1.00 20.00    -0.213 F 
ENDBRANCH   8   9
ENDBRANCH   6   8
TORSDOF 2
