REMARK  1 active torsions:
REMARK  status: ('A' for Active; 'I' for Inactive)
REMARK    1  A    between atoms: C3_3  and  N9_9 
ROOT
HETATM    1  C4  UNL     1     -32.707   9.493   2.505  1.00 20.00     0.041 C 
HETATM    2  C5  UNL     1     -32.788   8.755   3.841  1.00 20.00     0.126 C 
HETATM    3  C6  UNL     1     -33.222   7.206   2.032  1.00 20.00     0.145 C 
HETATM    4  C7  UNL     1     -32.381   8.377   1.525  1.00 20.00     0.102 C 
HETATM    5  N9  UNL     1     -33.255   7.418   3.478  1.00 20.00    -0.358 N 
HETATM    6 CL11 UNL     1     -32.764   8.814  -0.146  1.00 20.00    -0.123 Cl
ENDROOT
BRANCH   5   7
HETATM    7  C3  UNL     1     -33.691   6.479   4.389  1.00 20.00     0.168 A 
HETATM    8  N8  UNL     1     -34.112   5.276   4.068  1.00 20.00    -0.236 NA
HETATM    9  C1  UNL     1     -34.472   4.606   5.221  1.00 20.00     0.126 A 
HETATM   10  C2  UNL     1     -34.320   5.308   6.398  1.00 20.00     0.072 A 
HETATM   11  S10 UNL     1     -33.701   6.872   6.060  1.00 20.00    -0.063 SA
ENDBRANCH   5   7
TORSDOF 1
