REMARK  3 active torsions:
REMARK  status: ('A' for Active; 'I' for Inactive)
REMARK    1  A    between atoms: C1_1  and  C4_4 
REMARK       I    between atoms: C1_1  and  N7_7 
REMARK    2  A    between atoms: C5_5  and  C6_6 
REMARK    3  A    between atoms: C5_5  and  N7_7 
ROOT
HETATM    1  C1  UNL     1     -33.517   7.403   4.960  1.00 20.00     0.219 C 
HETATM    2  C3  UNL     1     -32.149   9.470   4.607  1.00 20.00     0.152 C 
HETATM    3  N7  UNL     1     -32.609   8.148   4.200  1.00 20.00    -0.355 N 
HETATM    4  O8  UNL     1     -33.997   7.799   6.026  1.00 20.00    -0.273 OA
ENDROOT
BRANCH   3   5
HETATM    5  C5  UNL     1     -32.054   7.657   2.941  1.00 20.00     0.140 C 
BRANCH   5   6
HETATM    6  C6  UNL     1     -32.898   8.048   1.740  1.00 20.00     0.134 C 
HETATM    7 CL9  UNL     1     -33.029   9.817   1.587  1.00 20.00    -0.129 Cl
ENDBRANCH   5   6
ENDBRANCH   3   5
BRANCH   1   8
HETATM    8  C4  UNL     1     -33.899   6.039   4.403  1.00 20.00     0.098 C 
HETATM    9  C2  UNL     1     -34.876   5.292   5.297  1.00 20.00     0.014 C 
ENDBRANCH   1   8
TORSDOF 3
