REMARK  3 active torsions:
REMARK  status: ('A' for Active; 'I' for Inactive)
REMARK    1  A    between atoms: C6_6  and  C7_7 
REMARK    2  A    between atoms: C7_7  and  C8_8 
REMARK    3  A    between atoms: C8_8  and  N9_9 
ROOT
HETATM    1  C1  UNL     1     -34.089   7.636   6.521  1.00 20.00     0.052 C 
HETATM    2  C2  UNL     1     -33.694   8.618   5.433  1.00 20.00     0.274 C 
HETATM    3  C3  UNL     1     -33.943   6.560   4.346  1.00 20.00     0.292 C 
HETATM    4  C4  UNL     1     -34.562   6.415   5.738  1.00 20.00     0.112 C 
HETATM    5  N9  UNL     1     -33.066   7.731   4.455  1.00 20.00     0.089 N 
HETATM    6 CL10 UNL     1     -34.086   4.903   6.539  1.00 20.00    -0.123 Cl
ENDROOT
BRANCH   5   7
HETATM    7  C8  UNL     1     -32.836   8.382   3.174  1.00 20.00     0.272 C 
BRANCH   7   8
HETATM    8  C7  UNL     1     -32.113   7.476   2.183  1.00 20.00     0.030 C 
BRANCH   8   9
HETATM    9  C6  UNL     1     -31.845   8.166   0.844  1.00 20.00    -0.003 C 
HETATM   10  C5  UNL     1     -33.141   8.551   0.148  1.00 20.00     0.005 C 
ENDBRANCH   8   9
ENDBRANCH   7   8
ENDBRANCH   5   7
TORSDOF 3
