REMARK  3 active torsions:
REMARK  status: ('A' for Active; 'I' for Inactive)
REMARK    1  A    between atoms: C4_4  and  C7_7 
REMARK    2  A    between atoms: C8_8  and  C9_9 
REMARK    3  A    between atoms: C8_8  and  N10_10 
ROOT
HETATM    1  C1  UNL     1     -32.185   9.352   5.012  1.00 20.00     0.032 C 
HETATM    2  C2  UNL     1     -32.246   9.657   3.520  1.00 20.00     0.038 C 
HETATM    3  C3  UNL     1     -32.408   7.852   5.122  1.00 20.00     0.273 C 
HETATM    4  C4  UNL     1     -32.497   8.308   2.842  1.00 20.00     0.236 C 
HETATM    5  N10 UNL     1     -33.153   7.531   3.902  1.00 20.00     0.094 N 
ENDROOT
BRANCH   5   6
HETATM    6  C8  UNL     1     -33.164   6.096   3.645  1.00 20.00     0.277 C 
BRANCH   6   7
HETATM    7  C9  UNL     1     -33.864   5.321   4.767  1.00 20.00     0.006 C 
HETATM    8  C5  UNL     1     -35.321   5.748   4.946  1.00 20.00     0.011 C 
HETATM    9  C6  UNL     1     -33.766   3.808   4.568  1.00 20.00     0.011 C 
ENDBRANCH   6   7
ENDBRANCH   5   6
BRANCH   4  10
HETATM   10  C7  UNL     1     -33.346   8.456   1.586  1.00 20.00     0.150 C 
HETATM   11 CL11 UNL     1     -32.538   9.520   0.420  1.00 20.00    -0.128 Cl
ENDBRANCH   4  10
TORSDOF 3
