REMARK  3 active torsions:
REMARK  status: ('A' for Active; 'I' for Inactive)
REMARK    1  A    between atoms: C4_4  and  C6_6 
REMARK    2  A    between atoms: C7_7  and  C8_8 
REMARK    3  A    between atoms: C8_8  and  N9_9 
ROOT
HETATM    1  C1  UNL     1     -33.769   7.852   6.211  1.00 20.00     0.032 C 
HETATM    2  C2  UNL     1     -33.637   6.445   5.639  1.00 20.00     0.038 C 
HETATM    3  C3  UNL     1     -33.246   8.775   5.122  1.00 20.00     0.273 C 
HETATM    4  C4  UNL     1     -33.051   6.631   4.238  1.00 20.00     0.236 C 
HETATM    5  N9  UNL     1     -33.458   8.002   3.896  1.00 20.00     0.094 N 
ENDROOT
BRANCH   5   6
HETATM    6  C8  UNL     1     -32.713   8.563   2.776  1.00 20.00     0.272 C 
BRANCH   6   7
HETATM    7  C7  UNL     1     -33.277   8.130   1.428  1.00 20.00     0.026 C 
HETATM    8  C5  UNL     1     -32.491   8.694   0.253  1.00 20.00     0.007 C 
ENDBRANCH   6   7
ENDBRANCH   5   6
BRANCH   4   9
HETATM    9  C6  UNL     1     -33.574   5.584   3.263  1.00 20.00     0.150 C 
HETATM   10 CL10 UNL     1     -33.660   3.999   4.053  1.00 20.00    -0.128 Cl
ENDBRANCH   4   9
TORSDOF 3
