REMARK  3 active torsions:
REMARK  status: ('A' for Active; 'I' for Inactive)
REMARK    1  A    between atoms: C2_2  and  C8_8 
REMARK    2  A    between atoms: C7_7  and  C9_9 
REMARK    3  A    between atoms: C8_8  and  N10_10 
ROOT
HETATM    1  C3  UNL     1     -33.121   8.965   5.192  1.00 20.00     0.031 C 
HETATM    2  C4  UNL     1     -34.138   7.862   5.464  1.00 20.00     0.009 C 
HETATM    3  C5  UNL     1     -32.724   9.004   3.716  1.00 20.00     0.272 C 
HETATM    4  C6  UNL     1     -33.214   6.643   3.456  1.00 20.00     0.278 C 
HETATM    5  C7  UNL     1     -33.628   6.518   4.932  1.00 20.00     0.028 C 
HETATM    6  N10 UNL     1     -32.209   7.701   3.273  1.00 20.00     0.092 N 
ENDROOT
BRANCH   6   7
HETATM    7  C8  UNL     1     -31.785   7.768   1.875  1.00 20.00     0.299 C 
BRANCH   7   8
HETATM    8  C2  UNL     1     -32.959   8.148   1.034  1.00 20.00    -0.007 C 
HETATM    9  C1  UNL     1     -33.014   9.256   0.286  1.00 20.00     0.008 C 
ENDBRANCH   7   8
ENDBRANCH   6   7
BRANCH   5  10
HETATM   10  C9  UNL     1     -34.687   5.431   5.108  1.00 20.00     0.121 C 
HETATM   11 CL11 UNL     1     -36.163   5.871   4.230  1.00 20.00    -0.130 Cl
ENDBRANCH   5  10
TORSDOF 3
