REMARK  3 active torsions:
REMARK  status: ('A' for Active; 'I' for Inactive)
REMARK    1  A    between atoms: C7_7  and  C9_9 
REMARK    2  A    between atoms: C8_8  and  C9_9 
REMARK    3  A    between atoms: C8_8  and  N10_10 
ROOT
HETATM    1  C1  UNL     1     -32.346   9.596   2.685  1.00 20.00     0.052 C 
HETATM    2  C2  UNL     1     -32.440   8.800   3.976  1.00 20.00     0.274 C 
HETATM    3  C3  UNL     1     -32.179   7.204   2.283  1.00 20.00     0.292 C 
HETATM    4  C4  UNL     1     -31.847   8.568   1.674  1.00 20.00     0.112 C 
HETATM    5  N10 UNL     1     -32.952   7.519   3.490  1.00 20.00     0.090 N 
HETATM    6 CL11 UNL     1     -32.600   8.803   0.083  1.00 20.00    -0.123 Cl
ENDROOT
BRANCH   5   7
HETATM    7  C8  UNL     1     -32.877   6.469   4.494  1.00 20.00     0.276 C 
BRANCH   7   8
HETATM    8  C9  UNL     1     -33.872   5.323   4.257  1.00 20.00     0.009 C 
HETATM    9  C6  UNL     1     -33.334   4.340   3.211  1.00 20.00     0.011 C 
BRANCH   8  10
HETATM   10  C7  UNL     1     -34.263   4.560   5.537  1.00 20.00     0.001 C 
HETATM   11  C5  UNL     1     -34.894   5.442   6.604  1.00 20.00     0.005 C 
ENDBRANCH   8  10
ENDBRANCH   7   8
ENDBRANCH   5   7
TORSDOF 3
