REMARK  4 active torsions:
REMARK  status: ('A' for Active; 'I' for Inactive)
REMARK    1  A    between atoms: C4_4  and  C7_7 
REMARK    2  A    between atoms: C8_8  and  C10_10 
REMARK    3  A    between atoms: C9_9  and  C10_10 
REMARK    4  A    between atoms: C9_9  and  N11_11 
ROOT
HETATM    1  C1  UNL     1     -33.825   6.445   6.702  1.00 20.00     0.035 C 
HETATM    2  C2  UNL     1     -33.419   7.896   6.505  1.00 20.00     0.235 C 
HETATM    3  C3  UNL     1     -33.812   6.785   4.362  1.00 20.00     0.240 C 
HETATM    4  C4  UNL     1     -34.631   6.118   5.454  1.00 20.00     0.027 C 
HETATM    5  N11 UNL     1     -33.384   8.090   5.000  1.00 20.00    -0.070 N 
HETATM    6  H33 UNL     1     -34.107   8.787   4.772  1.00 20.00     0.279 HD
ENDROOT
BRANCH   5   7
HETATM    7  C9  UNL     1     -32.087   8.619   4.477  1.00 20.00     0.239 C 
BRANCH   7   8
HETATM    8  C10 UNL     1     -32.233   9.213   3.069  1.00 20.00     0.007 C 
HETATM    9  C6  UNL     1     -33.549   9.985   2.920  1.00 20.00     0.011 C 
BRANCH   8  10
HETATM   10  C8  UNL     1     -32.100   8.191   1.924  1.00 20.00     0.001 C 
HETATM   11  C5  UNL     1     -32.205   8.809   0.537  1.00 20.00     0.005 C 
ENDBRANCH   8  10
ENDBRANCH   7   8
ENDBRANCH   5   7
BRANCH   4  12
HETATM   12  C7  UNL     1     -34.815   4.628   5.231  1.00 20.00     0.121 C 
HETATM   13 CL12 UNL     1     -33.240   3.831   5.045  1.00 20.00    -0.130 Cl
ENDBRANCH   4  12
TORSDOF 4
