REMARK  2 active torsions:
REMARK  status: ('A' for Active; 'I' for Inactive)
REMARK    1  A    between atoms: C6_6  and  C8_8 
REMARK    2  A    between atoms: C8_8  and  N9_9 
ROOT
HETATM    1  C3  UNL     1     -34.038   6.554   5.236  1.00 20.00     0.052 C 
HETATM    2  C4  UNL     1     -32.943   7.618   5.208  1.00 20.00     0.274 C 
HETATM    3  C5  UNL     1     -32.642   6.354   3.280  1.00 20.00     0.292 C 
HETATM    4  C7  UNL     1     -33.948   5.858   3.883  1.00 20.00     0.112 C 
HETATM    5  N9  UNL     1     -32.471   7.712   3.818  1.00 20.00     0.090 N 
HETATM    6 CL10 UNL     1     -33.988   4.091   4.022  1.00 20.00    -0.123 Cl
ENDROOT
BRANCH   5   7
HETATM    7  C8  UNL     1     -33.239   8.699   3.060  1.00 20.00     0.277 C 
BRANCH   7   8
HETATM    8  C6  UNL     1     -32.482   9.167   1.864  1.00 20.00     0.014 A 
HETATM    9  C1  UNL     1     -32.437   8.326   0.618  1.00 20.00     0.007 A 
HETATM   10  C2  UNL     1     -33.216   9.612   0.629  1.00 20.00     0.007 A 
ENDBRANCH   7   8
ENDBRANCH   5   7
TORSDOF 2
