REMARK  1 active torsions:
REMARK  status: ('A' for Active; 'I' for Inactive)
REMARK    1  A    between atoms: C4_4  and  C9_9 
ROOT
HETATM    1  C1  UNL     1     -31.966   8.531   4.120  1.00 20.00    -0.003 A 
HETATM    2  C2  UNL     1     -32.476   7.204   3.891  1.00 20.00     0.004 A 
HETATM    3  C3  UNL     1     -32.744   9.164   5.009  1.00 20.00    -0.022 A 
HETATM    4  C4  UNL     1     -33.573   7.011   4.639  1.00 20.00    -0.069 A 
HETATM    5  C5  UNL     1     -33.860   8.254   5.437  1.00 20.00     0.062 A 
ENDROOT
BRANCH   4   6
HETATM    6  C9  UNL     1     -34.436   5.781   4.727  1.00 20.00    -0.028 C 
HETATM    7  C6  UNL     1     -35.866   6.140   4.302  1.00 20.00     0.019 C 
HETATM    8  C7  UNL     1     -34.442   5.259   6.171  1.00 20.00     0.019 C 
HETATM    9  C8  UNL     1     -33.879   4.694   3.796  1.00 20.00     0.019 C 
ENDBRANCH   4   6
TORSDOF 1
