REMARK  2 active torsions:
REMARK  status: ('A' for Active; 'I' for Inactive)
REMARK    1  A    between atoms: C3_3  and  C10_10 
REMARK    2  A    between atoms: C4_4  and  C10_10 
ROOT
HETATM    1  C5  UNL     1     -34.473   6.137   6.871  1.00 20.00     0.000 C 
HETATM    2  C6  UNL     1     -34.860   5.308   5.651  1.00 20.00     0.001 C 
HETATM    3  C7  UNL     1     -33.126   6.822   6.675  1.00 20.00     0.001 C 
HETATM    4  C8  UNL     1     -34.855   6.148   4.374  1.00 20.00     0.017 C 
HETATM    5  C9  UNL     1     -33.102   7.673   5.405  1.00 20.00     0.017 C 
HETATM    6  C10 UNL     1     -33.526   6.891   4.149  1.00 20.00    -0.006 C 
ENDROOT
BRANCH   6   7
HETATM    7  C3  UNL     1     -32.449   5.905   3.769  1.00 20.00    -0.023 C 
HETATM    8  C1  UNL     1     -32.508   5.108   2.697  1.00 20.00     0.008 C 
ENDBRANCH   6   7
BRANCH   6   9
HETATM    9  C4  UNL     1     -33.712   7.890   3.037  1.00 20.00    -0.023 C 
HETATM   10  C2  UNL     1     -32.748   8.702   2.590  1.00 20.00     0.008 C 
ENDBRANCH   6   9
TORSDOF 2
