REMARK  0 active torsions:
REMARK  status: ('A' for Active; 'I' for Inactive)
ROOT
HETATM    1  C1  UNL     1     -34.153   4.746   4.063  1.00 20.00     0.009 A 
HETATM    2  C2  UNL     1     -33.562   5.414   2.988  1.00 20.00     0.019 A 
HETATM    3  C3  UNL     1     -33.087   7.352   4.389  1.00 20.00     0.026 A 
HETATM    4  C4  UNL     1     -34.192   5.405   5.269  1.00 20.00    -0.051 A 
HETATM    5  C5  UNL     1     -33.675   6.669   5.427  1.00 20.00    -0.050 A 
HETATM    6  C6  UNL     1     -33.032   6.709   3.150  1.00 20.00     0.011 A 
HETATM    7  C7  UNL     1     -34.630   5.302   6.700  1.00 20.00     0.043 A 
HETATM    8  C8  UNL     1     -34.042   6.741   6.879  1.00 20.00     0.043 A 
HETATM    9 BR9  UNL     1     -32.237   7.584   1.673  1.00 20.00    -0.051 Br
ENDROOT
TORSDOF 0
