REMARK  0 active torsions:
REMARK  status: ('A' for Active; 'I' for Inactive)
ROOT
HETATM    1  C1  UNL     1     -32.744   8.406   2.824  1.00 20.00     0.119 C 
HETATM    2  C2  UNL     1     -33.569   6.521   4.215  1.00 20.00     0.063 A 
HETATM    3  C3  UNL     1     -33.618   7.601   6.135  1.00 20.00     0.137 A 
HETATM    4  C4  UNL     1     -33.154   7.825   4.064  1.00 20.00     0.137 A 
HETATM    5  C5  UNL     1     -33.870   6.376   5.560  1.00 20.00     0.031 A 
HETATM    6  N6  UNL     1     -32.411   8.877   1.817  1.00 20.00    -0.190 NA
HETATM    7  N7  UNL     1     -33.183   8.483   5.228  1.00 20.00    -0.249 NA
HETATM    8 BR8  UNL     1     -34.491   4.826   6.417  1.00 20.00    -0.050 Br
ENDROOT
TORSDOF 0
