REMARK  0 active torsions:
REMARK  status: ('A' for Active; 'I' for Inactive)
ROOT
HETATM    1  C1  UNL     1     -33.356   8.241   4.177  1.00 20.00     0.017 A 
HETATM    2  C2  UNL     1     -32.958   8.863   2.994  1.00 20.00     0.025 A 
HETATM    3  C3  UNL     1     -33.520   4.693   3.119  1.00 20.00     0.031 A 
HETATM    4  C4  UNL     1     -32.927   6.721   1.875  1.00 20.00     0.036 A 
HETATM    5  C5  UNL     1     -33.916   4.133   4.324  1.00 20.00     0.119 A 
HETATM    6  C6  UNL     1     -33.544   6.849   4.218  1.00 20.00     0.010 A 
HETATM    7  C7  UNL     1     -33.328   6.078   3.057  1.00 20.00    -0.020 A 
HETATM    8  C8  UNL     1     -32.744   8.104   1.845  1.00 20.00     0.034 A 
HETATM    9  C9  UNL     1     -33.941   6.176   5.375  1.00 20.00     0.113 A 
HETATM   10  N10 UNL     1     -34.132   4.839   5.454  1.00 20.00    -0.253 NA
HETATM   11 CL11 UNL     1     -32.252   8.875   0.387  1.00 20.00    -0.084 Cl
HETATM   12 BR12 UNL     1     -34.274   7.080   7.031  1.00 20.00    -0.028 Br
ENDROOT
TORSDOF 0
