REMARK  0 active torsions:
REMARK  status: ('A' for Active; 'I' for Inactive)
ROOT
HETATM    1  C1  UNL     1     -33.157   8.203   4.529  1.00 20.00     0.036 A 
HETATM    2  C2  UNL     1     -33.959   7.700   5.471  1.00 20.00     0.007 A 
HETATM    3  C3  UNL     1     -32.905   7.241   3.447  1.00 20.00     0.086 A 
HETATM    4  C4  UNL     1     -34.464   6.307   5.299  1.00 20.00     0.172 A 
HETATM    5  N5  UNL     1     -32.171   7.435   2.411  1.00 20.00    -0.293 NA
HETATM    6  S6  UNL     1     -33.750   5.735   3.729  1.00 20.00    -0.086 SA
HETATM    7 CL7  UNL     1     -33.939   5.285   6.648  1.00 20.00    -0.109 Cl
HETATM    8  H11 UNL     1     -32.180   6.594   1.822  1.00 20.00     0.187 HD
ENDROOT
TORSDOF 0
