REMARK  1 active torsions:
REMARK  status: ('A' for Active; 'I' for Inactive)
REMARK    1  A    between atoms: C6_6  and  C7_7 
ROOT
HETATM    1  C3  UNL     1     -34.892   5.390   5.530  1.00 20.00     0.296 C 
HETATM    2  C4  UNL     1     -34.594   6.233   6.762  1.00 20.00     0.197 C 
HETATM    3  C5  UNL     1     -33.697   7.958   5.437  1.00 20.00     0.203 C 
HETATM    4  C7  UNL     1     -34.020   7.193   4.149  1.00 20.00     0.248 C 
HETATM    5  N8  UNL     1     -35.118   6.237   4.355  1.00 20.00     0.092 N 
HETATM    6  O9  UNL     1     -33.458   7.063   6.525  1.00 20.00    -0.387 OA
HETATM    7  H22 UNL     1     -35.191   5.631   3.530  1.00 20.00     0.316 HD
ENDROOT
BRANCH   4   8
HETATM    8  C6  UNL     1     -32.804   6.519   3.569  1.00 20.00     0.021 A 
HETATM    9  C1  UNL     1     -32.763   6.153   2.111  1.00 20.00     0.007 A 
HETATM   10  C2  UNL     1     -31.899   7.268   2.630  1.00 20.00     0.007 A 
ENDBRANCH   4   8
TORSDOF 1
