REMARK  0 active torsions:
REMARK  status: ('A' for Active; 'I' for Inactive)
ROOT
HETATM    1  C1  UNL     1     -34.308   7.537   5.701  1.00 20.00     0.105 C 
HETATM    2  C2  UNL     1     -33.084   6.407   4.366  1.00 20.00     0.260 C 
HETATM    3  C3  UNL     1     -33.373   7.919   4.535  1.00 20.00     0.128 C 
HETATM    4  C4  UNL     1     -34.462   6.152   5.033  1.00 20.00     0.276 C 
HETATM    5  F5  UNL     1     -32.955   5.969   3.094  1.00 20.00    -0.241 F 
HETATM    6  F6  UNL     1     -35.504   6.032   4.178  1.00 20.00    -0.203 F 
HETATM    7  F7  UNL     1     -34.520   5.096   5.873  1.00 20.00    -0.203 F 
HETATM    8 CL8  UNL     1     -32.010   9.023   4.859  1.00 20.00    -0.122 Cl
ENDROOT
TORSDOF 0
