REMARK  0 active torsions:
REMARK  status: ('A' for Active; 'I' for Inactive)
ROOT
HETATM    1  C1  UNL     1     -35.088   6.233   6.428  1.00 20.00     0.009 C 
HETATM    2  C2  UNL     1     -33.011   4.869   6.080  1.00 20.00     0.012 C 
HETATM    3  C3  UNL     1     -32.959   7.357   5.723  1.00 20.00     0.012 C 
HETATM    4  C4  UNL     1     -34.921   4.681   4.465  1.00 20.00     0.012 C 
HETATM    5  C5  UNL     1     -34.868   7.162   4.109  1.00 20.00     0.012 C 
HETATM    6  C6  UNL     1     -33.556   6.222   6.577  1.00 20.00    -0.013 C 
HETATM    7  C7  UNL     1     -35.477   6.029   4.953  1.00 20.00    -0.013 C 
HETATM    8  C8  UNL     1     -33.387   4.661   4.603  1.00 20.00     0.021 C 
HETATM    9  C9  UNL     1     -33.335   7.157   4.245  1.00 20.00     0.021 C 
HETATM   10  C10 UNL     1     -32.784   5.803   3.773  1.00 20.00     0.178 C 
HETATM   11  F11 UNL     1     -33.101   5.622   2.462  1.00 20.00    -0.249 F 
ENDROOT
TORSDOF 0
