REMARK  1 active torsions:
REMARK  status: ('A' for Active; 'I' for Inactive)
REMARK    1  A    between atoms: C1_1  and  C4_4 
ROOT
HETATM    1  C2  UNL     1     -34.174   6.214   6.879  1.00 20.00     0.013 C 
HETATM    2  C3  UNL     1     -34.706   4.897   6.284  1.00 20.00     0.010 C 
HETATM    3  C4  UNL     1     -33.461   6.483   5.530  1.00 20.00     0.062 C 
HETATM    4  C5  UNL     1     -34.502   5.511   4.868  1.00 20.00    -0.037 C 
HETATM    5  C7  UNL     1     -33.883   4.545   3.861  1.00 20.00     0.015 C 
HETATM    6  C8  UNL     1     -35.768   6.161   4.304  1.00 20.00     0.015 C 
ENDROOT
BRANCH   3   7
HETATM    7  C1  UNL     1     -33.387   7.929   5.031  1.00 20.00     0.128 C 
HETATM    8  C6  UNL     1     -32.833   8.140   3.648  1.00 20.00     0.091 C 
HETATM    9  O9  UNL     1     -33.764   8.872   5.726  1.00 20.00    -0.298 OA
ENDBRANCH   3   7
TORSDOF 1
