REMARK  1 active torsions:
REMARK  status: ('A' for Active; 'I' for Inactive)
REMARK    1  A    between atoms: C2_2  and  C3_3 
ROOT
HETATM    1  C1  UNL     1     -35.500   6.141   4.484  1.00 20.00     0.058 C 
HETATM    2  C2  UNL     1     -33.979   6.213   4.617  1.00 20.00     0.189 C 
HETATM    3 CL6  UNL     1     -33.500   5.614   6.242  1.00 20.00    -0.094 Cl
HETATM    4 CL7  UNL     1     -33.262   5.089   3.401  1.00 20.00    -0.094 Cl
ENDROOT
BRANCH   2   5
HETATM    5  C3  UNL     1     -33.418   7.620   4.372  1.00 20.00     0.354 C 
HETATM    6  F4  UNL     1     -33.739   8.026   3.114  1.00 20.00    -0.184 F 
HETATM    7  F5  UNL     1     -32.059   7.594   4.426  1.00 20.00    -0.184 F 
HETATM    8 CL8  UNL     1     -34.007   8.844   5.521  1.00 20.00    -0.045 Cl
ENDBRANCH   2   5
TORSDOF 1
