REMARK  2 active torsions:
REMARK  status: ('A' for Active; 'I' for Inactive)
REMARK    1  A    between atoms: C1_1  and  C2_2 
REMARK    2  A    between atoms: C1_1  and  C3_3 
ROOT
HETATM    1  C1  UNL     1     -33.660   7.348   5.113  1.00 20.00     0.386 C 
HETATM    2  F4  UNL     1     -32.924   6.908   6.175  1.00 20.00    -0.191 F 
HETATM    3  F5  UNL     1     -34.649   8.122   5.645  1.00 20.00    -0.191 F 
ENDROOT
BRANCH   1   4
HETATM    4  C2  UNL     1     -34.315   6.129   4.477  1.00 20.00     0.390 C 
HETATM    5  F6  UNL     1     -34.463   5.174   5.435  1.00 20.00    -0.181 F 
HETATM    6  F7  UNL     1     -33.505   5.590   3.533  1.00 20.00    -0.181 F 
HETATM    7 CL9  UNL     1     -35.903   6.468   3.770  1.00 20.00    -0.042 Cl
ENDBRANCH   1   4
BRANCH   1   8
HETATM    8  C3  UNL     1     -32.773   8.231   4.232  1.00 20.00     0.328 C 
HETATM    9  F8  UNL     1     -31.741   7.496   3.740  1.00 20.00    -0.200 F 
HETATM   10 CL10 UNL     1     -32.104   9.623   5.121  1.00 20.00    -0.059 Cl
HETATM   11 CL11 UNL     1     -33.712   8.846   2.839  1.00 20.00    -0.059 Cl
ENDBRANCH   1   8
TORSDOF 2
