REMARK  0 active torsions:
REMARK  status: ('A' for Active; 'I' for Inactive)
ROOT
HETATM    1  C1  UNL     1     -35.150   7.611   4.746  1.00 20.00    -0.019 A 
HETATM    2  C2  UNL     1     -35.070   6.847   3.643  1.00 20.00    -0.019 A 
HETATM    3  C3  UNL     1     -32.524   9.077   3.915  1.00 20.00    -0.023 C 
HETATM    4  C4  UNL     1     -32.445   8.328   2.803  1.00 20.00    -0.086 C 
HETATM    5  C5  UNL     1     -32.792   8.507   5.275  1.00 20.00     0.042 C 
HETATM    6  C6  UNL     1     -32.618   6.832   2.847  1.00 20.00     0.048 C 
HETATM    7  C7  UNL     1     -34.531   5.248   6.540  1.00 20.00     0.001 C 
HETATM    8  C8  UNL     1     -34.436   4.378   5.284  1.00 20.00     0.001 C 
HETATM    9  C9  UNL     1     -33.636   6.485   6.530  1.00 20.00     0.015 C 
HETATM   10  C10 UNL     1     -33.465   4.889   4.221  1.00 20.00     0.015 C 
HETATM   11  C11 UNL     1     -33.726   7.284   5.215  1.00 20.00    -0.009 A 
HETATM   12  C12 UNL     1     -33.632   6.392   3.924  1.00 20.00    -0.008 A 
HETATM   13  C13 UNL     1     -32.144   8.927   1.462  1.00 20.00     0.043 C 
ENDROOT
TORSDOF 0
