REMARK  2 active torsions:
REMARK  status: ('A' for Active; 'I' for Inactive)
REMARK    1  A    between atoms: C2_2  and  C3_3 
REMARK    2  A    between atoms: C2_2  and  C4_4 
ROOT
HETATM    1  C2  UNL     1     -33.326   6.631   5.113  1.00 20.00     0.244 C 
HETATM    2 CL9  UNL     1     -34.072   7.436   6.542  1.00 20.00    -0.111 Cl
ENDROOT
BRANCH   1   3
HETATM    3  C3  UNL     1     -33.031   7.664   4.004  1.00 20.00     0.200 C 
HETATM    4  C1  UNL     1     -32.147   8.823   4.458  1.00 20.00     0.072 C 
HETATM    5  F5  UNL     1     -32.395   7.035   2.975  1.00 20.00    -0.224 F 
HETATM    6 CL10 UNL     1     -34.549   8.368   3.356  1.00 20.00    -0.081 Cl
ENDBRANCH   1   3
BRANCH   1   7
HETATM    7  C4  UNL     1     -34.264   5.503   4.698  1.00 20.00     0.408 C 
HETATM    8  F6  UNL     1     -34.539   4.675   5.729  1.00 20.00    -0.169 F 
HETATM    9  F7  UNL     1     -35.440   5.993   4.241  1.00 20.00    -0.169 F 
HETATM   10  F8  UNL     1     -33.745   4.756   3.700  1.00 20.00    -0.169 F 
ENDBRANCH   1   7
TORSDOF 2
