REMARK  0 active torsions:
REMARK  status: ('A' for Active; 'I' for Inactive)
ROOT
HETATM    1  C1  UNL     1     -34.373   4.319   5.359  1.00 20.00     0.006 C 
HETATM    2  C2  UNL     1     -33.446   4.778   4.228  1.00 20.00     0.011 C 
HETATM    3  C3  UNL     1     -34.472   6.643   6.611  1.00 20.00     0.010 C 
HETATM    4  C4  UNL     1     -33.132   7.196   6.141  1.00 20.00     0.069 C 
HETATM    5  C5  UNL     1     -33.199   9.431   3.691  1.00 20.00     0.197 C 
HETATM    6  C6  UNL     1     -32.262   8.483   2.993  1.00 20.00     0.197 C 
HETATM    7  C7  UNL     1     -34.950   5.744   5.469  1.00 20.00    -0.005 C 
HETATM    8  C8  UNL     1     -34.146   6.157   4.214  1.00 20.00     0.052 C 
HETATM    9  C9  UNL     1     -33.335   7.379   4.640  1.00 20.00     0.168 C 
HETATM   10  O10 UNL     1     -34.101   8.565   4.378  1.00 20.00    -0.353 OA
HETATM   11  O11 UNL     1     -32.088   7.436   3.945  1.00 20.00    -0.353 OA
ENDROOT
TORSDOF 0
