REMARK  2 active torsions:
REMARK  status: ('A' for Active; 'I' for Inactive)
REMARK    1  A    between atoms: C7_7  and  C10_10 
REMARK    2  A    between atoms: C8_8  and  C9_9 
ROOT
HETATM    1  C1  UNL     1     -33.995   5.876   4.411  1.00 20.00    -0.019 C 
HETATM    2  C3  UNL     1     -34.464   6.055   5.670  1.00 20.00    -0.087 C 
HETATM    3  C5  UNL     1     -34.059   7.424   6.238  1.00 20.00     0.039 C 
HETATM    4  C8  UNL     1     -33.437   7.177   3.958  1.00 20.00     0.021 C 
HETATM    5  C10 UNL     1     -32.867   7.612   5.335  1.00 20.00     0.005 C 
HETATM    6  C11 UNL     1     -35.248   5.092   6.483  1.00 20.00     0.043 C 
ENDROOT
BRANCH   4   7
HETATM    7  C9  UNL     1     -32.324   7.699   3.016  1.00 20.00     0.022 C 
HETATM    8  C4  UNL     1     -32.724   9.167   2.829  1.00 20.00    -0.082 C 
HETATM    9  C2  UNL     1     -32.572   9.783   4.018  1.00 20.00    -0.019 C 
HETATM   10  C12 UNL     1     -33.267   9.700   1.559  1.00 20.00     0.043 C 
HETATM   11  C7  UNL     1     -31.959   8.787   4.975  1.00 20.00     0.014 C 
HETATM   12  C6  UNL     1     -31.119   8.001   3.921  1.00 20.00     0.018 C 
ENDBRANCH   4   7
TORSDOF 2
