REMARK  1 active torsions:
REMARK  status: ('A' for Active; 'I' for Inactive)
REMARK    1  A    between atoms: C4_4  and  C6_6 
ROOT
HETATM    1  C1  UNL     1     -34.838   4.843   4.187  1.00 20.00     0.279 C 
HETATM    2  C2  UNL     1     -35.018   6.857   5.531  1.00 20.00     0.284 C 
HETATM    3  C3  UNL     1     -33.428   5.120   3.679  1.00 20.00     0.104 C 
HETATM    4  C4  UNL     1     -33.625   7.402   5.196  1.00 20.00     0.075 C 
HETATM    5  N7  UNL     1     -35.077   5.394   5.521  1.00 20.00     0.085 N 
HETATM    6  S8  UNL     1     -33.119   6.900   3.515  1.00 20.00    -0.161 SA
HETATM    7  H21 UNL     1     -36.003   5.102   5.834  1.00 20.00     0.315 HD
ENDROOT
BRANCH   4   8
HETATM    8  C6  UNL     1     -33.601   8.926   5.283  1.00 20.00     0.012 C 
HETATM    9  C5  UNL     1     -32.255   9.478   4.940  1.00 20.00     0.006 C 
ENDBRANCH   4   8
TORSDOF 1
