REMARK  0 active torsions:
REMARK  status: ('A' for Active; 'I' for Inactive)
ROOT
HETATM    1  C1  UNL     1     -32.346   7.709   3.647  1.00 20.00     0.123 C 
HETATM    2  C2  UNL     1     -33.448   6.480   6.618  1.00 20.00     0.123 C 
HETATM    3  C3  UNL     1     -33.520   4.525   3.837  1.00 20.00     0.123 C 
HETATM    4  C4  UNL     1     -33.657   7.044   3.222  1.00 20.00     0.296 C 
HETATM    5  C5  UNL     1     -34.046   7.447   5.593  1.00 20.00     0.296 C 
HETATM    6  C6  UNL     1     -34.595   5.282   4.619  1.00 20.00     0.296 C 
HETATM    7  N7  UNL     1     -34.490   6.730   4.391  1.00 20.00     0.133 N 
HETATM    8  S8  UNL     1     -32.813   8.677   5.094  1.00 20.00    -0.130 SA
HETATM    9  S9  UNL     1     -34.416   4.976   6.396  1.00 20.00    -0.130 SA
HETATM   10  S10 UNL     1     -33.322   5.500   2.335  1.00 20.00    -0.130 SA
ENDROOT
TORSDOF 0
