REMARK  1 active torsions:
REMARK  status: ('A' for Active; 'I' for Inactive)
REMARK    1  A    between atoms: C8_8  and  O12_12 
ROOT
HETATM    1  C1  UNL     1     -33.148   6.579   3.329  1.00 20.00    -0.049 C 
HETATM    2  C2  UNL     1     -34.416   5.467   5.258  1.00 20.00     0.135 C 
HETATM    3  C3  UNL     1     -32.415   5.630   2.743  1.00 20.00     0.017 C 
HETATM    4  C4  UNL     1     -34.056   5.865   6.679  1.00 20.00     0.079 C 
HETATM    5  C5  UNL     1     -34.236   7.357   6.937  1.00 20.00     0.008 C 
HETATM    6  C6  UNL     1     -33.418   8.176   5.944  1.00 20.00     0.009 C 
HETATM    7  C7  UNL     1     -34.415   6.557   4.162  1.00 20.00     0.092 C 
HETATM    8  C8  UNL     1     -33.013   8.090   3.368  1.00 20.00     0.155 C 
HETATM    9  C9  UNL     1     -34.021   8.009   4.548  1.00 20.00     0.034 C 
HETATM   10  O11 UNL     1     -34.663   4.278   5.016  1.00 20.00    -0.297 OA
ENDROOT
BRANCH   8  11
HETATM   11  O12 UNL     1     -33.485   8.752   2.181  1.00 20.00    -0.386 OA
HETATM   12  C10 UNL     1     -32.768   8.318   1.041  1.00 20.00     0.202 C 
ENDBRANCH   8  11
TORSDOF 1
