REMARK  0 active torsions:
REMARK  status: ('A' for Active; 'I' for Inactive)
ROOT
HETATM    1  C1  UNL     1     -33.066   6.805   3.718  1.00 20.00     0.196 C 
HETATM    2  C2  UNL     1     -33.754   5.516   3.323  1.00 20.00     0.092 C 
HETATM    3  C3  UNL     1     -33.938   4.549   4.492  1.00 20.00     0.019 C 
HETATM    4  C4  UNL     1     -34.834   5.078   5.614  1.00 20.00     0.087 C 
HETATM    5  O5  UNL     1     -31.975   7.155   3.287  1.00 20.00    -0.285 OA
HETATM    6  S6  UNL     1     -34.005   7.817   4.808  1.00 20.00    -0.020 SA
HETATM    7  S7  UNL     1     -34.094   6.536   6.406  1.00 20.00    -0.090 SA
ENDROOT
TORSDOF 0
