REMARK  3 active torsions:
REMARK  status: ('A' for Active; 'I' for Inactive)
REMARK    1  A    between atoms: C2_2  and  C5_5 
REMARK    2  A    between atoms: C4_4  and  C5_5 
REMARK    3  A    between atoms: C4_4  and  C6_6 
ROOT
HETATM    1  C4  UNL     1     -33.146   6.786   5.295  1.00 20.00     0.353 C 
HETATM    2  F7  UNL     1     -33.678   7.077   6.520  1.00 20.00    -0.233 F 
ENDROOT
BRANCH   1   3
HETATM    3  C5  UNL     1     -33.044   8.098   4.524  1.00 20.00     0.300 C 
HETATM    4  F8  UNL     1     -32.417   9.016   5.312  1.00 20.00    -0.198 F 
HETATM    5  F9  UNL     1     -34.311   8.571   4.345  1.00 20.00    -0.198 F 
BRANCH   3   6
HETATM    6  C2  UNL     1     -32.380   7.964   3.186  1.00 20.00     0.050 C 
HETATM    7  C1  UNL     1     -32.961   8.266   2.016  1.00 20.00    -0.029 C 
HETATM    8  C3  UNL     1     -32.286   8.124   0.692  1.00 20.00     0.036 C 
ENDBRANCH   3   6
ENDBRANCH   1   3
BRANCH   1   9
HETATM    9  C6  UNL     1     -34.037   5.739   4.662  1.00 20.00     0.424 C 
HETATM   10  F10 UNL     1     -34.177   4.654   5.450  1.00 20.00    -0.168 F 
HETATM   11  F11 UNL     1     -35.269   6.229   4.404  1.00 20.00    -0.168 F 
HETATM   12  F12 UNL     1     -33.508   5.319   3.490  1.00 20.00    -0.168 F 
ENDBRANCH   1   9
TORSDOF 3
