REMARK  0 active torsions:
REMARK  status: ('A' for Active; 'I' for Inactive)
ROOT
HETATM    1  C1  UNL     1     -34.597   5.685   6.477  1.00 20.00     0.004 C 
HETATM    2  C2  UNL     1     -34.265   7.176   6.579  1.00 20.00     0.005 C 
HETATM    3  C3  UNL     1     -34.193   5.007   5.156  1.00 20.00     0.042 C 
HETATM    4  C4  UNL     1     -33.222   8.483   4.590  1.00 20.00     0.013 A 
HETATM    5  C5  UNL     1     -33.070   7.554   5.761  1.00 20.00    -0.007 A 
HETATM    6  C6  UNL     1     -32.969   7.013   4.351  1.00 20.00     0.029 A 
HETATM    7  C7  UNL     1     -33.999   5.972   3.977  1.00 20.00     0.117 C 
HETATM    8 CL8  UNL     1     -35.562   6.681   3.477  1.00 20.00    -0.101 Cl
HETATM    9 CL9  UNL     1     -33.376   5.043   2.564  1.00 20.00    -0.101 Cl
ENDROOT
TORSDOF 0
