REMARK  0 active torsions:
REMARK  status: ('A' for Active; 'I' for Inactive)
ROOT
HETATM    1  C1  UNL     1     -33.745   4.709   4.038  1.00 20.00    -0.025 A 
HETATM    2  C2  UNL     1     -32.898   5.479   3.348  1.00 20.00    -0.025 A 
HETATM    3  C3  UNL     1     -34.608   5.374   6.339  1.00 20.00     0.009 C 
HETATM    4  C4  UNL     1     -32.024   7.661   4.294  1.00 20.00     0.009 C 
HETATM    5  C5  UNL     1     -33.572   6.424   6.727  1.00 20.00     0.005 C 
HETATM    6  C6  UNL     1     -32.709   8.455   5.401  1.00 20.00     0.005 C 
HETATM    7  C7  UNL     1     -34.745   5.502   4.821  1.00 20.00     0.013 A 
HETATM    8  C8  UNL     1     -33.154   6.936   3.558  1.00 20.00     0.013 A 
HETATM    9  C9  UNL     1     -33.900   7.601   5.807  1.00 20.00    -0.009 C 
HETATM   10  C10 UNL     1     -34.374   6.958   4.500  1.00 20.00     0.005 A 
ENDROOT
TORSDOF 0
