REMARK  1 active torsions:
REMARK  status: ('A' for Active; 'I' for Inactive)
REMARK    1  A    between atoms: C4_4  and  C5_5 
ROOT
HETATM    1  C1  UNL     1     -33.733   7.034   5.049  1.00 20.00     0.069 C 
HETATM    2  C2  UNL     1     -34.959   5.683   6.686  1.00 20.00     0.032 C 
HETATM    3  C3  UNL     1     -35.909   6.070   4.407  1.00 20.00     0.032 C 
HETATM    4  C5  UNL     1     -34.608   5.847   5.196  1.00 20.00     0.054 C 
HETATM    5  N6  UNL     1     -33.047   7.963   4.934  1.00 20.00    -0.196 NA
ENDROOT
BRANCH   4   6
HETATM    6  C4  UNL     1     -33.870   4.574   4.729  1.00 20.00     0.138 C 
HETATM    7 CL7  UNL     1     -33.359   4.623   3.019  1.00 20.00    -0.129 Cl
ENDBRANCH   4   6
TORSDOF 1
