REMARK  0 active torsions:
REMARK  status: ('A' for Active; 'I' for Inactive)
ROOT
HETATM    1  C1  UNL     1     -33.666   7.591   6.647  1.00 20.00    -0.021 C 
HETATM    2  C2  UNL     1     -34.163   4.984   6.611  1.00 20.00    -0.021 C 
HETATM    3  C3  UNL     1     -33.010   7.887   5.497  1.00 20.00    -0.023 C 
HETATM    4  C4  UNL     1     -34.126   4.302   5.437  1.00 20.00    -0.023 C 
HETATM    5  C5  UNL     1     -34.640   6.423   6.485  1.00 20.00     0.035 C 
HETATM    6  C6  UNL     1     -33.147   6.702   4.662  1.00 20.00     0.033 C 
HETATM    7  C7  UNL     1     -34.568   5.157   4.272  1.00 20.00     0.033 C 
HETATM    8  C8  UNL     1     -34.743   6.487   4.983  1.00 20.00     0.015 C 
HETATM    9  C9  UNL     1     -33.579   6.059   3.363  1.00 20.00     0.098 C 
HETATM   10 CL10 UNL     1     -32.346   5.208   2.375  1.00 20.00    -0.124 Cl
ENDROOT
TORSDOF 0
