REMARK  0 active torsions:
REMARK  status: ('A' for Active; 'I' for Inactive)
ROOT
HETATM    1  C1  UNL     1     -34.097   4.389   5.273  1.00 20.00    -0.025 C 
HETATM    2  C2  UNL     1     -33.753   4.968   4.113  1.00 20.00    -0.025 C 
HETATM    3  C3  UNL     1     -35.646   6.054   4.864  1.00 20.00     0.017 C 
HETATM    4  C4  UNL     1     -34.002   6.533   6.509  1.00 20.00     0.013 C 
HETATM    5  C5  UNL     1     -34.929   5.389   6.041  1.00 20.00     0.009 C 
HETATM    6  C6  UNL     1     -34.343   6.361   4.116  1.00 20.00     0.012 C 
HETATM    7  C7  UNL     1     -33.551   7.187   5.164  1.00 20.00    -0.010 C 
HETATM    8  C8  UNL     1     -33.867   8.677   5.110  1.00 20.00     0.010 C 
ENDROOT
TORSDOF 0
