REMARK  0 active torsions:
REMARK  status: ('A' for Active; 'I' for Inactive)
ROOT
HETATM    1  C1  UNL     1     -32.793   8.308   4.733  1.00 20.00     0.131 C 
HETATM    2  C2  UNL     1     -33.652   7.896   5.915  1.00 20.00     0.079 C 
HETATM    3  C3  UNL     1     -33.762   6.372   6.028  1.00 20.00     0.016 C 
HETATM    4  C4  UNL     1     -33.282   5.623   2.194  1.00 20.00     0.006 C 
HETATM    5  C5  UNL     1     -32.408   6.582   1.373  1.00 20.00     0.005 C 
HETATM    6  C6  UNL     1     -33.155   7.651   3.417  1.00 20.00     0.064 C 
HETATM    7  C7  UNL     1     -33.141   6.134   3.623  1.00 20.00     0.005 C 
HETATM    8  C8  UNL     1     -32.176   7.828   2.254  1.00 20.00    -0.007 C 
HETATM    9  C9  UNL     1     -34.144   5.657   4.699  1.00 20.00    -0.043 C 
HETATM   10  C10 UNL     1     -32.386   9.128   1.490  1.00 20.00     0.011 C 
HETATM   11  C11 UNL     1     -34.004   4.135   4.901  1.00 20.00     0.015 C 
HETATM   12  C12 UNL     1     -35.614   5.951   4.345  1.00 20.00     0.015 C 
HETATM   13  O13 UNL     1     -31.937   9.184   4.830  1.00 20.00    -0.298 OA
ENDROOT
TORSDOF 0
