REMARK  1 active torsions:
REMARK  status: ('A' for Active; 'I' for Inactive)
REMARK    1  A    between atoms: C1_1  and  C3_3 
ROOT
HETATM    1  C1  UNL     1     -33.908   6.184   4.392  1.00 20.00     0.043 C 
HETATM    2  C2  UNL     1     -33.044   6.129   3.371  1.00 20.00     0.183 C 
HETATM    3  F4  UNL     1     -32.720   4.937   2.825  1.00 20.00    -0.193 F 
HETATM    4 CL5  UNL     1     -32.326   7.559   2.731  1.00 20.00    -0.052 Cl
ENDROOT
BRANCH   1   5
HETATM    5  C3  UNL     1     -34.573   4.986   4.988  1.00 20.00     0.145 C 
HETATM    6 CL6  UNL     1     -34.149   4.852   6.708  1.00 20.00    -0.126 Cl
ENDBRANCH   1   5
TORSDOF 1
