REMARK  0 active torsions:
REMARK  status: ('A' for Active; 'I' for Inactive)
ROOT
HETATM    1  C1  UNL     1     -33.941   6.864   6.526  1.00 20.00     0.129 C 
HETATM    2  C2  UNL     1     -33.932   5.427   5.969  1.00 20.00     0.254 C 
HETATM    3  C3  UNL     1     -33.760   7.371   5.082  1.00 20.00     0.313 C 
HETATM    4  C4  UNL     1     -34.371   6.027   4.610  1.00 20.00     0.338 C 
HETATM    5  F5  UNL     1     -34.800   4.564   6.540  1.00 20.00    -0.243 F 
HETATM    6  F6  UNL     1     -34.460   8.479   4.755  1.00 20.00    -0.199 F 
HETATM    7  F7  UNL     1     -32.480   7.588   4.700  1.00 20.00    -0.199 F 
HETATM    8  F8  UNL     1     -35.707   6.045   4.392  1.00 20.00    -0.196 F 
HETATM    9  F9  UNL     1     -33.803   5.477   3.515  1.00 20.00    -0.196 F 
ENDROOT
TORSDOF 0
