REMARK  1 active torsions:
REMARK  status: ('A' for Active; 'I' for Inactive)
REMARK    1  A    between atoms: C2_2  and  C10_10 
ROOT
HETATM    1  C1  UNL     1     -33.703   5.897   3.437  1.00 20.00    -0.018 A 
HETATM    2  C2  UNL     1     -33.396   7.124   3.902  1.00 20.00    -0.075 A 
HETATM    3  C3  UNL     1     -34.753   5.601   6.813  1.00 20.00     0.001 C 
HETATM    4  C4  UNL     1     -34.604   4.722   5.577  1.00 20.00     0.009 C 
HETATM    5  C5  UNL     1     -34.064   6.900   6.412  1.00 20.00     0.010 C 
HETATM    6  C6  UNL     1     -34.837   5.689   4.417  1.00 20.00     0.016 A 
HETATM    7  C7  UNL     1     -34.489   7.098   4.958  1.00 20.00     0.022 A 
ENDROOT
BRANCH   2   8
HETATM    8  C10 UNL     1     -32.333   8.171   3.518  1.00 20.00     0.006 C 
HETATM    9  C8  UNL     1     -32.896   9.062   2.435  1.00 20.00     0.014 C 
HETATM   10  C9  UNL     1     -31.926   8.946   4.751  1.00 20.00     0.014 C 
ENDBRANCH   2   8
TORSDOF 1
