REMARK  1 active torsions:
REMARK  status: ('A' for Active; 'I' for Inactive)
REMARK    1  A    between atoms: C2_2  and  C4_4 
ROOT
HETATM    1  C1  UNL     1     -34.727   5.105   5.921  1.00 20.00    -0.034 C 
HETATM    2  C2  UNL     1     -34.601   5.011   4.589  1.00 20.00    -0.016 C 
HETATM    3  C3  UNL     1     -34.102   6.184   6.741  1.00 20.00     0.036 C 
ENDROOT
BRANCH   2   4
HETATM    4  C4  UNL     1     -33.817   5.976   3.762  1.00 20.00     0.141 C 
HETATM    5 CL5  UNL     1     -33.159   5.153   2.332  1.00 20.00    -0.126 Cl
ENDBRANCH   2   4
TORSDOF 1
