REMARK  0 active torsions:
REMARK  status: ('A' for Active; 'I' for Inactive)
ROOT
HETATM    1  C1  UNL     1     -34.150   7.748   6.598  1.00 20.00     0.006 C 
HETATM    2  C2  UNL     1     -34.420   6.278   6.275  1.00 20.00     0.009 C 
HETATM    3  C3  UNL     1     -33.196   8.363   5.606  1.00 20.00    -0.005 A 
HETATM    4  C4  UNL     1     -32.438   7.520   4.627  1.00 20.00    -0.000 A 
HETATM    5  C5  UNL     1     -33.595   8.413   4.170  1.00 20.00    -0.000 A 
HETATM    6  C6  UNL     1     -33.643   6.930   3.960  1.00 20.00     0.003 A 
HETATM    7  C7  UNL     1     -34.611   6.048   4.755  1.00 20.00    -0.043 C 
HETATM    8  C8  UNL     1     -34.323   4.568   4.438  1.00 20.00     0.015 C 
HETATM    9  C9  UNL     1     -36.063   6.353   4.346  1.00 20.00     0.015 C 
ENDROOT
TORSDOF 0
