REMARK  0 active torsions:
REMARK  status: ('A' for Active; 'I' for Inactive)
ROOT
HETATM    1  C1  UNL     1     -33.874   8.198   5.756  1.00 20.00     0.132 C 
HETATM    2  C2  UNL     1     -34.002   7.008   6.665  1.00 20.00     0.079 C 
HETATM    3  C3  UNL     1     -33.855   5.849   5.693  1.00 20.00     0.017 C 
HETATM    4  C4  UNL     1     -33.755   5.724   3.147  1.00 20.00     0.011 C 
HETATM    5  C5  UNL     1     -32.479   6.543   2.997  1.00 20.00     0.010 C 
HETATM    6  C6  UNL     1     -34.104   7.851   4.296  1.00 20.00     0.071 C 
HETATM    7  C7  UNL     1     -34.455   6.343   4.360  1.00 20.00    -0.033 C 
HETATM    8  C8  UNL     1     -32.896   7.991   3.330  1.00 20.00    -0.037 C 
HETATM    9  C9  UNL     1     -35.965   6.092   4.318  1.00 20.00     0.016 C 
HETATM   10  C10 UNL     1     -31.699   8.769   3.891  1.00 20.00     0.015 C 
HETATM   11  C11 UNL     1     -33.365   8.701   2.043  1.00 20.00     0.015 C 
HETATM   12  O12 UNL     1     -33.661   9.334   6.164  1.00 20.00    -0.298 OA
ENDROOT
TORSDOF 0
