REMARK  0 active torsions:
REMARK  status: ('A' for Active; 'I' for Inactive)
ROOT
HETATM    1  C1  UNL     1     -33.176   5.597   3.586  1.00 20.00    -0.080 C 
HETATM    2  C2  UNL     1     -33.094   4.557   2.746  1.00 20.00     0.015 C 
HETATM    3  C3  UNL     1     -32.157   6.705   3.638  1.00 20.00     0.043 C 
HETATM    4  C4  UNL     1     -34.340   5.921   6.989  1.00 20.00     0.002 C 
HETATM    5  C5  UNL     1     -33.534   7.116   6.517  1.00 20.00     0.006 C 
HETATM    6  C6  UNL     1     -34.244   4.969   5.806  1.00 20.00     0.014 C 
HETATM    7  C7  UNL     1     -34.008   7.316   5.070  1.00 20.00     0.006 C 
HETATM    8  C8  UNL     1     -34.313   5.874   4.553  1.00 20.00    -0.017 C 
HETATM    9  C9  UNL     1     -32.972   7.928   4.092  1.00 20.00    -0.040 C 
HETATM   10  C10 UNL     1     -35.704   5.785   3.909  1.00 20.00     0.020 C 
HETATM   11  C11 UNL     1     -33.680   8.578   2.883  1.00 20.00     0.015 C 
HETATM   12  C12 UNL     1     -32.073   8.996   4.729  1.00 20.00     0.015 C 
ENDROOT
TORSDOF 0
