REMARK  0 active torsions:
REMARK  status: ('A' for Active; 'I' for Inactive)
ROOT
HETATM    1  C1  UNL     1     -33.255   5.513   3.383  1.00 20.00     0.006 C 
HETATM    2  C2  UNL     1     -33.010   6.976   3.811  1.00 20.00     0.009 C 
HETATM    3  C3  UNL     1     -35.392   7.150   4.599  1.00 20.00     0.014 C 
HETATM    4  C4  UNL     1     -33.700   6.407   6.161  1.00 20.00     0.014 C 
HETATM    5  C5  UNL     1     -34.314   4.834   4.205  1.00 20.00    -0.006 A 
HETATM    6  C6  UNL     1     -35.479   5.652   4.697  1.00 20.00    -0.005 A 
HETATM    7  C7  UNL     1     -34.434   5.193   5.662  1.00 20.00    -0.005 A 
HETATM    8  C8  UNL     1     -33.912   7.411   4.994  1.00 20.00    -0.043 C 
HETATM    9  C9  UNL     1     -33.654   8.853   5.399  1.00 20.00     0.015 C 
ENDROOT
TORSDOF 0
