REMARK  0 active torsions:
REMARK  status: ('A' for Active; 'I' for Inactive)
ROOT
HETATM    1  C1  UNL     1     -33.366   6.876   6.026  1.00 20.00     0.014 C 
HETATM    2  C2  UNL     1     -33.263   5.933   3.679  1.00 20.00     0.014 C 
HETATM    3  C3  UNL     1     -32.764   8.104   5.399  1.00 20.00    -0.004 A 
HETATM    4  C4  UNL     1     -32.672   7.272   3.327  1.00 20.00    -0.004 A 
HETATM    5  C5  UNL     1     -33.128   8.517   4.011  1.00 20.00    -0.001 A 
HETATM    6  C6  UNL     1     -31.759   7.923   4.311  1.00 20.00    -0.001 A 
HETATM    7  C7  UNL     1     -34.076   5.966   4.995  1.00 20.00    -0.046 C 
HETATM    8  C8  UNL     1     -35.508   6.477   4.727  1.00 20.00     0.015 C 
HETATM    9  C9  UNL     1     -34.188   4.540   5.563  1.00 20.00     0.015 C 
ENDROOT
TORSDOF 0
