REMARK  1 active torsions:
REMARK  status: ('A' for Active; 'I' for Inactive)
REMARK    1  A    between atoms: C1_1  and  C2_2 
ROOT
HETATM    1  C1  UNL     1     -33.598   7.446   5.298  1.00 20.00     0.432 C 
HETATM    2  F3  UNL     1     -34.158   7.495   6.528  1.00 20.00    -0.167 F 
HETATM    3  F4  UNL     1     -34.090   8.493   4.594  1.00 20.00    -0.167 F 
HETATM    4  F5  UNL     1     -32.271   7.654   5.449  1.00 20.00    -0.167 F 
ENDROOT
BRANCH   1   5
HETATM    5  C2  UNL     1     -33.886   6.130   4.601  1.00 20.00     0.267 C 
HETATM    6 CL6  UNL     1     -35.640   5.894   4.410  1.00 20.00    -0.079 Cl
HETATM    7 CL7  UNL     1     -33.096   6.082   3.006  1.00 20.00    -0.079 Cl
HETATM    8 BR8  UNL     1     -33.182   4.658   5.680  1.00 20.00    -0.040 Br
ENDBRANCH   1   5
TORSDOF 1
