REMARK  1 active torsions:
REMARK  status: ('A' for Active; 'I' for Inactive)
REMARK    1  A    between atoms: C1_1  and  C4_4 
ROOT
HETATM    1  C1  UNL     1     -33.315   6.695   4.273  1.00 20.00     0.102 C 
HETATM    2  C2  UNL     1     -33.536   7.495   5.332  1.00 20.00    -0.015 C 
HETATM    3  C3  UNL     1     -34.352   7.130   6.539  1.00 20.00     0.055 C 
HETATM    4  I8  UNL     1     -32.701   9.414   5.354  1.00 20.00    -0.050 I 
ENDROOT
BRANCH   1   5
HETATM    5  C4  UNL     1     -33.836   5.310   4.107  1.00 20.00     0.408 C 
HETATM    6  F5  UNL     1     -33.447   4.752   2.934  1.00 20.00    -0.167 F 
HETATM    7  F6  UNL     1     -35.192   5.263   4.144  1.00 20.00    -0.167 F 
HETATM    8  F7  UNL     1     -33.392   4.490   5.094  1.00 20.00    -0.167 F 
ENDBRANCH   1   5
TORSDOF 1
