REMARK  0 active torsions:
REMARK  status: ('A' for Active; 'I' for Inactive)
ROOT
HETATM    1  C1  UNL     1     -34.049   5.609   6.379  1.00 20.00    -0.018 C 
HETATM    2  C2  UNL     1     -32.773   7.575   3.211  1.00 20.00    -0.018 C 
HETATM    3  C3  UNL     1     -34.386   5.170   5.132  1.00 20.00    -0.078 C 
HETATM    4  C4  UNL     1     -33.273   8.265   4.278  1.00 20.00    -0.078 C 
HETATM    5  C5  UNL     1     -33.976   3.981   4.277  1.00 20.00     0.035 C 
HETATM    6  C6  UNL     1     -32.661   9.147   5.353  1.00 20.00     0.035 C 
HETATM    7  C7  UNL     1     -33.433   4.697   2.929  1.00 20.00     0.013 C 
HETATM    8  C8  UNL     1     -33.140   8.413   6.715  1.00 20.00     0.013 C 
HETATM    9  C9  UNL     1     -33.444   7.003   6.199  1.00 20.00     0.017 C 
HETATM   10  C10 UNL     1     -33.118   6.103   3.448  1.00 20.00     0.017 C 
HETATM   11  C11 UNL     1     -34.440   6.285   4.174  1.00 20.00     0.030 C 
HETATM   12  C12 UNL     1     -34.268   7.464   5.008  1.00 20.00     0.030 C 
ENDROOT
TORSDOF 0
