REMARK  0 active torsions:
REMARK  status: ('A' for Active; 'I' for Inactive)
ROOT
HETATM    1  C1  UNL     1     -33.201   8.106   4.049  1.00 20.00     0.004 C 
HETATM    2  C2  UNL     1     -32.326   7.485   2.963  1.00 20.00     0.005 C 
HETATM    3  C3  UNL     1     -33.454   7.122   5.193  1.00 20.00     0.042 C 
HETATM    4  C4  UNL     1     -32.204   4.929   3.314  1.00 20.00     0.013 A 
HETATM    5  C5  UNL     1     -32.772   6.109   2.565  1.00 20.00    -0.007 A 
HETATM    6  C6  UNL     1     -33.662   5.277   3.461  1.00 20.00     0.029 A 
HETATM    7  C7  UNL     1     -34.223   5.880   4.719  1.00 20.00     0.117 C 
HETATM    8 CL8  UNL     1     -34.215   4.634   6.005  1.00 20.00    -0.101 Cl
HETATM    9 CL9  UNL     1     -35.939   6.320   4.392  1.00 20.00    -0.101 Cl
ENDROOT
TORSDOF 0
