REMARK  0 active torsions:
REMARK  status: ('A' for Active; 'I' for Inactive)
ROOT
HETATM    1  C1  UNL     1     -34.559   4.892   6.123  1.00 20.00    -0.021 C 
HETATM    2  C2  UNL     1     -33.750   4.279   3.834  1.00 20.00    -0.021 C 
HETATM    3  C3  UNL     1     -34.165   6.081   6.600  1.00 20.00    -0.023 C 
HETATM    4  C4  UNL     1     -32.969   5.174   3.214  1.00 20.00    -0.023 C 
HETATM    5  C5  UNL     1     -34.847   4.904   4.648  1.00 20.00     0.035 C 
HETATM    6  C6  UNL     1     -34.130   7.094   5.518  1.00 20.00     0.033 A 
HETATM    7  C7  UNL     1     -33.419   6.555   3.507  1.00 20.00     0.033 A 
HETATM    8  C8  UNL     1     -34.741   6.398   4.286  1.00 20.00     0.015 A 
HETATM    9  C9  UNL     1     -32.788   7.237   4.751  1.00 20.00     0.098 A 
HETATM   10 CL10 UNL     1     -32.135   8.908   4.534  1.00 20.00    -0.124 Cl
ENDROOT
TORSDOF 0
