REMARK  0 active torsions:
REMARK  status: ('A' for Active; 'I' for Inactive)
ROOT
HETATM    1  C1  UNL     1     -33.470   8.420   4.167  1.00 20.00    -0.020 C 
HETATM    2  C2  UNL     1     -32.595   8.231   5.209  1.00 20.00    -0.020 C 
HETATM    3  C3  UNL     1     -34.374   4.943   5.200  1.00 20.00     0.002 C 
HETATM    4  C4  UNL     1     -34.870   6.013   4.180  1.00 20.00     0.014 C 
HETATM    5  C5  UNL     1     -33.187   5.614   5.956  1.00 20.00     0.014 C 
HETATM    6  C6  UNL     1     -33.652   6.908   4.093  1.00 20.00    -0.016 C 
HETATM    7  C7  UNL     1     -33.470   7.077   5.687  1.00 20.00    -0.016 C 
HETATM    8  C8  UNL     1     -32.624   6.299   3.103  1.00 20.00     0.020 C 
HETATM    9  C9  UNL     1     -34.532   7.599   6.690  1.00 20.00     0.020 C 
ENDROOT
TORSDOF 0
