REMARK  0 active torsions:
REMARK  status: ('A' for Active; 'I' for Inactive)
ROOT
HETATM    1  C1  UNL     1     -34.188   5.838   6.046  1.00 20.00    -0.080 C 
HETATM    2  C2  UNL     1     -34.889   5.080   6.899  1.00 20.00     0.015 C 
HETATM    3  C3  UNL     1     -33.173   6.861   6.485  1.00 20.00     0.043 C 
HETATM    4  C4  UNL     1     -32.779   5.208   2.781  1.00 20.00     0.002 C 
HETATM    5  C5  UNL     1     -32.242   6.469   3.430  1.00 20.00     0.006 C 
HETATM    6  C6  UNL     1     -33.671   4.629   3.870  1.00 20.00     0.014 C 
HETATM    7  C7  UNL     1     -33.482   7.083   4.096  1.00 20.00     0.006 C 
HETATM    8  C8  UNL     1     -34.341   5.855   4.535  1.00 20.00    -0.017 C 
HETATM    9  C9  UNL     1     -33.223   7.923   5.374  1.00 20.00    -0.040 C 
HETATM   10  C10 UNL     1     -35.797   5.985   4.065  1.00 20.00     0.020 C 
HETATM   11  C11 UNL     1     -34.387   8.907   5.626  1.00 20.00     0.015 C 
HETATM   12  C12 UNL     1     -31.928   8.745   5.325  1.00 20.00     0.015 C 
ENDROOT
TORSDOF 0
