REMARK  3 active torsions:
REMARK  status: ('A' for Active; 'I' for Inactive)
REMARK    1  A    between atoms: C2_2  and  C8_8 
REMARK    2  A    between atoms: C6_6  and  C7_7 
REMARK    3  A    between atoms: C7_7  and  C8_8 
ROOT
HETATM    1  C5  UNL     1     -32.768   9.006   4.998  1.00 20.00     0.014 C 
HETATM    2  C8  UNL     1     -32.873   7.644   4.307  1.00 20.00     0.004 C 
ENDROOT
BRANCH   2   3
HETATM    3  C2  UNL     1     -34.292   7.138   4.416  1.00 20.00    -0.027 C 
HETATM    4  C1  UNL     1     -34.749   6.419   5.451  1.00 20.00    -0.035 C 
HETATM    5  C3  UNL     1     -33.914   6.029   6.625  1.00 20.00     0.036 C 
ENDBRANCH   2   3
BRANCH   2   6
HETATM    6  C7  UNL     1     -32.417   7.758   2.840  1.00 20.00     0.008 C 
BRANCH   6   7
HETATM    7  C6  UNL     1     -32.980   8.993   2.129  1.00 20.00    -0.004 C 
HETATM    8  C4  UNL     1     -32.566   9.027   0.665  1.00 20.00     0.005 C 
ENDBRANCH   6   7
ENDBRANCH   2   6
TORSDOF 3
