REMARK  0 active torsions:
REMARK  status: ('A' for Active; 'I' for Inactive)
ROOT
HETATM    1  C1  UNL     1     -35.277   6.105   3.634  1.00 20.00    -0.019 A 
HETATM    2  C2  UNL     1     -34.890   7.350   3.961  1.00 20.00    -0.019 A 
HETATM    3  C3  UNL     1     -32.690   5.760   1.922  1.00 20.00    -0.023 C 
HETATM    4  C4  UNL     1     -32.304   7.008   2.234  1.00 20.00    -0.086 C 
HETATM    5  C5  UNL     1     -33.185   4.773   2.936  1.00 20.00     0.042 C 
HETATM    6  C6  UNL     1     -32.337   7.511   3.654  1.00 20.00     0.048 C 
HETATM    7  C7  UNL     1     -34.823   5.119   6.463  1.00 20.00     0.001 C 
HETATM    8  C8  UNL     1     -34.382   6.536   6.837  1.00 20.00     0.001 C 
HETATM    9  C9  UNL     1     -34.071   4.504   5.285  1.00 20.00     0.015 C 
HETATM   10  C10 UNL     1     -33.262   7.108   5.970  1.00 20.00     0.015 C 
HETATM   11  C11 UNL     1     -33.959   5.456   4.078  1.00 20.00    -0.009 A 
HETATM   12  C12 UNL     1     -33.507   6.913   4.461  1.00 20.00    -0.008 A 
HETATM   13  C13 UNL     1     -31.782   7.959   1.199  1.00 20.00     0.043 C 
ENDROOT
TORSDOF 0
