REMARK  0 active torsions:
REMARK  status: ('A' for Active; 'I' for Inactive)
ROOT
HETATM    1  C1  UNL     1     -34.599   6.382   5.788  1.00 20.00     0.147 A 
HETATM    2  C2  UNL     1     -34.085   4.926   4.311  1.00 20.00     0.214 A 
HETATM    3  C3  UNL     1     -33.875   7.061   4.838  1.00 20.00     0.057 A 
HETATM    4  C4  UNL     1     -33.428   8.393   4.630  1.00 20.00     0.033 A 
HETATM    5  C5  UNL     1     -32.708   8.682   3.527  1.00 20.00     0.023 A 
HETATM    6  C6  UNL     1     -32.803   6.398   2.741  1.00 20.00     0.117 A 
HETATM    7  C7  UNL     1     -32.376   7.658   2.539  1.00 20.00     0.027 A 
HETATM    8  N8  UNL     1     -34.725   5.056   5.453  1.00 20.00    -0.253 NA
HETATM    9  N9  UNL     1     -33.545   6.112   3.884  1.00 20.00    -0.314 N 
HETATM   10 BR10 UNL     1     -31.376   8.154   1.048  1.00 20.00    -0.050 Br
ENDROOT
TORSDOF 0
