REMARK  0 active torsions:
REMARK  status: ('A' for Active; 'I' for Inactive)
ROOT
HETATM    1  C1  UNL     1     -34.846   5.457   6.591  1.00 20.00    -0.021 C 
HETATM    2  C2  UNL     1     -34.134   6.558   6.940  1.00 20.00    -0.021 C 
HETATM    3  C3  UNL     1     -33.947   4.589   4.251  1.00 20.00    -0.021 C 
HETATM    4  C4  UNL     1     -33.371   5.411   3.339  1.00 20.00    -0.021 C 
HETATM    5  C5  UNL     1     -32.965   8.224   5.093  1.00 20.00    -0.015 C 
HETATM    6  C6  UNL     1     -33.055   8.018   3.753  1.00 20.00    -0.079 C 
HETATM    7  C7  UNL     1     -34.993   5.296   5.082  1.00 20.00     0.036 C 
HETATM    8  C8  UNL     1     -33.439   6.982   5.718  1.00 20.00     0.036 C 
HETATM    9  C9  UNL     1     -33.929   6.815   3.393  1.00 20.00     0.042 C 
HETATM   10  C10 UNL     1     -34.597   6.704   4.735  1.00 20.00     0.020 C 
HETATM   11  C11 UNL     1     -32.498   8.889   2.686  1.00 20.00     0.044 C 
ENDROOT
TORSDOF 0
