REMARK  0 active torsions:
REMARK  status: ('A' for Active; 'I' for Inactive)
ROOT
HETATM    1  C1  UNL     1     -33.385   7.523   6.407  1.00 20.00    -0.019 A 
HETATM    2  C2  UNL     1     -33.060   7.966   5.185  1.00 20.00    -0.086 A 
HETATM    3  C3  UNL     1     -34.237   4.930   4.961  1.00 20.00     0.132 C 
HETATM    4  C4  UNL     1     -33.898   7.373   4.087  1.00 20.00     0.046 A 
HETATM    5  C5  UNL     1     -34.126   5.062   6.490  1.00 20.00     0.088 C 
HETATM    6  C6  UNL     1     -34.503   6.556   6.329  1.00 20.00     0.027 A 
HETATM    7  C7  UNL     1     -34.792   6.364   4.808  1.00 20.00     0.067 A 
HETATM    8  C8  UNL     1     -31.990   8.950   4.866  1.00 20.00     0.043 C 
HETATM    9  O9  UNL     1     -33.974   4.043   4.177  1.00 20.00    -0.298 OA
ENDROOT
TORSDOF 0
