REMARK  0 active torsions:
REMARK  status: ('A' for Active; 'I' for Inactive)
ROOT
HETATM    1  C1  UNL     1     -35.007   5.012   4.808  1.00 20.00     0.003 C 
HETATM    2  C2  UNL     1     -34.318   5.357   3.716  1.00 20.00     0.050 C 
HETATM    3  C3  UNL     1     -34.739   5.323   6.187  1.00 20.00    -0.004 C 
HETATM    4  C4  UNL     1     -34.051   6.362   6.674  1.00 20.00    -0.021 C 
HETATM    5  C5  UNL     1     -33.114   6.216   3.634  1.00 20.00     0.154 C 
HETATM    6  C6  UNL     1     -34.058   8.260   4.935  1.00 20.00     0.022 A 
HETATM    7  C7  UNL     1     -33.355   7.444   5.984  1.00 20.00     0.020 A 
HETATM    8  C8  UNL     1     -32.908   7.358   4.556  1.00 20.00     0.068 A 
HETATM    9  O9  UNL     1     -32.301   6.019   2.735  1.00 20.00    -0.293 OA
ENDROOT
TORSDOF 0
