REMARK  0 active torsions:
REMARK  status: ('A' for Active; 'I' for Inactive)
ROOT
HETATM    1  C1  UNL     1     -32.454   5.643   2.612  1.00 20.00    -0.023 C 
HETATM    2  C2  UNL     1     -32.273   6.971   2.677  1.00 20.00    -0.080 C 
HETATM    3  C3  UNL     1     -34.192   5.445   5.433  1.00 20.00     0.127 C 
HETATM    4  C4  UNL     1     -32.451   4.672   3.753  1.00 20.00     0.035 C 
HETATM    5  C5  UNL     1     -32.346   7.828   1.434  1.00 20.00     0.034 C 
HETATM    6  C6  UNL     1     -33.849   4.467   4.326  1.00 20.00     0.082 C 
HETATM    7  C7  UNL     1     -34.164   6.930   5.128  1.00 20.00     0.079 C 
HETATM    8  C8  UNL     1     -32.070   9.238   1.936  1.00 20.00     0.005 C 
HETATM    9  C9  UNL     1     -32.744   7.485   5.229  1.00 20.00     0.016 C 
HETATM   10  C10 UNL     1     -32.557   9.214   3.377  1.00 20.00     0.009 C 
HETATM   11  C11 UNL     1     -32.077   7.850   3.894  1.00 20.00     0.014 C 
HETATM   12  O12 UNL     1     -34.501   5.041   6.556  1.00 20.00    -0.298 OA
ENDROOT
TORSDOF 0
