REMARK  1 active torsions:
REMARK  status: ('A' for Active; 'I' for Inactive)
REMARK    1  A    between atoms: C7_7  and  C8_8 
ROOT
HETATM    1  C1  UNL     1     -34.029   4.389   4.753  1.00 20.00    -0.026 C 
HETATM    2  C2  UNL     1     -34.345   4.895   5.955  1.00 20.00    -0.025 C 
HETATM    3  C3  UNL     1     -35.444   6.178   4.382  1.00 20.00     0.017 C 
HETATM    4  C4  UNL     1     -33.141   6.554   3.943  1.00 20.00     0.014 C 
HETATM    5  C5  UNL     1     -34.239   5.487   3.738  1.00 20.00     0.009 C 
HETATM    6  C6  UNL     1     -34.752   6.337   5.740  1.00 20.00     0.013 C 
HETATM    7  C7  UNL     1     -33.466   7.120   5.363  1.00 20.00     0.007 C 
ENDROOT
BRANCH   7   8
HETATM    8  C8  UNL     1     -33.670   8.630   5.352  1.00 20.00     0.119 C 
HETATM    9 CL9  UNL     1     -32.200   9.443   4.784  1.00 20.00    -0.130 Cl
ENDBRANCH   7   8
TORSDOF 1
