REMARK  0 active torsions:
REMARK  status: ('A' for Active; 'I' for Inactive)
ROOT
HETATM    1  C1  UNL     1     -32.372   7.499   2.919  1.00 20.00     0.135 C 
HETATM    2  C2  UNL     1     -33.264   6.374   2.458  1.00 20.00     0.080 C 
HETATM    3  C3  UNL     1     -33.533   5.363   3.566  1.00 20.00     0.016 C 
HETATM    4  C4  UNL     1     -32.493   9.138   4.906  1.00 20.00     0.023 A 
HETATM    5  C5  UNL     1     -33.730   6.967   5.563  1.00 20.00     0.014 C 
HETATM    6  C6  UNL     1     -33.757   8.323   4.918  1.00 20.00     0.003 A 
HETATM    7  C7  UNL     1     -33.068   8.630   3.599  1.00 20.00     0.021 A 
HETATM    8  C8  UNL     1     -34.415   5.837   4.754  1.00 20.00    -0.047 C 
HETATM    9  C9  UNL     1     -33.700   9.671   2.705  1.00 20.00     0.024 C 
HETATM   10  C10 UNL     1     -35.821   6.249   4.282  1.00 20.00     0.015 C 
HETATM   11  C11 UNL     1     -34.581   4.626   5.705  1.00 20.00     0.015 C 
HETATM   12  O12 UNL     1     -31.159   7.513   2.747  1.00 20.00    -0.297 OA
ENDROOT
TORSDOF 0
