REMARK  0 active torsions:
REMARK  status: ('A' for Active; 'I' for Inactive)
ROOT
HETATM    1  C1  UNL     1     -34.526   4.539   4.421  1.00 20.00     0.004 C 
HETATM    2  C2  UNL     1     -34.697   5.222   5.593  1.00 20.00    -0.017 C 
HETATM    3  C3  UNL     1     -33.742   7.850   5.871  1.00 20.00    -0.021 C 
HETATM    4  C4  UNL     1     -33.018   8.433   4.861  1.00 20.00    -0.024 C 
HETATM    5  C5  UNL     1     -33.024   5.524   2.411  1.00 20.00    -0.019 C 
HETATM    6  C6  UNL     1     -33.700   5.314   3.541  1.00 20.00    -0.056 C 
HETATM    7  C7  UNL     1     -32.497   6.998   2.404  1.00 20.00     0.036 C 
HETATM    8  C8  UNL     1     -33.706   6.352   5.709  1.00 20.00     0.039 C 
HETATM    9  C9  UNL     1     -32.486   7.370   3.909  1.00 20.00     0.020 C 
HETATM   10  C10 UNL     1     -33.697   6.573   4.238  1.00 20.00     0.037 C 
ENDROOT
TORSDOF 0
