REMARK  3 active torsions:
REMARK  status: ('A' for Active; 'I' for Inactive)
REMARK    1  A    between atoms: C1_1  and  C3_3 
REMARK    2  A    between atoms: C1_1  and  C4_4 
REMARK    3  A    between atoms: C2_2  and  C3_3 
ROOT
HETATM    1  C1  UNL     1     -33.645   6.864   5.192  1.00 20.00     0.197 C 
ENDROOT
BRANCH   1   2
HETATM    2  C3  UNL     1     -33.114   7.397   3.866  1.00 20.00     0.264 C 
HETATM    3  F5  UNL     1     -32.707   6.357   3.094  1.00 20.00    -0.205 F 
HETATM    4  F6  UNL     1     -32.024   8.172   4.097  1.00 20.00    -0.205 F 
BRANCH   2   5
HETATM    5  C2  UNL     1     -34.160   8.205   3.117  1.00 20.00     0.193 C 
HETATM    6 CL10 UNL     1     -33.492   8.837   1.590  1.00 20.00    -0.124 Cl
ENDBRANCH   2   5
ENDBRANCH   1   2
BRANCH   1   7
HETATM    7  C4  UNL     1     -34.510   5.632   5.016  1.00 20.00     0.393 C 
HETATM    8  F7  UNL     1     -34.996   5.196   6.198  1.00 20.00    -0.171 F 
HETATM    9  F8  UNL     1     -35.565   5.907   4.217  1.00 20.00    -0.171 F 
HETATM   10  F9  UNL     1     -33.821   4.620   4.448  1.00 20.00    -0.171 F 
ENDBRANCH   1   7
TORSDOF 3
