REMARK  1 active torsions:
REMARK  status: ('A' for Active; 'I' for Inactive)
REMARK    1  A    between atoms: C2_2  and  C6_6 
ROOT
HETATM    1  C1  UNL     1     -32.602   8.697   3.779  1.00 20.00     0.167 A 
HETATM    2  C2  UNL     1     -33.836   6.779   4.553  1.00 20.00     0.024 A 
HETATM    3  C3  UNL     1     -33.026   6.570   3.457  1.00 20.00     0.116 A 
HETATM    4  N7  UNL     1     -32.318   7.669   3.011  1.00 20.00    -0.245 NA
HETATM    5  S8  UNL     1     -33.713   8.414   5.056  1.00 20.00    -0.084 SA
HETATM    6 BR9  UNL     1     -32.844   4.904   2.565  1.00 20.00    -0.028 Br
ENDROOT
BRANCH   2   7
HETATM    7  C6  UNL     1     -34.727   5.735   5.247  1.00 20.00     0.028 A 
HETATM    8  C4  UNL     1     -34.542   5.498   6.728  1.00 20.00     0.010 A 
HETATM    9  C5  UNL     1     -34.089   4.460   5.749  1.00 20.00     0.010 A 
ENDBRANCH   2   7
TORSDOF 1
