REMARK  1 active torsions:
REMARK  status: ('A' for Active; 'I' for Inactive)
REMARK    1  A    between atoms: C3_3  and  C9_9 
ROOT
HETATM    1  C1  UNL     1     -33.125   9.270   3.234  1.00 20.00     0.017 A 
HETATM    2  C2  UNL     1     -32.742   9.572   1.895  1.00 20.00     0.028 A 
HETATM    3  C3  UNL     1     -32.911   7.945   3.546  1.00 20.00    -0.012 A 
HETATM    4  C4  UNL     1     -32.249   8.467   1.236  1.00 20.00     0.051 A 
HETATM    5  S10 UNL     1     -32.251   7.073   2.229  1.00 20.00    -0.087 SA
HETATM    6 BR11 UNL     1     -31.638   8.472  -0.562  1.00 20.00    -0.043 Br
ENDROOT
BRANCH   3   7
HETATM    7  C9  UNL     1     -33.181   7.235   4.843  1.00 20.00     0.026 C 
HETATM    8  C7  UNL     1     -34.192   6.090   4.751  1.00 20.00     0.010 C 
HETATM    9  C5  UNL     1     -34.609   5.832   6.197  1.00 20.00     0.001 C 
HETATM   10  C6  UNL     1     -34.286   7.109   6.974  1.00 20.00     0.001 C 
HETATM   11  C8  UNL     1     -33.776   8.113   5.945  1.00 20.00     0.010 C 
ENDBRANCH   3   7
TORSDOF 1
