REMARK  1 active torsions:
REMARK  status: ('A' for Active; 'I' for Inactive)
REMARK    1  A    between atoms: C3_3  and  C5_5 
ROOT
HETATM    1  C1  UNL     1     -32.896   8.743   3.122  1.00 20.00     0.144 A 
HETATM    2  C2  UNL     1     -32.556   7.633   2.377  1.00 20.00     0.071 A 
HETATM    3  C3  UNL     1     -33.615   7.191   4.494  1.00 20.00     0.103 A 
HETATM    4  N7  UNL     1     -33.504   8.491   4.336  1.00 20.00    -0.251 NA
HETATM    5  S8  UNL     1     -33.009   6.212   3.222  1.00 20.00    -0.061 SA
HETATM    6 BR9  UNL     1     -31.717   7.656   0.681  1.00 20.00    -0.041 Br
ENDROOT
BRANCH   3   7
HETATM    7  C5  UNL     1     -34.197   6.531   5.636  1.00 20.00    -0.035 C 
HETATM    8  C4  UNL     1     -34.108   7.148   6.830  1.00 20.00     0.021 C 
HETATM    9  C6  UNL     1     -34.885   5.188   5.553  1.00 20.00     0.050 C 
ENDBRANCH   3   7
TORSDOF 1
