REMARK  0 active torsions:
REMARK  status: ('A' for Active; 'I' for Inactive)
ROOT
HETATM    1  C1  UNL     1     -33.156   7.956   4.875  1.00 20.00     0.136 C 
HETATM    2  C2  UNL     1     -33.378   6.719   4.028  1.00 20.00     0.088 C 
HETATM    3  C3  UNL     1     -34.275   8.427   5.755  1.00 20.00     0.152 C 
HETATM    4  C4  UNL     1     -34.106   5.668   6.232  1.00 20.00     0.083 C 
HETATM    5  C5  UNL     1     -34.246   5.629   4.696  1.00 20.00    -0.033 C 
HETATM    6  C6  UNL     1     -33.751   4.248   4.210  1.00 20.00     0.016 C 
HETATM    7  C7  UNL     1     -35.721   5.756   4.259  1.00 20.00     0.016 C 
HETATM    8  O8  UNL     1     -32.111   8.603   4.781  1.00 20.00    -0.297 OA
HETATM    9  S9  UNL     1     -34.631   7.216   7.046  1.00 20.00    -0.161 SA
ENDROOT
TORSDOF 0
