REMARK  1 active torsions:
REMARK  status: ('A' for Active; 'I' for Inactive)
REMARK    1  A    between atoms: C4_4  and  C5_5 
ROOT
HETATM    1  C1  UNL     1     -33.147   7.708   5.394  1.00 20.00     0.059 C 
HETATM    2  C5  UNL     1     -34.158   7.606   6.442  1.00 20.00     0.132 C 
HETATM    3  N6  UNL     1     -32.336   7.808   4.570  1.00 20.00    -0.197 NA
ENDROOT
BRANCH   2   4
HETATM    4  C4  UNL     1     -34.939   6.354   6.102  1.00 20.00     0.046 C 
HETATM    5  C2  UNL     1     -34.121   5.095   5.796  1.00 20.00     0.175 C 
HETATM    6  O7  UNL     1     -34.812   4.907   4.536  1.00 20.00    -0.390 OA
HETATM    7  C3  UNL     1     -35.421   6.216   4.654  1.00 20.00     0.175 C 
ENDBRANCH   2   4
TORSDOF 1
