REMARK  1 active torsions:
REMARK  status: ('A' for Active; 'I' for Inactive)
REMARK    1  A    between atoms: C3_3  and  C5_5 
ROOT
HETATM    1  C1  UNL     1     -32.994   8.019   5.056  1.00 20.00     0.022 A 
HETATM    2  C2  UNL     1     -32.383   8.631   3.924  1.00 20.00     0.028 A 
HETATM    3  C3  UNL     1     -33.480   6.763   4.765  1.00 20.00     0.048 A 
HETATM    4  C4  UNL     1     -32.425   7.820   2.811  1.00 20.00     0.052 A 
HETATM    5  S8  UNL     1     -33.200   6.328   3.133  1.00 20.00    -0.082 SA
HETATM    6 BR9  UNL     1     -31.714   8.288   1.113  1.00 20.00    -0.043 Br
ENDROOT
BRANCH   3   7
HETATM    7  C5  UNL     1     -34.175   5.815   5.662  1.00 20.00     0.393 C 
HETATM    8  F6  UNL     1     -35.433   5.539   5.213  1.00 20.00    -0.208 F 
HETATM    9  F7  UNL     1     -34.329   6.337   6.912  1.00 20.00    -0.208 F 
ENDBRANCH   3   7
TORSDOF 1
