REMARK  0 active torsions:
REMARK  status: ('A' for Active; 'I' for Inactive)
ROOT
HETATM    1  C1  UNL     1     -32.292   8.360   0.582  1.00 20.00     0.012 C 
HETATM    2  C2  UNL     1     -32.443   7.794   1.630  1.00 20.00    -0.113 C 
HETATM    3  C3  UNL     1     -33.505   5.859   2.740  1.00 20.00     0.047 C 
HETATM    4  C4  UNL     1     -33.256   8.040   3.950  1.00 20.00     0.047 C 
HETATM    5  C5  UNL     1     -33.805   5.194   4.085  1.00 20.00     0.273 C 
HETATM    6  C6  UNL     1     -33.564   7.303   5.256  1.00 20.00     0.273 C 
HETATM    7  C7  UNL     1     -32.628   7.102   2.916  1.00 20.00     0.067 C 
HETATM    8  C8  UNL     1     -34.758   5.479   6.279  1.00 20.00     0.309 C 
HETATM    9  N9  UNL     1     -34.431   6.142   5.017  1.00 20.00     0.084 N 
ENDROOT
TORSDOF 0
