REMARK  0 active torsions:
REMARK  status: ('A' for Active; 'I' for Inactive)
ROOT
HETATM    1  C1  UNL     1     -34.590   6.198   6.642  1.00 20.00     0.011 C 
HETATM    2  C2  UNL     1     -33.682   7.362   6.249  1.00 20.00     0.017 C 
HETATM    3  C3  UNL     1     -34.250   4.904   5.915  1.00 20.00     0.074 C 
HETATM    4  C4  UNL     1     -33.336   6.511   3.869  1.00 20.00     0.089 C 
HETATM    5  C5  UNL     1     -33.753   7.675   4.757  1.00 20.00     0.067 C 
HETATM    6  S6  UNL     1     -34.420   5.073   4.115  1.00 20.00    -0.168 SA
HETATM    7 BR7  UNL     1     -32.561   9.191   4.384  1.00 20.00    -0.090 Br
ENDROOT
TORSDOF 0
