REMARK  1 active torsions:
REMARK  status: ('A' for Active; 'I' for Inactive)
REMARK    1  A    between atoms: C9_9  and  S11_11 
ROOT
HETATM    1  C1  UNL     1     -34.131   5.638   5.893  1.00 20.00     0.015 A 
HETATM    2  C2  UNL     1     -33.314   7.783   5.036  1.00 20.00     0.016 A 
HETATM    3  C3  UNL     1     -34.301   4.267   5.728  1.00 20.00     0.025 A 
HETATM    4  C4  UNL     1     -32.686   8.508   4.034  1.00 20.00     0.039 A 
HETATM    5  C5  UNL     1     -33.213   4.411   3.579  1.00 20.00     0.056 A 
HETATM    6  C6  UNL     1     -33.499   6.401   4.896  1.00 20.00    -0.007 A 
HETATM    7  C7  UNL     1     -33.030   5.784   3.717  1.00 20.00     0.070 A 
HETATM    8  C8  UNL     1     -33.841   3.653   4.570  1.00 20.00     0.036 A 
HETATM    9  C9  UNL     1     -32.262   7.818   2.917  1.00 20.00     0.091 A 
HETATM   10  N10 UNL     1     -32.420   6.486   2.743  1.00 20.00    -0.242 NA
HETATM   11 CL12 UNL     1     -34.045   1.957   4.356  1.00 20.00    -0.084 Cl
ENDROOT
BRANCH   9  12
HETATM   12  S11 UNL     1     -31.449   8.700   1.596  1.00 20.00    -0.123 SA
HETATM   13  H18 UNL     1     -31.500   9.920   2.151  1.00 20.00     0.108 HD
ENDBRANCH   9  12
TORSDOF 1
