REMARK  0 active torsions:
REMARK  status: ('A' for Active; 'I' for Inactive)
ROOT
HETATM    1  C1  UNL     1     -33.097   8.509   5.683  1.00 20.00     0.050 A 
HETATM    2  C2  UNL     1     -32.290   7.766   3.506  1.00 20.00     0.062 A 
HETATM    3  C3  UNL     1     -33.662   6.344   4.818  1.00 20.00     0.034 A 
HETATM    4  C4  UNL     1     -33.748   7.295   5.827  1.00 20.00    -0.040 A 
HETATM    5  C5  UNL     1     -32.364   8.743   4.514  1.00 20.00     0.118 A 
HETATM    6  C6  UNL     1     -32.946   6.544   3.652  1.00 20.00     0.028 A 
HETATM    7  C7  UNL     1     -34.431   5.179   5.225  1.00 20.00     0.161 A 
HETATM    8  C8  UNL     1     -34.579   6.841   6.983  1.00 20.00     0.047 A 
HETATM    9  C9  UNL     1     -35.036   5.427   6.585  1.00 20.00     0.088 A 
HETATM   10  O10 UNL     1     -34.572   4.156   4.580  1.00 20.00    -0.292 OA
HETATM   11  F11 UNL     1     -31.726   9.910   4.353  1.00 20.00    -0.206 F 
HETATM   12 BR12 UNL     1     -32.808   5.276   2.260  1.00 20.00    -0.050 Br
ENDROOT
TORSDOF 0
