REMARK  0 active torsions:
REMARK  status: ('A' for Active; 'I' for Inactive)
ROOT
HETATM    1  C1  UNL     1     -32.397   6.001   2.655  1.00 20.00    -0.002 C 
HETATM    2  C2  UNL     1     -32.692   7.072   3.582  1.00 20.00     0.009 C 
HETATM    3  C3  UNL     1     -33.257   4.983   2.835  1.00 20.00    -0.013 C 
HETATM    4  C4  UNL     1     -34.511   4.497   5.025  1.00 20.00     0.006 C 
HETATM    5  C5  UNL     1     -34.665   5.040   6.248  1.00 20.00     0.113 C 
HETATM    6  C6  UNL     1     -34.145   7.177   5.631  1.00 20.00     0.124 C 
HETATM    7  C7  UNL     1     -33.753   6.698   4.302  1.00 20.00    -0.029 C 
HETATM    8  C8  UNL     1     -34.301   5.385   3.838  1.00 20.00     0.066 C 
HETATM    9  N9  UNL     1     -34.600   6.388   6.559  1.00 20.00    -0.273 NA
ENDROOT
TORSDOF 0
