REMARK  0 active torsions:
REMARK  status: ('A' for Active; 'I' for Inactive)
ROOT
HETATM    1  C1  UNL     1     -33.203   5.973   3.477  1.00 20.00    -0.057 C 
HETATM    2  C2  UNL     1     -34.082   6.395   5.755  1.00 20.00    -0.057 C 
HETATM    3  C3  UNL     1     -32.567   5.025   2.773  1.00 20.00     0.016 C 
HETATM    4  C4  UNL     1     -34.180   5.799   6.953  1.00 20.00     0.016 C 
HETATM    5  C5  UNL     1     -34.300   5.650   4.461  1.00 20.00     0.070 C 
HETATM    6  C6  UNL     1     -32.859   7.442   3.362  1.00 20.00     0.306 C 
HETATM    7  C7  UNL     1     -33.721   7.856   5.599  1.00 20.00     0.306 C 
HETATM    8  C8  UNL     1     -32.241   9.450   4.551  1.00 20.00     0.310 C 
HETATM    9  N9  UNL     1     -32.577   8.033   4.684  1.00 20.00     0.091 N 
ENDROOT
TORSDOF 0
