REMARK  1 active torsions:
REMARK  status: ('A' for Active; 'I' for Inactive)
REMARK    1  A    between atoms: C2_2  and  C3_3 
ROOT
HETATM    1  C1  UNL     1     -33.698   5.956   6.269  1.00 20.00     0.080 C 
HETATM    2  C2  UNL     1     -34.218   6.072   4.845  1.00 20.00     0.272 C 
HETATM    3  F4  UNL     1     -35.577   6.156   4.897  1.00 20.00    -0.216 F 
HETATM    4 CL8  UNL     1     -33.781   4.609   3.924  1.00 20.00    -0.073 Cl
ENDROOT
BRANCH   2   5
HETATM    5  C3  UNL     1     -33.697   7.308   4.141  1.00 20.00     0.437 C 
HETATM    6  F5  UNL     1     -32.348   7.300   4.070  1.00 20.00    -0.166 F 
HETATM    7  F6  UNL     1     -34.169   7.376   2.876  1.00 20.00    -0.166 F 
HETATM    8  F7  UNL     1     -34.071   8.440   4.777  1.00 20.00    -0.166 F 
ENDBRANCH   2   5
TORSDOF 1
