REMARK  1 active torsions:
REMARK  status: ('A' for Active; 'I' for Inactive)
REMARK    1  A    between atoms: C4_4  and  C5_5 
ROOT
HETATM    1  C5  UNL     1     -33.598   6.492   4.465  1.00 20.00     0.039 C 
HETATM    2  C6  UNL     1     -33.900   7.280   5.731  1.00 20.00     0.060 C 
HETATM    3  C7  UNL     1     -34.817   6.538   6.685  1.00 20.00     0.008 C 
HETATM    4  C8  UNL     1     -34.379   5.090   6.764  1.00 20.00     0.022 C 
HETATM    5  C9  UNL     1     -34.496   4.463   5.387  1.00 20.00     0.149 C 
HETATM    6  N10 UNL     1     -33.843   5.233   4.333  1.00 20.00    -0.293 NA
ENDROOT
BRANCH   1   7
HETATM    7  C4  UNL     1     -32.950   7.217   3.326  1.00 20.00    -0.005 A 
HETATM    8  C1  UNL     1     -32.588   8.595   3.323  1.00 20.00     0.021 A 
HETATM    9  C2  UNL     1     -32.011   8.976   2.131  1.00 20.00     0.050 A 
HETATM   10  S11 UNL     1     -31.909   7.675   1.023  1.00 20.00    -0.113 SA
HETATM   11  C3  UNL     1     -32.637   6.597   2.136  1.00 20.00     0.063 A 
ENDBRANCH   1   7
TORSDOF 1
