REMARK  1 active torsions:
REMARK  status: ('A' for Active; 'I' for Inactive)
REMARK    1  A    between atoms: C4_4  and  C8_8 
ROOT
HETATM    1  C5  UNL     1     -34.272   4.478   5.717  1.00 20.00     0.033 C 
HETATM    2  C6  UNL     1     -34.839   5.851   5.381  1.00 20.00     0.042 C 
HETATM    3  C7  UNL     1     -33.839   3.932   4.372  1.00 20.00     0.273 C 
HETATM    4  C8  UNL     1     -34.192   6.236   4.038  1.00 20.00     0.256 C 
HETATM    5  C9  UNL     1     -33.067   4.925   2.301  1.00 20.00     0.310 C 
HETATM    6  N10 UNL     1     -33.275   5.120   3.730  1.00 20.00     0.093 N 
ENDROOT
BRANCH   4   7
HETATM    7  C4  UNL     1     -33.484   7.573   4.093  1.00 20.00    -0.018 A 
HETATM    8  C1  UNL     1     -32.829   8.172   2.978  1.00 20.00     0.017 A 
HETATM    9  C2  UNL     1     -32.265   9.387   3.300  1.00 20.00     0.050 A 
HETATM   10  S11 UNL     1     -32.527   9.802   4.941  1.00 20.00    -0.113 SA
HETATM   11  C3  UNL     1     -33.396   8.354   5.225  1.00 20.00     0.058 A 
ENDBRANCH   4   7
TORSDOF 1
