REMARK  1 active torsions:
REMARK  status: ('A' for Active; 'I' for Inactive)
REMARK    1  A    between atoms: C2_2  and  C6_6 
ROOT
HETATM    1  C1  UNL     1     -32.700   6.180   2.691  1.00 20.00     0.119 A 
HETATM    2  C2  UNL     1     -34.027   6.551   4.430  1.00 20.00     0.043 A 
HETATM    3  C3  UNL     1     -33.671   5.431   3.530  1.00 20.00     0.105 A 
HETATM    4  N7  UNL     1     -32.556   7.416   3.044  1.00 20.00    -0.167 NA
HETATM    5  N8  UNL     1     -33.410   7.659   4.167  1.00 20.00    -0.159 NA
ENDROOT
BRANCH   2   6
HETATM    6  C6  UNL     1     -34.993   6.412   5.529  1.00 20.00     0.035 A 
HETATM    7  C4  UNL     1     -34.781   5.344   6.565  1.00 20.00     0.011 A 
HETATM    8  C5  UNL     1     -34.576   6.784   6.925  1.00 20.00     0.011 A 
ENDBRANCH   2   6
TORSDOF 1
