REMARK  1 active torsions:
REMARK  status: ('A' for Active; 'I' for Inactive)
REMARK    1  A    between atoms: C1_1  and  C3_3 
ROOT
HETATM    1  C3  UNL     1     -34.247   6.298   5.292  1.00 20.00     0.408 C 
HETATM    2  F4  UNL     1     -34.722   7.000   6.352  1.00 20.00    -0.167 F 
HETATM    3  F5  UNL     1     -33.647   5.189   5.794  1.00 20.00    -0.167 F 
HETATM    4  F6  UNL     1     -35.326   5.874   4.588  1.00 20.00    -0.167 F 
ENDROOT
BRANCH   1   5
HETATM    5  C1  UNL     1     -33.296   7.111   4.485  1.00 20.00     0.096 C 
HETATM    6  C2  UNL     1     -32.679   6.669   3.384  1.00 20.00     0.060 C 
HETATM    7 BR7  UNL     1     -32.900   4.971   2.673  1.00 20.00    -0.064 Br
ENDBRANCH   1   5
TORSDOF 1
