REMARK  0 active torsions:
REMARK  status: ('A' for Active; 'I' for Inactive)
ROOT
HETATM    1  C1  UNL     1     -34.272   6.840   4.929  1.00 20.00    -0.037 C 
HETATM    2  C2  UNL     1     -33.719   5.801   4.001  1.00 20.00     0.040 C 
HETATM    3  C3  UNL     1     -32.742   7.373   2.592  1.00 20.00     0.243 C 
HETATM    4  C4  UNL     1     -34.802   6.529   6.118  1.00 20.00    -0.022 C 
HETATM    5  C5  UNL     1     -34.148   8.249   4.438  1.00 20.00     0.049 C 
HETATM    6  C6  UNL     1     -32.838   8.410   3.690  1.00 20.00     0.110 C 
HETATM    7  C7  UNL     1     -33.958   4.338   4.305  1.00 20.00     0.071 C 
HETATM    8  C8  UNL     1     -34.901   5.139   6.648  1.00 20.00     0.036 C 
HETATM    9  N9  UNL     1     -33.030   6.069   2.934  1.00 20.00    -0.219 NA
HETATM   10  O10 UNL     1     -32.350   7.696   1.472  1.00 20.00    -0.271 OA
ENDROOT
TORSDOF 0
