REMARK  0 active torsions:
REMARK  status: ('A' for Active; 'I' for Inactive)
ROOT
HETATM    1  C1  UNL     1     -33.646   7.061   3.908  1.00 20.00     0.075 C 
HETATM    2  C2  UNL     1     -32.555   8.061   4.271  1.00 20.00     0.273 C 
HETATM    3  C3  UNL     1     -33.654   7.404   6.244  1.00 20.00     0.312 C 
HETATM    4  C4  UNL     1     -33.944   6.334   5.208  1.00 20.00     0.127 C 
HETATM    5  C5  UNL     1     -33.108   5.072   5.383  1.00 20.00     0.053 C 
HETATM    6  N6  UNL     1     -32.464   8.096   5.739  1.00 20.00     0.086 N 
HETATM    7  F7  UNL     1     -35.255   5.991   5.250  1.00 20.00    -0.241 F 
HETATM    8  H17 UNL     1     -31.612   7.641   6.059  1.00 20.00     0.316 HD
ENDROOT
TORSDOF 0
