REMARK  0 active torsions:
REMARK  status: ('A' for Active; 'I' for Inactive)
ROOT
HETATM    1  C1  UNL     1     -32.857   7.992   3.802  1.00 20.00     0.034 A 
HETATM    2  C2  UNL     1     -34.025   4.693   4.173  1.00 20.00     0.027 A 
HETATM    3  C3  UNL     1     -32.457   7.271   2.584  1.00 20.00     0.118 A 
HETATM    4  C4  UNL     1     -34.135   7.005   5.753  1.00 20.00     0.124 A 
HETATM    5  C5  UNL     1     -33.475   7.008   4.447  1.00 20.00     0.011 A 
HETATM    6  C6  UNL     1     -33.454   5.797   3.692  1.00 20.00     0.066 A 
HETATM    7  C7  UNL     1     -34.704   4.694   5.520  1.00 20.00     0.178 A 
HETATM    8  N8  UNL     1     -32.794   6.016   2.513  1.00 20.00    -0.261 NA
HETATM    9  N9  UNL     1     -34.703   5.973   6.271  1.00 20.00    -0.297 NA
ENDROOT
TORSDOF 0
