REMARK  1 active torsions:
REMARK  status: ('A' for Active; 'I' for Inactive)
REMARK    1  A    between atoms: C3_3  and  C4_4 
ROOT
HETATM    1  C1  UNL     1     -33.589   6.062   4.258  1.00 20.00     0.067 A 
HETATM    2  C2  UNL     1     -33.393   7.354   4.674  1.00 20.00     0.080 A 
HETATM    3  C3  UNL     1     -32.598   7.088   2.723  1.00 20.00     0.208 A 
HETATM    4  C5  UNL     1     -34.280   5.047   5.080  1.00 20.00     0.062 C 
HETATM    5  C6  UNL     1     -33.763   7.962   5.963  1.00 20.00     0.067 C 
HETATM    6  C7  UNL     1     -34.369   5.524   6.551  1.00 20.00     0.006 C 
HETATM    7  C8  UNL     1     -34.757   7.018   6.679  1.00 20.00     0.007 C 
HETATM    8  N9  UNL     1     -33.082   5.893   3.002  1.00 20.00    -0.224 NA
HETATM    9  O11 UNL     1     -32.747   8.038   3.698  1.00 20.00    -0.292 OA
ENDROOT
BRANCH   3  10
HETATM   10  C4  UNL     1     -31.949   7.444   1.510  1.00 20.00     0.316 C 
HETATM   11  O10 UNL     1     -31.494   8.583   1.259  1.00 20.00    -0.298 OA
ENDBRANCH   3  10
TORSDOF 1
