REMARK  3 active torsions:
REMARK  status: ('A' for Active; 'I' for Inactive)
REMARK    1  A    between atoms: C5_5  and  C8_8 
REMARK    2  A    between atoms: C7_7  and  N9_9 
REMARK    3  A    between atoms: C8_8  and  N9_9 
ROOT
HETATM    1  C1  UNL     1     -33.953   8.363   5.480  1.00 20.00     0.013 C 
HETATM    2  C2  UNL     1     -34.376   7.288   5.809  1.00 20.00    -0.087 C 
HETATM    3  C7  UNL     1     -34.890   5.978   6.214  1.00 20.00     0.362 C 
ENDROOT
BRANCH   3   4
HETATM    4  N9  UNL     1     -35.469   5.273   5.070  1.00 20.00     0.094 N 
HETATM    5  H22 UNL     1     -36.099   4.545   5.424  1.00 20.00     0.317 HD
BRANCH   4   6
HETATM    6  C8  UNL     1     -34.453   4.688   4.238  1.00 20.00     0.275 C 
BRANCH   6   7
HETATM    7  C5  UNL     1     -33.836   5.706   3.343  1.00 20.00     0.018 A 
HETATM    8  C3  UNL     1     -33.090   5.276   2.108  1.00 20.00     0.011 A 
HETATM    9  C4  UNL     1     -32.337   5.849   3.280  1.00 20.00    -0.013 A 
HETATM   10  C6  UNL     1     -31.718   7.200   3.184  1.00 20.00     0.010 C 
ENDBRANCH   6   7
ENDBRANCH   4   6
ENDBRANCH   3   4
TORSDOF 3
