REMARK  3 active torsions:
REMARK  status: ('A' for Active; 'I' for Inactive)
REMARK    1  A    between atoms: C5_5  and  C8_8 
REMARK    2  A    between atoms: C7_7  and  N9_9 
REMARK    3  A    between atoms: C8_8  and  N9_9 
ROOT
HETATM    1  C1  UNL     1     -33.017   8.103   1.604  1.00 20.00     0.013 C 
HETATM    2  C2  UNL     1     -32.479   7.799   2.633  1.00 20.00    -0.087 C 
HETATM    3  C7  UNL     1     -31.820   7.423   3.887  1.00 20.00     0.362 C 
ENDROOT
BRANCH   3   4
HETATM    4  N9  UNL     1     -32.107   8.404   4.935  1.00 20.00     0.094 N 
HETATM    5  H22 UNL     1     -31.393   8.312   5.666  1.00 20.00     0.317 HD
BRANCH   4   6
HETATM    6  C8  UNL     1     -33.418   8.216   5.493  1.00 20.00     0.275 C 
BRANCH   6   7
HETATM    7  C5  UNL     1     -33.422   7.117   6.499  1.00 20.00     0.018 A 
HETATM    8  C3  UNL     1     -34.693   6.751   7.220  1.00 20.00     0.011 A 
HETATM    9  C4  UNL     1     -34.084   5.783   6.240  1.00 20.00    -0.013 A 
HETATM   10  C6  UNL     1     -34.780   5.471   4.960  1.00 20.00     0.010 C 
ENDBRANCH   6   7
ENDBRANCH   4   6
ENDBRANCH   3   4
TORSDOF 3
