REMARK  0 active torsions:
REMARK  status: ('A' for Active; 'I' for Inactive)
ROOT
HETATM    1  C1  UNL     1     -33.844   6.940   5.675  1.00 20.00     0.014 C 
HETATM    2  C2  UNL     1     -33.390   8.335   5.381  1.00 20.00     0.085 C 
HETATM    3  C3  UNL     1     -34.259   4.732   5.234  1.00 20.00     0.034 C 
HETATM    4  C4  UNL     1     -34.759   5.164   6.605  1.00 20.00     0.149 C 
HETATM    5  C5  UNL     1     -33.275   8.533   3.869  1.00 20.00     0.277 C 
HETATM    6  C6  UNL     1     -33.156   6.154   3.418  1.00 20.00     0.282 C 
HETATM    7  C7  UNL     1     -33.248   5.808   4.900  1.00 20.00     0.063 C 
HETATM    8  C8  UNL     1     -32.311   7.736   1.808  1.00 20.00     0.309 C 
HETATM    9  N9  UNL     1     -34.680   6.641   6.621  1.00 20.00    -0.298 NA
HETATM   10  N10 UNL     1     -32.490   7.457   3.234  1.00 20.00     0.085 N 
ENDROOT
TORSDOF 0
