REMARK  2 active torsions:
REMARK  status: ('A' for Active; 'I' for Inactive)
REMARK    1  A    between atoms: C1_1  and  C8_8 
REMARK    2  A    between atoms: C8_8  and  O9_9 
ROOT
HETATM    1  C1  UNL     1     -34.394   6.985   4.262  1.00 20.00     0.026 A 
HETATM    2  C2  UNL     1     -33.104   6.929   5.068  1.00 20.00    -0.034 A 
HETATM    3  C3  UNL     1     -33.138   6.429   3.607  1.00 20.00    -0.034 A 
HETATM    4  C4  UNL     1     -32.432   8.249   5.383  1.00 20.00     0.016 C 
HETATM    5  C5  UNL     1     -32.947   5.940   6.201  1.00 20.00     0.016 C 
HETATM    6  C6  UNL     1     -33.015   4.951   3.310  1.00 20.00     0.016 C 
HETATM    7  C7  UNL     1     -32.497   7.271   2.523  1.00 20.00     0.016 C 
ENDROOT
BRANCH   1   8
HETATM    8  C8  UNL     1     -35.591   6.154   4.575  1.00 20.00     0.170 C 
BRANCH   8   9
HETATM    9  O9  UNL     1     -35.185   4.835   4.940  1.00 20.00    -0.400 OA
HETATM   10  H25 UNL     1     -35.997   4.342   5.131  1.00 20.00     0.209 HD
ENDBRANCH   8   9
ENDBRANCH   1   8
TORSDOF 2
