REMARK  0 active torsions:
REMARK  status: ('A' for Active; 'I' for Inactive)
ROOT
HETATM    1  C1  UNL     1     -33.051   6.638   3.862  1.00 20.00     0.136 C 
HETATM    2  C2  UNL     1     -31.927   7.633   4.025  1.00 20.00     0.084 C 
HETATM    3  C3  UNL     1     -34.257   5.750   6.600  1.00 20.00     0.002 C 
HETATM    4  C4  UNL     1     -33.147   6.815   6.724  1.00 20.00     0.006 C 
HETATM    5  C5  UNL     1     -33.762   9.354   3.922  1.00 20.00     0.006 C 
HETATM    6  C6  UNL     1     -35.082   6.082   5.336  1.00 20.00     0.018 C 
HETATM    7  C7  UNL     1     -34.865   8.261   3.798  1.00 20.00     0.018 C 
HETATM    8  C8  UNL     1     -32.686   8.698   4.841  1.00 20.00    -0.002 C 
HETATM    9  C9  UNL     1     -33.600   7.912   5.777  1.00 20.00     0.006 C 
HETATM   10  C10 UNL     1     -34.270   7.139   4.639  1.00 20.00     0.024 C 
HETATM   11  O11 UNL     1     -32.996   5.616   3.196  1.00 20.00    -0.297 OA
ENDROOT
TORSDOF 0
