REMARK  0 active torsions:
REMARK  status: ('A' for Active; 'I' for Inactive)
ROOT
HETATM    1  C1  UNL     1     -33.423   6.125   3.765  1.00 20.00     0.136 C 
HETATM    2  C2  UNL     1     -34.319   6.657   4.880  1.00 20.00     0.084 C 
HETATM    3  C3  UNL     1     -32.393   8.909   1.434  1.00 20.00     0.002 C 
HETATM    4  C4  UNL     1     -33.171   9.544   2.605  1.00 20.00     0.006 C 
HETATM    5  C5  UNL     1     -32.505   8.342   5.360  1.00 20.00     0.006 C 
HETATM    6  C6  UNL     1     -32.210   7.409   1.761  1.00 20.00     0.018 C 
HETATM    7  C7  UNL     1     -31.624   7.698   4.275  1.00 20.00     0.018 C 
HETATM    8  C8  UNL     1     -33.932   8.168   4.809  1.00 20.00    -0.002 C 
HETATM    9  C9  UNL     1     -33.767   8.339   3.303  1.00 20.00     0.006 C 
HETATM   10  C10 UNL     1     -32.648   7.292   3.195  1.00 20.00     0.024 C 
HETATM   11  O11 UNL     1     -33.332   4.960   3.418  1.00 20.00    -0.297 OA
ENDROOT
TORSDOF 0
