REMARK  1 active torsions:
REMARK  status: ('A' for Active; 'I' for Inactive)
REMARK    1  A    between atoms: C3_3  and  C5_5 
ROOT
HETATM    1  C1  UNL     1     -32.588   9.119   4.782  1.00 20.00     0.221 A 
HETATM    2  C4  UNL     1     -33.771   8.517   4.001  1.00 20.00     0.138 A 
HETATM    3  C5  UNL     1     -33.111   7.140   4.294  1.00 20.00     0.060 A 
HETATM    4  C7  UNL     1     -32.510   6.417   3.101  1.00 20.00     0.044 C 
HETATM    5  N8  UNL     1     -32.085   7.880   5.029  1.00 20.00    -0.348 N 
HETATM    6  O9  UNL     1     -32.212  10.227   5.085  1.00 20.00    -0.273 OA
HETATM    7  H20 UNL     1     -31.250   7.603   5.527  1.00 20.00     0.163 HD
ENDROOT
BRANCH   3   8
HETATM    8  C3  UNL     1     -33.884   6.254   5.191  1.00 20.00    -0.065 C 
HETATM    9  C2  UNL     1     -34.311   5.044   4.797  1.00 20.00     0.016 C 
HETATM   10  C6  UNL     1     -34.164   6.784   6.566  1.00 20.00     0.045 C 
ENDBRANCH   3   8
TORSDOF 1
