REMARK  0 active torsions:
REMARK  status: ('A' for Active; 'I' for Inactive)
ROOT
HETATM    1  C1  UNL     1     -32.780   7.804   4.131  1.00 20.00     0.272 A 
HETATM    2  C2  UNL     1     -32.864   5.717   3.269  1.00 20.00     0.272 A 
HETATM    3  C3  UNL     1     -33.991   7.203   4.724  1.00 20.00     0.109 A 
HETATM    4  C4  UNL     1     -34.047   5.807   4.148  1.00 20.00     0.109 A 
HETATM    5  C5  UNL     1     -33.949   6.003   5.644  1.00 20.00    -0.021 A 
HETATM    6  C6  UNL     1     -32.671   5.654   6.364  1.00 20.00     0.016 C 
HETATM    7  C7  UNL     1     -35.188   5.718   6.457  1.00 20.00     0.016 C 
HETATM    8  O8  UNL     1     -32.393   8.937   4.368  1.00 20.00    -0.264 OA
HETATM    9  O9  UNL     1     -32.563   4.723   2.628  1.00 20.00    -0.264 OA
HETATM   10  O10 UNL     1     -32.182   6.906   3.284  1.00 20.00    -0.244 OA
ENDROOT
TORSDOF 0
