REMARK  0 active torsions:
REMARK  status: ('A' for Active; 'I' for Inactive)
ROOT
HETATM    1  C1  UNL     1     -34.258   4.427   5.365  1.00 20.00    -0.019 C 
HETATM    2  C2  UNL     1     -34.556   5.157   6.443  1.00 20.00     0.080 C 
HETATM    3  C3  UNL     1     -33.865   5.018   4.052  1.00 20.00     0.037 C 
HETATM    4 CL4  UNL     1     -34.521   6.870   6.448  1.00 20.00    -0.097 Cl
ENDROOT
TORSDOF 0
