REMARK  1 active torsions:
REMARK  status: ('A' for Active; 'I' for Inactive)
REMARK    1  A    between atoms: C7_7  and  N9_9 
ROOT
HETATM    1  C1  UNL     1     -34.121   8.274   5.095  1.00 20.00     0.031 C 
HETATM    2  C4  UNL     1     -34.314   6.774   5.294  1.00 20.00     0.019 C 
HETATM    3  C5  UNL     1     -32.779   8.578   4.424  1.00 20.00     0.273 C 
HETATM    4  C6  UNL     1     -32.743   6.398   3.352  1.00 20.00     0.288 C 
HETATM    5  C8  UNL     1     -34.089   6.036   3.980  1.00 20.00     0.086 C 
HETATM    6  N9  UNL     1     -32.562   7.846   3.169  1.00 20.00     0.094 N 
HETATM    7 BR10 UNL     1     -34.153   4.109   4.304  1.00 20.00    -0.089 Br
ENDROOT
BRANCH   6   8
HETATM    8  C7  UNL     1     -33.343   8.392   2.032  1.00 20.00     0.223 A 
HETATM    9  C2  UNL     1     -33.143   9.814   1.585  1.00 20.00     0.038 A 
HETATM   10  C3  UNL     1     -32.676   8.683   0.716  1.00 20.00     0.038 A 
ENDBRANCH   6   8
TORSDOF 1
