REMARK  1 active torsions:
REMARK  status: ('A' for Active; 'I' for Inactive)
REMARK    1  A    between atoms: C5_5  and  O7_7 
ROOT
HETATM    1  C1  UNL     1     -35.176   5.907   4.820  1.00 20.00     0.015 C 
HETATM    2  C2  UNL     1     -34.294   6.707   4.671  1.00 20.00    -0.075 C 
HETATM    3  C3  UNL     1     -32.524   7.618   3.129  1.00 20.00     0.221 A 
HETATM    4  C4  UNL     1     -33.683   9.066   4.038  1.00 20.00     0.221 A 
HETATM    5  C5  UNL     1     -33.231   7.670   4.491  1.00 20.00     0.162 A 
HETATM    6  O6  UNL     1     -32.927   8.969   2.810  1.00 20.00    -0.383 OA
ENDROOT
BRANCH   5   7
HETATM    7  O7  UNL     1     -32.373   7.631   5.648  1.00 20.00    -0.373 OA
HETATM    8  H13 UNL     1     -32.937   7.857   6.399  1.00 20.00     0.212 HD
ENDBRANCH   5   7
TORSDOF 1
