REMARK  2 active torsions:
REMARK  status: ('A' for Active; 'I' for Inactive)
REMARK    1  A    between atoms: C3_3  and  C4_4 
REMARK    2  A    between atoms: C5_5  and  C6_6 
ROOT
HETATM    1  C1  UNL     1     -34.221   5.663   5.467  1.00 20.00     0.087 C 
HETATM    2  C2  UNL     1     -33.829   6.544   4.424  1.00 20.00     0.093 C 
HETATM    3  C3  UNL     1     -32.996   7.569   4.649  1.00 20.00     0.011 C 
HETATM    4  N7  UNL     1     -34.544   4.941   6.317  1.00 20.00    -0.192 NA
ENDROOT
BRANCH   3   5
HETATM    5  C4  UNL     1     -32.577   8.485   3.611  1.00 20.00    -0.002 C 
HETATM    6  C5  UNL     1     -33.403   8.944   2.659  1.00 20.00    -0.012 C 
BRANCH   6   7
HETATM    7  C6  UNL     1     -32.979   9.897   1.590  1.00 20.00     0.141 C 
HETATM    8 CL8  UNL     1     -33.221   9.161  -0.009  1.00 20.00    -0.126 Cl
ENDBRANCH   6   7
ENDBRANCH   3   5
TORSDOF 2
