REMARK  0 active torsions:
REMARK  status: ('A' for Active; 'I' for Inactive)
ROOT
HETATM    1  C1  UNL     1     -33.626   5.034   3.247  1.00 20.00     0.069 C 
HETATM    2  C2  UNL     1     -34.649   5.405   6.871  1.00 20.00     0.002 C 
HETATM    3  C3  UNL     1     -34.236   6.833   6.519  1.00 20.00     0.002 C 
HETATM    4  C4  UNL     1     -34.371   4.562   5.626  1.00 20.00     0.024 C 
HETATM    5  C5  UNL     1     -33.728   6.788   5.078  1.00 20.00     0.024 C 
HETATM    6  C6  UNL     1     -34.398   5.556   4.458  1.00 20.00     0.045 C 
HETATM    7  C7  UNL     1     -35.789   5.859   4.058  1.00 20.00     0.031 C 
HETATM    8  N8  UNL     1     -33.041   4.639   2.327  1.00 20.00    -0.196 NA
ENDROOT
TORSDOF 0
