REMARK  2 active torsions:
REMARK  status: ('A' for Active; 'I' for Inactive)
REMARK    1  A    between atoms: C3_3  and  C4_4 
REMARK    2  A    between atoms: C3_3  and  O6_6 
ROOT
HETATM    1  C1  UNL     1     -33.758   7.790   4.782  1.00 20.00     0.081 C 
HETATM    2  C4  UNL     1     -34.583   6.795   5.477  1.00 20.00     0.212 C 
HETATM    3  N5  UNL     1     -33.109   8.579   4.231  1.00 20.00    -0.196 NA
HETATM    4 CL7  UNL     1     -33.584   6.027   6.740  1.00 20.00    -0.107 Cl
ENDROOT
BRANCH   2   5
HETATM    5  C3  UNL     1     -35.151   5.749   4.523  1.00 20.00     0.202 C 
BRANCH   5   6
HETATM    6  O6  UNL     1     -34.177   4.761   4.209  1.00 20.00    -0.394 OA
HETATM    7  C2  UNL     1     -33.251   5.233   3.240  1.00 20.00     0.201 C 
ENDBRANCH   5   6
ENDBRANCH   2   5
TORSDOF 2
