REMARK  2 active torsions:
REMARK  status: ('A' for Active; 'I' for Inactive)
REMARK    1  A    between atoms: C1_1  and  C2_2 
REMARK    2  A    between atoms: C3_3  and  C7_7 
ROOT
HETATM    1  C1  UNL     1     -33.494   7.433   3.894  1.00 20.00     0.061 C 
HETATM    2  C3  UNL     1     -33.786   6.723   4.999  1.00 20.00     0.022 C 
HETATM    3 CL9  UNL     1     -33.306   7.309   6.578  1.00 20.00    -0.088 Cl
ENDROOT
BRANCH   2   4
HETATM    4  C7  UNL     1     -34.539   5.378   5.014  1.00 20.00    -0.013 C 
HETATM    5  C4  UNL     1     -34.688   4.863   6.462  1.00 20.00     0.020 C 
HETATM    6  C5  UNL     1     -35.966   5.471   4.421  1.00 20.00     0.020 C 
HETATM    7  C6  UNL     1     -33.775   4.328   4.178  1.00 20.00     0.020 C 
ENDBRANCH   2   4
BRANCH   1   8
HETATM    8  C2  UNL     1     -32.770   8.727   3.868  1.00 20.00     0.260 C 
HETATM    9  O8  UNL     1     -31.929   9.010   4.714  1.00 20.00    -0.302 OA
ENDBRANCH   1   8
TORSDOF 2
