REMARK  1 active torsions:
REMARK  status: ('A' for Active; 'I' for Inactive)
REMARK    1  A    between atoms: C6_6  and  C8_8 
ROOT
HETATM    1  C1  UNL     1     -33.073   8.034   3.519  1.00 20.00     0.069 C 
HETATM    2  C2  UNL     1     -34.223   6.237   6.643  1.00 20.00     0.002 C 
HETATM    3  C3  UNL     1     -35.319   5.857   5.647  1.00 20.00     0.002 C 
HETATM    4  C4  UNL     1     -33.285   7.189   5.902  1.00 20.00     0.024 C 
HETATM    5  C5  UNL     1     -34.992   6.598   4.351  1.00 20.00     0.024 C 
HETATM    6  C6  UNL     1     -33.484   6.868   4.416  1.00 20.00     0.049 C 
HETATM    7  N9  UNL     1     -32.761   8.920   2.838  1.00 20.00    -0.196 NA
ENDROOT
BRANCH   6   8
HETATM    8  C8  UNL     1     -32.717   5.663   4.031  1.00 20.00     0.020 C 
HETATM    9  C7  UNL     1     -32.970   5.279   2.611  1.00 20.00     0.007 C 
ENDBRANCH   6   8
TORSDOF 1
