REMARK  3 active torsions:
REMARK  status: ('A' for Active; 'I' for Inactive)
REMARK    1  A    between atoms: C3_3  and  C8_8 
REMARK    2  A    between atoms: C3_3  and  O10_10 
REMARK    3  A    between atoms: C6_6  and  C8_8 
ROOT
HETATM    1  C1  UNL     1     -31.973   8.851   3.561  1.00 20.00    -0.026 C 
HETATM    2  C2  UNL     1     -32.799   8.693   4.599  1.00 20.00    -0.025 C 
HETATM    3  C4  UNL     1     -32.811   6.647   3.416  1.00 20.00     0.017 C 
HETATM    4  C5  UNL     1     -32.050   7.704   2.600  1.00 20.00     0.004 C 
HETATM    5  C6  UNL     1     -33.579   7.418   4.502  1.00 20.00     0.018 C 
HETATM    6  C7  UNL     1     -32.775   8.091   1.316  1.00 20.00     0.014 C 
ENDROOT
BRANCH   5   7
HETATM    7  C8  UNL     1     -33.644   6.654   5.816  1.00 20.00     0.118 C 
BRANCH   7   8
HETATM    8  C3  UNL     1     -34.440   5.382   5.687  1.00 20.00     0.140 C 
HETATM    9  O9  UNL     1     -34.188   4.443   4.947  1.00 20.00    -0.650 OA
BRANCH   8  10
HETATM   10  O10 UNL     1     -35.507   5.416   6.526  1.00 20.00    -0.776 OA
HETATM   11  H22 UNL     1     -36.046   4.598   6.465  1.00 20.00     0.167 HD
ENDBRANCH   8  10
ENDBRANCH   7   8
ENDBRANCH   5   7
TORSDOF 3
