REMARK  0 active torsions:
REMARK  status: ('A' for Active; 'I' for Inactive)
ROOT
HETATM    1  C1  UNL     1     -33.509   5.093   3.427  1.00 20.00     0.095 C 
HETATM    2  C2  UNL     1     -33.741   5.852   6.571  1.00 20.00    -0.026 C 
HETATM    3  C3  UNL     1     -34.412   6.938   6.165  1.00 20.00    -0.001 C 
HETATM    4  C4  UNL     1     -33.842   4.544   5.839  1.00 20.00     0.077 C 
HETATM    5  C5  UNL     1     -35.329   6.911   4.978  1.00 20.00     0.298 C 
HETATM    6  C6  UNL     1     -34.489   4.672   4.447  1.00 20.00     0.329 C 
HETATM    7  N7  UNL     1     -32.738   5.424   2.626  1.00 20.00    -0.195 NA
HETATM    8  N8  UNL     1     -35.656   5.567   4.478  1.00 20.00     0.105 N 
HETATM    9  H16 UNL     1     -36.386   5.164   5.074  1.00 20.00     0.318 HD
ENDROOT
TORSDOF 0
