REMARK  1 active torsions:
REMARK  status: ('A' for Active; 'I' for Inactive)
REMARK    1  A    between atoms: C1_1  and  C5_5 
ROOT
HETATM    1  C2  UNL     1     -33.424   7.304   6.067  1.00 20.00     0.029 C 
HETATM    2  C3  UNL     1     -34.206   7.529   4.794  1.00 20.00     0.047 C 
HETATM    3  C4  UNL     1     -34.316   6.340   6.817  1.00 20.00     0.169 C 
HETATM    4  C5  UNL     1     -34.829   6.160   4.550  1.00 20.00     0.110 C 
HETATM    5  C6  UNL     1     -36.184   6.231   3.865  1.00 20.00     0.053 C 
HETATM    6  O8  UNL     1     -34.962   5.525   5.828  1.00 20.00    -0.373 OA
ENDROOT
BRANCH   4   7
HETATM    7  C1  UNL     1     -33.922   5.272   3.745  1.00 20.00     0.268 C 
HETATM    8  O7  UNL     1     -33.124   5.695   2.916  1.00 20.00    -0.304 OA
ENDBRANCH   4   7
TORSDOF 1
