REMARK  2 active torsions:
REMARK  status: ('A' for Active; 'I' for Inactive)
REMARK    1  A    between atoms: C6_6  and  C7_7 
REMARK    2  A    between atoms: C7_7  and  C8_8 
ROOT
HETATM    1  C1  UNL     1     -32.689   5.917   2.764  1.00 20.00     0.059 C 
HETATM    2  C6  UNL     1     -32.779   7.325   3.187  1.00 20.00     0.129 C 
HETATM    3  N9  UNL     1     -32.616   4.808   2.428  1.00 20.00    -0.197 NA
ENDROOT
BRANCH   2   4
HETATM    4  C7  UNL     1     -32.817   7.471   4.729  1.00 20.00     0.002 C 
HETATM    5  C2  UNL     1     -32.291   8.866   5.121  1.00 20.00     0.011 C 
BRANCH   4   6
HETATM    6  C8  UNL     1     -34.233   7.145   5.343  1.00 20.00    -0.047 C 
HETATM    7  C3  UNL     1     -34.244   7.257   6.879  1.00 20.00     0.015 C 
HETATM    8  C4  UNL     1     -34.666   5.712   4.958  1.00 20.00     0.015 C 
HETATM    9  C5  UNL     1     -35.305   8.105   4.781  1.00 20.00     0.015 C 
ENDBRANCH   4   6
ENDBRANCH   2   4
TORSDOF 2
