REMARK  2 active torsions:
REMARK  status: ('A' for Active; 'I' for Inactive)
REMARK    1  A    between atoms: C3_3  and  C4_4 
REMARK    2  A    between atoms: C3_3  and  O6_6 
ROOT
HETATM    1  C1  UNL     1     -33.307   6.317   3.314  1.00 20.00     0.081 C 
HETATM    2  C4  UNL     1     -34.086   6.455   4.549  1.00 20.00     0.212 C 
HETATM    3  N5  UNL     1     -32.694   6.206   2.335  1.00 20.00    -0.196 NA
HETATM    4 CL7  UNL     1     -34.541   4.823   5.108  1.00 20.00    -0.107 Cl
ENDROOT
BRANCH   2   5
HETATM    5  C3  UNL     1     -33.319   7.204   5.635  1.00 20.00     0.202 C 
BRANCH   5   6
HETATM    6  O6  UNL     1     -33.364   8.609   5.418  1.00 20.00    -0.394 OA
HETATM    7  C2  UNL     1     -32.449   9.009   4.407  1.00 20.00     0.201 C 
ENDBRANCH   5   6
ENDBRANCH   2   5
TORSDOF 2
