REMARK  2 active torsions:
REMARK  status: ('A' for Active; 'I' for Inactive)
REMARK    1  A    between atoms: C1_1  and  C7_7 
REMARK    2  A    between atoms: C2_2  and  C3_3 
ROOT
HETATM    1  C1  UNL     1     -33.600   7.695   5.512  1.00 20.00    -0.013 C 
HETATM    2  C3  UNL     1     -34.315   6.558   5.455  1.00 20.00    -0.028 C 
HETATM    3  C4  UNL     1     -34.998   5.847   6.580  1.00 20.00     0.051 C 
ENDROOT
BRANCH   1   4
HETATM    4  C7  UNL     1     -32.909   8.400   4.368  1.00 20.00     0.000 C 
HETATM    5  C5  UNL     1     -32.225   9.671   4.873  1.00 20.00     0.013 C 
HETATM    6  C6  UNL     1     -31.889   7.465   3.717  1.00 20.00     0.013 C 
ENDBRANCH   1   4
BRANCH   2   7
HETATM    7  C2  UNL     1     -34.432   5.935   4.106  1.00 20.00     0.265 C 
HETATM    8  O8  UNL     1     -34.030   4.804   3.857  1.00 20.00    -0.302 OA
ENDBRANCH   2   7
TORSDOF 2
