REMARK  0 active torsions:
REMARK  status: ('A' for Active; 'I' for Inactive)
ROOT
HETATM    1  C1  UNL     1     -34.452   5.041   4.357  1.00 20.00     0.068 C 
HETATM    2  C2  UNL     1     -32.565   8.993   5.471  1.00 20.00     0.009 A 
HETATM    3  C3  UNL     1     -32.484   9.649   4.241  1.00 20.00     0.019 A 
HETATM    4  C4  UNL     1     -34.120   8.133   3.271  1.00 20.00     0.028 A 
HETATM    5  C5  UNL     1     -33.433   7.920   5.586  1.00 20.00    -0.050 A 
HETATM    6  C6  UNL     1     -34.200   7.489   4.496  1.00 20.00    -0.033 A 
HETATM    7  C7  UNL     1     -33.256   9.223   3.150  1.00 20.00     0.011 A 
HETATM    8  C8  UNL     1     -33.665   7.050   6.780  1.00 20.00     0.041 C 
HETATM    9  C9  UNL     1     -34.989   6.366   6.399  1.00 20.00     0.028 C 
HETATM   10  C10 UNL     1     -35.033   6.292   4.858  1.00 20.00     0.126 C 
HETATM   11  N11 UNL     1     -33.992   4.051   3.961  1.00 20.00    -0.197 NA
HETATM   12 BR12 UNL     1     -33.117  10.130   1.495  1.00 20.00    -0.051 Br
ENDROOT
TORSDOF 0
