REMARK  2 active torsions:
REMARK  status: ('A' for Active; 'I' for Inactive)
REMARK    1  A    between atoms: C5_5  and  C6_6 
REMARK    2  A    between atoms: C6_6  and  C7_7 
ROOT
HETATM    1  C1  UNL     1     -32.719   6.822   2.750  1.00 20.00     0.131 C 
HETATM    2  C2  UNL     1     -31.940   7.766   1.869  1.00 20.00     0.079 C 
HETATM    3  C3  UNL     1     -32.430   9.126   2.350  1.00 20.00     0.008 C 
HETATM    4  C4  UNL     1     -32.742   8.916   3.826  1.00 20.00     0.013 C 
HETATM    5  C5  UNL     1     -33.433   7.551   3.871  1.00 20.00     0.064 C 
HETATM    6  O8  UNL     1     -32.764   5.611   2.574  1.00 20.00    -0.298 OA
ENDROOT
BRANCH   5   7
HETATM    7  C6  UNL     1     -33.291   6.860   5.212  1.00 20.00     0.129 C 
BRANCH   7   8
HETATM    8  C7  UNL     1     -34.222   5.683   5.330  1.00 20.00     0.388 C 
HETATM    9  F9  UNL     1     -35.515   6.053   5.214  1.00 20.00    -0.171 F 
HETATM   10  F10 UNL     1     -34.071   5.100   6.540  1.00 20.00    -0.171 F 
HETATM   11  F11 UNL     1     -33.968   4.746   4.391  1.00 20.00    -0.171 F 
ENDBRANCH   7   8
ENDBRANCH   5   7
TORSDOF 2
