REMARK  2 active torsions:
REMARK  status: ('A' for Active; 'I' for Inactive)
REMARK    1  A    between atoms: C5_5  and  C6_6 
REMARK    2  A    between atoms: C6_6  and  C7_7 
ROOT
HETATM    1  C1  UNL     1     -33.780   4.919   4.311  1.00 20.00     0.131 C 
HETATM    2  C2  UNL     1     -33.463   4.229   5.614  1.00 20.00     0.079 C 
HETATM    3  C3  UNL     1     -34.565   4.754   6.526  1.00 20.00     0.008 C 
HETATM    4  C4  UNL     1     -34.856   6.154   6.002  1.00 20.00     0.013 C 
HETATM    5  C5  UNL     1     -34.833   5.995   4.480  1.00 20.00     0.064 C 
HETATM    6  O8  UNL     1     -33.243   4.638   3.247  1.00 20.00    -0.298 OA
ENDROOT
BRANCH   5   7
HETATM    7  C6  UNL     1     -34.488   7.281   3.756  1.00 20.00     0.129 C 
BRANCH   7   8
HETATM    8  C7  UNL     1     -33.018   7.591   3.846  1.00 20.00     0.388 C 
HETATM    9  F9  UNL     1     -32.616   7.741   5.126  1.00 20.00    -0.171 F 
HETATM   10  F10 UNL     1     -32.754   8.746   3.196  1.00 20.00    -0.171 F 
HETATM   11  F11 UNL     1     -32.266   6.623   3.281  1.00 20.00    -0.171 F 
ENDBRANCH   7   8
ENDBRANCH   5   7
TORSDOF 2
