REMARK  4 active torsions:
REMARK  status: ('A' for Active; 'I' for Inactive)
REMARK    1  A    between atoms: C1_1  and  C6_6 
REMARK    2  A    between atoms: C1_1  and  C8_8 
REMARK    3  A    between atoms: C7_7  and  C8_8 
REMARK    4  A    between atoms: C7_7  and  C9_9 
ROOT
HETATM    1  C3  UNL     1     -33.099   4.838   2.146  1.00 20.00     0.018 C 
HETATM    2  C8  UNL     1     -33.270   5.687   3.405  1.00 20.00     0.051 C 
ENDROOT
BRANCH   2   3
HETATM    3  C1  UNL     1     -32.757   7.095   3.108  1.00 20.00     0.130 C 
HETATM    4  O10 UNL     1     -31.815   7.583   3.733  1.00 20.00    -0.298 OA
BRANCH   3   5
HETATM    5  C6  UNL     1     -33.499   7.863   2.027  1.00 20.00     0.074 C 
HETATM    6  C2  UNL     1     -32.941   9.259   1.814  1.00 20.00     0.013 C 
ENDBRANCH   3   5
ENDBRANCH   2   3
BRANCH   2   7
HETATM    7  C7  UNL     1     -34.740   5.701   3.857  1.00 20.00     0.015 C 
BRANCH   7   8
HETATM    8  C9  UNL     1     -34.965   6.130   5.323  1.00 20.00    -0.022 C 
HETATM    9  C4  UNL     1     -34.453   7.544   5.604  1.00 20.00     0.009 C 
HETATM   10  C5  UNL     1     -34.275   5.137   6.262  1.00 20.00     0.009 C 
ENDBRANCH   7   8
ENDBRANCH   2   7
TORSDOF 4
