REMARK  1 active torsions:
REMARK  status: ('A' for Active; 'I' for Inactive)
REMARK    1  A    between atoms: C4_4  and  O6_6 
ROOT
HETATM    1  C1  UNL     1     -34.200   7.183   6.413  1.00 20.00     0.038 C 
HETATM    2  C2  UNL     1     -32.991   7.443   5.520  1.00 20.00     0.081 C 
HETATM    3  C3  UNL     1     -34.395   5.956   4.294  1.00 20.00     0.110 C 
HETATM    4  C4  UNL     1     -35.026   6.118   5.680  1.00 20.00     0.124 C 
HETATM    5  C5  UNL     1     -33.540   7.194   4.134  1.00 20.00     0.246 C 
HETATM    6  F7  UNL     1     -32.565   7.023   3.223  1.00 20.00    -0.206 F 
HETATM    7  F8  UNL     1     -34.300   8.240   3.737  1.00 20.00    -0.206 F 
ENDROOT
BRANCH   4   8
HETATM    8  O6  UNL     1     -34.971   4.890   6.390  1.00 20.00    -0.395 OA
HETATM    9  H16 UNL     1     -35.506   4.255   5.888  1.00 20.00     0.210 HD
ENDBRANCH   4   8
TORSDOF 1
