REMARK  3 active torsions:
REMARK  status: ('A' for Active; 'I' for Inactive)
REMARK    1  A    between atoms: C4_4  and  C7_7 
REMARK    2  A    between atoms: C7_7  and  C8_8 
REMARK    3  A    between atoms: C8_8  and  C9_9 
ROOT
HETATM    1  C1  UNL     1     -33.216   5.572   3.589  1.00 20.00     0.141 C 
HETATM    2  C2  UNL     1     -34.273   5.150   4.577  1.00 20.00     0.152 C 
HETATM    3  C3  UNL     1     -33.756   7.755   4.504  1.00 20.00     0.086 C 
HETATM    4  C4  UNL     1     -32.650   6.963   3.818  1.00 20.00     0.065 C 
HETATM    5  O10 UNL     1     -32.818   4.819   2.704  1.00 20.00    -0.297 OA
HETATM    6  S11 UNL     1     -34.528   6.586   5.644  1.00 20.00    -0.161 SA
ENDROOT
BRANCH   4   7
HETATM    7  C7  UNL     1     -32.206   7.624   2.522  1.00 20.00     0.013 C 
BRANCH   7   8
HETATM    8  C8  UNL     1     -33.365   7.736   1.528  1.00 20.00     0.005 C 
BRANCH   8   9
HETATM    9  C9  UNL     1     -32.986   8.463   0.224  1.00 20.00    -0.023 C 
HETATM   10  C5  UNL     1     -31.855   7.710  -0.480  1.00 20.00     0.009 C 
HETATM   11  C6  UNL     1     -32.568   9.914   0.465  1.00 20.00     0.009 C 
ENDBRANCH   8   9
ENDBRANCH   7   8
ENDBRANCH   4   7
TORSDOF 3
