REMARK  2 active torsions:
REMARK  status: ('A' for Active; 'I' for Inactive)
REMARK    1  A    between atoms: C6_6  and  C7_7 
REMARK    2  A    between atoms: C7_7  and  C8_8 
ROOT
HETATM    1  C1  UNL     1     -34.102   7.723   5.394  1.00 20.00     0.131 C 
HETATM    2  C2  UNL     1     -34.585   7.055   6.663  1.00 20.00     0.079 C 
HETATM    3  C3  UNL     1     -34.268   5.567   6.637  1.00 20.00     0.007 C 
HETATM    4  C4  UNL     1     -34.789   4.901   5.366  1.00 20.00     0.001 C 
HETATM    5  C5  UNL     1     -34.217   5.578   4.120  1.00 20.00     0.012 C 
HETATM    6  C6  UNL     1     -34.543   7.074   4.086  1.00 20.00     0.064 C 
HETATM    7  O9  UNL     1     -33.470   8.778   5.436  1.00 20.00    -0.298 OA
ENDROOT
BRANCH   6   8
HETATM    8  C7  UNL     1     -33.893   7.740   2.877  1.00 20.00     0.129 C 
BRANCH   8   9
HETATM    9  C8  UNL     1     -32.502   7.222   2.652  1.00 20.00     0.388 C 
HETATM   10  F10 UNL     1     -31.702   7.446   3.717  1.00 20.00    -0.171 F 
HETATM   11  F11 UNL     1     -31.954   7.852   1.590  1.00 20.00    -0.171 F 
HETATM   12  F12 UNL     1     -32.492   5.898   2.392  1.00 20.00    -0.171 F 
ENDBRANCH   8   9
ENDBRANCH   6   8
TORSDOF 2
