REMARK  2 active torsions:
REMARK  status: ('A' for Active; 'I' for Inactive)
REMARK    1  A    between atoms: C1_1  and  C3_3 
REMARK    2  A    between atoms: C2_2  and  C4_4 
ROOT
HETATM    1  C1  UNL     1     -33.113   6.183   3.453  1.00 20.00     0.223 C 
HETATM    2  C2  UNL     1     -33.766   5.443   4.364  1.00 20.00     0.223 C 
HETATM    3  F5  UNL     1     -32.647   5.569   2.339  1.00 20.00    -0.200 F 
HETATM    4  F6  UNL     1     -33.894   4.113   4.141  1.00 20.00    -0.200 F 
ENDROOT
BRANCH   1   5
HETATM    5  C3  UNL     1     -32.873   7.654   3.562  1.00 20.00     0.377 C 
HETATM    6  F7  UNL     1     -31.708   7.954   4.196  1.00 20.00    -0.180 F 
HETATM    7  F8  UNL     1     -33.859   8.239   4.296  1.00 20.00    -0.180 F 
HETATM    8 CL11 UNL     1     -32.851   8.384   1.945  1.00 20.00    -0.040 Cl
ENDBRANCH   1   5
BRANCH   2   9
HETATM    9  C4  UNL     1     -34.356   5.973   5.630  1.00 20.00     0.377 C 
HETATM   10  F9  UNL     1     -35.292   6.921   5.354  1.00 20.00    -0.180 F 
HETATM   11  F10 UNL     1     -34.995   5.018   6.357  1.00 20.00    -0.180 F 
HETATM   12 CL12 UNL     1     -33.083   6.700   6.632  1.00 20.00    -0.040 Cl
ENDBRANCH   2   9
TORSDOF 2
