REMARK  1 active torsions:
REMARK  status: ('A' for Active; 'I' for Inactive)
REMARK    1  A    between atoms: C4_4  and  C6_6 
ROOT
HETATM    1  C1  UNL     1     -33.027   6.770   3.651  1.00 20.00     0.039 A 
HETATM    2  C2  UNL     1     -33.141   7.796   5.794  1.00 20.00     0.129 A 
HETATM    3  C3  UNL     1     -32.112   8.923   4.077  1.00 20.00     0.140 A 
HETATM    4  C4  UNL     1     -33.432   6.713   4.980  1.00 20.00    -0.000 A 
HETATM    5  C5  UNL     1     -32.354   7.893   3.183  1.00 20.00     0.052 A 
HETATM    6  N8  UNL     1     -32.489   8.904   5.375  1.00 20.00    -0.271 NA
HETATM    7 CL10 UNL     1     -31.839   7.999   1.550  1.00 20.00    -0.083 Cl
ENDROOT
BRANCH   4   8
HETATM    8  C6  UNL     1     -34.137   5.554   5.500  1.00 20.00     0.017 C 
HETATM    9  C7  UNL     1     -33.965   5.187   6.975  1.00 20.00     0.062 C 
HETATM   10  S9  UNL     1     -35.198   4.596   4.576  1.00 20.00    -0.084 SA
ENDBRANCH   4   8
TORSDOF 1
