REMARK  1 active torsions:
REMARK  status: ('A' for Active; 'I' for Inactive)
REMARK    1  A    between atoms: C3_3  and  C9_9 
ROOT
HETATM    1  C1  UNL     1     -33.443   9.565   2.924  1.00 20.00     0.017 A 
HETATM    2  C2  UNL     1     -33.247  10.005   1.583  1.00 20.00     0.032 A 
HETATM    3  C3  UNL     1     -33.033   8.263   3.107  1.00 20.00    -0.011 A 
HETATM    4  C4  UNL     1     -32.693   9.023   0.792  1.00 20.00     0.075 A 
HETATM    5  S11 UNL     1     -32.412   7.576   1.666  1.00 20.00    -0.082 SA
HETATM    6 CL12 UNL     1     -32.289   9.116  -0.871  1.00 20.00    -0.076 Cl
ENDROOT
BRANCH   3   7
HETATM    7  C9  UNL     1     -33.071   7.432   4.369  1.00 20.00     0.033 C 
HETATM    8  C7  UNL     1     -33.922   6.162   4.253  1.00 20.00     0.088 C 
HETATM    9  C5  UNL     1     -34.264   5.894   5.697  1.00 20.00     0.127 C 
HETATM   10  C6  UNL     1     -33.925   7.057   6.594  1.00 20.00     0.079 C 
HETATM   11  O10 UNL     1     -34.758   4.847   6.096  1.00 20.00    -0.298 OA
HETATM   12  C8  UNL     1     -33.651   8.165   5.583  1.00 20.00     0.018 C 
ENDBRANCH   3   7
TORSDOF 1
