REMARK  2 active torsions:
REMARK  status: ('A' for Active; 'I' for Inactive)
REMARK    1  A    between atoms: C1_1  and  C3_3 
REMARK    2  A    between atoms: C2_2  and  C8_8 
ROOT
HETATM    1  C4  UNL     1     -34.150   6.760   6.175  1.00 20.00     0.011 C 
HETATM    2  C5  UNL     1     -33.778   7.640   4.983  1.00 20.00     0.010 C 
HETATM    3  C6  UNL     1     -34.912   5.504   5.778  1.00 20.00     0.074 C 
HETATM    4  C7  UNL     1     -33.545   5.667   3.391  1.00 20.00     0.082 C 
HETATM    5  C8  UNL     1     -32.879   6.921   3.965  1.00 20.00     0.017 C 
HETATM    6  S11 UNL     1     -33.931   4.445   4.680  1.00 20.00    -0.168 SA
ENDROOT
BRANCH   5   7
HETATM    7  C2  UNL     1     -32.511   7.860   2.851  1.00 20.00    -0.018 C 
HETATM    8  C1  UNL     1     -32.226   7.451   1.608  1.00 20.00     0.046 C 
BRANCH   8   9
HETATM    9  C3  UNL     1     -31.868   8.434   0.549  1.00 20.00     0.145 C 
HETATM   10  C9  UNL     1     -32.474   9.808   0.662  1.00 20.00     0.096 C 
HETATM   11  O10 UNL     1     -31.124   8.145  -0.387  1.00 20.00    -0.294 OA
ENDBRANCH   8   9
ENDBRANCH   5   7
TORSDOF 2
