REMARK  2 active torsions:
REMARK  status: ('A' for Active; 'I' for Inactive)
REMARK    1  A    between atoms: C6_6  and  O11_11 
REMARK    2  A    between atoms: C9_9  and  O11_11 
ROOT
HETATM    1  C1  UNL     1     -33.943   8.503   5.494  1.00 20.00     0.002 C 
HETATM    2  C2  UNL     1     -34.846   7.659   4.557  1.00 20.00     0.015 C 
HETATM    3  C3  UNL     1     -33.085   7.232   5.723  1.00 20.00     0.015 C 
HETATM    4  C4  UNL     1     -33.419   5.478   2.731  1.00 20.00     0.069 C 
HETATM    5  C5  UNL     1     -33.804   5.222   4.215  1.00 20.00     0.173 C 
HETATM    6  C6  UNL     1     -32.782   6.824   3.181  1.00 20.00     0.135 C 
HETATM    7  C7  UNL     1     -33.665   6.713   4.422  1.00 20.00     0.015 C 
HETATM    8  O10 UNL     1     -35.093   4.691   4.354  1.00 20.00    -0.234 OA
ENDROOT
BRANCH   6   9
HETATM    9  O11 UNL     1     -32.988   7.945   2.305  1.00 20.00    -0.385 OA
BRANCH   9  10
HETATM   10  C9  UNL     1     -32.090   7.903   1.212  1.00 20.00     0.163 C 
HETATM   11  C8  UNL     1     -32.344   9.100   0.319  1.00 20.00     0.033 C 
ENDBRANCH   9  10
ENDBRANCH   6   9
TORSDOF 2
