REMARK  2 active torsions:
REMARK  status: ('A' for Active; 'I' for Inactive)
REMARK    1  A    between atoms: C6_6  and  C8_8 
REMARK    2  A    between atoms: C7_7  and  C9_9 
ROOT
HETATM    1  C1  UNL     1     -33.099   7.912   3.794  1.00 20.00     0.132 C 
HETATM    2  C2  UNL     1     -32.822   7.986   5.433  1.00 20.00     0.084 C 
HETATM    3  C6  UNL     1     -33.398   6.430   4.047  1.00 20.00     0.064 C 
HETATM    4  C7  UNL     1     -34.041   6.995   5.389  1.00 20.00     0.008 C 
HETATM    5  O10 UNL     1     -33.088   8.648   2.840  1.00 20.00    -0.298 OA
ENDROOT
BRANCH   3   6
HETATM    6  C8  UNL     1     -34.453   5.398   3.647  1.00 20.00    -0.003 C 
HETATM    7  C3  UNL     1     -33.949   4.097   4.325  1.00 20.00     0.006 C 
HETATM    8  C4  UNL     1     -34.032   4.471   5.827  1.00 20.00     0.005 C 
HETATM    9  C9  UNL     1     -34.848   5.776   5.828  1.00 20.00    -0.009 C 
HETATM   10  C5  UNL     1     -35.682   5.635   4.532  1.00 20.00     0.010 C 
ENDBRANCH   3   6
TORSDOF 2
