REMARK  2 active torsions:
REMARK  status: ('A' for Active; 'I' for Inactive)
REMARK    1  A    between atoms: C3_3  and  C6_6 
REMARK    2  A    between atoms: C6_6  and  C7_7 
ROOT
HETATM    1  C1  UNL     1     -33.646   4.798   3.391  1.00 20.00    -0.176 C 
HETATM    2  C2  UNL     1     -32.762   4.849   2.442  1.00 20.00     0.091 C 
HETATM    3  C3  UNL     1     -34.532   4.744   4.344  1.00 20.00     0.067 C 
ENDROOT
BRANCH   3   4
HETATM    4  C6  UNL     1     -35.310   5.921   4.858  1.00 20.00     0.021 C 
BRANCH   4   5
HETATM    5  C7  UNL     1     -34.417   7.026   5.450  1.00 20.00    -0.021 C 
HETATM    6  C4  UNL     1     -33.432   7.586   4.420  1.00 20.00     0.009 C 
HETATM    7  C5  UNL     1     -33.648   6.483   6.657  1.00 20.00     0.009 C 
ENDBRANCH   4   5
ENDBRANCH   3   4
TORSDOF 2
