REMARK  3 active torsions:
REMARK  status: ('A' for Active; 'I' for Inactive)
REMARK    1  A    between atoms: C1_1  and  C6_6 
REMARK    2  A    between atoms: C6_6  and  C7_7 
REMARK    3  A    between atoms: C6_6  and  O9_9 
ROOT
HETATM    1  C2  UNL     1     -34.295   7.677   6.439  1.00 20.00     0.054 C 
HETATM    2  C6  UNL     1     -33.612   6.598   5.592  1.00 20.00     0.113 C 
ENDROOT
BRANCH   2   3
HETATM    3  C1  UNL     1     -32.732   7.308   4.567  1.00 20.00     0.269 C 
HETATM    4  O8  UNL     1     -32.972   8.417   4.099  1.00 20.00    -0.304 OA
ENDBRANCH   2   3
BRANCH   2   5
HETATM    5  C7  UNL     1     -34.595   5.586   4.905  1.00 20.00    -0.014 C 
HETATM    6  C3  UNL     1     -33.807   4.505   4.127  1.00 20.00     0.018 C 
HETATM    7  C4  UNL     1     -35.499   6.311   3.881  1.00 20.00     0.018 C 
HETATM    8  C5  UNL     1     -35.513   4.872   5.919  1.00 20.00     0.018 C 
ENDBRANCH   2   5
BRANCH   2   9
HETATM    9  O9  UNL     1     -32.726   5.869   6.445  1.00 20.00    -0.382 OA
HETATM   10  H23 UNL     1     -32.140   6.524   6.851  1.00 20.00     0.211 HD
ENDBRANCH   2   9
TORSDOF 3
