REMARK  0 active torsions:
REMARK  status: ('A' for Active; 'I' for Inactive)
ROOT
HETATM    1  C1  UNL     1     -32.087   6.636   3.248  1.00 20.00     0.109 C 
HETATM    2  C2  UNL     1     -32.485   7.953   3.928  1.00 20.00     0.226 C 
HETATM    3  C3  UNL     1     -33.524   6.450   5.599  1.00 20.00     0.230 C 
HETATM    4  C4  UNL     1     -34.338   5.632   4.572  1.00 20.00     0.076 C 
HETATM    5  C5  UNL     1     -33.199   8.903   2.958  1.00 20.00     0.043 C 
HETATM    6  C6  UNL     1     -34.220   6.510   6.964  1.00 20.00     0.043 C 
HETATM    7  C7  UNL     1     -35.757   6.146   4.318  1.00 20.00     0.023 C 
HETATM    8  N8  UNL     1     -33.260   7.823   5.168  1.00 20.00     0.093 N 
HETATM    9  S9  UNL     1     -33.483   5.512   2.951  1.00 20.00    -0.160 SA
HETATM   10  H24 UNL     1     -32.764   8.325   5.922  1.00 20.00     0.316 HD
ENDROOT
TORSDOF 0
