REMARK  3 active torsions:
REMARK  status: ('A' for Active; 'I' for Inactive)
REMARK    1  A    between atoms: C1_1  and  C3_3 
REMARK    2  A    between atoms: C2_2  and  C6_6 
REMARK    3  A    between atoms: C3_3  and  O10_10 
ROOT
HETATM    1  C1  UNL     1     -33.801   6.195   4.795  1.00 20.00     0.014 C 
HETATM    2  C2  UNL     1     -33.218   7.307   5.304  1.00 20.00    -0.067 C 
HETATM    3  C7  UNL     1     -33.588   5.645   3.413  1.00 20.00     0.056 C 
HETATM    4  C8  UNL     1     -33.426   7.820   6.690  1.00 20.00     0.044 C 
ENDROOT
BRANCH   1   5
HETATM    5  C3  UNL     1     -34.706   5.402   5.668  1.00 20.00     0.171 C 
HETATM    6  O9  UNL     1     -34.395   4.870   6.721  1.00 20.00    -0.646 OA
BRANCH   5   7
HETATM    7  O10 UNL     1     -35.941   5.352   5.115  1.00 20.00    -0.773 OA
HETATM    8  H22 UNL     1     -36.568   4.833   5.662  1.00 20.00     0.167 HD
ENDBRANCH   5   7
ENDBRANCH   1   5
BRANCH   2   9
HETATM    9  C6  UNL     1     -32.300   8.177   4.473  1.00 20.00     0.015 A 
HETATM   10  C4  UNL     1     -32.839   8.696   3.200  1.00 20.00     0.010 A 
HETATM   11  C5  UNL     1     -32.644   9.610   4.372  1.00 20.00     0.010 A 
ENDBRANCH   2   9
TORSDOF 3
