REMARK  2 active torsions:
REMARK  status: ('A' for Active; 'I' for Inactive)
REMARK    1  A    between atoms: C2_2  and  C4_4 
REMARK    2  A    between atoms: C4_4  and  C5_5 
ROOT
HETATM    1  C1  UNL     1     -33.402   8.207   5.494  1.00 20.00    -0.035 C 
HETATM    2  C2  UNL     1     -33.211   7.057   6.159  1.00 20.00    -0.030 C 
HETATM    3  C3  UNL     1     -32.342   9.048   4.911  1.00 20.00     0.036 C 
ENDROOT
BRANCH   2   4
HETATM    4  C4  UNL     1     -34.322   6.226   6.734  1.00 20.00     0.042 C 
BRANCH   4   5
HETATM    5  C5  UNL     1     -34.370   4.818   6.147  1.00 20.00     0.118 C 
HETATM    6 CL6  UNL     1     -34.586   4.850   4.379  1.00 20.00    -0.130 Cl
ENDBRANCH   4   5
ENDBRANCH   2   4
TORSDOF 2
