REMARK  2 active torsions:
REMARK  status: ('A' for Active; 'I' for Inactive)
REMARK    1  A    between atoms: C1_1  and  C6_6 
REMARK    2  A    between atoms: C2_2  and  C7_7 
ROOT
HETATM    1  C1  UNL     1     -32.705   6.857   3.089  1.00 20.00    -0.015 C 
HETATM    2  C2  UNL     1     -33.625   6.798   4.065  1.00 20.00    -0.021 C 
ENDROOT
BRANCH   2   3
HETATM    3  C7  UNL     1     -34.308   5.557   4.622  1.00 20.00    -0.034 C 
HETATM    4  C3  UNL     1     -35.824   5.701   4.399  1.00 20.00     0.018 C 
HETATM    5  C4  UNL     1     -33.844   4.237   3.979  1.00 20.00     0.018 C 
HETATM    6  C5  UNL     1     -34.026   5.489   6.134  1.00 20.00     0.018 C 
ENDBRANCH   2   3
BRANCH   1   7
HETATM    7  C6  UNL     1     -32.087   8.134   2.618  1.00 20.00     0.141 C 
HETATM    8 CL8  UNL     1     -32.430   8.369   0.890  1.00 20.00    -0.126 Cl
ENDBRANCH   1   7
TORSDOF 2
