REMARK  4 active torsions:
REMARK  status: ('A' for Active; 'I' for Inactive)
REMARK    1  A    between atoms: C1_1  and  C6_6 
REMARK    2  A    between atoms: C2_2  and  C7_7 
REMARK    3  A    between atoms: C6_6  and  O9_9 
REMARK    4  A    between atoms: C8_8  and  O9_9 
ROOT
HETATM    1  C6  UNL     1     -33.286   7.667   4.442  1.00 20.00     0.196 C 
ENDROOT
BRANCH   1   2
HETATM    2  C1  UNL     1     -32.491   8.227   3.308  1.00 20.00    -0.004 C 
HETATM    3  C2  UNL     1     -32.722   7.935   2.020  1.00 20.00    -0.014 C 
BRANCH   3   4
HETATM    4  C7  UNL     1     -31.935   8.507   0.888  1.00 20.00     0.141 C 
HETATM    5 CL10 UNL     1     -33.004   9.440  -0.182  1.00 20.00    -0.126 Cl
ENDBRANCH   3   4
ENDBRANCH   1   2
BRANCH   1   6
HETATM    6  O9  UNL     1     -33.148   6.255   4.442  1.00 20.00    -0.378 OA
BRANCH   6   7
HETATM    7  C8  UNL     1     -34.206   5.631   5.172  1.00 20.00     0.050 C 
HETATM    8  C3  UNL     1     -35.535   6.003   4.516  1.00 20.00     0.045 C 
HETATM    9  C4  UNL     1     -33.979   4.122   5.111  1.00 20.00     0.045 C 
HETATM   10  C5  UNL     1     -34.155   6.124   6.618  1.00 20.00     0.045 C 
ENDBRANCH   6   7
ENDBRANCH   1   6
TORSDOF 4
