REMARK  3 active torsions:
REMARK  status: ('A' for Active; 'I' for Inactive)
REMARK    1  A    between atoms: C4_4  and  O9_9 
REMARK    2  A    between atoms: C6_6  and  C7_7 
REMARK    3  A    between atoms: C6_6  and  N8_8 
ROOT
HETATM    1  C1  UNL     1     -33.585   8.377   5.349  1.00 20.00     0.064 C 
HETATM    2  C2  UNL     1     -32.197   8.594   4.762  1.00 20.00     0.275 C 
HETATM    3  C3  UNL     1     -32.928   6.596   3.836  1.00 20.00     0.304 C 
HETATM    4  C4  UNL     1     -34.026   7.022   4.806  1.00 20.00     0.150 C 
HETATM    5  N8  UNL     1     -32.160   7.808   3.521  1.00 20.00     0.092 N 
ENDROOT
BRANCH   5   6
HETATM    6  C6  UNL     1     -32.750   8.542   2.401  1.00 20.00     0.287 C 
BRANCH   6   7
HETATM    7  C7  UNL     1     -32.248   8.053   1.054  1.00 20.00     0.144 C 
HETATM    8 CL10 UNL     1     -32.983   8.970  -0.284  1.00 20.00    -0.129 Cl
ENDBRANCH   6   7
ENDBRANCH   5   6
BRANCH   4   9
HETATM    9  O9  UNL     1     -34.138   6.071   5.853  1.00 20.00    -0.389 OA
HETATM   10  C5  UNL     1     -34.958   4.974   5.476  1.00 20.00     0.202 C 
ENDBRANCH   4   9
TORSDOF 3
