REMARK  0 active torsions:
REMARK  status: ('A' for Active; 'I' for Inactive)
ROOT
HETATM    1  C1  UNL     1     -33.006   7.432   3.804  1.00 20.00    -0.088 C 
HETATM    2  C2  UNL     1     -33.074   8.730   3.475  1.00 20.00     0.014 C 
HETATM    3  C3  UNL     1     -32.550   6.374   2.835  1.00 20.00     0.033 C 
HETATM    4  C4  UNL     1     -33.396   6.919   5.168  1.00 20.00     0.042 C 
HETATM    5  C5  UNL     1     -33.585   5.256   2.720  1.00 20.00     0.005 C 
HETATM    6  C6  UNL     1     -33.984   4.699   4.092  1.00 20.00     0.009 C 
HETATM    7  C7  UNL     1     -34.454   5.791   5.085  1.00 20.00    -0.044 C 
HETATM    8  C8  UNL     1     -34.625   5.160   6.479  1.00 20.00     0.015 C 
HETATM    9  C9  UNL     1     -35.819   6.364   4.651  1.00 20.00     0.015 C 
ENDROOT
TORSDOF 0
