REMARK  3 active torsions:
REMARK  status: ('A' for Active; 'I' for Inactive)
REMARK    1  A    between atoms: C6_6  and  C8_8 
REMARK    2  A    between atoms: C6_6  and  C9_9 
REMARK    3  A    between atoms: C9_9  and  O10_10 
ROOT
HETATM    1  C1  UNL     1     -32.500   9.167   4.707  1.00 20.00     0.000 C 
HETATM    2  C2  UNL     1     -32.874   8.623   3.333  1.00 20.00     0.001 C 
HETATM    3  C3  UNL     1     -32.283   8.050   5.722  1.00 20.00     0.001 C 
HETATM    4  C4  UNL     1     -34.081   7.688   3.406  1.00 20.00     0.011 C 
HETATM    5  C5  UNL     1     -33.489   7.114   5.798  1.00 20.00     0.011 C 
HETATM    6  C6  UNL     1     -33.908   6.540   4.425  1.00 20.00    -0.019 C 
ENDROOT
BRANCH   6   7
HETATM    7  C8  UNL     1     -32.866   5.522   3.923  1.00 20.00     0.007 C 
HETATM    8  C7  UNL     1     -33.278   4.925   2.623  1.00 20.00     0.006 C 
ENDBRANCH   6   7
BRANCH   6   9
HETATM    9  C9  UNL     1     -35.252   5.802   4.581  1.00 20.00     0.173 C 
BRANCH   9  10
HETATM   10  O10 UNL     1     -35.068   4.753   5.507  1.00 20.00    -0.400 OA
HETATM   11  H28 UNL     1     -35.922   4.294   5.598  1.00 20.00     0.209 HD
ENDBRANCH   9  10
ENDBRANCH   6   9
TORSDOF 3
