REMARK  2 active torsions:
REMARK  status: ('A' for Active; 'I' for Inactive)
REMARK    1  A    between atoms: C2_2  and  C6_6 
REMARK    2  A    between atoms: C3_3  and  O7_7 
ROOT
HETATM    1  C1  UNL     1     -34.422   5.148   6.623  1.00 20.00     0.045 A 
HETATM    2  C2  UNL     1     -33.758   6.419   6.161  1.00 20.00     0.022 A 
HETATM    3  C3  UNL     1     -34.502   5.552   5.173  1.00 20.00     0.058 A 
HETATM    4  C4  UNL     1     -33.748   4.781   4.143  1.00 20.00     0.046 C 
ENDROOT
BRANCH   3   5
HETATM    5  O7  UNL     1     -35.786   6.017   4.723  1.00 20.00    -0.390 OA
HETATM    6  H19 UNL     1     -36.398   5.283   4.867  1.00 20.00     0.210 HD
ENDBRANCH   3   5
BRANCH   2   7
HETATM    7  C6  UNL     1     -34.292   7.741   6.595  1.00 20.00     0.003 C 
HETATM    8  C5  UNL     1     -33.911   8.864   5.664  1.00 20.00     0.005 C 
ENDBRANCH   2   7
TORSDOF 2
