REMARK  3 active torsions:
REMARK  status: ('A' for Active; 'I' for Inactive)
REMARK    1  A    between atoms: C1_1  and  C6_6 
REMARK    2  A    between atoms: C2_2  and  C7_7 
REMARK    3  A    between atoms: C3_3  and  C7_7 
ROOT
HETATM    1  C1  UNL     1     -32.647   8.575   2.342  1.00 20.00    -0.026 C 
HETATM    2  C2  UNL     1     -32.449   7.619   3.263  1.00 20.00    -0.020 C 
ENDROOT
BRANCH   2   3
HETATM    3  C7  UNL     1     -33.143   7.580   4.589  1.00 20.00     0.140 C 
BRANCH   3   4
HETATM    4  C3  UNL     1     -33.914   6.268   4.675  1.00 20.00     0.176 C 
HETATM    5  O8  UNL     1     -34.518   6.072   5.768  1.00 20.00    -0.648 OA
HETATM    6  O9  UNL     1     -33.843   5.534   3.650  1.00 20.00    -0.648 OA
ENDBRANCH   3   4
ENDBRANCH   2   3
BRANCH   1   7
HETATM    7  C6  UNL     1     -31.979   8.658   1.031  1.00 20.00     0.008 A 
HETATM    8  C4  UNL     1     -32.815   8.519  -0.201  1.00 20.00     0.009 A 
HETATM    9  C5  UNL     1     -32.244   9.853   0.173  1.00 20.00     0.009 A 
ENDBRANCH   1   7
TORSDOF 3
