REMARK  3 active torsions:
REMARK  status: ('A' for Active; 'I' for Inactive)
REMARK    1  A    between atoms: C4_4  and  C5_5 
REMARK    2  A    between atoms: C5_5  and  C6_6 
REMARK    3  A    between atoms: C6_6  and  N8_8 
ROOT
HETATM    1  C1  UNL     1     -34.644   4.834   4.713  1.00 20.00     0.177 C 
HETATM    2  N7  UNL     1     -33.971   4.199   4.013  1.00 20.00    -0.172 NA
HETATM    3  N8  UNL     1     -35.415   5.585   5.560  1.00 20.00    -0.329 N 
HETATM    4  H18 UNL     1     -36.452   5.498   5.452  1.00 20.00     0.171 HD
ENDROOT
BRANCH   3   5
HETATM    5  C6  UNL     1     -34.993   6.077   6.841  1.00 20.00     0.132 C 
BRANCH   5   6
HETATM    6  C5  UNL     1     -33.792   7.010   6.738  1.00 20.00     0.025 C 
BRANCH   6   7
HETATM    7  C4  UNL     1     -34.080   8.248   5.901  1.00 20.00    -0.013 A 
HETATM    8  C2  UNL     1     -32.949   9.049   5.317  1.00 20.00     0.005 A 
HETATM    9  C3  UNL     1     -33.834   8.233   4.417  1.00 20.00     0.005 A 
ENDBRANCH   6   7
ENDBRANCH   5   6
ENDBRANCH   3   5
TORSDOF 3
