REMARK  1 active torsions:
REMARK  status: ('A' for Active; 'I' for Inactive)
REMARK    1  A    between atoms: C1_1  and  C7_7 
ROOT
HETATM    1  C2  UNL     1     -34.112   5.839   6.953  1.00 20.00     0.002 C 
HETATM    2  C3  UNL     1     -33.126   6.903   6.492  1.00 20.00     0.010 C 
HETATM    3  C4  UNL     1     -34.437   4.840   5.840  1.00 20.00     0.009 C 
HETATM    4  C5  UNL     1     -33.778   9.196   5.467  1.00 20.00     0.026 A 
HETATM    5  C6  UNL     1     -34.792   7.015   4.547  1.00 20.00     0.019 C 
HETATM    6  C7  UNL     1     -32.681   8.626   4.614  1.00 20.00     0.096 A 
HETATM    7  C8  UNL     1     -33.667   7.694   5.315  1.00 20.00    -0.025 A 
HETATM    8  C9  UNL     1     -34.604   5.484   4.437  1.00 20.00    -0.047 C 
HETATM    9  C10 UNL     1     -33.381   5.159   3.556  1.00 20.00     0.015 C 
HETATM   10  C11 UNL     1     -35.845   4.881   3.750  1.00 20.00     0.015 C 
ENDROOT
BRANCH   6  11
HETATM   11  C1  UNL     1     -32.764   8.823   3.181  1.00 20.00     0.177 C 
HETATM   12  O12 UNL     1     -32.925  10.018   2.809  1.00 20.00    -0.648 OA
HETATM   13  O13 UNL     1     -32.666   7.767   2.494  1.00 20.00    -0.648 OA
ENDBRANCH   6  11
TORSDOF 1
