REMARK  0 active torsions:
REMARK  status: ('A' for Active; 'I' for Inactive)
ROOT
HETATM    1  C1  UNL     1     -33.778   7.357   5.477  1.00 20.00     0.290 C 
HETATM    2  C2  UNL     1     -32.591   7.419   3.451  1.00 20.00     0.344 C 
HETATM    3  C3  UNL     1     -34.295   6.021   4.920  1.00 20.00     0.029 C 
HETATM    4  C4  UNL     1     -35.717   6.138   4.360  1.00 20.00     0.028 C 
HETATM    5  C5  UNL     1     -34.216   4.909   5.963  1.00 20.00     0.028 C 
HETATM    6  N6  UNL     1     -33.439   8.213   4.337  1.00 20.00     0.093 N 
HETATM    7  S7  UNL     1     -33.140   5.693   3.543  1.00 20.00    -0.128 SA
HETATM    8  H18 UNL     1     -34.296   8.453   3.839  1.00 20.00     0.316 HD
ENDROOT
TORSDOF 0
