REMARK  3 active torsions:
REMARK  status: ('A' for Active; 'I' for Inactive)
REMARK    1  A    between atoms: C1_1  and  C5_5 
REMARK    2  A    between atoms: C3_3  and  C5_5 
REMARK    3  A    between atoms: C4_4  and  C5_5 
ROOT
HETATM    1  C5  UNL     1     -32.834   6.879   3.541  1.00 20.00     0.085 C 
ENDROOT
BRANCH   1   2
HETATM    2  C1  UNL     1     -33.894   6.309   4.485  1.00 20.00     0.224 C 
HETATM    3  O6  UNL     1     -34.667   5.421   4.135  1.00 20.00    -0.279 OA
HETATM    4 CL7  UNL     1     -33.861   7.053   6.060  1.00 20.00    -0.043 Cl
ENDBRANCH   1   2
BRANCH   1   5
HETATM    5  C3  UNL     1     -32.913   6.162   2.182  1.00 20.00     0.010 C 
HETATM    6  C2  UNL     1     -32.666   4.662   2.291  1.00 20.00     0.006 C 
ENDBRANCH   1   5
BRANCH   1   7
HETATM    7  C4  UNL     1     -33.063   8.383   3.353  1.00 20.00     0.128 C 
HETATM    8 CL8  UNL     1     -32.412   9.318   4.726  1.00 20.00    -0.130 Cl
ENDBRANCH   1   7
TORSDOF 3
