REMARK  2 active torsions:
REMARK  status: ('A' for Active; 'I' for Inactive)
REMARK    1  A    between atoms: C1_1  and  C2_2 
REMARK    2  A    between atoms: C1_1  and  C3_3 
ROOT
HETATM    1  C1  UNL     1     -33.894   6.715   5.543  1.00 20.00     0.299 C 
HETATM    2  F4  UNL     1     -34.676   7.050   6.609  1.00 20.00    -0.238 F 
ENDROOT
BRANCH   1   3
HETATM    3  C2  UNL     1     -33.728   7.946   4.681  1.00 20.00     0.392 C 
HETATM    4  F5  UNL     1     -33.087   8.919   5.373  1.00 20.00    -0.211 F 
HETATM    5  F6  UNL     1     -32.948   7.645   3.612  1.00 20.00    -0.211 F 
ENDBRANCH   1   3
BRANCH   1   6
HETATM    6  C3  UNL     1     -34.564   5.572   4.814  1.00 20.00     0.392 C 
HETATM    7  F7  UNL     1     -34.648   4.487   5.621  1.00 20.00    -0.211 F 
HETATM    8  F8  UNL     1     -33.805   5.212   3.749  1.00 20.00    -0.211 F 
ENDBRANCH   1   6
TORSDOF 2
