REMARK  0 active torsions:
REMARK  status: ('A' for Active; 'I' for Inactive)
ROOT
HETATM    1  C1  UNL     1     -34.030   6.420   6.221  1.00 20.00    -0.021 C 
HETATM    2  C2  UNL     1     -34.243   5.109   6.018  1.00 20.00    -0.025 C 
HETATM    3  C3  UNL     1     -33.326   6.715   3.891  1.00 20.00    -0.076 C 
HETATM    4  C4  UNL     1     -32.426   7.502   3.297  1.00 20.00    -0.027 C 
HETATM    5  C5  UNL     1     -33.547   5.230   3.624  1.00 20.00     0.043 C 
HETATM    6  C6  UNL     1     -35.525   6.252   4.468  1.00 20.00     0.022 C 
HETATM    7  C7  UNL     1     -34.356   7.130   4.927  1.00 20.00     0.037 C 
HETATM    8  C8  UNL     1     -34.725   4.949   4.589  1.00 20.00     0.013 C 
HETATM    9  C9  UNL     1     -32.255   8.954   3.600  1.00 20.00     0.036 C 
ENDROOT
TORSDOF 0
