REMARK  3 active torsions:
REMARK  status: ('A' for Active; 'I' for Inactive)
REMARK    1  A    between atoms: C5_5  and  C7_7 
REMARK    2  A    between atoms: C5_5  and  N8_8 
REMARK    3  A    between atoms: C6_6  and  C7_7 
ROOT
HETATM    1  C1  UNL     1     -32.355   8.092   1.973  1.00 20.00     0.157 C 
HETATM    2  N8  UNL     1     -32.053   7.305   2.791  1.00 20.00    -0.275 NA
HETATM    3  S9  UNL     1     -32.736   9.167   0.862  1.00 20.00    -0.055 SA
ENDROOT
BRANCH   2   4
HETATM    4  C5  UNL     1     -33.151   6.462   3.270  1.00 20.00     0.155 C 
BRANCH   4   5
HETATM    5  C7  UNL     1     -33.341   6.620   4.791  1.00 20.00     0.005 C 
HETATM    6  C4  UNL     1     -33.668   8.084   5.120  1.00 20.00     0.012 C 
BRANCH   5   7
HETATM    7  C6  UNL     1     -34.390   5.635   5.387  1.00 20.00    -0.017 C 
HETATM    8  C2  UNL     1     -34.026   4.170   5.111  1.00 20.00     0.010 C 
HETATM    9  C3  UNL     1     -34.559   5.819   6.901  1.00 20.00     0.010 C 
ENDBRANCH   5   7
ENDBRANCH   4   5
ENDBRANCH   2   4
TORSDOF 3
