REMARK  1 active torsions:
REMARK  status: ('A' for Active; 'I' for Inactive)
REMARK    1  A    between atoms: C10_10  and  C11_11 
ROOT
HETATM    1  C1  UNL     1     -32.644   9.319   1.685  1.00 20.00     0.088 C 
HETATM    2  C2  UNL     1     -32.516   7.056   2.502  1.00 20.00    -0.070 C 
HETATM    3  C3  UNL     1     -32.363   7.941   1.507  1.00 20.00     0.096 C 
HETATM    4  C4  UNL     1     -32.224   5.589   2.331  1.00 20.00     0.035 C 
HETATM    5  C5  UNL     1     -33.015   7.453   3.868  1.00 20.00     0.039 C 
HETATM    6  C6  UNL     1     -33.431   4.746   2.742  1.00 20.00     0.005 C 
HETATM    7  C7  UNL     1     -33.924   5.103   4.146  1.00 20.00     0.005 C 
HETATM    8  C10 UNL     1     -34.232   6.605   4.272  1.00 20.00    -0.007 C 
HETATM    9  N12 UNL     1     -32.871  10.448   1.825  1.00 20.00    -0.192 NA
ENDROOT
BRANCH   8  10
HETATM   10  C11 UNL     1     -34.676   6.945   5.694  1.00 20.00    -0.010 A 
HETATM   11  C8  UNL     1     -33.695   6.853   6.818  1.00 20.00     0.005 A 
HETATM   12  C9  UNL     1     -34.179   8.196   6.345  1.00 20.00     0.005 A 
ENDBRANCH   8  10
TORSDOF 1
