REMARK  1 active torsions:
REMARK  status: ('A' for Active; 'I' for Inactive)
REMARK    1  A    between atoms: C8_8  and  C9_9 
ROOT
HETATM    1  C1  UNL     1     -32.791   9.073   4.956  1.00 20.00     0.004 C 
HETATM    2  C2  UNL     1     -33.420   7.848   5.621  1.00 20.00     0.005 C 
HETATM    3  C5  UNL     1     -31.821   8.674   3.847  1.00 20.00     0.040 C 
HETATM    4  C6  UNL     1     -33.155   6.533   3.475  1.00 20.00     0.045 C 
HETATM    5  C7  UNL     1     -32.025   7.701   1.441  1.00 20.00     0.207 A 
HETATM    6  C9  UNL     1     -34.126   6.948   4.593  1.00 20.00    -0.008 C 
HETATM    7  C10 UNL     1     -32.478   7.734   2.881  1.00 20.00     0.083 A 
HETATM    8  O11 UNL     1     -33.226   8.380   1.841  1.00 20.00    -0.375 OA
ENDROOT
BRANCH   6   9
HETATM    9  C8  UNL     1     -34.727   5.738   5.259  1.00 20.00    -0.010 A 
HETATM   10  C3  UNL     1     -33.868   4.828   6.093  1.00 20.00     0.005 A 
HETATM   11  C4  UNL     1     -34.897   5.704   6.752  1.00 20.00     0.005 A 
ENDBRANCH   6   9
TORSDOF 1
