REMARK  1 active torsions:
REMARK  status: ('A' for Active; 'I' for Inactive)
REMARK    1  A    between atoms: C8_8  and  C9_9 
ROOT
HETATM    1  C1  UNL     1     -33.850   8.452   5.660  1.00 20.00     0.004 C 
HETATM    2  C2  UNL     1     -32.571   8.814   4.901  1.00 20.00     0.005 C 
HETATM    3  C5  UNL     1     -33.927   6.955   5.947  1.00 20.00     0.040 C 
HETATM    4  C6  UNL     1     -32.519   6.493   3.866  1.00 20.00     0.045 C 
HETATM    5  C7  UNL     1     -34.335   4.779   4.590  1.00 20.00     0.207 A 
HETATM    6  C9  UNL     1     -32.391   8.003   3.606  1.00 20.00    -0.008 C 
HETATM    7  C10 UNL     1     -33.728   6.159   4.693  1.00 20.00     0.083 A 
HETATM    8  O11 UNL     1     -34.924   5.917   3.941  1.00 20.00    -0.375 OA
ENDROOT
BRANCH   6   9
HETATM    9  C8  UNL     1     -33.327   8.468   2.517  1.00 20.00    -0.010 A 
HETATM   10  C3  UNL     1     -32.952   9.631   1.640  1.00 20.00     0.005 A 
HETATM   11  C4  UNL     1     -32.980   8.239   1.072  1.00 20.00     0.005 A 
ENDBRANCH   6   9
TORSDOF 1
