REMARK  1 active torsions:
REMARK  status: ('A' for Active; 'I' for Inactive)
REMARK    1  A    between atoms: C1_1  and  C2_2 
ROOT
HETATM    1  C1  UNL     1     -33.284   7.578   4.717  1.00 20.00     0.385 C 
HETATM    2  F3  UNL     1     -33.915   8.476   5.514  1.00 20.00    -0.212 F 
HETATM    3  F4  UNL     1     -32.826   8.264   3.639  1.00 20.00    -0.212 F 
ENDROOT
BRANCH   1   4
HETATM    4  C2  UNL     1     -34.241   6.493   4.267  1.00 20.00     0.242 C 
HETATM    5 CL5  UNL     1     -33.407   5.327   3.216  1.00 20.00    -0.102 Cl
HETATM    6 CL6  UNL     1     -34.938   5.646   5.670  1.00 20.00    -0.102 Cl
ENDBRANCH   1   4
TORSDOF 1
