REMARK  2 active torsions:
REMARK  status: ('A' for Active; 'I' for Inactive)
REMARK    1  A    between atoms: C3_3  and  C6_6 
REMARK    2  A    between atoms: C3_3  and  O8_8 
ROOT
HETATM    1  C1  UNL     1     -32.018   8.641   1.707  1.00 20.00     0.013 C 
HETATM    2  C2  UNL     1     -32.643   8.405   2.705  1.00 20.00    -0.103 C 
HETATM    3  C4  UNL     1     -32.676   8.636   5.157  1.00 20.00     0.034 C 
HETATM    4  C6  UNL     1     -33.417   8.118   3.927  1.00 20.00     0.159 C 
ENDROOT
BRANCH   4   5
HETATM    5  C3  UNL     1     -33.680   6.629   4.070  1.00 20.00     0.273 C 
HETATM    6  O7  UNL     1     -33.277   5.766   3.300  1.00 20.00    -0.264 OA
BRANCH   5   7
HETATM    7  O8  UNL     1     -34.430   6.405   5.191  1.00 20.00    -0.326 OA
HETATM    8  C5  UNL     1     -34.752   5.036   5.455  1.00 20.00     0.213 C 
ENDBRANCH   5   7
ENDBRANCH   4   5
TORSDOF 2
