REMARK  1 active torsions:
REMARK  status: ('A' for Active; 'I' for Inactive)
REMARK    1  A    between atoms: C1_1  and  C2_2 
ROOT
HETATM    1  C1  UNL     1     -33.388   6.951   5.607  1.00 20.00     0.401 C 
HETATM    2  F3  UNL     1     -34.135   7.222   6.705  1.00 20.00    -0.210 F 
HETATM    3  F4  UNL     1     -33.124   8.141   5.010  1.00 20.00    -0.210 F 
ENDROOT
BRANCH   1   4
HETATM    4  C2  UNL     1     -34.167   6.078   4.652  1.00 20.00     0.330 C 
HETATM    5  F5  UNL     1     -33.405   5.853   3.548  1.00 20.00    -0.227 F 
HETATM    6 CL6  UNL     1     -34.578   4.525   5.398  1.00 20.00    -0.084 Cl
ENDBRANCH   1   4
TORSDOF 1
