REMARK  0 active torsions:
REMARK  status: ('A' for Active; 'I' for Inactive)
ROOT
HETATM    1  C1  UNL     1     -32.569   7.043   2.667  1.00 20.00     0.127 C 
HETATM    2  C2  UNL     1     -32.613   7.896   3.916  1.00 20.00     0.079 C 
HETATM    3  C3  UNL     1     -32.833   5.566   2.851  1.00 20.00     0.079 C 
HETATM    4  C4  UNL     1     -33.899   7.639   4.690  1.00 20.00     0.017 C 
HETATM    5  C5  UNL     1     -34.106   5.342   3.658  1.00 20.00     0.017 C 
HETATM    6  C6  UNL     1     -34.365   4.799   6.635  1.00 20.00     0.002 C 
HETATM    7  C7  UNL     1     -35.261   5.828   5.921  1.00 20.00     0.009 C 
HETATM    8  C8  UNL     1     -33.144   5.565   6.093  1.00 20.00     0.009 C 
HETATM    9  C9  UNL     1     -34.065   6.141   4.971  1.00 20.00    -0.040 C 
HETATM   10  O10 UNL     1     -32.234   7.509   1.579  1.00 20.00    -0.298 OA
ENDROOT
TORSDOF 0
