REMARK  0 active torsions:
REMARK  status: ('A' for Active; 'I' for Inactive)
ROOT
HETATM    1  C1  UNL     1     -32.775   8.219   3.612  1.00 20.00     0.005 C 
HETATM    2  C2  UNL     1     -31.981   7.381   2.611  1.00 20.00     0.026 C 
HETATM    3  C3  UNL     1     -33.204   7.374   4.810  1.00 20.00     0.042 C 
HETATM    4  C4  UNL     1     -34.528   5.257   5.473  1.00 20.00     0.309 C 
HETATM    5  C5  UNL     1     -35.447   6.327   3.940  1.00 20.00     0.309 C 
HETATM    6  C6  UNL     1     -32.763   6.138   2.209  1.00 20.00     0.169 C 
HETATM    7  C7  UNL     1     -33.959   6.132   4.328  1.00 20.00     0.113 C 
HETATM    8  N8  UNL     1     -35.842   5.902   5.295  1.00 20.00     0.089 N 
HETATM    9  O9  UNL     1     -33.148   5.406   3.371  1.00 20.00    -0.377 OA
HETATM   10  H22 UNL     1     -36.615   5.236   5.293  1.00 20.00     0.316 HD
ENDROOT
TORSDOF 0
