REMARK  1 active torsions:
REMARK  status: ('A' for Active; 'I' for Inactive)
REMARK    1  A    between atoms: C7_7  and  C10_10 
ROOT
HETATM    1  C1  UNL     1     -33.708   6.998   5.441  1.00 20.00     0.127 C 
HETATM    2  C2  UNL     1     -34.451   6.103   4.476  1.00 20.00     0.078 C 
HETATM    3  C3  UNL     1     -33.097   8.274   4.905  1.00 20.00     0.079 C 
HETATM    4  C4  UNL     1     -33.624   5.683   3.265  1.00 20.00     0.008 C 
HETATM    5  C5  UNL     1     -31.855   7.966   4.081  1.00 20.00     0.012 C 
HETATM    6  C6  UNL     1     -33.374   6.835   2.292  1.00 20.00     0.005 C 
HETATM    7  C7  UNL     1     -32.123   7.680   2.593  1.00 20.00    -0.011 C 
HETATM    8  O11 UNL     1     -33.640   6.719   6.639  1.00 20.00    -0.298 OA
ENDROOT
BRANCH   7   9
HETATM    9  C10 UNL     1     -32.182   8.984   1.788  1.00 20.00    -0.019 C 
HETATM   10  C8  UNL     1     -32.413   8.686   0.311  1.00 20.00     0.010 C 
HETATM   11  C9  UNL     1     -33.276   9.894   2.335  1.00 20.00     0.010 C 
ENDBRANCH   7   9
TORSDOF 1
