REMARK  1 active torsions:
REMARK  status: ('A' for Active; 'I' for Inactive)
REMARK    1  A    between atoms: C6_6  and  O8_8 
ROOT
HETATM    1  C1  UNL     1     -33.678   5.146   3.678  1.00 20.00     0.064 C 
HETATM    2  C2  UNL     1     -34.018   5.367   6.126  1.00 20.00     0.022 C 
HETATM    3  C3  UNL     1     -34.100   6.691   6.882  1.00 20.00     0.033 C 
HETATM    4  C4  UNL     1     -34.748   7.178   4.637  1.00 20.00     0.051 C 
HETATM    5  C5  UNL     1     -34.579   5.651   4.724  1.00 20.00     0.095 C 
HETATM    6  C6  UNL     1     -33.932   7.740   5.796  1.00 20.00     0.119 C 
HETATM    7  N7  UNL     1     -32.967   4.747   2.852  1.00 20.00    -0.197 NA
ENDROOT
BRANCH   6   8
HETATM    8  O8  UNL     1     -32.559   7.835   5.436  1.00 20.00    -0.396 OA
HETATM    9  H17 UNL     1     -32.498   8.513   4.744  1.00 20.00     0.210 HD
ENDBRANCH   6   8
TORSDOF 1
