REMARK  0 active torsions:
REMARK  status: ('A' for Active; 'I' for Inactive)
ROOT
HETATM    1  C1  UNL     1     -32.583   5.727   2.657  1.00 20.00     0.013 C 
HETATM    2  C2  UNL     1     -32.328   7.261   2.648  1.00 20.00     0.080 C 
HETATM    3  C3  UNL     1     -34.177   4.414   4.360  1.00 20.00     0.274 C 
HETATM    4  C4  UNL     1     -34.851   6.493   5.384  1.00 20.00     0.280 C 
HETATM    5  C5  UNL     1     -33.835   5.599   3.498  1.00 20.00     0.025 C 
HETATM    6  C6  UNL     1     -33.610   6.659   4.552  1.00 20.00     0.092 C 
HETATM    7  C7  UNL     1     -33.292   7.851   3.693  1.00 20.00     0.249 C 
HETATM    8  N8  UNL     1     -34.993   5.013   5.451  1.00 20.00     0.084 N 
HETATM    9  F9  UNL     1     -32.741   8.859   4.387  1.00 20.00    -0.206 F 
HETATM   10  F10 UNL     1     -34.403   8.321   3.082  1.00 20.00    -0.206 F 
HETATM   11  H21 UNL     1     -35.974   4.770   5.320  1.00 20.00     0.315 HD
ENDROOT
TORSDOF 0
