REMARK  2 active torsions:
REMARK  status: ('A' for Active; 'I' for Inactive)
REMARK    1  A    between atoms: C5_5  and  C6_6 
REMARK    2  A    between atoms: C6_6  and  C7_7 
ROOT
HETATM    1  C1  UNL     1     -32.286   8.572   1.615  1.00 20.00     0.012 C 
HETATM    2  C2  UNL     1     -32.533   7.924   2.595  1.00 20.00    -0.117 C 
HETATM    3  C5  UNL     1     -32.832   7.124   3.794  1.00 20.00     0.098 C 
ENDROOT
BRANCH   3   4
HETATM    4  C6  UNL     1     -34.015   7.704   4.602  1.00 20.00     0.011 C 
HETATM    5  C3  UNL     1     -33.575   8.936   5.409  1.00 20.00     0.012 C 
BRANCH   4   6
HETATM    6  C7  UNL     1     -34.686   6.608   5.471  1.00 20.00     0.082 C 
HETATM    7  C4  UNL     1     -33.778   6.077   6.577  1.00 20.00     0.027 C 
HETATM    8 CL8  UNL     1     -35.278   5.227   4.495  1.00 20.00    -0.125 Cl
ENDBRANCH   4   6
ENDBRANCH   3   4
TORSDOF 2
