REMARK  2 active torsions:
REMARK  status: ('A' for Active; 'I' for Inactive)
REMARK    1  A    between atoms: C2_2  and  C7_7 
REMARK    2  A    between atoms: C7_7  and  C8_8 
ROOT
HETATM    1  C7  UNL     1     -33.510   6.931   5.156  1.00 20.00     0.035 C 
ENDROOT
BRANCH   1   2
HETATM    2  C2  UNL     1     -33.339   7.661   3.852  1.00 20.00    -0.030 C 
HETATM    3  C1  UNL     1     -32.751   8.862   3.742  1.00 20.00    -0.035 C 
HETATM    4  C3  UNL     1     -32.193   9.623   4.898  1.00 20.00     0.035 C 
ENDBRANCH   1   2
BRANCH   1   5
HETATM    5  C8  UNL     1     -34.143   5.516   5.050  1.00 20.00    -0.048 C 
HETATM    6  C4  UNL     1     -35.585   5.586   4.518  1.00 20.00     0.014 C 
HETATM    7  C5  UNL     1     -34.140   4.808   6.416  1.00 20.00     0.014 C 
HETATM    8  C6  UNL     1     -33.299   4.683   4.065  1.00 20.00     0.014 C 
ENDBRANCH   1   5
TORSDOF 2
