REMARK  2 active torsions:
REMARK  status: ('A' for Active; 'I' for Inactive)
REMARK    1  A    between atoms: C5_5  and  C6_6 
REMARK    2  A    between atoms: C6_6  and  C7_7 
ROOT
HETATM    1  C1  UNL     1     -32.026   8.731   2.701  1.00 20.00     0.012 C 
HETATM    2  C2  UNL     1     -32.873   8.495   3.519  1.00 20.00    -0.117 C 
HETATM    3  C5  UNL     1     -33.915   8.213   4.521  1.00 20.00     0.098 C 
ENDROOT
BRANCH   3   4
HETATM    4  C6  UNL     1     -33.590   6.958   5.363  1.00 20.00     0.011 C 
HETATM    5  C3  UNL     1     -34.320   7.002   6.714  1.00 20.00     0.012 C 
BRANCH   4   6
HETATM    6  C7  UNL     1     -33.870   5.668   4.548  1.00 20.00     0.082 C 
HETATM    7  C4  UNL     1     -35.347   5.468   4.221  1.00 20.00     0.027 C 
HETATM    8 CL8  UNL     1     -32.926   5.609   3.026  1.00 20.00    -0.125 Cl
ENDBRANCH   4   6
ENDBRANCH   3   4
TORSDOF 2
