REMARK  2 active torsions:
REMARK  status: ('A' for Active; 'I' for Inactive)
REMARK    1  A    between atoms: C2_2  and  C9_9 
REMARK    2  A    between atoms: C6_6  and  C9_9 
ROOT
HETATM    1  C3  UNL     1     -33.948   5.911   4.818  1.00 20.00     0.002 C 
HETATM    2  C4  UNL     1     -33.198   5.731   3.494  1.00 20.00     0.006 C 
HETATM    3  C5  UNL     1     -34.377   7.379   4.870  1.00 20.00     0.020 C 
HETATM    4  C6  UNL     1     -33.294   7.083   2.781  1.00 20.00     0.008 C 
HETATM    5  C7  UNL     1     -33.424   8.100   3.921  1.00 20.00     0.086 C 
HETATM    6 CL10 UNL     1     -31.877   8.436   4.756  1.00 20.00    -0.125 Cl
ENDROOT
BRANCH   4   7
HETATM    7  C9  UNL     1     -32.183   7.331   1.807  1.00 20.00     0.039 C 
BRANCH   7   8
HETATM    8  C2  UNL     1     -32.531   8.380   0.779  1.00 20.00    -0.093 C 
HETATM    9  C1  UNL     1     -32.511   8.106  -0.535  1.00 20.00     0.014 C 
HETATM   10  C8  UNL     1     -32.865   9.752   1.287  1.00 20.00     0.042 C 
ENDBRANCH   7   8
ENDBRANCH   4   7
TORSDOF 2
