REMARK  3 active torsions:
REMARK  status: ('A' for Active; 'I' for Inactive)
REMARK    1  A    between atoms: C2_2  and  C6_6 
REMARK    2  A    between atoms: C6_6  and  C7_7 
REMARK    3  A    between atoms: C7_7  and  C8_8 
ROOT
HETATM    1  C4  UNL     1     -32.935   8.991   5.271  1.00 20.00     0.011 C 
HETATM    2  C7  UNL     1     -33.320   7.741   4.464  1.00 20.00    -0.001 C 
ENDROOT
BRANCH   2   3
HETATM    3  C6  UNL     1     -33.574   6.520   5.382  1.00 20.00     0.038 C 
BRANCH   3   4
HETATM    4  C2  UNL     1     -34.476   5.459   4.786  1.00 20.00    -0.093 C 
HETATM    5  C1  UNL     1     -34.035   4.212   4.557  1.00 20.00     0.014 C 
HETATM    6  C3  UNL     1     -35.898   5.848   4.503  1.00 20.00     0.042 C 
ENDBRANCH   3   4
ENDBRANCH   2   3
BRANCH   2   7
HETATM    7  C8  UNL     1     -32.305   7.464   3.329  1.00 20.00     0.057 C 
HETATM    8  C5  UNL     1     -32.652   6.252   2.473  1.00 20.00     0.022 C 
HETATM    9 BR9  UNL     1     -32.072   9.005   2.139  1.00 20.00    -0.091 Br
ENDBRANCH   2   7
TORSDOF 3
