REMARK  3 active torsions:
REMARK  status: ('A' for Active; 'I' for Inactive)
REMARK    1  A    between atoms: C1_1  and  C3_3 
REMARK       I    between atoms: C3_3  and  N10_10 
REMARK    2  A    between atoms: C8_8  and  C9_9 
REMARK    3  A    between atoms: C8_8  and  N10_10 
ROOT
HETATM    1  C3  UNL     1     -32.441   7.936   3.657  1.00 20.00     0.240 C 
HETATM    2  N10 UNL     1     -33.163   6.751   3.648  1.00 20.00    -0.357 N 
HETATM    3  O11 UNL     1     -31.655   8.284   4.532  1.00 20.00    -0.269 OA
HETATM    4  H28 UNL     1     -33.813   6.567   2.886  1.00 20.00     0.162 HD
ENDROOT
BRANCH   2   5
HETATM    5  C8  UNL     1     -33.068   5.767   4.694  1.00 20.00     0.131 C 
BRANCH   5   6
HETATM    6  C9  UNL     1     -34.076   5.968   5.848  1.00 20.00    -0.035 C 
HETATM    7  C5  UNL     1     -33.892   4.887   6.927  1.00 20.00     0.016 C 
HETATM    8  C6  UNL     1     -33.917   7.359   6.485  1.00 20.00     0.016 C 
HETATM    9  C7  UNL     1     -35.499   5.853   5.271  1.00 20.00     0.016 C 
ENDBRANCH   5   6
ENDBRANCH   2   5
BRANCH   1  10
HETATM   10  C1  UNL     1     -32.728   8.774   2.460  1.00 20.00     0.070 C 
HETATM   11  C2  UNL     1     -32.482   8.303   1.230  1.00 20.00    -0.026 C 
HETATM   12  C4  UNL     1     -32.745   9.084  -0.016  1.00 20.00     0.036 C 
ENDBRANCH   1  10
TORSDOF 3
