REMARK  4 active torsions:
REMARK  status: ('A' for Active; 'I' for Inactive)
REMARK    1  A    between atoms: C4_4  and  C8_8 
REMARK    2  A    between atoms: C8_8  and  C11_11 
REMARK    3  A    between atoms: C9_9  and  C10_10 
REMARK    4  A    between atoms: C10_10  and  C11_11 
ROOT
HETATM    1  C1  UNL     1     -34.190   5.697   6.625  1.00 20.00     0.002 C 
HETATM    2  C2  UNL     1     -33.703   7.108   6.282  1.00 20.00     0.006 C 
HETATM    3  C3  UNL     1     -34.359   4.965   5.294  1.00 20.00     0.020 C 
HETATM    4  C4  UNL     1     -33.413   7.090   4.778  1.00 20.00     0.004 C 
HETATM    5  C5  UNL     1     -34.436   6.080   4.259  1.00 20.00     0.086 C 
HETATM    6 CL12 UNL     1     -34.065   5.495   2.628  1.00 20.00    -0.125 Cl
ENDROOT
BRANCH   4   7
HETATM    7  C8  UNL     1     -33.524   8.468   4.142  1.00 20.00     0.010 C 
BRANCH   7   8
HETATM    8  C11 UNL     1     -32.708   8.618   2.845  1.00 20.00    -0.018 C 
HETATM    9  C7  UNL     1     -31.220   8.764   3.185  1.00 20.00     0.010 C 
BRANCH   8  10
HETATM   10  C10 UNL     1     -33.186   9.753   1.915  1.00 20.00     0.004 C 
BRANCH  10  11
HETATM   11  C9  UNL     1     -32.519   9.792   0.538  1.00 20.00    -0.004 C 
HETATM   12  C6  UNL     1     -32.703   8.475  -0.201  1.00 20.00     0.005 C 
ENDBRANCH  10  11
ENDBRANCH   8  10
ENDBRANCH   7   8
ENDBRANCH   4   7
TORSDOF 4
