REMARK  3 active torsions:
REMARK  status: ('A' for Active; 'I' for Inactive)
REMARK    1  A    between atoms: C4_4  and  C9_9 
REMARK    2  A    between atoms: C5_5  and  C10_10 
REMARK    3  A    between atoms: C9_9  and  C11_11 
ROOT
HETATM    1  C1  UNL     1     -31.454   8.288   4.299  1.00 20.00     0.006 C 
HETATM    2  C2  UNL     1     -32.700   8.244   5.179  1.00 20.00     0.021 C 
HETATM    3  C3  UNL     1     -32.334   6.348   2.947  1.00 20.00     0.010 C 
HETATM    4  C4  UNL     1     -31.702   7.746   2.886  1.00 20.00    -0.014 C 
HETATM    5  C5  UNL     1     -33.598   6.280   3.825  1.00 20.00     0.004 C 
HETATM    6  C6  UNL     1     -33.306   6.839   5.232  1.00 20.00     0.086 C 
HETATM    7 CL12 UNL     1     -34.793   6.897   6.232  1.00 20.00    -0.125 Cl
ENDROOT
BRANCH   4   8
HETATM    8  C9  UNL     1     -32.538   8.712   2.043  1.00 20.00     0.004 C 
BRANCH   8   9
HETATM    9  C11 UNL     1     -32.343   8.454   0.554  1.00 20.00    -0.004 C 
HETATM   10  C8  UNL     1     -33.193   9.397  -0.283  1.00 20.00     0.005 C 
ENDBRANCH   8   9
ENDBRANCH   4   8
BRANCH   5  11
HETATM   11  C10 UNL     1     -34.103   4.832   3.867  1.00 20.00     0.001 C 
HETATM   12  C7  UNL     1     -33.110   3.927   4.514  1.00 20.00     0.005 C 
ENDBRANCH   5  11
TORSDOF 3
