REMARK  0 active torsions:
REMARK  status: ('A' for Active; 'I' for Inactive)
ROOT
HETATM    1  C1  UNL     1     -32.948   9.186   5.363  1.00 20.00     0.002 A 
HETATM    2  C2  UNL     1     -33.756   8.162   5.861  1.00 20.00     0.009 A 
HETATM    3  C3  UNL     1     -32.345   9.073   4.100  1.00 20.00     0.019 A 
HETATM    4  C4  UNL     1     -33.952   7.038   5.075  1.00 20.00    -0.032 A 
HETATM    5  C5  UNL     1     -33.356   6.930   3.812  1.00 20.00    -0.033 A 
HETATM    6  C6  UNL     1     -32.543   7.935   3.316  1.00 20.00     0.017 A 
HETATM    7  C7  UNL     1     -33.688   5.616   3.175  1.00 20.00     0.042 C 
HETATM    8  C8  UNL     1     -34.916   5.194   3.998  1.00 20.00     0.030 C 
HETATM    9  C9  UNL     1     -34.746   5.810   5.398  1.00 20.00     0.116 C 
HETATM   10 CL10 UNL     1     -33.813   4.740   6.467  1.00 20.00    -0.120 Cl
HETATM   11 BR11 UNL     1     -31.696   7.806   1.633  1.00 20.00    -0.051 Br
ENDROOT
TORSDOF 0
