REMARK  2 active torsions:
REMARK  status: ('A' for Active; 'I' for Inactive)
REMARK    1  A    between atoms: C7_7  and  C9_9 
REMARK    2  A    between atoms: C8_8  and  C9_9 
ROOT
HETATM    1  C1  UNL     1     -33.136   9.511   2.131  1.00 20.00     0.012 C 
HETATM    2  C2  UNL     1     -32.569   8.738   2.853  1.00 20.00    -0.117 C 
HETATM    3  C8  UNL     1     -31.871   7.792   3.734  1.00 20.00     0.093 C 
ENDROOT
BRANCH   3   4
HETATM    4  C9  UNL     1     -32.688   7.527   4.990  1.00 20.00     0.024 C 
BRANCH   4   5
HETATM    5  C7  UNL     1     -34.049   6.943   4.647  1.00 20.00     0.056 C 
HETATM    6  C3  UNL     1     -33.892   5.610   3.946  1.00 20.00     0.131 C 
HETATM    7  C4  UNL     1     -34.357   4.456   4.796  1.00 20.00     0.079 C 
HETATM    8  O10 UNL     1     -33.445   5.480   2.813  1.00 20.00    -0.298 OA
HETATM    9  C5  UNL     1     -34.469   5.102   6.170  1.00 20.00     0.008 C 
HETATM   10  C6  UNL     1     -34.862   6.546   5.883  1.00 20.00     0.013 C 
ENDBRANCH   4   5
ENDBRANCH   3   4
TORSDOF 2
