REMARK  2 active torsions:
REMARK  status: ('A' for Active; 'I' for Inactive)
REMARK    1  A    between atoms: C8_8  and  C9_9 
REMARK    2  A    between atoms: C8_8  and  N10_10 
ROOT
HETATM    1  C1  UNL     1     -34.543   5.726   3.996  1.00 20.00     0.032 C 
HETATM    2  C2  UNL     1     -34.605   6.716   5.156  1.00 20.00     0.024 C 
HETATM    3  C3  UNL     1     -33.163   5.736   3.332  1.00 20.00     0.272 C 
HETATM    4  C4  UNL     1     -32.770   8.029   4.023  1.00 20.00     0.292 C 
HETATM    5  C5  UNL     1     -34.144   8.099   4.701  1.00 20.00     0.110 C 
HETATM    6  N10 UNL     1     -32.706   7.067   2.913  1.00 20.00     0.090 N 
HETATM    7 CL11 UNL     1     -34.074   9.205   6.103  1.00 20.00    -0.123 Cl
ENDROOT
BRANCH   6   8
HETATM    8  C8  UNL     1     -33.408   7.544   1.724  1.00 20.00     0.276 C 
BRANCH   8   9
HETATM    9  C9  UNL     1     -32.604   8.617   0.980  1.00 20.00     0.006 C 
HETATM   10  C6  UNL     1     -31.242   8.102   0.511  1.00 20.00     0.011 C 
HETATM   11  C7  UNL     1     -33.387   9.212  -0.192  1.00 20.00     0.011 C 
ENDBRANCH   8   9
ENDBRANCH   6   8
TORSDOF 2
