REMARK  2 active torsions:
REMARK  status: ('A' for Active; 'I' for Inactive)
REMARK    1  A    between atoms: C5_5  and  N8_8 
REMARK    2  A    between atoms: C6_6  and  N8_8 
ROOT
HETATM    1  N8  UNL     1     -33.108   6.833   5.505  1.00 20.00     0.097 N 
HETATM    2  H22 UNL     1     -32.710   7.065   6.411  1.00 20.00     0.317 HD
ENDROOT
BRANCH   1   3
HETATM    3  C5  UNL     1     -33.404   8.077   4.789  1.00 20.00     0.225 A 
HETATM    4  C1  UNL     1     -32.304   9.057   4.471  1.00 20.00     0.042 A 
HETATM    5  C4  UNL     1     -32.982   8.306   3.358  1.00 20.00     0.016 A 
HETATM    6  C7  UNL     1     -32.229   7.286   2.575  1.00 20.00     0.012 C 
ENDBRANCH   1   3
BRANCH   1   7
HETATM    7  C6  UNL     1     -34.316   6.047   5.688  1.00 20.00     0.268 C 
HETATM    8  C2  UNL     1     -33.958   4.766   6.439  1.00 20.00     0.205 C 
HETATM    9  O9  UNL     1     -33.921   4.006   5.204  1.00 20.00    -0.387 OA
HETATM   10  C3  UNL     1     -34.490   5.127   4.480  1.00 20.00     0.205 C 
ENDBRANCH   1   7
TORSDOF 2
