REMARK  2 active torsions:
REMARK  status: ('A' for Active; 'I' for Inactive)
REMARK    1  A    between atoms: C1_1  and  C6_6 
REMARK    2  A    between atoms: C1_1  and  C8_8 
ROOT
HETATM    1  C2  UNL     1     -33.854   5.598   6.752  1.00 20.00     0.027 C 
HETATM    2  C3  UNL     1     -34.203   6.905   6.044  1.00 20.00     0.016 C 
HETATM    3  C4  UNL     1     -34.791   4.481   6.322  1.00 20.00     0.167 C 
HETATM    4  C5  UNL     1     -35.238   5.482   4.220  1.00 20.00     0.179 C 
HETATM    5  C6  UNL     1     -34.400   6.717   4.540  1.00 20.00     0.079 C 
HETATM    6  O10 UNL     1     -34.759   4.323   4.905  1.00 20.00    -0.390 OA
ENDROOT
BRANCH   5   7
HETATM    7  C1  UNL     1     -33.074   6.620   3.844  1.00 20.00     0.132 C 
HETATM    8  O9  UNL     1     -32.779   5.628   3.178  1.00 20.00    -0.298 OA
BRANCH   7   9
HETATM    9  C8  UNL     1     -32.140   7.804   4.014  1.00 20.00     0.074 C 
HETATM   10  C7  UNL     1     -32.726   9.093   3.467  1.00 20.00     0.013 C 
ENDBRANCH   7   9
ENDBRANCH   5   7
TORSDOF 2
