REMARK  0 active torsions:
REMARK  status: ('A' for Active; 'I' for Inactive)
ROOT
HETATM    1  C1  UNL     1     -32.994   8.590   5.102  1.00 20.00     0.101 C 
HETATM    2  C2  UNL     1     -34.550   5.277   6.229  1.00 20.00     0.005 C 
HETATM    3  C3  UNL     1     -34.161   4.516   4.967  1.00 20.00     0.030 C 
HETATM    4  C4  UNL     1     -33.801   6.606   6.305  1.00 20.00     0.057 C 
HETATM    5  C5  UNL     1     -34.314   5.387   3.724  1.00 20.00     0.272 C 
HETATM    6  C6  UNL     1     -33.932   7.446   5.014  1.00 20.00     0.240 C 
HETATM    7  C7  UNL     1     -35.351   8.025   4.861  1.00 20.00     0.066 C 
HETATM    8  N8  UNL     1     -32.260   9.486   5.170  1.00 20.00    -0.195 NA
HETATM    9  N9  UNL     1     -33.563   6.641   3.833  1.00 20.00     0.106 N 
HETATM   10  H21 UNL     1     -32.562   6.448   3.836  1.00 20.00     0.318 HD
ENDROOT
TORSDOF 0
