REMARK  2 active torsions:
REMARK  status: ('A' for Active; 'I' for Inactive)
REMARK    1  A    between atoms: C5_5  and  N8_8 
REMARK    2  A    between atoms: C6_6  and  N8_8 
ROOT
HETATM    1  N8  UNL     1     -32.899   6.907   5.768  1.00 20.00     0.097 N 
HETATM    2  H22 UNL     1     -32.157   6.886   6.463  1.00 20.00     0.317 HD
ENDROOT
BRANCH   1   3
HETATM    3  C5  UNL     1     -34.013   6.082   6.243  1.00 20.00     0.225 A 
HETATM    4  C1  UNL     1     -33.737   4.775   6.941  1.00 20.00     0.042 A 
HETATM    5  C4  UNL     1     -34.369   4.776   5.576  1.00 20.00     0.016 A 
HETATM    6  C7  UNL     1     -33.614   4.253   4.402  1.00 20.00     0.012 C 
ENDBRANCH   1   3
BRANCH   1   7
HETATM    7  C6  UNL     1     -33.332   8.279   5.557  1.00 20.00     0.268 C 
HETATM    8  C2  UNL     1     -34.049   8.365   4.211  1.00 20.00     0.205 C 
HETATM    9  O9  UNL     1     -32.857   8.879   3.565  1.00 20.00    -0.387 OA
HETATM   10  C3  UNL     1     -32.211   9.043   4.853  1.00 20.00     0.205 C 
ENDBRANCH   1   7
TORSDOF 2
