REMARK  2 active torsions:
REMARK  status: ('A' for Active; 'I' for Inactive)
REMARK    1  A    between atoms: C7_7  and  C9_9 
REMARK    2  A    between atoms: C8_8  and  C9_9 
ROOT
HETATM    1  C1  UNL     1     -32.786  10.092   0.752  1.00 20.00     0.012 C 
HETATM    2  C2  UNL     1     -32.635   9.243   1.588  1.00 20.00    -0.117 C 
HETATM    3  C8  UNL     1     -32.447   8.202   2.607  1.00 20.00     0.093 C 
ENDROOT
BRANCH   3   4
HETATM    4  C9  UNL     1     -33.377   8.434   3.788  1.00 20.00     0.024 C 
BRANCH   4   5
HETATM    5  C7  UNL     1     -33.198   7.364   4.845  1.00 20.00     0.056 C 
HETATM    6  C3  UNL     1     -33.885   6.061   4.491  1.00 20.00     0.131 C 
HETATM    7  C4  UNL     1     -34.638   5.482   5.663  1.00 20.00     0.079 C 
HETATM    8  O10 UNL     1     -33.841   5.532   3.387  1.00 20.00    -0.298 OA
HETATM    9  C5  UNL     1     -34.156   6.358   6.812  1.00 20.00     0.008 C 
HETATM   10  C6  UNL     1     -33.882   7.712   6.169  1.00 20.00     0.013 C 
ENDBRANCH   4   5
ENDBRANCH   3   4
TORSDOF 2
