REMARK  3 active torsions:
REMARK  status: ('A' for Active; 'I' for Inactive)
REMARK    1  A    between atoms: C1_1  and  C5_5 
REMARK    2  A    between atoms: C1_1  and  C8_8 
REMARK    3  A    between atoms: C8_8  and  C9_9 
ROOT
HETATM    1  C1  UNL     1     -33.613   7.975   4.168  1.00 20.00     0.133 C 
HETATM    2  O10 UNL     1     -33.141   8.911   4.811  1.00 20.00    -0.297 OA
ENDROOT
BRANCH   1   3
HETATM    3  C5  UNL     1     -34.381   6.892   4.844  1.00 20.00     0.081 C 
HETATM    4  C2  UNL     1     -34.194   5.526   4.214  1.00 20.00     0.040 C 
HETATM    5  C3  UNL     1     -34.618   4.606   5.338  1.00 20.00     0.168 C 
HETATM    6  O11 UNL     1     -34.225   5.248   6.558  1.00 20.00    -0.390 OA
HETATM    7  C4  UNL     1     -33.944   6.628   6.278  1.00 20.00     0.179 C 
ENDBRANCH   1   3
BRANCH   1   8
HETATM    8  C8  UNL     1     -33.421   7.822   2.667  1.00 20.00     0.082 C 
BRANCH   8   9
HETATM    9  C9  UNL     1     -32.651   8.982   2.019  1.00 20.00    -0.016 C 
HETATM   10  C6  UNL     1     -33.374  10.316   2.222  1.00 20.00     0.010 C 
HETATM   11  C7  UNL     1     -32.467   8.717   0.523  1.00 20.00     0.010 C 
ENDBRANCH   8   9
ENDBRANCH   1   8
TORSDOF 3
