REMARK  4 active torsions:
REMARK  status: ('A' for Active; 'I' for Inactive)
REMARK    1  A    between atoms: C5_5  and  C9_9 
REMARK    2  A    between atoms: C7_7  and  C8_8 
REMARK    3  A    between atoms: C8_8  and  C9_9 
REMARK    4  A    between atoms: C9_9  and  O10_10 
ROOT
HETATM    1  C1  UNL     1     -31.761   7.740   4.173  1.00 20.00     0.012 C 
HETATM    2  C2  UNL     1     -32.190   6.832   3.514  1.00 20.00    -0.117 C 
HETATM    3  C7  UNL     1     -32.714   5.722   2.704  1.00 20.00     0.096 C 
ENDROOT
BRANCH   3   4
HETATM    4  C8  UNL     1     -33.355   4.649   3.593  1.00 20.00     0.050 C 
BRANCH   4   5
HETATM    5  C9  UNL     1     -34.525   5.155   4.465  1.00 20.00     0.059 C 
HETATM    6  C6  UNL     1     -35.447   6.073   3.701  1.00 20.00     0.046 C 
BRANCH   5   7
HETATM    7  C5  UNL     1     -33.964   5.880   5.696  1.00 20.00     0.019 A 
HETATM    8  C3  UNL     1     -34.262   7.337   5.918  1.00 20.00     0.008 A 
HETATM    9  C4  UNL     1     -34.881   6.299   6.811  1.00 20.00     0.008 A 
ENDBRANCH   5   7
BRANCH   5  10
HETATM   10  O10 UNL     1     -35.269   4.025   4.926  1.00 20.00    -0.390 OA
HETATM   11  H24 UNL     1     -35.975   4.375   5.489  1.00 20.00     0.210 HD
ENDBRANCH   5  10
ENDBRANCH   4   5
ENDBRANCH   3   4
TORSDOF 4
