REMARK  4 active torsions:
REMARK  status: ('A' for Active; 'I' for Inactive)
REMARK    1  A    between atoms: C3_3  and  C9_9 
REMARK    2  A    between atoms: C6_6  and  C8_8 
REMARK    3  A    between atoms: C7_7  and  C9_9 
REMARK    4  A    between atoms: C8_8  and  C9_9 
ROOT
HETATM    1  C1  UNL     1     -34.315   4.857   6.481  1.00 20.00     0.012 C 
HETATM    2  C2  UNL     1     -33.901   5.980   6.572  1.00 20.00    -0.117 C 
HETATM    3  C6  UNL     1     -33.395   7.355   6.688  1.00 20.00     0.093 C 
ENDROOT
BRANCH   3   4
HETATM    4  C8  UNL     1     -33.611   8.132   5.384  1.00 20.00     0.024 C 
BRANCH   4   5
HETATM    5  C9  UNL     1     -32.957   7.439   4.175  1.00 20.00     0.055 C 
BRANCH   5   6
HETATM    6  C3  UNL     1     -33.784   6.251   3.678  1.00 20.00     0.127 C 
HETATM    7  C4  UNL     1     -33.022   5.091   3.087  1.00 20.00     0.091 C 
HETATM    8  O10 UNL     1     -35.010   6.214   3.773  1.00 20.00    -0.298 OA
ENDBRANCH   5   6
BRANCH   5   9
HETATM    9  C7  UNL     1     -32.685   8.418   3.020  1.00 20.00     0.007 C 
HETATM   10  C5  UNL     1     -32.000   7.804   1.805  1.00 20.00     0.006 C 
ENDBRANCH   5   9
ENDBRANCH   4   5
ENDBRANCH   3   4
TORSDOF 4
