REMARK  3 active torsions:
REMARK  status: ('A' for Active; 'I' for Inactive)
REMARK    1  A    between atoms: C6_6  and  C9_9 
REMARK    2  A    between atoms: C7_7  and  O10_10 
REMARK    3  A    between atoms: C8_8  and  C9_9 
ROOT
HETATM    1  C1  UNL     1     -33.006   9.263   2.586  1.00 20.00     0.012 C 
HETATM    2  C2  UNL     1     -32.595   8.144   2.730  1.00 20.00    -0.117 C 
HETATM    3  C8  UNL     1     -32.086   6.777   2.907  1.00 20.00     0.093 C 
ENDROOT
BRANCH   3   4
HETATM    4  C9  UNL     1     -33.238   5.803   3.085  1.00 20.00     0.019 C 
BRANCH   4   5
HETATM    5  C6  UNL     1     -34.072   6.161   4.304  1.00 20.00     0.015 C 
HETATM    6  C4  UNL     1     -34.881   4.986   4.846  1.00 20.00     0.007 C 
HETATM    7  C3  UNL     1     -35.192   5.360   6.296  1.00 20.00     0.003 C 
HETATM    8  C5  UNL     1     -34.228   6.487   6.666  1.00 20.00     0.032 C 
HETATM    9  C7  UNL     1     -33.233   6.565   5.514  1.00 20.00     0.122 C 
BRANCH   9  10
HETATM   10  O10 UNL     1     -32.713   7.872   5.363  1.00 20.00    -0.395 OA
HETATM   11  H24 UNL     1     -32.267   8.100   6.197  1.00 20.00     0.210 HD
ENDBRANCH   9  10
ENDBRANCH   4   5
ENDBRANCH   3   4
TORSDOF 3
