REMARK  2 active torsions:
REMARK  status: ('A' for Active; 'I' for Inactive)
REMARK    1  A    between atoms: C4_4  and  C5_5 
REMARK    2  A    between atoms: C5_5  and  C7_7 
ROOT
HETATM    1  C1  UNL     1     -33.804   6.682   6.344  1.00 20.00     0.033 A 
HETATM    2  C2  UNL     1     -34.833   5.785   6.530  1.00 20.00     0.088 A 
HETATM    3  C3  UNL     1     -34.987   6.553   4.432  1.00 20.00     0.102 A 
HETATM    4  C4  UNL     1     -33.902   7.168   5.017  1.00 20.00     0.027 A 
HETATM    5  N10 UNL     1     -35.545   5.715   5.361  1.00 20.00    -0.374 N 
HETATM    6  H22 UNL     1     -36.358   5.134   5.208  1.00 20.00     0.164 HD
ENDROOT
BRANCH   4   7
HETATM    7  C5  UNL     1     -33.035   8.141   4.346  1.00 20.00     0.165 C 
HETATM    8  O11 UNL     1     -32.066   8.684   4.867  1.00 20.00    -0.292 OA
BRANCH   7   9
HETATM    9  C7  UNL     1     -33.357   8.477   2.955  1.00 20.00     0.065 A 
HETATM   10  C6  UNL     1     -33.141   9.888   2.468  1.00 20.00     0.018 A 
HETATM   11  C8  UNL     1     -32.235   8.786   1.995  1.00 20.00    -0.006 A 
HETATM   12  C9  UNL     1     -32.305   8.313   0.584  1.00 20.00     0.011 C 
ENDBRANCH   7   9
ENDBRANCH   4   7
TORSDOF 2
