REMARK  2 active torsions:
REMARK  status: ('A' for Active; 'I' for Inactive)
REMARK    1  A    between atoms: C6_6  and  C7_7 
REMARK    2  A    between atoms: C7_7  and  N9_9 
ROOT
HETATM    1  C1  UNL     1     -31.888   7.463   2.704  1.00 20.00     0.012 C 
HETATM    2  C2  UNL     1     -32.286   7.964   3.720  1.00 20.00    -0.116 C 
HETATM    3  C6  UNL     1     -32.769   8.579   4.965  1.00 20.00     0.113 C 
ENDROOT
BRANCH   3   4
HETATM    4  C7  UNL     1     -34.148   8.058   5.373  1.00 20.00     0.141 C 
BRANCH   4   5
HETATM    5  N9  UNL     1     -34.178   6.618   5.615  1.00 20.00    -0.349 N 
HETATM    6  C4  UNL     1     -33.699   5.974   6.721  1.00 20.00     0.111 A 
HETATM    7  C3  UNL     1     -33.952   4.642   6.489  1.00 20.00     0.135 A 
HETATM    8  N8  UNL     1     -34.570   4.459   5.277  1.00 20.00    -0.255 NA
HETATM    9  C5  UNL     1     -34.692   5.668   4.777  1.00 20.00     0.209 A 
ENDBRANCH   4   5
ENDBRANCH   3   4
TORSDOF 2
