REMARK  2 active torsions:
REMARK  status: ('A' for Active; 'I' for Inactive)
REMARK    1  A    between atoms: C1_1  and  C7_7 
REMARK    2  A    between atoms: C7_7  and  S10_10 
ROOT
HETATM    1  C1  UNL     1     -33.043   6.894   3.838  1.00 20.00     0.061 A 
HETATM    2  C2  UNL     1     -32.926   7.891   4.784  1.00 20.00     0.006 A 
HETATM    3  C3  UNL     1     -34.000   5.865   5.522  1.00 20.00     0.072 A 
HETATM    4  C4  UNL     1     -32.330   9.238   4.677  1.00 20.00     0.058 C 
HETATM    5  C5  UNL     1     -34.681   4.822   6.320  1.00 20.00     0.078 C 
HETATM    6  N8  UNL     1     -33.658   5.731   4.260  1.00 20.00    -0.249 NA
HETATM    7  S9  UNL     1     -33.611   7.363   6.264  1.00 20.00    -0.078 SA
ENDROOT
BRANCH   1   8
HETATM    8  C7  UNL     1     -32.559   6.964   2.403  1.00 20.00     0.093 C 
HETATM    9  C6  UNL     1     -32.832   5.678   1.625  1.00 20.00     0.028 C 
BRANCH   8  10
HETATM   10  S10 UNL     1     -33.291   8.397   1.534  1.00 20.00    -0.172 SA
HETATM   11  H21 UNL     1     -32.682   8.164   0.365  1.00 20.00     0.102 HD
ENDBRANCH   8  10
ENDBRANCH   1   8
TORSDOF 2
