REMARK  2 active torsions:
REMARK  status: ('A' for Active; 'I' for Inactive)
REMARK    1  A    between atoms: C4_4  and  C5_5 
REMARK    2  A    between atoms: C5_5  and  C6_6 
ROOT
HETATM    1  C1  UNL     1     -33.086   6.523   3.270  1.00 20.00     0.034 A 
HETATM    2  C2  UNL     1     -33.725   7.934   5.004  1.00 20.00     0.069 A 
HETATM    3  C3  UNL     1     -33.875   6.684   4.446  1.00 20.00     0.018 A 
HETATM    4  C4  UNL     1     -32.363   7.657   2.974  1.00 20.00    -0.015 A 
HETATM    5  S7  UNL     1     -32.636   8.909   4.111  1.00 20.00    -0.105 SA
HETATM    6 BR9  UNL     1     -34.979   5.316   5.120  1.00 20.00    -0.051 Br
ENDROOT
BRANCH   4   7
HETATM    7  C5  UNL     1     -31.435   7.889   1.847  1.00 20.00     0.061 C 
BRANCH   7   8
HETATM    8  C6  UNL     1     -32.119   8.210   0.509  1.00 20.00     0.119 C 
HETATM    9 CL8  UNL     1     -33.137   9.667   0.626  1.00 20.00    -0.130 Cl
ENDBRANCH   7   8
ENDBRANCH   4   7
TORSDOF 2
