REMARK  2 active torsions:
REMARK  status: ('A' for Active; 'I' for Inactive)
REMARK    1  A    between atoms: C1_1  and  C7_7 
REMARK    2  A    between atoms: C7_7  and  S10_10 
ROOT
HETATM    1  C1  UNL     1     -33.254   6.933   4.097  1.00 20.00     0.061 A 
HETATM    2  C2  UNL     1     -32.726   6.457   2.915  1.00 20.00     0.006 A 
HETATM    3  C3  UNL     1     -32.940   8.851   3.080  1.00 20.00     0.072 A 
HETATM    4  C4  UNL     1     -32.458   5.071   2.483  1.00 20.00     0.058 C 
HETATM    5  C5  UNL     1     -32.913  10.306   2.816  1.00 20.00     0.078 C 
HETATM    6  N8  UNL     1     -33.377   8.305   4.194  1.00 20.00    -0.249 NA
HETATM    7  S9  UNL     1     -32.367   7.772   1.875  1.00 20.00    -0.078 SA
ENDROOT
BRANCH   1   8
HETATM    8  C7  UNL     1     -33.698   6.092   5.278  1.00 20.00     0.093 C 
HETATM    9  C6  UNL     1     -34.802   5.100   4.916  1.00 20.00     0.028 C 
BRANCH   8  10
HETATM   10  S10 UNL     1     -34.242   7.146   6.669  1.00 20.00    -0.172 SA
HETATM   11  H21 UNL     1     -34.545   6.131   7.488  1.00 20.00     0.102 HD
ENDBRANCH   8  10
ENDBRANCH   1   8
TORSDOF 2
