REMARK  3 active torsions:
REMARK  status: ('A' for Active; 'I' for Inactive)
REMARK    1  A    between atoms: C1_1  and  C6_6 
REMARK    2  A    between atoms: C6_6  and  C7_7 
REMARK    3  A    between atoms: C7_7  and  C8_8 
ROOT
HETATM    1  C2  UNL     1     -32.869   7.372   5.606  1.00 20.00     0.011 C 
HETATM    2  C7  UNL     1     -33.766   6.925   4.436  1.00 20.00    -0.003 C 
ENDROOT
BRANCH   2   3
HETATM    3  C6  UNL     1     -32.866   6.501   3.251  1.00 20.00     0.101 C 
BRANCH   3   4
HETATM    4  C1  UNL     1     -31.880   7.581   2.823  1.00 20.00     0.219 C 
HETATM    5  O9  UNL     1     -31.004   8.016   3.564  1.00 20.00    -0.280 OA
HETATM    6 CL10 UNL     1     -32.122   8.057   1.164  1.00 20.00    -0.044 Cl
ENDBRANCH   3   4
ENDBRANCH   2   3
BRANCH   2   7
HETATM    7  C8  UNL     1     -34.813   5.818   4.839  1.00 20.00    -0.048 C 
HETATM    8  C3  UNL     1     -36.119   5.983   4.031  1.00 20.00     0.015 C 
HETATM    9  C4  UNL     1     -35.188   5.958   6.332  1.00 20.00     0.015 C 
HETATM   10  C5  UNL     1     -34.279   4.392   4.606  1.00 20.00     0.015 C 
ENDBRANCH   2   7
TORSDOF 3
