REMARK  3 active torsions:
REMARK  status: ('A' for Active; 'I' for Inactive)
REMARK    1  A    between atoms: C5_5  and  C9_9 
REMARK    2  A    between atoms: C8_8  and  N10_10 
REMARK    3  A    between atoms: C9_9  and  N10_10 
ROOT
HETATM    1  C1  UNL     1     -32.167   8.317   0.175  1.00 20.00     0.013 C 
HETATM    2  C2  UNL     1     -32.342   7.847   1.266  1.00 20.00    -0.087 C 
HETATM    3  C8  UNL     1     -32.555   7.269   2.595  1.00 20.00     0.364 C 
ENDROOT
BRANCH   3   4
HETATM    4  N10 UNL     1     -32.865   8.322   3.576  1.00 20.00     0.095 N 
HETATM    5  C7  UNL     1     -31.745   9.274   3.644  1.00 20.00     0.310 C 
BRANCH   4   6
HETATM    6  C9  UNL     1     -33.159   7.765   4.868  1.00 20.00     0.278 C 
BRANCH   6   7
HETATM    7  C5  UNL     1     -34.537   7.201   4.911  1.00 20.00     0.018 A 
HETATM    8  C3  UNL     1     -34.822   5.844   4.323  1.00 20.00     0.011 A 
HETATM    9  C4  UNL     1     -34.914   6.049   5.813  1.00 20.00    -0.012 A 
HETATM   10  C6  UNL     1     -33.934   5.392   6.724  1.00 20.00     0.010 C 
ENDBRANCH   6   7
ENDBRANCH   4   6
ENDBRANCH   3   4
TORSDOF 3
