REMARK  3 active torsions:
REMARK  status: ('A' for Active; 'I' for Inactive)
REMARK    1  A    between atoms: C4_4  and  C8_8 
REMARK    2  A    between atoms: C7_7  and  N10_10 
REMARK    3  A    between atoms: C8_8  and  N10_10 
ROOT
HETATM    1  C1  UNL     1     -32.382   8.408   0.532  1.00 20.00     0.089 C 
HETATM    2  C7  UNL     1     -31.589   8.210   1.744  1.00 20.00     0.394 C 
HETATM    3  N9  UNL     1     -33.009   8.567  -0.431  1.00 20.00    -0.195 NA
ENDROOT
BRANCH   2   4
HETATM    4  N10 UNL     1     -32.358   7.474   2.760  1.00 20.00     0.097 N 
HETATM    5  C6  UNL     1     -32.332   6.037   2.448  1.00 20.00     0.311 C 
BRANCH   4   6
HETATM    6  C8  UNL     1     -31.860   7.732   4.083  1.00 20.00     0.278 C 
BRANCH   6   7
HETATM    7  C4  UNL     1     -32.901   7.461   5.113  1.00 20.00     0.018 A 
HETATM    8  C2  UNL     1     -33.971   8.482   5.395  1.00 20.00     0.011 A 
HETATM    9  C3  UNL     1     -34.324   7.194   4.698  1.00 20.00    -0.012 A 
HETATM   10  C5  UNL     1     -35.127   6.157   5.403  1.00 20.00     0.010 C 
ENDBRANCH   6   7
ENDBRANCH   4   6
ENDBRANCH   2   4
TORSDOF 3
