REMARK  4 active torsions:
REMARK  status: ('A' for Active; 'I' for Inactive)
REMARK    1  A    between atoms: C8_8  and  C11_11 
REMARK    2  A    between atoms: C9_9  and  C10_10 
REMARK    3  A    between atoms: C10_10  and  C11_11 
REMARK    4  A    between atoms: C11_11  and  O12_12 
ROOT
HETATM    1  C1  UNL     1     -32.509   9.138   0.969  1.00 20.00     0.012 C 
HETATM    2  C2  UNL     1     -32.609   9.377   2.141  1.00 20.00    -0.117 C 
HETATM    3  C9  UNL     1     -32.732   9.676   3.574  1.00 20.00     0.095 C 
ENDROOT
BRANCH   3   4
HETATM    4  C10 UNL     1     -32.045   8.621   4.448  1.00 20.00     0.044 C 
BRANCH   4   5
HETATM    5  C11 UNL     1     -32.602   7.205   4.259  1.00 20.00     0.123 C 
BRANCH   5   6
HETATM    6  C8  UNL     1     -34.096   7.154   4.596  1.00 20.00     0.018 C 
HETATM    7  C6  UNL     1     -34.354   7.518   6.070  1.00 20.00     0.034 C 
HETATM    8  C4  UNL     1     -34.154   6.375   7.023  1.00 20.00    -0.030 C 
HETATM    9  C3  UNL     1     -34.064   5.098   6.628  1.00 20.00    -0.031 C 
HETATM   10  C5  UNL     1     -34.179   4.671   5.195  1.00 20.00     0.027 C 
HETATM   11  C7  UNL     1     -34.701   5.780   4.274  1.00 20.00     0.011 C 
ENDBRANCH   5   6
BRANCH   5  12
HETATM   12  O12 UNL     1     -32.428   6.809   2.902  1.00 20.00    -0.395 OA
HETATM   13  H28 UNL     1     -31.476   6.851   2.721  1.00 20.00     0.210 HD
ENDBRANCH   5  12
ENDBRANCH   4   5
ENDBRANCH   3   4
TORSDOF 4
