REMARK  3 active torsions:
REMARK  status: ('A' for Active; 'I' for Inactive)
REMARK    1  A    between atoms: C4_4  and  C8_8 
REMARK    2  A    between atoms: C7_7  and  N10_10 
REMARK    3  A    between atoms: C8_8  and  N10_10 
ROOT
HETATM    1  C1  UNL     1     -33.612   5.201   3.584  1.00 20.00     0.089 C 
HETATM    2  C7  UNL     1     -34.567   5.187   4.691  1.00 20.00     0.394 C 
HETATM    3  N9  UNL     1     -32.857   5.209   2.703  1.00 20.00    -0.195 NA
ENDROOT
BRANCH   2   4
HETATM    4  N10 UNL     1     -33.995   5.830   5.884  1.00 20.00     0.097 N 
HETATM    5  C6  UNL     1     -34.737   5.396   7.078  1.00 20.00     0.311 C 
BRANCH   4   6
HETATM    6  C8  UNL     1     -33.996   7.262   5.759  1.00 20.00     0.278 C 
BRANCH   6   7
HETATM    7  C4  UNL     1     -32.890   7.726   4.876  1.00 20.00     0.018 A 
HETATM    8  C2  UNL     1     -32.418   9.155   4.942  1.00 20.00     0.011 A 
HETATM    9  C3  UNL     1     -33.178   8.668   3.736  1.00 20.00    -0.012 A 
HETATM   10  C5  UNL     1     -32.481   8.497   2.431  1.00 20.00     0.010 C 
ENDBRANCH   6   7
ENDBRANCH   4   6
ENDBRANCH   2   4
TORSDOF 3
