REMARK  3 active torsions:
REMARK  status: ('A' for Active; 'I' for Inactive)
REMARK    1  A    between atoms: C4_4  and  C8_8 
REMARK    2  A    between atoms: C8_8  and  N11_11 
REMARK    3  A    between atoms: C9_9  and  N11_11 
ROOT
HETATM    1  C1  UNL     1     -33.921   6.065   4.282  1.00 20.00     0.095 C 
HETATM    2  C6  UNL     1     -33.889   7.747   6.085  1.00 20.00     0.059 C 
HETATM    3  C9  UNL     1     -33.178   7.194   4.858  1.00 20.00     0.324 C 
HETATM    4  N10 UNL     1     -34.506   5.172   3.829  1.00 20.00    -0.195 NA
ENDROOT
BRANCH   3   5
HETATM    5  N11 UNL     1     -32.997   8.244   3.844  1.00 20.00     0.102 N 
HETATM    6  C7  UNL     1     -32.252   9.369   4.431  1.00 20.00     0.311 C 
BRANCH   5   7
HETATM    7  C8  UNL     1     -32.339   7.735   2.672  1.00 20.00     0.278 C 
BRANCH   7   8
HETATM    8  C4  UNL     1     -32.213   8.786   1.625  1.00 20.00     0.018 A 
HETATM    9  C2  UNL     1     -33.445   9.434   1.051  1.00 20.00     0.011 A 
HETATM   10  C3  UNL     1     -32.627   8.494   0.206  1.00 20.00    -0.012 A 
HETATM   11  C5  UNL     1     -31.820   9.018  -0.931  1.00 20.00     0.010 C 
ENDBRANCH   7   8
ENDBRANCH   5   7
ENDBRANCH   3   5
TORSDOF 3
