REMARK  2 active torsions:
REMARK  status: ('A' for Active; 'I' for Inactive)
REMARK    1  A    between atoms: C6_6  and  C8_8 
REMARK    2  A    between atoms: C8_8  and  N9_9 
ROOT
HETATM    1  C1  UNL     1     -32.336   7.891   2.936  1.00 20.00     0.332 C 
HETATM    2  N9  UNL     1     -32.423   8.460   3.964  1.00 20.00    -0.247 NA
HETATM    3  O10 UNL     1     -32.248   7.327   1.908  1.00 20.00    -0.260 OA
ENDROOT
BRANCH   2   4
HETATM    4  C8  UNL     1     -32.713   7.608   5.108  1.00 20.00     0.162 C 
BRANCH   4   5
HETATM    5  C6  UNL     1     -34.240   7.502   5.253  1.00 20.00    -0.026 C 
HETATM    6  C4  UNL     1     -34.635   7.064   6.670  1.00 20.00     0.011 C 
HETATM    7  C2  UNL     1     -34.446   5.549   6.685  1.00 20.00     0.001 C 
HETATM    8  C3  UNL     1     -34.552   5.092   5.230  1.00 20.00     0.001 C 
HETATM    9  C5  UNL     1     -34.801   6.352   4.405  1.00 20.00     0.011 C 
HETATM   10  C7  UNL     1     -34.877   8.841   4.879  1.00 20.00     0.017 C 
ENDBRANCH   4   5
ENDBRANCH   2   4
TORSDOF 2
