REMARK  2 active torsions:
REMARK  status: ('A' for Active; 'I' for Inactive)
REMARK    1  A    between atoms: C3_3  and  C8_8 
REMARK    2  A    between atoms: C10_10  and  N11_11 
ROOT
HETATM    1  C1  UNL     1     -33.113   9.497  -0.210  1.00 20.00     0.013 C 
HETATM    2  C2  UNL     1     -32.875   9.259   0.942  1.00 20.00    -0.087 C 
HETATM    3  C10 UNL     1     -32.582   8.972   2.349  1.00 20.00     0.364 C 
ENDROOT
BRANCH   3   4
HETATM    4  N11 UNL     1     -33.173   7.695   2.749  1.00 20.00     0.100 N 
HETATM    5  C6  UNL     1     -32.331   6.577   2.302  1.00 20.00     0.273 C 
HETATM    6  C4  UNL     1     -32.963   5.232   2.666  1.00 20.00     0.031 C 
HETATM    7  C5  UNL     1     -33.240   5.136   4.162  1.00 20.00     0.015 C 
HETATM    8  C8  UNL     1     -34.046   6.345   4.632  1.00 20.00     0.083 C 
HETATM    9  C7  UNL     1     -33.378   7.657   4.205  1.00 20.00     0.285 C 
BRANCH   8  10
HETATM   10  C3  UNL     1     -34.180   6.320   6.124  1.00 20.00     0.129 C 
HETATM   11  C9  UNL     1     -34.847   5.112   6.723  1.00 20.00     0.091 C 
HETATM   12  O12 UNL     1     -33.763   7.241   6.824  1.00 20.00    -0.298 OA
ENDBRANCH   8  10
ENDBRANCH   3   4
TORSDOF 2
