REMARK  4 active torsions:
REMARK  status: ('A' for Active; 'I' for Inactive)
REMARK    1  A    between atoms: C4_4  and  C8_8 
REMARK    2  A    between atoms: C5_5  and  C9_9 
REMARK    3  A    between atoms: C8_8  and  N10_10 
REMARK    4  A    between atoms: C9_9  and  N10_10 
ROOT
HETATM    1  C7  UNL     1     -32.260   9.070   4.482  1.00 20.00     0.310 C 
HETATM    2  N10 UNL     1     -32.521   7.978   3.530  1.00 20.00     0.087 N 
ENDROOT
BRANCH   2   3
HETATM    3  C8  UNL     1     -33.042   6.816   4.195  1.00 20.00     0.277 C 
BRANCH   3   4
HETATM    4  C4  UNL     1     -34.324   7.123   4.891  1.00 20.00     0.018 A 
HETATM    5  C1  UNL     1     -34.314   7.801   6.237  1.00 20.00     0.011 A 
HETATM    6  C3  UNL     1     -34.780   6.373   6.120  1.00 20.00    -0.012 A 
HETATM    7  C6  UNL     1     -33.981   5.270   6.726  1.00 20.00     0.010 C 
ENDBRANCH   3   4
ENDBRANCH   2   3
BRANCH   2   8
HETATM    8  C9  UNL     1     -33.437   8.452   2.480  1.00 20.00     0.305 C 
BRANCH   8   9
HETATM    9  C5  UNL     1     -32.709   9.244   1.448  1.00 20.00     0.173 A 
HETATM   10  C2  UNL     1     -33.286   9.451   0.076  1.00 20.00     0.201 A 
HETATM   11  O11 UNL     1     -32.256   8.482   0.324  1.00 20.00    -0.379 OA
ENDBRANCH   8   9
ENDBRANCH   2   8
TORSDOF 4
