REMARK  4 active torsions:
REMARK  status: ('A' for Active; 'I' for Inactive)
REMARK    1  A    between atoms: C2_2  and  C10_10 
REMARK    2  A    between atoms: C7_7  and  C11_11 
REMARK    3  A    between atoms: C10_10  and  N12_12 
REMARK    4  A    between atoms: C11_11  and  N12_12 
ROOT
HETATM    1  C1  UNL     1     -32.941   8.701  -0.239  1.00 20.00    -0.109 C 
HETATM    2  C2  UNL     1     -32.715   8.878   0.928  1.00 20.00    -0.077 C 
HETATM    3  C8  UNL     1     -33.216   8.485  -1.659  1.00 20.00     0.112 C 
ENDROOT
BRANCH   2   4
HETATM    4  C10 UNL     1     -32.438   9.101   2.349  1.00 20.00     0.362 C 
BRANCH   4   5
HETATM    5  N12 UNL     1     -32.683   7.880   3.130  1.00 20.00     0.095 N 
HETATM    6  H31 UNL     1     -32.169   7.972   4.020  1.00 20.00     0.317 HD
BRANCH   5   7
HETATM    7  C11 UNL     1     -34.067   7.656   3.359  1.00 20.00     0.279 C 
BRANCH   7   8
HETATM    8  C7  UNL     1     -34.247   6.368   4.164  1.00 20.00    -0.018 C 
HETATM    9  C5  UNL     1     -35.728   6.082   4.450  1.00 20.00     0.011 C 
HETATM   10  C3  UNL     1     -35.728   5.177   5.679  1.00 20.00     0.001 C 
HETATM   11  C4  UNL     1     -34.412   5.449   6.408  1.00 20.00     0.001 C 
HETATM   12  C6  UNL     1     -33.678   6.504   5.583  1.00 20.00     0.011 C 
HETATM   13  C9  UNL     1     -33.589   5.202   3.409  1.00 20.00     0.017 C 
ENDBRANCH   7   8
ENDBRANCH   5   7
ENDBRANCH   4   5
ENDBRANCH   2   4
TORSDOF 4
