REMARK  2 active torsions:
REMARK  status: ('A' for Active; 'I' for Inactive)
REMARK    1  A    between atoms: C6_6  and  C8_8 
REMARK    2  A    between atoms: C8_8  and  N9_9 
ROOT
HETATM    1  C1  UNL     1     -32.454   8.198   1.600  1.00 20.00     0.157 C 
HETATM    2  N9  UNL     1     -32.339   7.894   2.733  1.00 20.00    -0.275 NA
HETATM    3  S10 UNL     1     -32.604   8.626   0.073  1.00 20.00    -0.055 SA
ENDROOT
BRANCH   2   4
HETATM    4  C8  UNL     1     -32.655   6.508   3.039  1.00 20.00     0.159 C 
BRANCH   4   5
HETATM    5  C6  UNL     1     -33.815   6.491   4.037  1.00 20.00    -0.026 C 
HETATM    6  C4  UNL     1     -33.454   7.226   5.335  1.00 20.00     0.011 C 
HETATM    7  C2  UNL     1     -34.396   6.653   6.391  1.00 20.00     0.001 C 
HETATM    8  C3  UNL     1     -34.808   5.270   5.889  1.00 20.00     0.001 C 
HETATM    9  C5  UNL     1     -34.097   5.073   4.552  1.00 20.00     0.011 C 
HETATM   10  C7  UNL     1     -35.061   7.103   3.377  1.00 20.00     0.017 C 
ENDBRANCH   4   5
ENDBRANCH   2   4
TORSDOF 2
