REMARK  4 active torsions:
REMARK  status: ('A' for Active; 'I' for Inactive)
REMARK    1  A    between atoms: C6_6  and  C10_10 
REMARK    2  A    between atoms: C8_8  and  C9_9 
REMARK    3  A    between atoms: C9_9  and  C10_10 
REMARK    4  A    between atoms: C10_10  and  O11_11 
ROOT
HETATM    1  C1  UNL     1     -34.934   6.076   6.292  1.00 20.00    -0.031 C 
HETATM    2  C2  UNL     1     -34.964   5.432   5.117  1.00 20.00    -0.030 C 
HETATM    3  C3  UNL     1     -34.174   7.350   6.508  1.00 20.00     0.027 C 
HETATM    4  C4  UNL     1     -34.215   5.900   3.905  1.00 20.00     0.034 C 
HETATM    5  C5  UNL     1     -33.705   8.004   5.205  1.00 20.00     0.011 C 
HETATM    6  C6  UNL     1     -33.147   6.961   4.228  1.00 20.00     0.018 C 
ENDROOT
BRANCH   6   7
HETATM    7  C10 UNL     1     -32.637   7.621   2.949  1.00 20.00     0.122 C 
BRANCH   7   8
HETATM    8  C9  UNL     1     -33.623   8.671   2.432  1.00 20.00     0.032 C 
BRANCH   8   9
HETATM    9  C8  UNL     1     -32.963   9.641   1.449  1.00 20.00    -0.002 C 
HETATM   10  C7  UNL     1     -32.370   8.906   0.256  1.00 20.00     0.005 C 
ENDBRANCH   8   9
ENDBRANCH   7   8
BRANCH   7  11
HETATM   11  O11 UNL     1     -32.432   6.610   1.968  1.00 20.00    -0.395 OA
HETATM   12  H29 UNL     1     -31.775   5.997   2.334  1.00 20.00     0.210 HD
ENDBRANCH   7  11
ENDBRANCH   6   7
TORSDOF 4
