REMARK  0 active torsions:
REMARK  status: ('A' for Active; 'I' for Inactive)
ROOT
HETATM    1  C1  UNL     1     -33.095   5.960   3.213  1.00 20.00    -0.088 C 
HETATM    2  C2  UNL     1     -32.428   5.083   2.449  1.00 20.00     0.014 C 
HETATM    3  C3  UNL     1     -32.789   7.434   3.209  1.00 20.00     0.037 C 
HETATM    4  C4  UNL     1     -34.199   5.543   4.151  1.00 20.00     0.042 C 
HETATM    5  C5  UNL     1     -33.627   7.543   5.604  1.00 20.00     0.013 C 
HETATM    6  C6  UNL     1     -32.498   7.938   4.631  1.00 20.00    -0.014 C 
HETATM    7  C7  UNL     1     -33.944   6.025   5.600  1.00 20.00    -0.044 C 
HETATM    8  C8  UNL     1     -32.301   9.455   4.630  1.00 20.00     0.010 C 
HETATM    9  C9  UNL     1     -32.787   5.228   6.238  1.00 20.00     0.015 C 
HETATM   10  C10 UNL     1     -35.210   5.777   6.440  1.00 20.00     0.015 C 
ENDROOT
TORSDOF 0
