REMARK  4 active torsions:
REMARK  status: ('A' for Active; 'I' for Inactive)
REMARK    1  A    between atoms: C4_4  and  C5_5 
REMARK    2  A    between atoms: C5_5  and  C6_6 
REMARK    3  A    between atoms: C6_6  and  C8_8 
REMARK    4  A    between atoms: C7_7  and  C8_8 
ROOT
HETATM    1  C1  UNL     1     -32.840   8.651  -0.388  1.00 20.00     0.012 C 
HETATM    2  C2  UNL     1     -32.498   8.410   0.737  1.00 20.00    -0.117 C 
HETATM    3  C4  UNL     1     -32.077   8.117   2.115  1.00 20.00     0.093 C 
ENDROOT
BRANCH   3   4
HETATM    4  C5  UNL     1     -33.240   7.634   2.986  1.00 20.00     0.012 C 
BRANCH   4   5
HETATM    5  C6  UNL     1     -32.809   7.312   4.423  1.00 20.00     0.006 C 
BRANCH   5   6
HETATM    6  C8  UNL     1     -33.983   6.911   5.342  1.00 20.00    -0.005 C 
HETATM    7  C3  UNL     1     -33.472   6.699   6.772  1.00 20.00     0.011 C 
BRANCH   6   8
HETATM    8  C7  UNL     1     -34.793   5.699   4.854  1.00 20.00     0.119 C 
HETATM    9 CL9  UNL     1     -33.873   4.175   4.868  1.00 20.00    -0.130 Cl
ENDBRANCH   6   8
ENDBRANCH   5   6
ENDBRANCH   4   5
ENDBRANCH   3   4
TORSDOF 4
