REMARK  4 active torsions:
REMARK  status: ('A' for Active; 'I' for Inactive)
REMARK    1  A    between atoms: C1_1  and  C12_12 
REMARK    2  A    between atoms: C6_6  and  C10_10 
REMARK    3  A    between atoms: C7_7  and  C11_11 
REMARK    4  A    between atoms: C11_11  and  C12_12 
ROOT
HETATM    1  C2  UNL     1     -33.646   9.167   3.739  1.00 20.00     0.001 C 
HETATM    2  C3  UNL     1     -32.886   9.471   2.451  1.00 20.00     0.005 C 
HETATM    3  C4  UNL     1     -33.085   7.937   4.448  1.00 20.00     0.005 C 
HETATM    4  C5  UNL     1     -32.279   7.027   2.231  1.00 20.00     0.009 C 
HETATM    5  C6  UNL     1     -32.845   8.260   1.511  1.00 20.00    -0.014 C 
HETATM    6  C7  UNL     1     -33.013   6.701   3.541  1.00 20.00    -0.013 C 
ENDROOT
BRANCH   6   7
HETATM    7  C11 UNL     1     -34.399   6.106   3.282  1.00 20.00     0.015 C 
BRANCH   7   8
HETATM    8  C12 UNL     1     -34.879   5.219   4.435  1.00 20.00     0.043 C 
HETATM    9  C9  UNL     1     -33.930   4.039   4.632  1.00 20.00     0.017 C 
BRANCH   8  10
HETATM   10  C1  UNL     1     -34.974   5.962   5.757  1.00 20.00     0.235 C 
HETATM   11  O13 UNL     1     -34.340   5.681   6.769  1.00 20.00    -0.306 OA
ENDBRANCH   8  10
ENDBRANCH   7   8
ENDBRANCH   6   7
BRANCH   5  12
HETATM   12  C10 UNL     1     -32.022   8.577   0.263  1.00 20.00     0.000 C 
HETATM   13  C8  UNL     1     -32.570   9.754  -0.475  1.00 20.00     0.005 C 
ENDBRANCH   5  12
TORSDOF 4
