REMARK  5 active torsions:
REMARK  status: ('A' for Active; 'I' for Inactive)
REMARK    1  A    between atoms: C4_4  and  C5_5 
REMARK    2  A    between atoms: C4_4  and  C6_6 
REMARK    3  A    between atoms: C5_5  and  C8_8 
REMARK    4  A    between atoms: C6_6  and  C9_9 
REMARK    5  A    between atoms: C7_7  and  C9_9 
ROOT
HETATM    1  C4  UNL     1     -33.113   7.153   4.579  1.00 20.00     0.001 C 
ENDROOT
BRANCH   1   2
HETATM    2  C5  UNL     1     -34.595   6.776   4.481  1.00 20.00     0.004 C 
BRANCH   2   3
HETATM    3  C8  UNL     1     -34.944   5.463   5.206  1.00 20.00    -0.023 C 
HETATM    4  C1  UNL     1     -34.627   5.518   6.701  1.00 20.00     0.009 C 
HETATM    5  C2  UNL     1     -34.188   4.299   4.561  1.00 20.00     0.009 C 
ENDBRANCH   2   3
ENDBRANCH   1   2
BRANCH   1   6
HETATM    6  C6  UNL     1     -32.822   8.451   3.819  1.00 20.00     0.005 C 
BRANCH   6   7
HETATM    7  C9  UNL     1     -33.140   8.368   2.312  1.00 20.00    -0.005 C 
HETATM    8  C3  UNL     1     -32.310   7.252   1.667  1.00 20.00     0.011 C 
BRANCH   7   9
HETATM    9  C7  UNL     1     -32.978   9.696   1.555  1.00 20.00     0.119 C 
HETATM   10 CL10 UNL     1     -33.494   9.615  -0.147  1.00 20.00    -0.130 Cl
ENDBRANCH   7   9
ENDBRANCH   6   7
ENDBRANCH   1   6
TORSDOF 5
