REMARK  1 active torsions:
REMARK  status: ('A' for Active; 'I' for Inactive)
REMARK    1  A    between atoms: C2_2  and  C6_6 
ROOT
HETATM    1  C1  UNL     1     -35.487   6.067   4.691  1.00 20.00     0.015 A 
HETATM    2  C2  UNL     1     -34.038   6.319   4.368  1.00 20.00     0.008 A 
HETATM    3  C3  UNL     1     -34.437   5.862   5.762  1.00 20.00    -0.043 A 
HETATM    4  C4  UNL     1     -34.090   4.447   6.147  1.00 20.00     0.015 C 
HETATM    5  C5  UNL     1     -34.403   6.833   6.913  1.00 20.00     0.015 C 
ENDROOT
BRANCH   2   6
HETATM    6  C6  UNL     1     -33.560   7.701   4.080  1.00 20.00     0.120 C 
HETATM    7 CL7  UNL     1     -31.795   7.835   4.307  1.00 20.00    -0.130 Cl
ENDBRANCH   2   6
TORSDOF 1
