REMARK  3 active torsions:
REMARK  status: ('A' for Active; 'I' for Inactive)
REMARK    1  A    between atoms: C3_3  and  C5_5 
REMARK    2  A    between atoms: C5_5  and  C7_7 
REMARK    3  A    between atoms: C6_6  and  C7_7 
ROOT
HETATM    1  C5  UNL     1     -33.876   6.390   5.136  1.00 20.00     0.010 C 
ENDROOT
BRANCH   1   2
HETATM    2  C3  UNL     1     -34.194   5.388   4.065  1.00 20.00    -0.014 A 
HETATM    3  C1  UNL     1     -33.087   4.669   3.346  1.00 20.00     0.005 A 
HETATM    4  C2  UNL     1     -33.968   3.922   4.308  1.00 20.00     0.005 A 
ENDBRANCH   1   2
BRANCH   1   5
HETATM    5  C7  UNL     1     -33.701   7.821   4.592  1.00 20.00    -0.004 C 
HETATM    6  C4  UNL     1     -33.926   8.877   5.681  1.00 20.00     0.011 C 
BRANCH   5   7
HETATM    7  C6  UNL     1     -32.339   8.006   3.903  1.00 20.00     0.119 C 
HETATM    8 CL8  UNL     1     -32.228   7.210   2.314  1.00 20.00    -0.130 Cl
ENDBRANCH   5   7
ENDBRANCH   1   5
TORSDOF 3
