REMARK  1 active torsions:
REMARK  status: ('A' for Active; 'I' for Inactive)
REMARK    1  A    between atoms: C6_6  and  C9_9 
ROOT
HETATM    1  C1  UNL     1     -32.555   8.140   2.811  1.00 20.00    -0.085 C 
HETATM    2  C2  UNL     1     -32.753   9.352   2.276  1.00 20.00     0.014 C 
HETATM    3  C3  UNL     1     -32.122   6.947   2.003  1.00 20.00     0.059 C 
HETATM    4  C4  UNL     1     -32.777   7.838   4.269  1.00 20.00     0.065 C 
HETATM    5  C5  UNL     1     -33.070   5.781   2.271  1.00 20.00     0.172 C 
HETATM    6  C6  UNL     1     -33.697   6.619   4.402  1.00 20.00     0.128 C 
HETATM    7  O10 UNL     1     -33.154   5.507   3.674  1.00 20.00    -0.385 OA
ENDROOT
BRANCH   6   8
HETATM    8  C9  UNL     1     -33.834   6.195   5.858  1.00 20.00     0.007 C 
HETATM    9  C7  UNL     1     -34.391   7.340   6.705  1.00 20.00     0.012 C 
HETATM   10  C8  UNL     1     -34.724   4.959   5.981  1.00 20.00     0.012 C 
ENDBRANCH   6   8
TORSDOF 1
