REMARK  4 active torsions:
REMARK  status: ('A' for Active; 'I' for Inactive)
REMARK    1  A    between atoms: C1_1  and  C6_6 
REMARK    2  A    between atoms: C2_2  and  C7_7 
REMARK    3  A    between atoms: C6_6  and  S9_9 
REMARK    4  A    between atoms: C8_8  and  S9_9 
ROOT
HETATM    1  C6  UNL     1     -33.090   5.739   2.676  1.00 20.00     0.101 C 
ENDROOT
BRANCH   1   2
HETATM    2  C1  UNL     1     -32.384   6.521   1.615  1.00 20.00    -0.020 C 
HETATM    3  C2  UNL     1     -32.323   7.861   1.594  1.00 20.00    -0.015 C 
BRANCH   3   4
HETATM    4  C7  UNL     1     -31.612   8.641   0.538  1.00 20.00     0.141 C 
HETATM    5 CL10 UNL     1     -32.763   9.689  -0.318  1.00 20.00    -0.126 Cl
ENDBRANCH   3   4
ENDBRANCH   1   2
BRANCH   1   6
HETATM    6  S9  UNL     1     -33.055   6.639   4.240  1.00 20.00    -0.156 SA
BRANCH   6   7
HETATM    7  C8  UNL     1     -34.457   5.778   5.052  1.00 20.00    -0.003 C 
HETATM    8  C3  UNL     1     -34.126   4.286   5.151  1.00 20.00     0.026 C 
HETATM    9  C4  UNL     1     -34.645   6.374   6.451  1.00 20.00     0.026 C 
HETATM   10  C5  UNL     1     -35.718   5.990   4.210  1.00 20.00     0.026 C 
ENDBRANCH   6   7
ENDBRANCH   1   6
TORSDOF 4
