REMARK  2 active torsions:
REMARK  status: ('A' for Active; 'I' for Inactive)
REMARK    1  A    between atoms: C7_7  and  C8_8 
REMARK    2  A    between atoms: C7_7  and  N9_9 
ROOT
HETATM    1  C1  UNL     1     -33.416   6.831   6.114  1.00 20.00     0.038 C 
HETATM    2  C2  UNL     1     -33.065   8.102   5.366  1.00 20.00     0.235 C 
HETATM    3  C3  UNL     1     -33.391   6.245   3.794  1.00 20.00     0.243 C 
HETATM    4  C4  UNL     1     -34.180   5.993   5.084  1.00 20.00    -0.022 C 
HETATM    5  C5  UNL     1     -34.176   4.509   5.459  1.00 20.00     0.016 C 
HETATM    6  C6  UNL     1     -35.636   6.468   4.941  1.00 20.00     0.016 C 
HETATM    7  N9  UNL     1     -32.770   7.623   3.962  1.00 20.00    -0.069 N 
HETATM    8  H27 UNL     1     -31.747   7.499   3.898  1.00 20.00     0.280 HD
ENDROOT
BRANCH   7   9
HETATM    9  C7  UNL     1     -33.148   8.604   2.898  1.00 20.00     0.250 C 
BRANCH   9  10
HETATM   10  C8  UNL     1     -32.393   8.301   1.618  1.00 20.00     0.142 C 
HETATM   11 CL10 UNL     1     -32.838   9.427   0.313  1.00 20.00    -0.129 Cl
ENDBRANCH   9  10
ENDBRANCH   7   9
TORSDOF 2
