REMARK  2 active torsions:
REMARK  status: ('A' for Active; 'I' for Inactive)
REMARK    1  A    between atoms: C5_5  and  C7_7 
REMARK    2  A    between atoms: C6_6  and  C7_7 
ROOT
HETATM    1  C3  UNL     1     -34.165   5.539   6.528  1.00 20.00     0.016 C 
HETATM    2  C4  UNL     1     -35.241   6.149   4.365  1.00 20.00     0.016 C 
HETATM    3  C7  UNL     1     -33.876   5.966   5.071  1.00 20.00    -0.032 C 
ENDROOT
BRANCH   3   4
HETATM    4  C5  UNL     1     -33.122   4.783   4.399  1.00 20.00     0.123 C 
HETATM    5 CL8  UNL     1     -33.183   4.796   2.617  1.00 20.00    -0.130 Cl
ENDBRANCH   3   4
BRANCH   3   6
HETATM    6  C6  UNL     1     -33.056   7.310   5.013  1.00 20.00    -0.014 C 
HETATM    7  C1  UNL     1     -33.745   8.491   5.712  1.00 20.00     0.010 C 
HETATM    8  C2  UNL     1     -32.678   7.750   3.589  1.00 20.00     0.010 C 
ENDBRANCH   3   6
TORSDOF 2
