REMARK  3 active torsions:
REMARK  status: ('A' for Active; 'I' for Inactive)
REMARK    1  A    between atoms: C1_1  and  C5_5 
REMARK    2  A    between atoms: C1_1  and  C7_7 
REMARK    3  A    between atoms: C6_6  and  C7_7 
ROOT
HETATM    1  C3  UNL     1     -35.688   6.418   4.362  1.00 20.00     0.023 C 
HETATM    2  C4  UNL     1     -33.599   5.429   3.447  1.00 20.00     0.023 C 
HETATM    3  C7  UNL     1     -34.244   6.012   4.718  1.00 20.00     0.014 C 
ENDROOT
BRANCH   3   4
HETATM    4  C1  UNL     1     -33.451   7.262   5.169  1.00 20.00     0.148 C 
HETATM    5  O8  UNL     1     -33.813   7.922   6.146  1.00 20.00    -0.296 OA
BRANCH   4   6
HETATM    6  C5  UNL     1     -32.224   7.647   4.362  1.00 20.00     0.193 C 
HETATM    7 CL9  UNL     1     -32.672   8.739   3.039  1.00 20.00    -0.123 Cl
ENDBRANCH   4   6
ENDBRANCH   3   4
BRANCH   3   8
HETATM    8  C6  UNL     1     -34.239   4.934   5.829  1.00 20.00     0.012 C 
HETATM    9  C2  UNL     1     -34.857   5.366   7.154  1.00 20.00     0.006 C 
ENDBRANCH   3   8
TORSDOF 3
