REMARK  2 active torsions:
REMARK  status: ('A' for Active; 'I' for Inactive)
REMARK    1  A    between atoms: C1_1  and  C5_5 
REMARK    2  A    between atoms: C1_1  and  C6_6 
ROOT
HETATM    1  C2  UNL     1     -35.442   6.078   4.289  1.00 20.00     0.023 C 
HETATM    2  C3  UNL     1     -34.922   4.758   4.837  1.00 20.00     0.075 C 
HETATM    3  C4  UNL     1     -34.077   6.963   6.128  1.00 20.00     0.086 C 
HETATM    4  C5  UNL     1     -34.447   7.170   4.665  1.00 20.00     0.066 C 
HETATM    5  S8  UNL     1     -34.136   5.170   6.417  1.00 20.00    -0.168 SA
ENDROOT
BRANCH   4   6
HETATM    6  C1  UNL     1     -33.228   7.149   3.787  1.00 20.00     0.145 C 
HETATM    7  O7  UNL     1     -32.831   6.096   3.291  1.00 20.00    -0.296 OA
BRANCH   6   8
HETATM    8  C6  UNL     1     -32.551   8.483   3.573  1.00 20.00     0.193 C 
HETATM    9 CL9  UNL     1     -33.210   9.298   2.147  1.00 20.00    -0.123 Cl
ENDBRANCH   6   8
ENDBRANCH   4   6
TORSDOF 2
