REMARK  2 active torsions:
REMARK  status: ('A' for Active; 'I' for Inactive)
REMARK    1  A    between atoms: C8_8  and  C11_11 
REMARK    2  A    between atoms: C8_8  and  O12_12 
ROOT
HETATM    1  C1  UNL     1     -33.064   9.625   0.802  1.00 20.00     0.012 C 
HETATM    2  C2  UNL     1     -32.482   9.441   1.837  1.00 20.00    -0.115 C 
HETATM    3  C11 UNL     1     -31.764   9.229   3.094  1.00 20.00     0.131 C 
ENDROOT
BRANCH   3   4
HETATM    4  C8  UNL     1     -32.316   8.011   3.839  1.00 20.00     0.069 C 
HETATM    5  C4  UNL     1     -33.807   8.212   4.162  1.00 20.00     0.043 C 
HETATM    6  C6  UNL     1     -34.510   6.975   4.750  1.00 20.00    -0.015 C 
HETATM    7  C3  UNL     1     -34.227   5.724   3.908  1.00 20.00     0.008 C 
HETATM    8  C9  UNL     1     -34.183   6.752   6.228  1.00 20.00     0.010 C 
HETATM    9  C7  UNL     1     -32.731   5.496   3.650  1.00 20.00    -0.015 C 
HETATM   10  C5  UNL     1     -32.095   6.739   3.007  1.00 20.00     0.043 C 
HETATM   11  C10 UNL     1     -32.524   4.269   2.760  1.00 20.00     0.010 C 
BRANCH   4  12
HETATM   12  O12 UNL     1     -31.571   7.884   5.051  1.00 20.00    -0.389 OA
HETATM   13  H30 UNL     1     -30.646   7.760   4.791  1.00 20.00     0.210 HD
ENDBRANCH   4  12
ENDBRANCH   3   4
TORSDOF 2
