REMARK  2 active torsions:
REMARK  status: ('A' for Active; 'I' for Inactive)
REMARK    1  A    between atoms: C4_4  and  C9_9 
REMARK    2  A    between atoms: C9_9  and  C10_10 
ROOT
HETATM    1  C1  UNL     1     -32.982   8.472   4.049  1.00 20.00     0.005 C 
HETATM    2  C2  UNL     1     -33.914   7.999   5.170  1.00 20.00     0.005 C 
HETATM    3  C3  UNL     1     -33.253   6.120   3.184  1.00 20.00     0.009 C 
HETATM    4  C4  UNL     1     -32.310   7.322   3.281  1.00 20.00    -0.013 C 
HETATM    5  C5  UNL     1     -33.526   6.614   5.696  1.00 20.00    -0.015 C 
HETATM    6  C6  UNL     1     -33.616   5.544   4.572  1.00 20.00    -0.015 C 
HETATM    7  C7  UNL     1     -34.318   6.267   6.956  1.00 20.00     0.010 C 
HETATM    8  C8  UNL     1     -34.969   4.831   4.475  1.00 20.00     0.010 C 
ENDROOT
BRANCH   4   9
HETATM    9  C9  UNL     1     -31.859   7.786   1.898  1.00 20.00     0.020 C 
BRANCH   9  10
HETATM   10  C10 UNL     1     -33.013   8.208   0.999  1.00 20.00     0.115 C 
HETATM   11 CL11 UNL     1     -32.456   8.716  -0.611  1.00 20.00    -0.130 Cl
ENDBRANCH   9  10
ENDBRANCH   4   9
TORSDOF 2
