REMARK  1 active torsions:
REMARK  status: ('A' for Active; 'I' for Inactive)
REMARK    1  A    between atoms: C5_5  and  C7_7 
ROOT
HETATM    1  C1  UNL     1     -32.333   5.298   2.291  1.00 20.00     0.002 C 
HETATM    2  C2  UNL     1     -33.294   5.109   3.462  1.00 20.00     0.013 C 
HETATM    3  C3  UNL     1     -32.480   6.681   1.659  1.00 20.00     0.020 C 
HETATM    4  C4  UNL     1     -33.285   7.604   3.872  1.00 20.00     0.033 C 
HETATM    5  C5  UNL     1     -33.135   6.216   4.512  1.00 20.00     0.095 C 
HETATM    6  C6  UNL     1     -32.314   7.784   2.704  1.00 20.00     0.083 C 
HETATM    7 CL11 UNL     1     -32.568   9.381   1.944  1.00 20.00    -0.125 Cl
ENDROOT
BRANCH   5   8
HETATM    8  C7  UNL     1     -34.143   6.033   5.645  1.00 20.00     0.391 C 
HETATM    9  F8  UNL     1     -33.969   6.986   6.574  1.00 20.00    -0.171 F 
HETATM   10  F9  UNL     1     -35.393   6.116   5.166  1.00 20.00    -0.171 F 
HETATM   11  F10 UNL     1     -33.976   4.832   6.219  1.00 20.00    -0.171 F 
ENDBRANCH   5   8
TORSDOF 1
