REMARK  0 active torsions:
REMARK  status: ('A' for Active; 'I' for Inactive)
ROOT
HETATM    1  C1  UNL     1     -32.870   9.606   1.316  1.00 20.00     0.088 C 
HETATM    2  C2  UNL     1     -32.758   8.249   3.303  1.00 20.00    -0.070 C 
HETATM    3  C3  UNL     1     -33.022   9.424   2.713  1.00 20.00     0.096 C 
HETATM    4  C4  UNL     1     -32.284   7.050   2.523  1.00 20.00     0.035 C 
HETATM    5  C5  UNL     1     -32.955   8.020   4.774  1.00 20.00     0.039 C 
HETATM    6  C6  UNL     1     -32.658   5.726   3.204  1.00 20.00     0.009 C 
HETATM    7  C7  UNL     1     -33.983   6.897   5.050  1.00 20.00    -0.011 C 
HETATM    8  C8  UNL     1     -34.014   5.823   3.920  1.00 20.00    -0.014 C 
HETATM    9  C9  UNL     1     -33.732   6.339   6.456  1.00 20.00     0.010 C 
HETATM   10  C10 UNL     1     -34.492   4.442   4.368  1.00 20.00     0.010 C 
HETATM   11  N11 UNL     1     -32.747   9.762   0.173  1.00 20.00    -0.192 NA
ENDROOT
TORSDOF 0
