REMARK  1 active torsions:
REMARK  status: ('A' for Active; 'I' for Inactive)
REMARK    1  A    between atoms: C7_7  and  C8_8 
ROOT
HETATM    1  C1  UNL     1     -32.123   8.173   1.767  1.00 20.00     0.064 C 
HETATM    2  C2  UNL     1     -32.865   9.267   5.363  1.00 20.00     0.002 C 
HETATM    3  C3  UNL     1     -32.072   9.069   4.068  1.00 20.00     0.019 C 
HETATM    4  C4  UNL     1     -33.827   8.119   5.675  1.00 20.00     0.013 C 
HETATM    5  C5  UNL     1     -33.222   6.866   3.560  1.00 20.00     0.032 C 
HETATM    6  C6  UNL     1     -32.866   8.269   3.035  1.00 20.00     0.093 C 
HETATM    7  C7  UNL     1     -33.335   6.792   5.095  1.00 20.00     0.095 C 
HETATM    8  N9  UNL     1     -31.538   8.097   0.768  1.00 20.00    -0.197 NA
ENDROOT
BRANCH   7   9
HETATM    9  C8  UNL     1     -34.236   5.634   5.517  1.00 20.00     0.391 C 
HETATM   10  F10 UNL     1     -34.279   5.553   6.854  1.00 20.00    -0.171 F 
HETATM   11  F11 UNL     1     -35.478   5.829   5.051  1.00 20.00    -0.171 F 
HETATM   12  F12 UNL     1     -33.760   4.482   5.024  1.00 20.00    -0.171 F 
ENDBRANCH   7   9
TORSDOF 1
