REMARK  3 active torsions:
REMARK  status: ('A' for Active; 'I' for Inactive)
REMARK    1  A    between atoms: C1_1  and  C12_12 
REMARK    2  A    between atoms: C5_5  and  C11_11 
REMARK    3  A    between atoms: C11_11  and  C12_12 
ROOT
HETATM    1  C2  UNL     1     -33.064   5.769   2.820  1.00 20.00     0.005 C 
HETATM    2  C3  UNL     1     -34.096   6.239   3.842  1.00 20.00     0.005 C 
HETATM    3  C4  UNL     1     -31.823   7.949   3.069  1.00 20.00     0.009 C 
HETATM    4  C5  UNL     1     -32.391   6.926   2.076  1.00 20.00    -0.013 C 
HETATM    5  C6  UNL     1     -33.504   7.247   4.841  1.00 20.00    -0.015 C 
HETATM    6  C7  UNL     1     -32.853   8.442   4.103  1.00 20.00    -0.015 C 
HETATM    7  C8  UNL     1     -34.595   7.688   5.822  1.00 20.00     0.010 C 
HETATM    8  C9  UNL     1     -32.171   9.421   5.064  1.00 20.00     0.010 C 
ENDROOT
BRANCH   4   9
HETATM    9  C11 UNL     1     -33.336   7.579   1.063  1.00 20.00     0.015 C 
BRANCH   9  10
HETATM   10  C12 UNL     1     -32.683   8.754   0.329  1.00 20.00     0.043 C 
HETATM   11  C10 UNL     1     -31.430   8.292  -0.412  1.00 20.00     0.017 C 
BRANCH  10  12
HETATM   12  C1  UNL     1     -33.605   9.408  -0.685  1.00 20.00     0.235 C 
HETATM   13  O13 UNL     1     -33.387   9.481  -1.890  1.00 20.00    -0.306 OA
ENDBRANCH  10  12
ENDBRANCH   9  10
ENDBRANCH   4   9
TORSDOF 3
