REMARK  4 active torsions:
REMARK  status: ('A' for Active; 'I' for Inactive)
REMARK    1  A    between atoms: C2_2  and  C7_7 
REMARK    2  A    between atoms: C3_3  and  C8_8 
REMARK    3  A    between atoms: C7_7  and  C9_9 
REMARK    4  A    between atoms: C8_8  and  C9_9 
ROOT
HETATM    1  C1  UNL     1     -32.366   8.285   0.842  1.00 20.00    -0.111 C 
HETATM    2  C2  UNL     1     -32.262   7.761   1.918  1.00 20.00    -0.107 C 
HETATM    3  C4  UNL     1     -32.493   8.925  -0.467  1.00 20.00     0.112 C 
ENDROOT
BRANCH   2   4
HETATM    4  C7  UNL     1     -32.132   7.117   3.233  1.00 20.00     0.098 C 
BRANCH   4   5
HETATM    5  C9  UNL     1     -32.805   7.900   4.378  1.00 20.00    -0.001 C 
HETATM    6  C6  UNL     1     -31.964   9.113   4.797  1.00 20.00     0.011 C 
BRANCH   5   7
HETATM    7  C8  UNL     1     -33.121   6.993   5.581  1.00 20.00     0.083 C 
BRANCH   7   8
HETATM    8  C3  UNL     1     -34.343   6.109   5.381  1.00 20.00     0.123 C 
HETATM    9  C5  UNL     1     -34.714   5.221   6.540  1.00 20.00     0.091 C 
HETATM   10  O10 UNL     1     -34.986   6.082   4.333  1.00 20.00    -0.298 OA
ENDBRANCH   7   8
ENDBRANCH   5   7
ENDBRANCH   4   5
ENDBRANCH   2   4
TORSDOF 4
