REMARK  0 active torsions:
REMARK  status: ('A' for Active; 'I' for Inactive)
ROOT
HETATM    1  C1  UNL     1     -32.764   9.630   1.712  1.00 20.00     0.088 C 
HETATM    2  C2  UNL     1     -32.993   8.315   3.717  1.00 20.00    -0.070 C 
HETATM    3  C3  UNL     1     -33.161   9.473   3.063  1.00 20.00     0.096 C 
HETATM    4  C4  UNL     1     -32.376   7.108   3.069  1.00 20.00     0.035 C 
HETATM    5  C5  UNL     1     -33.455   8.137   5.141  1.00 20.00     0.039 C 
HETATM    6  C6  UNL     1     -33.326   5.907   3.119  1.00 20.00     0.009 C 
HETATM    7  C7  UNL     1     -33.513   6.654   5.559  1.00 20.00    -0.011 C 
HETATM    8  C8  UNL     1     -34.112   5.760   4.445  1.00 20.00    -0.014 C 
HETATM    9  C9  UNL     1     -34.223   6.503   6.905  1.00 20.00     0.010 C 
HETATM   10  C10 UNL     1     -35.607   6.009   4.203  1.00 20.00     0.010 C 
HETATM   11  N11 UNL     1     -32.442   9.765   0.605  1.00 20.00    -0.192 NA
ENDROOT
TORSDOF 0
