REMARK  3 active torsions:
REMARK  status: ('A' for Active; 'I' for Inactive)
REMARK    1  A    between atoms: C5_5  and  C7_7 
REMARK    2  A    between atoms: C6_6  and  C7_7 
REMARK    3  A    between atoms: C6_6  and  C8_8 
ROOT
HETATM    1  C1  UNL     1     -32.650   9.482   0.204  1.00 20.00     0.012 C 
HETATM    2  C2  UNL     1     -32.478   8.652   1.054  1.00 20.00    -0.117 C 
HETATM    3  C5  UNL     1     -32.264   7.630   2.090  1.00 20.00     0.097 C 
ENDROOT
BRANCH   3   4
HETATM    4  C7  UNL     1     -32.987   7.931   3.417  1.00 20.00    -0.006 C 
HETATM    5  C3  UNL     1     -32.267   9.034   4.205  1.00 20.00     0.011 C 
BRANCH   4   6
HETATM    6  C6  UNL     1     -33.197   6.696   4.323  1.00 20.00     0.025 C 
BRANCH   6   7
HETATM    7  C8  UNL     1     -34.421   6.742   5.251  1.00 20.00     0.078 C 
HETATM    8  C4  UNL     1     -34.108   7.519   6.526  1.00 20.00     0.026 C 
HETATM    9 CL9  UNL     1     -34.955   5.095   5.697  1.00 20.00    -0.125 Cl
ENDBRANCH   6   7
ENDBRANCH   4   6
ENDBRANCH   3   4
TORSDOF 3
