REMARK  2 active torsions:
REMARK  status: ('A' for Active; 'I' for Inactive)
REMARK    1  A    between atoms: C1_1  and  C5_5 
REMARK    2  A    between atoms: C1_1  and  C11_11 
ROOT
HETATM    1  C2  UNL     1     -32.955   5.705   2.591  1.00 20.00     0.012 C 
HETATM    2  C3  UNL     1     -33.097   5.035   3.954  1.00 20.00     0.005 C 
HETATM    3  C4  UNL     1     -33.110   7.970   3.688  1.00 20.00     0.016 C 
HETATM    4  C5  UNL     1     -32.325   7.089   2.717  1.00 20.00     0.056 C 
HETATM    5  C6  UNL     1     -33.892   5.904   4.944  1.00 20.00    -0.015 C 
HETATM    6  C7  UNL     1     -33.257   7.311   5.071  1.00 20.00    -0.014 C 
HETATM    7  C8  UNL     1     -33.987   5.180   6.290  1.00 20.00     0.010 C 
HETATM    8  C9  UNL     1     -34.059   8.236   5.990  1.00 20.00     0.010 C 
ENDROOT
BRANCH   4   9
HETATM    9  C1  UNL     1     -32.280   7.751   1.374  1.00 20.00     0.130 C 
HETATM   10  O12 UNL     1     -31.675   7.238   0.434  1.00 20.00    -0.298 OA
BRANCH   9  11
HETATM   11  C11 UNL     1     -33.017   9.073   1.255  1.00 20.00     0.074 C 
HETATM   12  C10 UNL     1     -32.895   9.688  -0.127  1.00 20.00     0.013 C 
ENDBRANCH   9  11
ENDBRANCH   4   9
TORSDOF 2
