REMARK  3 active torsions:
REMARK  status: ('A' for Active; 'I' for Inactive)
REMARK    1  A    between atoms: C6_6  and  C7_7 
REMARK    2  A    between atoms: C6_6  and  C8_8 
REMARK    3  A    between atoms: C7_7  and  C9_9 
ROOT
HETATM    1  C1  UNL     1     -32.804   5.543   2.911  1.00 20.00     0.011 C 
HETATM    2  C7  UNL     1     -33.438   6.335   4.067  1.00 20.00    -0.010 C 
ENDROOT
BRANCH   2   3
HETATM    3  C6  UNL     1     -33.897   7.737   3.571  1.00 20.00     0.024 C 
BRANCH   3   4
HETATM    4  C8  UNL     1     -32.795   8.800   3.402  1.00 20.00     0.078 C 
HETATM    5  C2  UNL     1     -33.231   9.881   2.417  1.00 20.00     0.026 C 
HETATM    6 CL10 UNL     1     -32.399   9.575   4.965  1.00 20.00    -0.125 Cl
ENDBRANCH   3   4
ENDBRANCH   2   3
BRANCH   2   7
HETATM    7  C9  UNL     1     -34.583   5.533   4.805  1.00 20.00    -0.048 C 
HETATM    8  C3  UNL     1     -34.647   5.847   6.311  1.00 20.00     0.015 C 
HETATM    9  C4  UNL     1     -35.959   5.869   4.185  1.00 20.00     0.015 C 
HETATM   10  C5  UNL     1     -34.377   4.011   4.637  1.00 20.00     0.015 C 
ENDBRANCH   2   7
TORSDOF 3
