REMARK  2 active torsions:
REMARK  status: ('A' for Active; 'I' for Inactive)
REMARK    1  A    between atoms: C1_1  and  C10_10 
REMARK    2  A    between atoms: C5_5  and  C10_10 
ROOT
HETATM    1  C2  UNL     1     -32.837   6.413   2.448  1.00 20.00     0.005 C 
HETATM    2  C3  UNL     1     -33.412   5.559   3.576  1.00 20.00     0.005 C 
HETATM    3  C4  UNL     1     -33.359   8.504   3.765  1.00 20.00     0.009 C 
HETATM    4  C5  UNL     1     -32.290   7.750   2.961  1.00 20.00    -0.008 C 
HETATM    5  C6  UNL     1     -34.479   6.319   4.378  1.00 20.00    -0.015 C 
HETATM    6  C7  UNL     1     -33.948   7.669   4.917  1.00 20.00    -0.015 C 
HETATM    7  C8  UNL     1     -35.061   5.427   5.475  1.00 20.00     0.010 C 
HETATM    8  C9  UNL     1     -32.937   7.529   6.062  1.00 20.00     0.010 C 
ENDROOT
BRANCH   4   9
HETATM    9  C10 UNL     1     -31.790   8.606   1.798  1.00 20.00     0.074 C 
BRANCH   9  10
HETATM   10  C1  UNL     1     -32.888   8.950   0.828  1.00 20.00     0.231 C 
HETATM   11  O11 UNL     1     -32.908   8.633  -0.356  1.00 20.00    -0.307 OA
ENDBRANCH   9  10
ENDBRANCH   4   9
TORSDOF 2
