REMARK  4 active torsions:
REMARK  status: ('A' for Active; 'I' for Inactive)
REMARK    1  A    between atoms: C5_5  and  C6_6 
REMARK    2  A    between atoms: C6_6  and  C8_8 
REMARK    3  A    between atoms: C7_7  and  C8_8 
REMARK    4  A    between atoms: C7_7  and  C9_9 
ROOT
HETATM    1  C1  UNL     1     -32.743   9.029  -0.020  1.00 20.00     0.012 C 
HETATM    2  C2  UNL     1     -32.955   9.241   1.142  1.00 20.00    -0.117 C 
HETATM    3  C5  UNL     1     -33.215   9.505   2.564  1.00 20.00     0.093 C 
ENDROOT
BRANCH   3   4
HETATM    4  C6  UNL     1     -33.015   8.263   3.437  1.00 20.00     0.016 C 
BRANCH   4   5
HETATM    5  C8  UNL     1     -33.211   8.469   4.959  1.00 20.00    -0.016 C 
HETATM    6  C3  UNL     1     -32.242   9.558   5.436  1.00 20.00     0.010 C 
BRANCH   5   7
HETATM    7  C7  UNL     1     -33.021   7.148   5.741  1.00 20.00     0.024 C 
BRANCH   7   8
HETATM    8  C9  UNL     1     -34.222   6.188   5.753  1.00 20.00     0.078 C 
HETATM    9  C4  UNL     1     -34.147   5.238   6.944  1.00 20.00     0.026 C 
HETATM   10 CL10 UNL     1     -34.286   5.222   4.249  1.00 20.00    -0.125 Cl
ENDBRANCH   7   8
ENDBRANCH   5   7
ENDBRANCH   4   5
ENDBRANCH   3   4
TORSDOF 4
