REMARK  0 active torsions:
REMARK  status: ('A' for Active; 'I' for Inactive)
ROOT
HETATM    1  C1  UNL     1     -32.872   9.489   1.602  1.00 20.00     0.088 C 
HETATM    2  C2  UNL     1     -32.920   8.196   3.634  1.00 20.00    -0.070 C 
HETATM    3  C3  UNL     1     -33.254   9.303   2.954  1.00 20.00     0.096 C 
HETATM    4  C4  UNL     1     -32.123   7.080   3.019  1.00 20.00     0.035 C 
HETATM    5  C5  UNL     1     -33.332   7.969   5.063  1.00 20.00     0.039 C 
HETATM    6  C6  UNL     1     -32.863   5.751   3.167  1.00 20.00     0.009 C 
HETATM    7  C7  UNL     1     -34.081   6.631   5.222  1.00 20.00    -0.011 C 
HETATM    8  C8  UNL     1     -33.252   5.459   4.631  1.00 20.00    -0.014 C 
HETATM    9  C9  UNL     1     -34.427   6.418   6.699  1.00 20.00     0.010 C 
HETATM   10  C10 UNL     1     -33.996   4.122   4.699  1.00 20.00     0.010 C 
HETATM   11  N11 UNL     1     -32.563   9.648   0.495  1.00 20.00    -0.192 NA
ENDROOT
TORSDOF 0
