REMARK  4 active torsions:
REMARK  status: ('A' for Active; 'I' for Inactive)
REMARK    1  A    between atoms: C2_2  and  C6_6 
REMARK    2  A    between atoms: C6_6  and  C8_8 
REMARK    3  A    between atoms: C7_7  and  C8_8 
REMARK    4  A    between atoms: C7_7  and  C9_9 
ROOT
HETATM    1  C1  UNL     1     -32.738   8.719   1.817  1.00 20.00    -0.111 C 
HETATM    2  C2  UNL     1     -32.501   8.107   2.823  1.00 20.00    -0.107 C 
HETATM    3  C3  UNL     1     -33.029   9.463   0.592  1.00 20.00     0.112 C 
ENDROOT
BRANCH   2   4
HETATM    4  C6  UNL     1     -32.209   7.353   4.051  1.00 20.00     0.098 C 
BRANCH   4   5
HETATM    5  C8  UNL     1     -33.351   7.386   5.084  1.00 20.00    -0.006 C 
HETATM    6  C4  UNL     1     -33.579   8.811   5.608  1.00 20.00     0.011 C 
BRANCH   5   7
HETATM    7  C7  UNL     1     -34.693   6.798   4.583  1.00 20.00     0.020 C 
BRANCH   7   8
HETATM    8  C9  UNL     1     -34.778   5.268   4.532  1.00 20.00     0.054 C 
HETATM    9  C5  UNL     1     -34.052   4.632   5.710  1.00 20.00     0.022 C 
HETATM   10 BR10 UNL     1     -33.953   4.596   2.886  1.00 20.00    -0.092 Br
ENDBRANCH   7   8
ENDBRANCH   5   7
ENDBRANCH   4   5
ENDBRANCH   2   4
TORSDOF 4
