REMARK  1 active torsions:
REMARK  status: ('A' for Active; 'I' for Inactive)
REMARK    1  A    between atoms: C6_6  and  C8_8 
ROOT
HETATM    1  C1  UNL     1     -33.429   7.986   4.842  1.00 20.00     0.016 C 
HETATM    2  C2  UNL     1     -33.273   6.247   3.006  1.00 20.00     0.016 C 
HETATM    3  C3  UNL     1     -32.387   8.844   4.123  1.00 20.00     0.041 C 
HETATM    4  C4  UNL     1     -32.230   7.099   2.282  1.00 20.00     0.041 C 
HETATM    5  C5  UNL     1     -33.027   9.512   1.682  1.00 20.00     0.207 A 
HETATM    6  C6  UNL     1     -33.246   6.491   4.525  1.00 20.00     0.093 C 
HETATM    7  C7  UNL     1     -32.398   8.542   2.655  1.00 20.00     0.082 A 
HETATM    8  O9  UNL     1     -31.606   9.443   1.869  1.00 20.00    -0.375 OA
ENDROOT
BRANCH   6   9
HETATM    9  C8  UNL     1     -34.320   5.659   5.222  1.00 20.00     0.391 C 
HETATM   10  F10 UNL     1     -34.264   5.853   6.549  1.00 20.00    -0.171 F 
HETATM   11  F11 UNL     1     -35.536   6.015   4.782  1.00 20.00    -0.171 F 
HETATM   12  F12 UNL     1     -34.129   4.355   4.966  1.00 20.00    -0.171 F 
ENDBRANCH   6   9
TORSDOF 1
