REMARK  4 active torsions:
REMARK  status: ('A' for Active; 'I' for Inactive)
REMARK    1  A    between atoms: C5_5  and  C8_8 
REMARK    2  A    between atoms: C6_6  and  C9_9 
REMARK    3  A    between atoms: C9_9  and  C10_10 
REMARK    4  A    between atoms: C10_10  and  O11_11 
ROOT
HETATM    1  C1  UNL     1     -32.888   9.558   3.804  1.00 20.00     0.005 C 
HETATM    2  C2  UNL     1     -33.474   7.371   2.688  1.00 20.00     0.005 C 
HETATM    3  C3  UNL     1     -32.845   8.855   5.160  1.00 20.00     0.005 C 
HETATM    4  C4  UNL     1     -33.431   6.667   4.043  1.00 20.00     0.005 C 
HETATM    5  C5  UNL     1     -32.554   8.597   2.656  1.00 20.00    -0.015 C 
HETATM    6  C6  UNL     1     -33.765   7.628   5.191  1.00 20.00    -0.013 C 
ENDROOT
BRANCH   6   7
HETATM    7  C9  UNL     1     -33.667   6.914   6.538  1.00 20.00     0.030 C 
BRANCH   7   8
HETATM    8  C10 UNL     1     -34.850   5.991   6.766  1.00 20.00     0.164 C 
BRANCH   8   9
HETATM    9  O11 UNL     1     -34.861   5.009   5.739  1.00 20.00    -0.401 OA
HETATM   10  H31 UNL     1     -35.625   4.435   5.909  1.00 20.00     0.209 HD
ENDBRANCH   8   9
ENDBRANCH   7   8
ENDBRANCH   6   7
BRANCH   5  11
HETATM   11  C8  UNL     1     -32.654   9.311   1.309  1.00 20.00     0.000 C 
HETATM   12  C7  UNL     1     -32.296   8.406   0.177  1.00 20.00     0.005 C 
ENDBRANCH   5  11
TORSDOF 4
