REMARK  2 active torsions:
REMARK  status: ('A' for Active; 'I' for Inactive)
REMARK    1  A    between atoms: C5_5  and  C7_7 
REMARK    2  A    between atoms: C6_6  and  S11_11 
ROOT
HETATM    1  C1  UNL     1     -32.156   8.782   4.883  1.00 20.00     0.002 C 
HETATM    2  C2  UNL     1     -32.766   7.414   5.201  1.00 20.00     0.013 C 
HETATM    3  C3  UNL     1     -32.353   9.222   3.429  1.00 20.00     0.015 C 
HETATM    4  C4  UNL     1     -33.617   7.105   2.832  1.00 20.00     0.028 C 
HETATM    5  C5  UNL     1     -33.989   7.122   4.329  1.00 20.00     0.094 C 
HETATM    6  C6  UNL     1     -32.428   8.018   2.492  1.00 20.00     0.045 C 
ENDROOT
BRANCH   5   7
HETATM    7  C7  UNL     1     -34.661   5.813   4.737  1.00 20.00     0.391 C 
HETATM    8  F8  UNL     1     -35.755   5.607   3.989  1.00 20.00    -0.171 F 
HETATM    9  F9  UNL     1     -33.814   4.789   4.561  1.00 20.00    -0.171 F 
HETATM   10  F10 UNL     1     -35.020   5.865   6.028  1.00 20.00    -0.171 F 
ENDBRANCH   5   7
BRANCH   6  11
HETATM   11  S11 UNL     1     -32.525   8.561   0.754  1.00 20.00    -0.177 SA
HETATM   12  H22 UNL     1     -32.575   7.327   0.239  1.00 20.00     0.102 HD
ENDBRANCH   6  11
TORSDOF 2
