REMARK  1 active torsions:
REMARK  status: ('A' for Active; 'I' for Inactive)
REMARK    1  A    between atoms: C7_7  and  C8_8 
ROOT
HETATM    1  C1  UNL     1     -32.847   9.762   2.764  1.00 20.00     0.064 C 
HETATM    2  C2  UNL     1     -32.229   9.029   5.051  1.00 20.00     0.020 C 
HETATM    3  C3  UNL     1     -31.699   7.582   3.043  1.00 20.00     0.020 C 
HETATM    4  C4  UNL     1     -33.426   8.134   5.378  1.00 20.00     0.015 C 
HETATM    5  C5  UNL     1     -32.897   6.689   3.374  1.00 20.00     0.015 C 
HETATM    6  C6  UNL     1     -31.857   9.015   3.563  1.00 20.00     0.093 C 
HETATM    7  C7  UNL     1     -33.216   6.700   4.874  1.00 20.00     0.093 C 
HETATM    8  N9  UNL     1     -33.625  10.349   2.135  1.00 20.00    -0.197 NA
ENDROOT
BRANCH   7   9
HETATM    9  C8  UNL     1     -34.443   5.840   5.170  1.00 20.00     0.391 C 
HETATM   10  F10 UNL     1     -34.689   5.829   6.489  1.00 20.00    -0.171 F 
HETATM   11  F11 UNL     1     -35.515   6.333   4.532  1.00 20.00    -0.171 F 
HETATM   12  F12 UNL     1     -34.232   4.581   4.758  1.00 20.00    -0.171 F 
ENDBRANCH   7   9
TORSDOF 1
