REMARK  3 active torsions:
REMARK  status: ('A' for Active; 'I' for Inactive)
REMARK    1  A    between atoms: C6_6  and  C7_7 
REMARK    2  A    between atoms: C6_6  and  C8_8 
REMARK    3  A    between atoms: C7_7  and  C9_9 
ROOT
HETATM    1  C1  UNL     1     -32.940   6.038   2.422  1.00 20.00     0.011 C 
HETATM    2  C7  UNL     1     -33.411   6.592   3.779  1.00 20.00    -0.010 C 
ENDROOT
BRANCH   2   3
HETATM    3  C6  UNL     1     -33.823   8.086   3.636  1.00 20.00     0.024 C 
BRANCH   3   4
HETATM    4  C8  UNL     1     -32.676   9.112   3.576  1.00 20.00     0.078 C 
HETATM    5  C2  UNL     1     -32.196   9.471   4.980  1.00 20.00     0.026 C 
HETATM    6 CL10 UNL     1     -33.192  10.610   2.746  1.00 20.00    -0.125 Cl
ENDBRANCH   3   4
ENDBRANCH   2   3
BRANCH   2   7
HETATM    7  C9  UNL     1     -34.530   5.701   4.450  1.00 20.00    -0.048 C 
HETATM    8  C3  UNL     1     -34.432   5.689   5.987  1.00 20.00     0.015 C 
HETATM    9  C4  UNL     1     -35.934   6.220   4.062  1.00 20.00     0.015 C 
HETATM   10  C5  UNL     1     -34.439   4.242   3.949  1.00 20.00     0.015 C 
ENDBRANCH   2   7
TORSDOF 3
