REMARK  3 active torsions:
REMARK  status: ('A' for Active; 'I' for Inactive)
REMARK    1  A    between atoms: C2_2  and  C3_3 
REMARK    2  A    between atoms: C2_2  and  S8_8 
REMARK    3  A    between atoms: C3_3  and  C4_4 
ROOT
HETATM    1  C3  UNL     1     -33.215   6.084   4.524  1.00 20.00     0.174 C 
HETATM    2 BR9  UNL     1     -33.249   4.635   3.184  1.00 20.00    -0.081 Br
ENDROOT
BRANCH   1   3
HETATM    3  C2  UNL     1     -33.214   7.411   3.764  1.00 20.00     0.098 C 
BRANCH   3   4
HETATM    4  S8  UNL     1     -32.640   8.805   4.782  1.00 20.00    -0.172 SA
HETATM    5  C1  UNL     1     -32.748  10.102   3.528  1.00 20.00     0.089 C 
ENDBRANCH   3   4
ENDBRANCH   1   3
BRANCH   1   6
HETATM    6  C4  UNL     1     -34.399   5.878   5.453  1.00 20.00     0.401 C 
HETATM    7  F5  UNL     1     -34.379   6.738   6.494  1.00 20.00    -0.170 F 
HETATM    8  F6  UNL     1     -34.415   4.622   5.955  1.00 20.00    -0.170 F 
HETATM    9  F7  UNL     1     -35.572   6.052   4.805  1.00 20.00    -0.170 F 
ENDBRANCH   1   6
TORSDOF 3
