REMARK  5 active torsions:
REMARK  status: ('A' for Active; 'I' for Inactive)
REMARK    1  A    between atoms: C6_6  and  C7_7 
REMARK    2  A    between atoms: C6_6  and  C9_9 
REMARK    3  A    between atoms: C7_7  and  C11_11 
REMARK    4  A    between atoms: C8_8  and  C10_10 
REMARK    5  A    between atoms: C8_8  and  C11_11 
ROOT
HETATM    1  C4  UNL     1     -34.471   9.292   4.838  1.00 20.00     0.015 C 
HETATM    2  C5  UNL     1     -32.048   9.549   5.306  1.00 20.00     0.015 C 
HETATM    3  C11 UNL     1     -33.115   8.547   4.822  1.00 20.00    -0.046 C 
ENDROOT
BRANCH   3   4
HETATM    4  C7  UNL     1     -32.758   8.140   3.362  1.00 20.00     0.009 C 
BRANCH   4   5
HETATM    5  C6  UNL     1     -33.007   9.213   2.292  1.00 20.00     0.004 C 
BRANCH   5   6
HETATM    6  C9  UNL     1     -32.552   8.783   0.882  1.00 20.00    -0.023 C 
HETATM    7  C1  UNL     1     -31.056   8.470   0.820  1.00 20.00     0.009 C 
HETATM    8  C2  UNL     1     -32.891   9.881  -0.129  1.00 20.00     0.009 C 
ENDBRANCH   5   6
ENDBRANCH   4   5
ENDBRANCH   3   4
BRANCH   3   9
HETATM    9  C8  UNL     1     -33.241   7.330   5.791  1.00 20.00     0.028 C 
BRANCH   9  10
HETATM   10  C10 UNL     1     -34.599   6.609   5.889  1.00 20.00     0.079 C 
HETATM   11  C3  UNL     1     -34.947   5.938   4.562  1.00 20.00     0.026 C 
HETATM   12 CL12 UNL     1     -34.592   5.349   7.157  1.00 20.00    -0.125 Cl
ENDBRANCH   9  10
ENDBRANCH   3   9
TORSDOF 5
