REMARK  2 active torsions:
REMARK  status: ('A' for Active; 'I' for Inactive)
REMARK    1  A    between atoms: C5_5  and  C6_6 
REMARK    2  A    between atoms: C6_6  and  C7_7 
ROOT
HETATM    1  C1  UNL     1     -33.769   6.302   6.577  1.00 20.00     0.027 C 
HETATM    2  C2  UNL     1     -34.097   7.474   5.656  1.00 20.00     0.009 C 
HETATM    3  C3  UNL     1     -34.507   5.044   6.140  1.00 20.00     0.167 C 
HETATM    4  C4  UNL     1     -34.685   5.783   3.897  1.00 20.00     0.172 C 
HETATM    5  C5  UNL     1     -33.953   7.100   4.174  1.00 20.00     0.010 C 
HETATM    6  O8  UNL     1     -34.237   4.746   4.771  1.00 20.00    -0.391 OA
ENDROOT
BRANCH   5   7
HETATM    7  C6  UNL     1     -32.479   7.001   3.769  1.00 20.00     0.021 C 
BRANCH   7   8
HETATM    8  C7  UNL     1     -32.264   7.029   2.261  1.00 20.00     0.115 C 
HETATM    9 CL9  UNL     1     -32.853   8.540   1.531  1.00 20.00    -0.130 Cl
ENDBRANCH   7   8
ENDBRANCH   5   7
TORSDOF 2
