REMARK  4 active torsions:
REMARK  status: ('A' for Active; 'I' for Inactive)
REMARK    1  A    between atoms: C5_5  and  C7_7 
REMARK    2  A    between atoms: C6_6  and  C8_8 
REMARK    3  A    between atoms: C7_7  and  C8_8 
REMARK    4  A    between atoms: C8_8  and  O9_9 
ROOT
HETATM    1  C8  UNL     1     -32.861   7.978   4.457  1.00 20.00     0.122 C 
ENDROOT
BRANCH   1   2
HETATM    2  C6  UNL     1     -34.040   7.516   5.302  1.00 20.00     0.014 A 
HETATM    3  C3  UNL     1     -34.650   6.160   5.077  1.00 20.00     0.007 A 
HETATM    4  C4  UNL     1     -33.858   6.430   6.326  1.00 20.00     0.007 A 
ENDBRANCH   1   2
BRANCH   1   5
HETATM    5  C7  UNL     1     -33.329   8.528   3.108  1.00 20.00     0.036 C 
BRANCH   5   6
HETATM    6  C5  UNL     1     -32.203   8.577   2.083  1.00 20.00    -0.012 A 
HETATM    7  C1  UNL     1     -31.937   7.395   1.192  1.00 20.00     0.005 A 
HETATM    8  C2  UNL     1     -32.519   8.655   0.615  1.00 20.00     0.005 A 
ENDBRANCH   5   6
ENDBRANCH   1   5
BRANCH   1   9
HETATM    9  O9  UNL     1     -32.163   9.001   5.161  1.00 20.00    -0.395 OA
HETATM   10  H23 UNL     1     -31.863   8.608   5.995  1.00 20.00     0.210 HD
ENDBRANCH   1   9
TORSDOF 4
