REMARK  4 active torsions:
REMARK  status: ('A' for Active; 'I' for Inactive)
REMARK    1  A    between atoms: C3_3  and  C4_4 
REMARK    2  A    between atoms: C4_4  and  C5_5 
REMARK    3  A    between atoms: C5_5  and  C6_6 
REMARK    4  A    between atoms: C5_5  and  O7_7 
ROOT
HETATM    1  C5  UNL     1     -33.462   4.851   4.571  1.00 20.00     0.226 C 
ENDROOT
BRANCH   1   2
HETATM    2  C4  UNL     1     -33.300   5.294   3.116  1.00 20.00     0.045 C 
BRANCH   2   3
HETATM    3  C3  UNL     1     -32.308   6.411   2.972  1.00 20.00    -0.012 A 
HETATM    4  C1  UNL     1     -32.316   7.280   1.745  1.00 20.00     0.005 A 
HETATM    5  C2  UNL     1     -32.760   7.842   3.066  1.00 20.00     0.005 A 
ENDBRANCH   2   3
ENDBRANCH   1   2
BRANCH   1   6
HETATM    6  C6  UNL     1     -34.419   5.752   5.327  1.00 20.00     0.413 C 
HETATM    7  F8  UNL     1     -33.960   7.020   5.393  1.00 20.00    -0.168 F 
HETATM    8  F9  UNL     1     -34.606   5.312   6.590  1.00 20.00    -0.168 F 
HETATM    9  F10 UNL     1     -35.629   5.781   4.725  1.00 20.00    -0.168 F 
ENDBRANCH   1   6
BRANCH   1  10
HETATM   10  O7  UNL     1     -33.981   3.523   4.590  1.00 20.00    -0.387 OA
HETATM   11  H19 UNL     1     -33.338   2.969   4.123  1.00 20.00     0.210 HD
ENDBRANCH   1  10
TORSDOF 4
