REMARK  4 active torsions:
REMARK  status: ('A' for Active; 'I' for Inactive)
REMARK    1  A    between atoms: C1_1  and  C8_8 
REMARK    2  A    between atoms: C1_1  and  C9_9 
REMARK    3  A    between atoms: C4_4  and  C8_8 
REMARK    4  A    between atoms: C9_9  and  C10_10 
ROOT
HETATM    1  C1  UNL     1     -32.806   7.763   3.588  1.00 20.00     0.128 C 
HETATM    2  O11 UNL     1     -32.043   8.328   4.372  1.00 20.00    -0.298 OA
ENDROOT
BRANCH   1   3
HETATM    3  C8  UNL     1     -33.593   8.521   2.534  1.00 20.00     0.082 C 
BRANCH   3   4
HETATM    4  C4  UNL     1     -32.732   9.226   1.535  1.00 20.00    -0.008 A 
HETATM    5  C2  UNL     1     -32.299   8.524   0.278  1.00 20.00     0.005 A 
HETATM    6  C3  UNL     1     -33.301   9.642   0.206  1.00 20.00     0.005 A 
ENDBRANCH   3   4
ENDBRANCH   1   3
BRANCH   1   7
HETATM    7  C9  UNL     1     -33.019   6.258   3.646  1.00 20.00     0.086 C 
BRANCH   7   8
HETATM    8  C10 UNL     1     -34.103   5.788   4.642  1.00 20.00    -0.045 C 
HETATM    9  C5  UNL     1     -34.225   4.255   4.655  1.00 20.00     0.015 C 
HETATM   10  C6  UNL     1     -35.471   6.403   4.309  1.00 20.00     0.015 C 
HETATM   11  C7  UNL     1     -33.689   6.252   6.052  1.00 20.00     0.015 C 
ENDBRANCH   7   8
ENDBRANCH   1   7
TORSDOF 4
