REMARK  2 active torsions:
REMARK  status: ('A' for Active; 'I' for Inactive)
REMARK    1  A    between atoms: C5_5  and  C6_6 
REMARK    2  A    between atoms: C6_6  and  C7_7 
ROOT
HETATM    1  C1  UNL     1     -34.320   5.416   5.115  1.00 20.00     0.027 C 
HETATM    2  C2  UNL     1     -34.058   6.447   4.021  1.00 20.00     0.009 C 
HETATM    3  C3  UNL     1     -34.424   6.090   6.476  1.00 20.00     0.167 C 
HETATM    4  C4  UNL     1     -33.061   7.908   5.802  1.00 20.00     0.172 C 
HETATM    5  C5  UNL     1     -32.869   7.340   4.394  1.00 20.00     0.010 C 
HETATM    6  O8  UNL     1     -33.252   6.857   6.750  1.00 20.00    -0.391 OA
ENDROOT
BRANCH   5   7
HETATM    7  C6  UNL     1     -32.675   8.454   3.371  1.00 20.00     0.017 C 
BRANCH   7   8
HETATM    8  C7  UNL     1     -32.368   7.887   1.999  1.00 20.00     0.085 C 
HETATM    9 BR9  UNL     1     -32.185   9.340   0.717  1.00 20.00    -0.096 Br
ENDBRANCH   7   8
ENDBRANCH   5   7
TORSDOF 2
