REMARK  1 active torsions:
REMARK  status: ('A' for Active; 'I' for Inactive)
REMARK    1  A    between atoms: C4_4  and  C7_7 
ROOT
HETATM    1  C5  UNL     1     -32.433   6.653   2.267  1.00 20.00     0.011 C 
HETATM    2  C6  UNL     1     -32.162   7.990   1.592  1.00 20.00     0.021 C 
HETATM    3  C7  UNL     1     -32.777   7.021   3.723  1.00 20.00     0.025 C 
HETATM    4  C8  UNL     1     -33.248   8.508   3.694  1.00 20.00     0.008 C 
HETATM    5  C9  UNL     1     -33.240   8.876   2.197  1.00 20.00     0.086 C 
HETATM    6  C10 UNL     1     -32.338   9.361   4.586  1.00 20.00     0.012 C 
HETATM    7 CL12 UNL     1     -32.983  10.587   1.821  1.00 20.00    -0.125 Cl
ENDROOT
BRANCH   3   8
HETATM    8  C4  UNL     1     -33.774   6.071   4.351  1.00 20.00    -0.029 A 
HETATM    9  C1  UNL     1     -34.700   6.366   5.381  1.00 20.00     0.034 A 
HETATM   10  C2  UNL     1     -35.389   5.200   5.620  1.00 20.00     0.142 A 
HETATM   11  O11 UNL     1     -34.946   4.208   4.804  1.00 20.00    -0.334 OA
HETATM   12  C3  UNL     1     -33.964   4.746   4.035  1.00 20.00     0.148 A 
ENDBRANCH   3   8
TORSDOF 1
