REMARK  2 active torsions:
REMARK  status: ('A' for Active; 'I' for Inactive)
REMARK    1  A    between atoms: C4_4  and  C9_9 
REMARK    2  A    between atoms: C6_6  and  N10_10 
ROOT
HETATM    1  C1  UNL     1     -32.457   8.605   0.957  1.00 20.00     0.158 C 
HETATM    2  N10 UNL     1     -32.182   7.645   1.574  1.00 20.00    -0.270 NA
HETATM    3  S11 UNL     1     -32.800   9.910   0.110  1.00 20.00    -0.055 SA
ENDROOT
BRANCH   2   4
HETATM    4  C6  UNL     1     -33.291   7.059   2.321  1.00 20.00     0.113 C 
HETATM    5  C3  UNL     1     -33.111   5.551   2.477  1.00 20.00     0.028 C 
HETATM    6  C2  UNL     1     -33.717   5.198   3.839  1.00 20.00     0.007 C 
HETATM    7  C4  UNL     1     -34.267   6.512   4.405  1.00 20.00    -0.009 C 
HETATM    8  C5  UNL     1     -33.390   7.600   3.754  1.00 20.00     0.010 C 
HETATM    9  C7  UNL     1     -32.034   7.800   4.439  1.00 20.00     0.012 C 
BRANCH   7  10
HETATM   10  C9  UNL     1     -34.330   6.523   5.925  1.00 20.00     0.000 C 
HETATM   11  C8  UNL     1     -35.201   5.428   6.450  1.00 20.00     0.005 C 
ENDBRANCH   7  10
ENDBRANCH   2   4
TORSDOF 2
