REMARK  2 active torsions:
REMARK  status: ('A' for Active; 'I' for Inactive)
REMARK    1  A    between atoms: C3_3  and  C9_9 
REMARK    2  A    between atoms: C9_9  and  C10_10 
ROOT
HETATM    1  C1  UNL     1     -33.941   7.907   5.754  1.00 20.00     0.006 C 
HETATM    2  C2  UNL     1     -34.639   7.089   6.845  1.00 20.00     0.016 C 
HETATM    3  C3  UNL     1     -33.468   6.895   4.708  1.00 20.00    -0.009 C 
HETATM    4  C4  UNL     1     -34.493   5.748   4.802  1.00 20.00    -0.000 C 
HETATM    5  C5  UNL     1     -34.763   5.664   6.309  1.00 20.00     0.062 C 
HETATM    6  C6  UNL     1     -35.795   6.003   4.038  1.00 20.00     0.011 C 
HETATM    7 BR11 UNL     1     -33.429   4.511   7.169  1.00 20.00    -0.091 Br
ENDROOT
BRANCH   3   8
HETATM    8  C9  UNL     1     -33.286   7.511   3.329  1.00 20.00     0.009 C 
BRANCH   8   9
HETATM    9  C10 UNL     1     -32.315   6.726   2.435  1.00 20.00    -0.022 C 
HETATM   10  C7  UNL     1     -32.777   5.288   2.191  1.00 20.00     0.009 C 
HETATM   11  C8  UNL     1     -32.150   7.449   1.096  1.00 20.00     0.009 C 
ENDBRANCH   8   9
ENDBRANCH   3   8
TORSDOF 2
