REMARK  2 active torsions:
REMARK  status: ('A' for Active; 'I' for Inactive)
REMARK    1  A    between atoms: C4_4  and  C5_5 
REMARK    2  A    between atoms: C5_5  and  C7_7 
ROOT
HETATM    1  C3  UNL     1     -34.716   7.085   6.988  1.00 20.00     0.207 A 
HETATM    2  C5  UNL     1     -34.399   6.843   5.531  1.00 20.00     0.085 A 
HETATM    3  O8  UNL     1     -33.517   6.410   6.577  1.00 20.00    -0.375 OA
ENDROOT
BRANCH   2   4
HETATM    4  C4  UNL     1     -33.841   7.941   4.636  1.00 20.00     0.022 A 
HETATM    5  C1  UNL     1     -33.035   9.092   5.171  1.00 20.00     0.008 A 
HETATM    6  C2  UNL     1     -32.379   8.053   4.304  1.00 20.00     0.008 A 
ENDBRANCH   2   4
BRANCH   2   7
HETATM    7  C7  UNL     1     -35.090   5.706   4.841  1.00 20.00     0.036 C 
HETATM    8  C6  UNL     1     -34.153   4.883   4.000  1.00 20.00     0.008 C 
ENDBRANCH   2   7
TORSDOF 2
