REMARK  2 active torsions:
REMARK  status: ('A' for Active; 'I' for Inactive)
REMARK    1  A    between atoms: C5_5  and  C9_9 
REMARK    2  A    between atoms: C9_9  and  C10_10 
ROOT
HETATM    1  C1  UNL     1     -33.994   5.934   5.829  1.00 20.00     0.131 C 
HETATM    2  C2  UNL     1     -33.568   7.189   6.544  1.00 20.00     0.079 C 
HETATM    3  C3  UNL     1     -33.903   8.268   5.522  1.00 20.00     0.013 C 
HETATM    4  C4  UNL     1     -34.272   6.168   4.358  1.00 20.00     0.055 C 
HETATM    5  C5  UNL     1     -33.739   7.599   4.153  1.00 20.00    -0.003 C 
HETATM    6  C6  UNL     1     -35.766   6.051   4.091  1.00 20.00     0.018 C 
HETATM    7  O11 UNL     1     -34.101   4.845   6.380  1.00 20.00    -0.298 OA
ENDROOT
BRANCH   5   8
HETATM    8  C9  UNL     1     -32.276   7.596   3.703  1.00 20.00     0.009 C 
BRANCH   8   9
HETATM    9  C10 UNL     1     -32.095   7.322   2.199  1.00 20.00    -0.022 C 
HETATM   10  C7  UNL     1     -32.660   5.964   1.782  1.00 20.00     0.009 C 
HETATM   11  C8  UNL     1     -32.762   8.433   1.385  1.00 20.00     0.009 C 
ENDBRANCH   8   9
ENDBRANCH   5   8
TORSDOF 2
