REMARK  3 active torsions:
REMARK  status: ('A' for Active; 'I' for Inactive)
REMARK    1  A    between atoms: C1_1  and  C4_4 
REMARK    2  A    between atoms: C1_1  and  C6_6 
REMARK    3  A    between atoms: N7_7  and  O8_8 
ROOT
HETATM    1  C1  UNL     1     -34.058   6.210   5.217  1.00 20.00     0.043 C 
HETATM    2  N7  UNL     1     -34.960   5.437   5.740  1.00 20.00    -0.145 NA
ENDROOT
BRANCH   1   3
HETATM    3  C4  UNL     1     -33.819   6.109   3.730  1.00 20.00     0.036 A 
HETATM    4  C2  UNL     1     -32.477   6.476   3.213  1.00 20.00     0.011 A 
HETATM    5  C3  UNL     1     -32.911   5.041   3.242  1.00 20.00     0.011 A 
ENDBRANCH   1   3
BRANCH   1   6
HETATM    6  C6  UNL     1     -33.192   7.186   5.992  1.00 20.00     0.053 C 
HETATM    7  C5  UNL     1     -33.373   8.597   5.464  1.00 20.00     0.011 C 
ENDBRANCH   1   6
BRANCH   2   8
HETATM    8  O8  UNL     1     -35.561   4.627   4.776  1.00 20.00    -0.266 OA
HETATM    9  H19 UNL     1     -36.195   4.122   5.312  1.00 20.00     0.247 HD
ENDBRANCH   2   8
TORSDOF 3
