REMARK  2 active torsions:
REMARK  status: ('A' for Active; 'I' for Inactive)
REMARK    1  A    between atoms: C2_2  and  C10_10 
REMARK    2  A    between atoms: C7_7  and  C10_10 
ROOT
HETATM    1  C1  UNL     1     -32.766   9.216   1.225  1.00 20.00    -0.111 C 
HETATM    2  C2  UNL     1     -32.670   9.031   2.408  1.00 20.00    -0.107 C 
HETATM    3  C8  UNL     1     -32.884   9.440  -0.215  1.00 20.00     0.112 C 
ENDROOT
BRANCH   2   4
HETATM    4  C10 UNL     1     -32.541   8.814   3.850  1.00 20.00     0.099 C 
BRANCH   4   5
HETATM    5  C7  UNL     1     -33.605   7.848   4.350  1.00 20.00     0.008 C 
HETATM    6  C5  UNL     1     -33.518   7.611   5.860  1.00 20.00     0.013 C 
HETATM    7  C4  UNL     1     -34.413   6.403   6.104  1.00 20.00     0.079 C 
HETATM    8  C3  UNL     1     -34.243   5.624   4.825  1.00 20.00     0.131 C 
HETATM    9  C6  UNL     1     -33.567   6.435   3.736  1.00 20.00     0.056 C 
HETATM   10  O11 UNL     1     -34.616   4.465   4.685  1.00 20.00    -0.298 OA
HETATM   11  C9  UNL     1     -32.184   5.865   3.458  1.00 20.00     0.018 C 
ENDBRANCH   4   5
ENDBRANCH   2   4
TORSDOF 2
