REMARK  1 active torsions:
REMARK  status: ('A' for Active; 'I' for Inactive)
REMARK    1  A    between atoms: C7_7  and  C9_9 
ROOT
HETATM    1  C1  UNL     1     -32.152   7.200   1.088  1.00 20.00     0.012 C 
HETATM    2  C2  UNL     1     -32.150   7.276   2.286  1.00 20.00    -0.117 C 
HETATM    3  C9  UNL     1     -32.141   7.367   3.751  1.00 20.00     0.098 C 
ENDROOT
BRANCH   3   4
HETATM    4  C7  UNL     1     -33.562   7.489   4.308  1.00 20.00     0.008 C 
HETATM    5  C5  UNL     1     -33.559   8.043   5.736  1.00 20.00     0.013 C 
HETATM    6  C4  UNL     1     -33.284   6.845   6.637  1.00 20.00     0.079 C 
HETATM    7  C3  UNL     1     -33.897   5.714   5.853  1.00 20.00     0.131 C 
HETATM    8  C6  UNL     1     -34.240   6.111   4.431  1.00 20.00     0.056 C 
HETATM    9  O10 UNL     1     -34.092   4.597   6.317  1.00 20.00    -0.298 OA
HETATM   10  C8  UNL     1     -35.752   6.181   4.268  1.00 20.00     0.018 C 
ENDBRANCH   3   4
TORSDOF 1
