REMARK  1 active torsions:
REMARK  status: ('A' for Active; 'I' for Inactive)
REMARK    1  A    between atoms: C6_6  and  N9_9 
ROOT
HETATM    1  C1  UNL     1     -32.390   7.766   2.175  1.00 20.00     0.158 C 
HETATM    2  N9  UNL     1     -32.275   7.213   3.204  1.00 20.00    -0.270 NA
HETATM    3  S10 UNL     1     -32.520   8.504   0.769  1.00 20.00    -0.055 SA
ENDROOT
BRANCH   2   4
HETATM    4  C6  UNL     1     -33.370   7.440   4.152  1.00 20.00     0.113 C 
HETATM    5  C3  UNL     1     -32.817   8.071   5.435  1.00 20.00     0.028 C 
HETATM    6  C2  UNL     1     -32.888   6.974   6.490  1.00 20.00     0.007 C 
HETATM    7  C4  UNL     1     -34.129   6.182   6.086  1.00 20.00    -0.013 C 
HETATM    8  C5  UNL     1     -33.973   6.084   4.561  1.00 20.00     0.010 C 
HETATM    9  C7  UNL     1     -34.211   4.832   6.783  1.00 20.00     0.010 C 
HETATM   10  C8  UNL     1     -35.283   5.791   3.840  1.00 20.00     0.012 C 
ENDBRANCH   2   4
TORSDOF 1
