REMARK  1 active torsions:
REMARK  status: ('A' for Active; 'I' for Inactive)
REMARK    1  A    between atoms: C5_5  and  C9_9 
ROOT
HETATM    1  C1  UNL     1     -32.882   8.588  -0.286  1.00 20.00     0.012 C 
HETATM    2  C2  UNL     1     -32.453   8.742   0.825  1.00 20.00    -0.117 C 
HETATM    3  C9  UNL     1     -31.920   8.934   2.177  1.00 20.00     0.098 C 
ENDROOT
BRANCH   3   4
HETATM    4  C5  UNL     1     -32.925   8.491   3.229  1.00 20.00     0.002 C 
HETATM    5  C3  UNL     1     -32.417   8.693   4.665  1.00 20.00     0.007 C 
HETATM    6  C4  UNL     1     -33.090   7.607   5.511  1.00 20.00     0.021 C 
HETATM    7  C7  UNL     1     -34.034   6.882   4.555  1.00 20.00     0.086 C 
HETATM    8  C6  UNL     1     -33.364   7.012   3.177  1.00 20.00     0.005 C 
HETATM    9 CL10 UNL     1     -34.383   5.226   5.076  1.00 20.00    -0.125 Cl
HETATM   10  C8  UNL     1     -32.210   6.035   2.930  1.00 20.00     0.012 C 
ENDBRANCH   3   4
TORSDOF 1
