REMARK  1 active torsions:
REMARK  status: ('A' for Active; 'I' for Inactive)
REMARK    1  A    between atoms: C5_5  and  C9_9 
ROOT
HETATM    1  C1  UNL     1     -32.041   7.670   0.664  1.00 20.00     0.012 C 
HETATM    2  C2  UNL     1     -32.094   7.973   1.824  1.00 20.00    -0.117 C 
HETATM    3  C9  UNL     1     -32.151   8.347   3.242  1.00 20.00     0.098 C 
ENDROOT
BRANCH   3   4
HETATM    4  C5  UNL     1     -33.445   7.870   3.885  1.00 20.00     0.002 C 
HETATM    5  C3  UNL     1     -33.782   8.640   5.173  1.00 20.00     0.007 C 
HETATM    6  C4  UNL     1     -34.333   7.609   6.161  1.00 20.00     0.021 C 
HETATM    7  C7  UNL     1     -34.552   6.346   5.337  1.00 20.00     0.086 C 
HETATM    8  C6  UNL     1     -33.414   6.393   4.315  1.00 20.00     0.005 C 
HETATM    9 CL10 UNL     1     -34.522   4.887   6.343  1.00 20.00    -0.125 Cl
HETATM   10  C8  UNL     1     -33.602   5.425   3.153  1.00 20.00     0.012 C 
ENDBRANCH   3   4
TORSDOF 1
