REMARK  1 active torsions:
REMARK  status: ('A' for Active; 'I' for Inactive)
REMARK    1  A    between atoms: C7_7  and  C9_9 
ROOT
HETATM    1  C1  UNL     1     -32.702   9.593   0.523  1.00 20.00     0.012 C 
HETATM    2  C2  UNL     1     -32.418   8.473   0.851  1.00 20.00    -0.117 C 
HETATM    3  C9  UNL     1     -32.059   7.109   1.242  1.00 20.00     0.098 C 
ENDROOT
BRANCH   3   4
HETATM    4  C7  UNL     1     -33.101   6.522   2.182  1.00 20.00     0.008 C 
HETATM    5  C5  UNL     1     -32.772   5.085   2.598  1.00 20.00     0.013 C 
HETATM    6  C4  UNL     1     -33.715   4.805   3.760  1.00 20.00     0.079 C 
HETATM    7  C3  UNL     1     -33.845   6.165   4.396  1.00 20.00     0.131 C 
HETATM    8  C6  UNL     1     -33.300   7.272   3.513  1.00 20.00     0.056 C 
HETATM    9  O10 UNL     1     -34.341   6.351   5.500  1.00 20.00    -0.298 OA
HETATM   10  C8  UNL     1     -32.044   7.856   4.144  1.00 20.00     0.018 C 
ENDBRANCH   3   4
TORSDOF 1
