REMARK  1 active torsions:
REMARK  status: ('A' for Active; 'I' for Inactive)
REMARK    1  A    between atoms: C5_5  and  C8_8 
ROOT
HETATM    1  C1  UNL     1     -33.786   5.947   6.698  1.00 20.00     0.018 A 
HETATM    2  C2  UNL     1     -33.324   6.762   5.669  1.00 20.00     0.010 A 
HETATM    3  C3  UNL     1     -34.973   5.252   6.518  1.00 20.00     0.087 A 
HETATM    4  C4  UNL     1     -35.232   6.147   4.364  1.00 20.00     0.095 A 
HETATM    5  C5  UNL     1     -34.052   6.866   4.487  1.00 20.00    -0.038 A 
HETATM    6  N12 UNL     1     -35.654   5.370   5.370  1.00 20.00    -0.375 N 
HETATM    7  H28 UNL     1     -36.524   4.850   5.259  1.00 20.00     0.164 HD
ENDROOT
BRANCH   5   8
HETATM    8  C8  UNL     1     -33.567   7.745   3.358  1.00 20.00     0.025 C 
HETATM    9  C6  UNL     1     -32.776   9.010   3.722  1.00 20.00     0.011 C 
HETATM   10  C7  UNL     1     -32.232   9.457   2.373  1.00 20.00     0.021 C 
HETATM   11  C10 UNL     1     -31.720   8.148   1.785  1.00 20.00     0.086 C 
HETATM   12  C9  UNL     1     -32.716   7.059   2.249  1.00 20.00     0.008 C 
HETATM   13 CL13 UNL     1     -31.573   8.229   0.019  1.00 20.00    -0.125 Cl
HETATM   14  C11 UNL     1     -31.959   5.799   2.671  1.00 20.00     0.012 C 
ENDBRANCH   5   8
TORSDOF 1
