REMARK  2 active torsions:
REMARK  status: ('A' for Active; 'I' for Inactive)
REMARK    1  A    between atoms: C1_1  and  N11_11 
REMARK    2  A    between atoms: C7_7  and  C10_10 
ROOT
HETATM    1  C2  UNL     1     -33.527   5.228   2.666  1.00 20.00     0.020 C 
HETATM    2  C3  UNL     1     -34.036   5.279   4.107  1.00 20.00     0.006 C 
HETATM    3  C4  UNL     1     -33.621   7.821   4.302  1.00 20.00     0.025 C 
HETATM    4  C5  UNL     1     -32.155   5.845   2.428  1.00 20.00     0.125 C 
HETATM    5  C6  UNL     1     -32.362   8.111   3.482  1.00 20.00     0.125 C 
HETATM    6  C7  UNL     1     -33.585   6.451   4.997  1.00 20.00    -0.010 C 
HETATM    7  N11 UNL     1     -32.254   7.295   2.280  1.00 20.00    -0.359 N 
ENDROOT
BRANCH   6   8
HETATM    8  C10 UNL     1     -34.458   6.480   6.259  1.00 20.00    -0.019 C 
HETATM    9  C8  UNL     1     -34.342   5.160   7.014  1.00 20.00     0.010 C 
HETATM   10  C9  UNL     1     -34.063   7.652   7.150  1.00 20.00     0.010 C 
ENDBRANCH   6   8
BRANCH   7  11
HETATM   11  C1  UNL     1     -32.334   7.871   1.019  1.00 20.00     0.350 C 
HETATM   12  O12 UNL     1     -32.421   9.064   0.749  1.00 20.00    -0.284 OA
ENDBRANCH   7  11
TORSDOF 2
