REMARK  1 active torsions:
REMARK  status: ('A' for Active; 'I' for Inactive)
REMARK    1  A    between atoms: C1_1  and  N8_8 
ROOT
HETATM    1  C2  UNL     1     -34.054   8.138   6.086  1.00 20.00     0.022 C 
HETATM    2  C3  UNL     1     -34.585   6.777   6.525  1.00 20.00     0.032 C 
HETATM    3  C4  UNL     1     -32.956   7.768   5.106  1.00 20.00     0.126 C 
HETATM    4  C5  UNL     1     -34.530   5.924   5.236  1.00 20.00     0.027 C 
HETATM    5  C6  UNL     1     -34.238   4.461   5.588  1.00 20.00     0.038 C 
HETATM    6  C7  UNL     1     -35.849   6.025   4.458  1.00 20.00     0.038 C 
HETATM    7  N8  UNL     1     -33.431   6.547   4.475  1.00 20.00    -0.351 N 
ENDROOT
BRANCH   7   8
HETATM    8  C1  UNL     1     -32.915   6.081   3.286  1.00 20.00     0.351 C 
HETATM    9  O9  UNL     1     -33.250   5.068   2.683  1.00 20.00    -0.284 OA
ENDBRANCH   7   8
TORSDOF 1
