REMARK  3 active torsions:
REMARK  status: ('A' for Active; 'I' for Inactive)
REMARK    1  A    between atoms: C1_1  and  C2_2 
REMARK    2  A    between atoms: C1_1  and  C3_3 
REMARK    3  A    between atoms: C2_2  and  C4_4 
ROOT
HETATM    1  C2  UNL     1     -33.429   6.439   4.215  1.00 20.00     0.196 C 
ENDROOT
BRANCH   1   2
HETATM    2  C1  UNL     1     -33.510   7.957   4.172  1.00 20.00     0.148 C 
HETATM    3  O5  UNL     1     -33.703   8.626   5.186  1.00 20.00    -0.296 OA
BRANCH   2   4
HETATM    4  C3  UNL     1     -33.329   8.571   2.801  1.00 20.00     0.193 C 
HETATM    5 CL9  UNL     1     -32.285   7.559   1.792  1.00 20.00    -0.123 Cl
ENDBRANCH   2   4
ENDBRANCH   1   2
BRANCH   1   6
HETATM    6  C4  UNL     1     -34.246   5.830   5.331  1.00 20.00     0.394 C 
HETATM    7  F6  UNL     1     -34.140   4.485   5.344  1.00 20.00    -0.171 F 
HETATM    8  F7  UNL     1     -35.554   6.135   5.175  1.00 20.00    -0.171 F 
HETATM    9  F8  UNL     1     -33.861   6.296   6.537  1.00 20.00    -0.171 F 
ENDBRANCH   1   6
TORSDOF 3
