REMARK  1 active torsions:
REMARK  status: ('A' for Active; 'I' for Inactive)
REMARK    1  A    between atoms: C1_1  and  N8_8 
ROOT
HETATM    1  C2  UNL     1     -34.306   4.602   5.839  1.00 20.00     0.008 C 
HETATM    2  C3  UNL     1     -33.809   4.616   4.378  1.00 20.00     0.026 C 
HETATM    3  C4  UNL     1     -35.789   5.916   4.524  1.00 20.00     0.031 C 
HETATM    4  C5  UNL     1     -34.240   7.110   5.868  1.00 20.00     0.130 C 
HETATM    5  C6  UNL     1     -35.166   5.882   5.927  1.00 20.00     0.006 C 
HETATM    6  C7  UNL     1     -34.428   5.912   3.827  1.00 20.00     0.087 C 
HETATM    7  N8  UNL     1     -33.755   7.026   4.497  1.00 20.00    -0.354 N 
ENDROOT
BRANCH   7   8
HETATM    8  C1  UNL     1     -32.779   7.818   3.952  1.00 20.00     0.351 C 
HETATM    9  O9  UNL     1     -32.159   8.714   4.511  1.00 20.00    -0.284 OA
ENDBRANCH   7   8
TORSDOF 1
