REMARK  1 active torsions:
REMARK  status: ('A' for Active; 'I' for Inactive)
REMARK    1  A    between atoms: C6_6  and  C7_7 
ROOT
HETATM    1  C1  UNL     1     -32.476   8.936   0.641  1.00 20.00     0.065 C 
HETATM    2  C7  UNL     1     -31.543   8.458   1.672  1.00 20.00     0.186 C 
HETATM    3  N8  UNL     1     -33.211   9.312  -0.175  1.00 20.00    -0.197 NA
ENDROOT
BRANCH   2   4
HETATM    4  C6  UNL     1     -32.271   7.684   2.720  1.00 20.00     0.085 A 
HETATM    5  C4  UNL     1     -32.531   8.276   3.946  1.00 20.00     0.143 A 
HETATM    6  C2  UNL     1     -33.211   7.525   4.899  1.00 20.00     0.069 A 
HETATM    7  F10 UNL     1     -32.145   9.529   4.214  1.00 20.00    -0.204 F 
HETATM    8  C5  UNL     1     -33.605   6.226   4.601  1.00 20.00     0.054 A 
HETATM    9  C3  UNL     1     -33.297   5.726   3.346  1.00 20.00     0.141 A 
HETATM   10 CL11 UNL     1     -34.446   5.271   5.751  1.00 20.00    -0.083 Cl
HETATM   11  N9  UNL     1     -32.638   6.424   2.394  1.00 20.00    -0.260 NA
ENDBRANCH   2   4
TORSDOF 1
