REMARK  3 active torsions:
REMARK  status: ('A' for Active; 'I' for Inactive)
REMARK    1  A    between atoms: C5_5  and  C7_7 
REMARK    2  A    between atoms: C5_5  and  C8_8 
REMARK    3  A    between atoms: C8_8  and  O9_9 
ROOT
HETATM    1  C1  UNL     1     -33.238   8.391   5.021  1.00 20.00     0.001 C 
HETATM    2  C2  UNL     1     -33.351   8.498   3.512  1.00 20.00     0.001 C 
HETATM    3  C3  UNL     1     -33.422   6.902   5.286  1.00 20.00     0.011 C 
HETATM    4  C4  UNL     1     -34.517   7.575   3.191  1.00 20.00     0.011 C 
HETATM    5  C5  UNL     1     -34.387   6.398   4.186  1.00 20.00    -0.019 C 
ENDROOT
BRANCH   5   6
HETATM    6  C7  UNL     1     -33.804   5.161   3.489  1.00 20.00     0.007 C 
HETATM    7  C6  UNL     1     -32.491   5.461   2.846  1.00 20.00     0.006 C 
ENDBRANCH   5   6
BRANCH   5   8
HETATM    8  C8  UNL     1     -35.756   6.041   4.777  1.00 20.00     0.173 C 
BRANCH   8   9
HETATM    9  O9  UNL     1     -35.569   5.016   5.730  1.00 20.00    -0.400 OA
HETATM   10  H25 UNL     1     -36.444   4.799   6.097  1.00 20.00     0.209 HD
ENDBRANCH   8   9
ENDBRANCH   5   8
TORSDOF 3
