REMARK  4 active torsions:
REMARK  status: ('A' for Active; 'I' for Inactive)
REMARK    1  A    between atoms: C3_3  and  C5_5 
REMARK    2  A    between atoms: C5_5  and  N8_8 
REMARK    3  A    between atoms: C6_6  and  C7_7 
REMARK    4  A    between atoms: C7_7  and  N8_8 
ROOT
HETATM    1  N8  UNL     1     -33.585   7.287   5.375  1.00 20.00     0.089 N 
HETATM    2  H23 UNL     1     -33.770   7.738   6.274  1.00 20.00     0.316 HD
ENDROOT
BRANCH   1   3
HETATM    3  C5  UNL     1     -34.778   6.554   4.962  1.00 20.00     0.274 C 
BRANCH   3   4
HETATM    4  C3  UNL     1     -34.873   5.242   5.664  1.00 20.00     0.014 A 
HETATM    5  C1  UNL     1     -33.787   4.215   5.499  1.00 20.00     0.007 A 
HETATM    6  C2  UNL     1     -33.953   4.929   6.811  1.00 20.00     0.007 A 
ENDBRANCH   3   4
ENDBRANCH   1   3
BRANCH   1   7
HETATM    7  C7  UNL     1     -33.219   8.288   4.394  1.00 20.00     0.230 C 
HETATM    8  C4  UNL     1     -32.312   9.328   5.045  1.00 20.00     0.043 C 
BRANCH   7   9
HETATM    9  C6  UNL     1     -32.602   7.617   3.165  1.00 20.00     0.149 C 
HETATM   10 CL9  UNL     1     -32.199   8.765   1.862  1.00 20.00    -0.128 Cl
ENDBRANCH   7   9
ENDBRANCH   1   7
TORSDOF 4
