REMARK  1 active torsions:
REMARK  status: ('A' for Active; 'I' for Inactive)
REMARK    1  A    between atoms: C2_2  and  C3_3 
ROOT
HETATM    1  C1  UNL     1     -33.870   6.868   6.062  1.00 20.00     0.112 C 
HETATM    2  C2  UNL     1     -33.301   7.293   4.929  1.00 20.00     0.090 C 
HETATM    3 CL6  UNL     1     -34.535   5.305   6.315  1.00 20.00    -0.095 Cl
HETATM    4 CL7  UNL     1     -32.653   8.890   4.757  1.00 20.00    -0.080 Cl
ENDROOT
BRANCH   2   5
HETATM    5  C3  UNL     1     -33.183   6.411   3.724  1.00 20.00     0.167 C 
HETATM    6  C4  UNL     1     -32.529   6.950   2.475  1.00 20.00     0.097 C 
HETATM    7  O5  UNL     1     -33.614   5.257   3.747  1.00 20.00    -0.292 OA
ENDBRANCH   2   5
TORSDOF 1
