REMARK  0 active torsions:
REMARK  status: ('A' for Active; 'I' for Inactive)
ROOT
HETATM    1  C1  UNL     1     -33.722   7.184   4.548  1.00 20.00    -0.074 C 
HETATM    2  C2  UNL     1     -33.017   8.260   4.190  1.00 20.00    -0.085 C 
HETATM    3  C3  UNL     1     -34.060   6.769   5.958  1.00 20.00     0.039 C 
HETATM    4  C4  UNL     1     -33.577   4.870   3.728  1.00 20.00     0.009 C 
HETATM    5  C5  UNL     1     -33.910   4.384   5.152  1.00 20.00     0.005 C 
HETATM    6  C6  UNL     1     -35.633   5.853   4.415  1.00 20.00     0.014 C 
HETATM    7  C7  UNL     1     -34.370   6.182   3.618  1.00 20.00     0.015 C 
HETATM    8  C8  UNL     1     -34.859   5.479   5.682  1.00 20.00    -0.010 C 
HETATM    9  C9  UNL     1     -32.733   8.587   2.751  1.00 20.00     0.043 C 
HETATM   10  C10 UNL     1     -32.458   9.221   5.201  1.00 20.00     0.043 C 
ENDROOT
TORSDOF 0
