REMARK  5 active torsions:
REMARK  status: ('A' for Active; 'I' for Inactive)
REMARK    1  A    between atoms: C2_2  and  C9_9 
REMARK    2  A    between atoms: C3_3  and  C8_8 
REMARK    3  A    between atoms: C4_4  and  C10_10 
REMARK    4  A    between atoms: C8_8  and  C9_9 
REMARK    5  A    between atoms: C10_10  and  O11_11 
ROOT
HETATM    1  C3  UNL     1     -34.309   7.458   4.695  1.00 20.00    -0.027 C 
HETATM    2  C4  UNL     1     -35.167   6.430   4.795  1.00 20.00     0.006 C 
ENDROOT
BRANCH   1   3
HETATM    3  C8  UNL     1     -32.843   7.354   5.018  1.00 20.00     0.035 C 
BRANCH   3   4
HETATM    4  C9  UNL     1     -31.947   7.780   3.839  1.00 20.00     0.006 C 
HETATM    5  C5  UNL     1     -31.909   9.307   3.734  1.00 20.00     0.014 C 
BRANCH   4   6
HETATM    6  C2  UNL     1     -32.440   7.201   2.534  1.00 20.00    -0.032 C 
HETATM    7  C1  UNL     1     -32.824   7.939   1.487  1.00 20.00     0.007 C 
ENDBRANCH   4   6
ENDBRANCH   3   4
ENDBRANCH   1   3
BRANCH   2   8
HETATM    8  C10 UNL     1     -34.850   5.016   5.233  1.00 20.00     0.068 C 
HETATM    9  C6  UNL     1     -33.820   4.271   4.377  1.00 20.00     0.050 C 
HETATM   10  C7  UNL     1     -34.389   5.032   6.693  1.00 20.00     0.050 C 
BRANCH   8  11
HETATM   11  O11 UNL     1     -36.070   4.266   5.190  1.00 20.00    -0.387 OA
HETATM   12  H29 UNL     1     -35.844   3.369   5.473  1.00 20.00     0.211 HD
ENDBRANCH   8  11
ENDBRANCH   2   8
TORSDOF 5
