REMARK  0 active torsions:
REMARK  status: ('A' for Active; 'I' for Inactive)
ROOT
HETATM    1  C1  UNL     1     -33.875   5.721   5.398  1.00 20.00     0.102 C 
HETATM    2  C2  UNL     1     -33.211   8.038   4.943  1.00 20.00     0.075 A 
HETATM    3  C3  UNL     1     -33.326   6.726   4.540  1.00 20.00     0.075 A 
HETATM    4  C4  UNL     1     -32.845   6.529   3.214  1.00 20.00     0.084 A 
HETATM    5  C5  UNL     1     -32.381   7.699   2.653  1.00 20.00     0.097 A 
HETATM    6  N6  UNL     1     -34.320   4.906   6.093  1.00 20.00    -0.191 NA
HETATM    7  S7  UNL     1     -32.525   9.026   3.724  1.00 20.00    -0.086 SA
HETATM    8 CL8  UNL     1     -32.855   5.002   2.428  1.00 20.00    -0.080 Cl
HETATM    9 CL9  UNL     1     -31.712   7.952   1.091  1.00 20.00    -0.074 Cl
ENDROOT
TORSDOF 0
