REMARK  4 active torsions:
REMARK  status: ('A' for Active; 'I' for Inactive)
REMARK    1  A    between atoms: C3_3  and  C7_7 
REMARK    2  A    between atoms: C6_6  and  C7_7 
REMARK    3  A    between atoms: C6_6  and  N9_9 
REMARK    4  A    between atoms: C8_8  and  N9_9 
ROOT
HETATM    1  C6  UNL     1     -34.199   8.001   4.864  1.00 20.00     0.290 C 
ENDROOT
BRANCH   1   2
HETATM    2  C7  UNL     1     -33.027   8.563   4.058  1.00 20.00     0.114 C 
HETATM    3 CL10 UNL     1     -32.009   9.619   5.085  1.00 20.00    -0.123 Cl
BRANCH   2   4
HETATM    4  C3  UNL     1     -32.162   7.483   3.418  1.00 20.00     0.006 A 
HETATM    5  C1  UNL     1     -32.800   6.272   2.796  1.00 20.00     0.006 A 
HETATM    6  C2  UNL     1     -32.149   7.310   1.925  1.00 20.00     0.006 A 
ENDBRANCH   2   4
ENDBRANCH   1   2
BRANCH   1   7
HETATM    7  N9  UNL     1     -33.830   6.814   5.600  1.00 20.00     0.088 N 
HETATM    8  H26 UNL     1     -33.334   7.076   6.456  1.00 20.00     0.316 HD
BRANCH   7   9
HETATM    9  C8  UNL     1     -35.004   6.024   5.962  1.00 20.00     0.212 C 
HETATM   10  C4  UNL     1     -34.638   5.078   7.096  1.00 20.00     0.042 C 
HETATM   11  C5  UNL     1     -35.488   5.269   4.733  1.00 20.00     0.042 C 
ENDBRANCH   7   9
ENDBRANCH   1   7
TORSDOF 4
