REMARK  2 active torsions:
REMARK  status: ('A' for Active; 'I' for Inactive)
REMARK    1  A    between atoms: C1_1  and  C3_3 
REMARK    2  A    between atoms: C2_2  and  C5_5 
ROOT
HETATM    1  C1  UNL     1     -32.711   6.383   3.280  1.00 20.00     0.004 C 
HETATM    2  C2  UNL     1     -33.655   6.553   4.216  1.00 20.00     0.049 C 
ENDROOT
BRANCH   1   3
HETATM    3  C3  UNL     1     -32.360   7.415   2.330  1.00 20.00     0.007 C 
HETATM    4  C4  UNL     1     -33.268   8.205   1.746  1.00 20.00     0.056 C 
HETATM    5 BR8  UNL     1     -32.856   9.538   0.523  1.00 20.00    -0.064 Br
ENDBRANCH   1   3
BRANCH   2   6
HETATM    6  C5  UNL     1     -33.979   5.457   5.172  1.00 20.00     0.145 C 
HETATM    7  C6  UNL     1     -33.784   5.760   6.635  1.00 20.00     0.096 C 
HETATM    8  O7  UNL     1     -34.359   4.351   4.797  1.00 20.00    -0.294 OA
ENDBRANCH   2   6
TORSDOF 2
