REMARK  1 active torsions:
REMARK  status: ('A' for Active; 'I' for Inactive)
REMARK    1  A    between atoms: C5_5  and  C8_8 
ROOT
HETATM    1  C1  UNL     1     -35.172   6.370   4.616  1.00 20.00     0.047 C 
HETATM    2  C2  UNL     1     -34.653   7.228   3.730  1.00 20.00    -0.009 C 
HETATM    3  C3  UNL     1     -34.535   6.184   5.942  1.00 20.00     0.149 C 
HETATM    4  C6  UNL     1     -33.350   7.050   6.299  1.00 20.00     0.084 C 
HETATM    5  C7  UNL     1     -32.532   7.399   5.062  1.00 20.00     0.025 C 
HETATM    6  C8  UNL     1     -33.383   8.029   3.936  1.00 20.00    -0.003 C 
HETATM    7  C11 UNL     1     -33.761   9.480   4.276  1.00 20.00     0.024 C 
HETATM    8  O12 UNL     1     -35.015   5.383   6.742  1.00 20.00    -0.293 OA
ENDROOT
BRANCH   6   9
HETATM    9  C5  UNL     1     -32.559   8.042   2.671  1.00 20.00    -0.076 C 
HETATM   10  C4  UNL     1     -32.104   6.899   2.124  1.00 20.00    -0.027 C 
HETATM   11  C9  UNL     1     -32.305   5.522   2.612  1.00 20.00     0.036 C 
HETATM   12  C10 UNL     1     -32.299   9.406   2.096  1.00 20.00     0.044 C 
ENDBRANCH   6   9
TORSDOF 1
