REMARK  2 active torsions:
REMARK  status: ('A' for Active; 'I' for Inactive)
REMARK    1  A    between atoms: C1_1  and  C4_4 
REMARK    2  A    between atoms: C4_4  and  C6_6 
ROOT
HETATM    1  C2  UNL     1     -35.016   5.933   3.812  1.00 20.00     0.062 A 
HETATM    2  C3  UNL     1     -34.292   5.064   4.789  1.00 20.00     0.190 A 
HETATM    3  C4  UNL     1     -33.630   6.324   4.288  1.00 20.00     0.081 A 
HETATM    4  F9  UNL     1     -33.818   3.847   4.329  1.00 20.00    -0.248 F 
ENDROOT
BRANCH   3   5
HETATM    5  C1  UNL     1     -33.562   7.432   5.234  1.00 20.00     0.184 C 
HETATM    6  O7  UNL     1     -33.447   8.577   4.715  1.00 20.00    -0.647 OA
HETATM    7  O8  UNL     1     -33.629   7.096   6.449  1.00 20.00    -0.647 OA
ENDBRANCH   3   5
BRANCH   3   8
HETATM    8  C6  UNL     1     -32.497   6.176   3.307  1.00 20.00     0.019 C 
HETATM    9  C5  UNL     1     -32.341   7.380   2.425  1.00 20.00     0.006 C 
ENDBRANCH   3   8
TORSDOF 2
