REMARK  3 active torsions:
REMARK  status: ('A' for Active; 'I' for Inactive)
REMARK    1  A    between atoms: C2_2  and  C8_8 
REMARK    2  A    between atoms: C4_4  and  C7_7 
REMARK    3  A    between atoms: C7_7  and  C8_8 
ROOT
HETATM    1  C7  UNL     1     -34.535   6.493   4.621  1.00 20.00     0.034 C 
ENDROOT
BRANCH   1   2
HETATM    2  C4  UNL     1     -34.506   4.990   4.600  1.00 20.00    -0.030 C 
HETATM    3  C3  UNL     1     -33.756   4.270   3.753  1.00 20.00    -0.035 C 
HETATM    4  C5  UNL     1     -32.857   4.870   2.724  1.00 20.00     0.035 C 
ENDBRANCH   1   2
BRANCH   1   5
HETATM    5  C8  UNL     1     -33.487   7.096   5.576  1.00 20.00     0.007 C 
HETATM    6  C6  UNL     1     -33.989   7.018   7.021  1.00 20.00     0.014 C 
BRANCH   5   7
HETATM    7  C2  UNL     1     -33.184   8.534   5.230  1.00 20.00    -0.032 C 
HETATM    8  C1  UNL     1     -31.968   8.983   4.899  1.00 20.00     0.007 C 
ENDBRANCH   5   7
ENDBRANCH   1   5
TORSDOF 3
