REMARK  0 active torsions:
REMARK  status: ('A' for Active; 'I' for Inactive)
ROOT
HETATM    1  C1  UNL     1     -34.218   6.723   5.887  1.00 20.00     0.001 C 
HETATM    2  C2  UNL     1     -33.705   6.924   4.663  1.00 20.00     0.076 C 
HETATM    3  C3  UNL     1     -34.649   5.427   6.497  1.00 20.00     0.038 C 
HETATM    4 CL4  UNL     1     -33.449   5.634   3.537  1.00 20.00    -0.076 Cl
HETATM    5 BR5  UNL     1     -33.222   8.635   4.076  1.00 20.00    -0.038 Br
ENDROOT
TORSDOF 0
