REMARK  1 active torsions:
REMARK  status: ('A' for Active; 'I' for Inactive)
REMARK    1  A    between atoms: C6_6  and  S9_9 
ROOT
HETATM    1  C1  UNL     1     -33.120   6.279   3.664  1.00 20.00     0.080 C 
HETATM    2  C2  UNL     1     -35.012   5.040   5.746  1.00 20.00     0.003 C 
HETATM    3  C3  UNL     1     -33.743   5.374   6.530  1.00 20.00     0.003 C 
HETATM    4  C4  UNL     1     -35.297   6.253   4.857  1.00 20.00     0.036 C 
HETATM    5  C5  UNL     1     -33.326   6.778   6.087  1.00 20.00     0.036 C 
HETATM    6  C6  UNL     1     -33.940   6.944   4.693  1.00 20.00     0.096 C 
HETATM    7  N8  UNL     1     -32.475   5.755   2.854  1.00 20.00    -0.196 NA
ENDROOT
BRANCH   6   8
HETATM    8  S9  UNL     1     -34.145   8.709   4.278  1.00 20.00    -0.148 SA
HETATM    9  C7  UNL     1     -32.400   9.174   4.285  1.00 20.00     0.091 C 
ENDBRANCH   6   8
TORSDOF 1
