REMARK  1 active torsions:
REMARK  status: ('A' for Active; 'I' for Inactive)
REMARK    1  A    between atoms: C4_4  and  C8_8 
ROOT
HETATM    1  C5  UNL     1     -33.786   5.801   3.204  1.00 20.00     0.011 C 
HETATM    2  C6  UNL     1     -34.428   5.447   4.549  1.00 20.00     0.021 C 
HETATM    3  C7  UNL     1     -33.383   7.581   4.783  1.00 20.00     0.029 C 
HETATM    4  C8  UNL     1     -32.856   7.008   3.459  1.00 20.00     0.020 C 
HETATM    5  C9  UNL     1     -33.718   6.324   5.571  1.00 20.00     0.083 C 
HETATM    6 CL11 UNL     1     -34.724   6.663   6.986  1.00 20.00    -0.125 Cl
ENDROOT
BRANCH   4   7
HETATM    7  C4  UNL     1     -32.739   7.962   2.289  1.00 20.00    -0.047 A 
HETATM    8  C1  UNL     1     -32.300   7.576   0.990  1.00 20.00     0.015 A 
HETATM    9  C2  UNL     1     -32.286   8.637   0.112  1.00 20.00     0.050 A 
HETATM   10  S10 UNL     1     -32.800  10.092   0.855  1.00 20.00    -0.113 SA
HETATM   11  C3  UNL     1     -33.043   9.304   2.355  1.00 20.00     0.057 A 
ENDBRANCH   4   7
TORSDOF 1
