REMARK  2 active torsions:
REMARK  status: ('A' for Active; 'I' for Inactive)
REMARK    1  A    between atoms: C8_8  and  C10_10 
REMARK    2  A    between atoms: C10_10  and  C11_11 
ROOT
HETATM    1  C1  UNL     1     -34.441   5.864   6.197  1.00 20.00     0.064 C 
HETATM    2  C2  UNL     1     -33.279   5.102   3.204  1.00 20.00     0.002 C 
HETATM    3  C3  UNL     1     -34.605   5.637   3.742  1.00 20.00     0.019 C 
HETATM    4  C4  UNL     1     -33.307   7.589   4.868  1.00 20.00     0.019 C 
HETATM    5  C5  UNL     1     -32.664   6.010   2.139  1.00 20.00     0.005 C 
HETATM    6  C6  UNL     1     -33.017   8.181   3.489  1.00 20.00     0.006 C 
HETATM    7  C7  UNL     1     -34.487   6.611   4.922  1.00 20.00     0.093 C 
HETATM    8  C8  UNL     1     -32.052   7.319   2.657  1.00 20.00    -0.014 C 
HETATM    9  N12 UNL     1     -34.404   5.278   7.197  1.00 20.00    -0.197 NA
ENDROOT
BRANCH   8  10
HETATM   10  C10 UNL     1     -31.530   8.134   1.467  1.00 20.00     0.004 C 
BRANCH  10  11
HETATM   11  C11 UNL     1     -32.669   8.844   0.749  1.00 20.00    -0.004 C 
HETATM   12  C9  UNL     1     -32.148   9.672  -0.415  1.00 20.00     0.005 C 
ENDBRANCH  10  11
ENDBRANCH   8  10
TORSDOF 2
