REMARK  1 active torsions:
REMARK  status: ('A' for Active; 'I' for Inactive)
REMARK    1  A    between atoms: C3_3  and  C8_8 
ROOT
HETATM    1  C1  UNL     1     -32.538   8.254   1.706  1.00 20.00     0.022 A 
HETATM    2  C2  UNL     1     -33.190   9.375   3.634  1.00 20.00     0.057 A 
HETATM    3  C3  UNL     1     -32.869   8.152   3.088  1.00 20.00    -0.045 A 
HETATM    4  C4  UNL     1     -32.619   9.551   1.248  1.00 20.00    -0.021 A 
HETATM    5  C10 UNL     1     -32.355  10.065  -0.113  1.00 20.00     0.056 C 
HETATM    6  S11 UNL     1     -33.091  10.639   2.483  1.00 20.00    -0.106 SA
ENDROOT
BRANCH   3   7
HETATM    7  C8  UNL     1     -32.869   6.852   3.863  1.00 20.00     0.033 C 
HETATM    8  C6  UNL     1     -33.153   5.628   2.976  1.00 20.00     0.010 C 
HETATM    9  C5  UNL     1     -33.767   4.620   3.936  1.00 20.00     0.002 C 
HETATM   10  C7  UNL     1     -34.691   5.480   4.786  1.00 20.00     0.016 C 
HETATM   11  C9  UNL     1     -33.933   6.792   4.979  1.00 20.00     0.066 C 
HETATM   12 BR12 UNL     1     -33.057   6.796   6.733  1.00 20.00    -0.090 Br
ENDBRANCH   3   7
TORSDOF 1
