REMARK  1 active torsions:
REMARK  status: ('A' for Active; 'I' for Inactive)
REMARK    1  A    between atoms: C7_7  and  C11_11 
ROOT
HETATM    1  C1  UNL     1     -33.112   6.027   2.801  1.00 20.00     0.004 C 
HETATM    2  C2  UNL     1     -32.013   7.067   3.018  1.00 20.00     0.005 C 
HETATM    3  C3  UNL     1     -33.333   8.746   4.469  1.00 20.00     0.008 C 
HETATM    4  C4  UNL     1     -33.698   5.458   4.090  1.00 20.00     0.040 C 
HETATM    5  C5  UNL     1     -34.563   7.852   4.625  1.00 20.00     0.041 C 
HETATM    6  C6  UNL     1     -33.887   6.252   6.559  1.00 20.00     0.207 A 
HETATM    7  C7  UNL     1     -32.492   8.517   3.204  1.00 20.00    -0.011 C 
HETATM    8  C8  UNL     1     -34.190   6.470   5.087  1.00 20.00     0.082 A 
HETATM    9  O12 UNL     1     -35.155   5.908   6.000  1.00 20.00    -0.375 OA
ENDROOT
BRANCH   7  10
HETATM   10  C11 UNL     1     -33.191   9.064   1.955  1.00 20.00    -0.019 C 
HETATM   11  C9  UNL     1     -33.235  10.587   1.997  1.00 20.00     0.010 C 
HETATM   12  C10 UNL     1     -32.484   8.576   0.696  1.00 20.00     0.010 C 
ENDBRANCH   7  10
TORSDOF 1
