REMARK  1 active torsions:
REMARK  status: ('A' for Active; 'I' for Inactive)
REMARK    1  A    between atoms: C4_4  and  C10_10 
ROOT
HETATM    1  C5  UNL     1     -32.428   7.303   1.727  1.00 20.00     0.001 C 
HETATM    2  C6  UNL     1     -32.019   8.509   0.887  1.00 20.00     0.001 C 
HETATM    3  C7  UNL     1     -32.007   7.427   3.190  1.00 20.00     0.009 C 
HETATM    4  C8  UNL     1     -32.879   9.753   1.079  1.00 20.00     0.020 C 
HETATM    5  C9  UNL     1     -33.756   9.369   3.447  1.00 20.00     0.029 C 
HETATM    6  C10 UNL     1     -32.929   8.251   4.109  1.00 20.00     0.020 C 
HETATM    7  C11 UNL     1     -32.951  10.281   2.515  1.00 20.00     0.083 C 
HETATM    8 CL13 UNL     1     -33.760  11.891   2.459  1.00 20.00    -0.125 Cl
ENDROOT
BRANCH   6   9
HETATM    9  C4  UNL     1     -33.826   7.349   4.950  1.00 20.00    -0.047 A 
HETATM   10  C1  UNL     1     -34.840   6.508   4.408  1.00 20.00     0.015 A 
HETATM   11  C2  UNL     1     -35.503   5.800   5.386  1.00 20.00     0.050 A 
HETATM   12  S12 UNL     1     -34.902   6.149   6.951  1.00 20.00    -0.113 SA
HETATM   13  C3  UNL     1     -33.752   7.251   6.322  1.00 20.00     0.057 A 
ENDBRANCH   6   9
TORSDOF 1
