REMARK  2 active torsions:
REMARK  status: ('A' for Active; 'I' for Inactive)
REMARK    1  A    between atoms: C7_7  and  C10_10 
REMARK    2  A    between atoms: C10_10  and  C11_11 
ROOT
HETATM    1  C1  UNL     1     -34.631   5.468   3.593  1.00 20.00     0.004 C 
HETATM    2  C2  UNL     1     -33.540   5.186   2.562  1.00 20.00     0.005 C 
HETATM    3  C3  UNL     1     -31.780   6.878   3.329  1.00 20.00     0.007 C 
HETATM    4  C4  UNL     1     -34.108   5.977   4.934  1.00 20.00     0.040 C 
HETATM    5  C5  UNL     1     -32.436   7.863   4.295  1.00 20.00     0.040 C 
HETATM    6  C6  UNL     1     -34.871   8.460   4.991  1.00 20.00     0.207 A 
HETATM    7  C7  UNL     1     -32.638   6.365   2.161  1.00 20.00    -0.014 C 
HETATM    8  C8  UNL     1     -33.755   7.436   4.879  1.00 20.00     0.082 A 
HETATM    9  O12 UNL     1     -34.050   8.126   6.110  1.00 20.00    -0.375 OA
ENDROOT
BRANCH   7  10
HETATM   10  C10 UNL     1     -33.405   7.471   1.436  1.00 20.00     0.004 C 
BRANCH  10  11
HETATM   11  C11 UNL     1     -32.456   8.381   0.669  1.00 20.00    -0.004 C 
HETATM   12  C9  UNL     1     -33.220   9.467  -0.072  1.00 20.00     0.005 C 
ENDBRANCH  10  11
ENDBRANCH   7  10
TORSDOF 2
