REMARK  2 active torsions:
REMARK  status: ('A' for Active; 'I' for Inactive)
REMARK    1  A    between atoms: C6_6  and  C9_9 
REMARK    2  A    between atoms: C9_9  and  C10_10 
ROOT
HETATM    1  C1  UNL     1     -33.622   5.551   3.101  1.00 20.00     0.002 C 
HETATM    2  C2  UNL     1     -32.546   6.342   2.364  1.00 20.00     0.005 C 
HETATM    3  C3  UNL     1     -31.911   8.107   4.076  1.00 20.00     0.006 C 
HETATM    4  C4  UNL     1     -33.586   5.634   4.627  1.00 20.00     0.020 C 
HETATM    5  C5  UNL     1     -32.903   8.040   5.237  1.00 20.00     0.020 C 
HETATM    6  C6  UNL     1     -32.495   7.847   2.681  1.00 20.00    -0.014 C 
HETATM    7  C7  UNL     1     -34.024   7.004   5.144  1.00 20.00     0.082 C 
HETATM    8 CL11 UNL     1     -34.749   6.821   6.782  1.00 20.00    -0.125 Cl
ENDROOT
BRANCH   6   9
HETATM    9  C9  UNL     1     -31.618   8.541   1.629  1.00 20.00     0.004 C 
BRANCH   9  10
HETATM   10  C10 UNL     1     -32.382   8.744   0.329  1.00 20.00    -0.004 C 
HETATM   11  C8  UNL     1     -33.629   9.585   0.554  1.00 20.00     0.005 C 
ENDBRANCH   9  10
ENDBRANCH   6   9
TORSDOF 2
