REMARK  1 active torsions:
REMARK  status: ('A' for Active; 'I' for Inactive)
REMARK    1  A    between atoms: C8_8  and  C11_11 
ROOT
HETATM    1  C1  UNL     1     -32.438   8.571   0.946  1.00 20.00     0.064 C 
HETATM    2  C2  UNL     1     -32.716   9.081   4.732  1.00 20.00     0.002 C 
HETATM    3  C3  UNL     1     -32.830   9.366   3.237  1.00 20.00     0.019 C 
HETATM    4  C4  UNL     1     -31.838   7.008   2.764  1.00 20.00     0.019 C 
HETATM    5  C5  UNL     1     -33.688   7.999   5.202  1.00 20.00     0.005 C 
HETATM    6  C6  UNL     1     -33.125   6.365   3.285  1.00 20.00     0.006 C 
HETATM    7  C7  UNL     1     -31.958   8.478   2.341  1.00 20.00     0.093 C 
HETATM    8  C8  UNL     1     -33.327   6.563   4.797  1.00 20.00    -0.011 C 
HETATM    9  N12 UNL     1     -32.814   8.644  -0.149  1.00 20.00    -0.197 NA
ENDROOT
BRANCH   8  10
HETATM   10  C11 UNL     1     -34.418   5.610   5.300  1.00 20.00    -0.019 C 
HETATM   11  C9  UNL     1     -35.634   5.664   4.380  1.00 20.00     0.010 C 
HETATM   12  C10 UNL     1     -33.876   4.188   5.399  1.00 20.00     0.010 C 
ENDBRANCH   8  10
TORSDOF 1
