REMARK  2 active torsions:
REMARK  status: ('A' for Active; 'I' for Inactive)
REMARK    1  A    between atoms: C6_6  and  C9_9 
REMARK    2  A    between atoms: C9_9  and  C10_10 
ROOT
HETATM    1  C1  UNL     1     -33.957   5.548   3.547  1.00 20.00     0.002 C 
HETATM    2  C2  UNL     1     -32.686   6.391   3.590  1.00 20.00     0.005 C 
HETATM    3  C3  UNL     1     -33.671   8.479   4.806  1.00 20.00     0.006 C 
HETATM    4  C4  UNL     1     -35.095   5.975   4.471  1.00 20.00     0.020 C 
HETATM    5  C5  UNL     1     -33.720   7.560   6.027  1.00 20.00     0.020 C 
HETATM    6  C6  UNL     1     -32.864   7.918   3.615  1.00 20.00    -0.014 C 
HETATM    7  C7  UNL     1     -34.715   6.395   5.894  1.00 20.00     0.082 C 
HETATM    8 CL11 UNL     1     -34.122   4.985   6.830  1.00 20.00    -0.125 Cl
ENDROOT
BRANCH   6   9
HETATM    9  C9  UNL     1     -33.429   8.443   2.293  1.00 20.00     0.004 C 
BRANCH   9  10
HETATM   10  C10 UNL     1     -32.484   8.142   1.138  1.00 20.00    -0.004 C 
HETATM   11  C8  UNL     1     -33.056   8.641  -0.179  1.00 20.00     0.005 C 
ENDBRANCH   9  10
ENDBRANCH   6   9
TORSDOF 2
