REMARK  2 active torsions:
REMARK  status: ('A' for Active; 'I' for Inactive)
REMARK    1  A    between atoms: C8_8  and  C10_10 
REMARK    2  A    between atoms: C10_10  and  C11_11 
ROOT
HETATM    1  C1  UNL     1     -34.401   5.504   5.795  1.00 20.00     0.064 C 
HETATM    2  C2  UNL     1     -33.132   8.287   5.049  1.00 20.00     0.002 C 
HETATM    3  C3  UNL     1     -34.538   7.758   4.769  1.00 20.00     0.019 C 
HETATM    4  C4  UNL     1     -33.870   5.651   3.379  1.00 20.00     0.019 C 
HETATM    5  C5  UNL     1     -31.996   7.693   4.222  1.00 20.00     0.005 C 
HETATM    6  C6  UNL     1     -33.448   6.666   2.317  1.00 20.00     0.006 C 
HETATM    7  C7  UNL     1     -34.681   6.245   4.549  1.00 20.00     0.093 C 
HETATM    8  C8  UNL     1     -32.243   7.545   2.712  1.00 20.00    -0.014 C 
HETATM    9  N12 UNL     1     -34.181   4.922   6.774  1.00 20.00    -0.197 NA
ENDROOT
BRANCH   8  10
HETATM   10  C10 UNL     1     -32.325   8.906   2.018  1.00 20.00     0.004 C 
BRANCH  10  11
HETATM   11  C11 UNL     1     -32.531   8.742   0.518  1.00 20.00    -0.004 C 
HETATM   12  C9  UNL     1     -31.371   7.988  -0.113  1.00 20.00     0.005 C 
ENDBRANCH  10  11
ENDBRANCH   8  10
TORSDOF 2
