REMARK  0 active torsions:
REMARK  status: ('A' for Active; 'I' for Inactive)
ROOT
HETATM    1  C1  UNL     1     -32.742   9.328   2.525  1.00 20.00     0.085 C 
HETATM    2  C2  UNL     1     -32.976   6.071   2.849  1.00 20.00     0.004 C 
HETATM    3  C3  UNL     1     -31.981   7.124   3.344  1.00 20.00     0.041 C 
HETATM    4  C4  UNL     1     -33.964   8.398   4.443  1.00 20.00     0.042 C 
HETATM    5  C5  UNL     1     -33.541   5.223   3.992  1.00 20.00     0.009 C 
HETATM    6  C6  UNL     1     -34.107   7.272   5.473  1.00 20.00     0.011 C 
HETATM    7  C7  UNL     1     -32.607   8.475   3.724  1.00 20.00     0.125 C 
HETATM    8  C8  UNL     1     -34.574   5.897   4.925  1.00 20.00    -0.048 C 
HETATM    9  C9  UNL     1     -34.782   4.962   6.141  1.00 20.00     0.015 C 
HETATM   10  C10 UNL     1     -35.935   6.010   4.206  1.00 20.00     0.015 C 
HETATM   11  N11 UNL     1     -32.848   9.998   1.583  1.00 20.00    -0.195 NA
HETATM   12 CL12 UNL     1     -31.425   9.345   4.783  1.00 20.00    -0.103 Cl
ENDROOT
TORSDOF 0
