REMARK  4 active torsions:
REMARK  status: ('A' for Active; 'I' for Inactive)
REMARK    1  A    between atoms: C5_5  and  C7_7 
REMARK    2  A    between atoms: C5_5  and  O10_10 
REMARK    3  A    between atoms: C6_6  and  C7_7 
REMARK    4  A    between atoms: C7_7  and  N8_8 
ROOT
HETATM    1  C1  UNL     1     -33.244   8.520   5.216  1.00 20.00     0.332 C 
HETATM    2  N8  UNL     1     -34.036   7.751   4.827  1.00 20.00    -0.240 NA
HETATM    3  O9  UNL     1     -32.456   9.301   5.608  1.00 20.00    -0.260 OA
ENDROOT
BRANCH   2   4
HETATM    4  C7  UNL     1     -33.484   6.416   4.542  1.00 20.00     0.139 C 
BRANCH   4   5
HETATM    5  C5  UNL     1     -34.567   5.382   4.848  1.00 20.00     0.194 C 
BRANCH   5   6
HETATM    6  O10 UNL     1     -34.938   5.489   6.219  1.00 20.00    -0.394 OA
HETATM    7  C4  UNL     1     -34.008   4.824   7.062  1.00 20.00     0.201 C 
ENDBRANCH   5   6
ENDBRANCH   4   5
BRANCH   4   8
HETATM    8  C6  UNL     1     -32.986   6.354   3.082  1.00 20.00     0.004 C 
HETATM    9  C2  UNL     1     -32.361   4.990   2.769  1.00 20.00     0.012 C 
HETATM   10  C3  UNL     1     -32.004   7.472   2.719  1.00 20.00     0.012 C 
ENDBRANCH   4   8
ENDBRANCH   2   4
TORSDOF 4
