REMARK  1 active torsions:
REMARK  status: ('A' for Active; 'I' for Inactive)
REMARK    1  A    between atoms: C4_4  and  C10_10 
ROOT
HETATM    1  C5  UNL     1     -33.558   7.057   4.824  1.00 20.00     0.135 C 
HETATM    2  C6  UNL     1     -34.837   6.325   4.484  1.00 20.00     0.079 C 
HETATM    3  C7  UNL     1     -34.529   4.874   4.151  1.00 20.00     0.007 C 
HETATM    4  C8  UNL     1     -33.483   4.767   3.047  1.00 20.00     0.001 C 
HETATM    5  C9  UNL     1     -32.202   5.520   3.419  1.00 20.00     0.017 C 
HETATM    6  C10 UNL     1     -32.431   6.997   3.796  1.00 20.00     0.088 C 
HETATM    7  O11 UNL     1     -33.462   7.730   5.850  1.00 20.00    -0.297 OA
ENDROOT
BRANCH   6   8
HETATM    8  C4  UNL     1     -32.653   7.997   2.671  1.00 20.00    -0.040 A 
HETATM    9  C1  UNL     1     -32.632   7.655   1.288  1.00 20.00     0.015 A 
HETATM   10  C2  UNL     1     -32.861   8.747   0.481  1.00 20.00     0.050 A 
HETATM   11  S12 UNL     1     -33.101  10.178   1.389  1.00 20.00    -0.113 SA
HETATM   12  C3  UNL     1     -32.898   9.338   2.868  1.00 20.00     0.057 A 
ENDBRANCH   6   8
TORSDOF 1
