REMARK  1 active torsions:
REMARK  status: ('A' for Active; 'I' for Inactive)
REMARK    1  A    between atoms: C4_4  and  C8_8 
ROOT
HETATM    1  C5  UNL     1     -34.773   6.684   6.843  1.00 20.00     0.002 C 
HETATM    2  C6  UNL     1     -33.458   7.240   6.299  1.00 20.00     0.011 C 
HETATM    3  C7  UNL     1     -34.868   5.288   6.247  1.00 20.00     0.021 C 
HETATM    4  C8  UNL     1     -33.158   6.449   5.005  1.00 20.00     0.037 C 
HETATM    5  C9  UNL     1     -34.364   5.508   4.828  1.00 20.00     0.090 C 
HETATM    6 CL11 UNL     1     -33.923   3.980   4.041  1.00 20.00    -0.124 Cl
ENDROOT
BRANCH   4   7
HETATM    7  C4  UNL     1     -32.903   7.320   3.795  1.00 20.00    -0.046 A 
HETATM    8  C1  UNL     1     -32.586   6.811   2.503  1.00 20.00     0.015 A 
HETATM    9  C2  UNL     1     -32.401   7.818   1.581  1.00 20.00     0.050 A 
HETATM   10  S10 UNL     1     -32.610   9.370   2.274  1.00 20.00    -0.113 SA
HETATM   11  C3  UNL     1     -32.948   8.697   3.812  1.00 20.00     0.057 A 
ENDBRANCH   4   7
TORSDOF 1
