REMARK  5 active torsions:
REMARK  status: ('A' for Active; 'I' for Inactive)
REMARK    1  A    between atoms: C5_5  and  C7_7 
REMARK    2  A    between atoms: C6_6  and  C8_8 
REMARK    3  A    between atoms: C7_7  and  C9_9 
REMARK    4  A    between atoms: C8_8  and  C9_9 
REMARK    5  A    between atoms: C9_9  and  S11_11 
ROOT
HETATM    1  C1  UNL     1     -32.535   8.850   4.406  1.00 20.00     0.080 C 
HETATM    2  C9  UNL     1     -33.163   7.770   3.613  1.00 20.00     0.096 C 
HETATM    3  N10 UNL     1     -32.046   9.700   5.028  1.00 20.00    -0.196 NA
ENDROOT
BRANCH   2   4
HETATM    4  C7  UNL     1     -33.503   8.293   2.189  1.00 20.00     0.035 C 
BRANCH   4   5
HETATM    5  C5  UNL     1     -32.308   8.831   1.387  1.00 20.00    -0.002 C 
HETATM    6  C2  UNL     1     -32.751   9.380   0.038  1.00 20.00     0.005 C 
ENDBRANCH   4   5
ENDBRANCH   2   4
BRANCH   2   7
HETATM    7  C8  UNL     1     -34.423   7.228   4.335  1.00 20.00     0.035 C 
BRANCH   7   8
HETATM    8  C6  UNL     1     -34.173   6.288   5.527  1.00 20.00    -0.002 C 
HETATM    9  C3  UNL     1     -33.287   6.953   6.573  1.00 20.00     0.005 C 
ENDBRANCH   7   8
ENDBRANCH   2   7
BRANCH   2  10
HETATM   10  S11 UNL     1     -31.921   6.418   3.378  1.00 20.00    -0.148 SA
HETATM   11  C4  UNL     1     -32.968   5.312   2.415  1.00 20.00     0.091 C 
ENDBRANCH   2  10
TORSDOF 5
