REMARK  2 active torsions:
REMARK  status: ('A' for Active; 'I' for Inactive)
REMARK    1  A    between atoms: C4_4  and  C9_9 
REMARK    2  A    between atoms: C5_5  and  S11_11 
ROOT
HETATM    1  C1  UNL     1     -33.424   6.688   6.187  1.00 20.00     0.080 C 
HETATM    2  C2  UNL     1     -32.178   7.003   3.999  1.00 20.00     0.041 C 
HETATM    3  C3  UNL     1     -33.747   8.449   4.391  1.00 20.00     0.041 C 
HETATM    4  C4  UNL     1     -32.551   8.384   3.414  1.00 20.00    -0.006 C 
HETATM    5  C5  UNL     1     -33.513   6.972   4.775  1.00 20.00     0.097 C 
HETATM    6  N10 UNL     1     -33.352   6.460   7.323  1.00 20.00    -0.196 NA
ENDROOT
BRANCH   5   7
HETATM    7  S11 UNL     1     -34.742   5.854   3.992  1.00 20.00    -0.148 SA
HETATM    8  C8  UNL     1     -33.947   4.285   4.400  1.00 20.00     0.091 C 
ENDBRANCH   5   7
BRANCH   4   9
HETATM    9  C9  UNL     1     -32.890   8.416   1.933  1.00 20.00    -0.019 C 
HETATM   10  C6  UNL     1     -33.274   9.830   1.488  1.00 20.00     0.010 C 
HETATM   11  C7  UNL     1     -31.722   7.898   1.090  1.00 20.00     0.010 C 
ENDBRANCH   4   9
TORSDOF 2
