REMARK  1 active torsions:
REMARK  status: ('A' for Active; 'I' for Inactive)
REMARK    1  A    between atoms: C3_3  and  C8_8 
ROOT
HETATM    1  C1  UNL     1     -32.369   7.441   2.154  1.00 20.00     0.022 A 
HETATM    2  C2  UNL     1     -33.042   9.488   3.027  1.00 20.00     0.057 A 
HETATM    3  C3  UNL     1     -32.890   8.142   3.280  1.00 20.00    -0.046 A 
HETATM    4  C4  UNL     1     -32.143   8.278   1.083  1.00 20.00    -0.021 A 
HETATM    5  C10 UNL     1     -31.613   7.938  -0.255  1.00 20.00     0.056 C 
HETATM    6  S11 UNL     1     -32.558   9.901   1.437  1.00 20.00    -0.106 SA
ENDROOT
BRANCH   3   7
HETATM    7  C8  UNL     1     -33.235   7.484   4.599  1.00 20.00     0.020 C 
HETATM    8  C5  UNL     1     -33.754   8.458   5.669  1.00 20.00     0.010 C 
HETATM    9  C6  UNL     1     -34.532   7.612   6.682  1.00 20.00     0.016 C 
HETATM   10  C9  UNL     1     -34.727   6.245   6.038  1.00 20.00     0.058 C 
HETATM   11  C7  UNL     1     -34.345   6.421   4.576  1.00 20.00     0.025 C 
HETATM   12 BR12 UNL     1     -33.558   4.925   6.885  1.00 20.00    -0.091 Br
ENDBRANCH   3   7
TORSDOF 1
