REMARK  0 active torsions:
REMARK  status: ('A' for Active; 'I' for Inactive)
ROOT
HETATM    1  C1  UNL     1     -33.681   5.801   2.261  1.00 20.00     0.004 C 
HETATM    2  C2  UNL     1     -33.744   5.023   3.576  1.00 20.00     0.040 C 
HETATM    3  C3  UNL     1     -33.107   7.038   5.057  1.00 20.00     0.041 C 
HETATM    4  C4  UNL     1     -32.428   6.675   2.158  1.00 20.00     0.009 C 
HETATM    5  C5  UNL     1     -33.333   8.192   4.079  1.00 20.00     0.012 C 
HETATM    6  C6  UNL     1     -35.438   5.913   5.338  1.00 20.00     0.207 A 
HETATM    7  C7  UNL     1     -34.037   5.892   4.762  1.00 20.00     0.082 A 
HETATM    8  C8  UNL     1     -32.543   8.104   2.747  1.00 20.00    -0.048 C 
HETATM    9  C9  UNL     1     -31.112   8.643   2.967  1.00 20.00     0.015 C 
HETATM   10  C10 UNL     1     -33.234   9.028   1.721  1.00 20.00     0.015 C 
HETATM   11  O11 UNL     1     -34.391   5.137   5.934  1.00 20.00    -0.375 OA
ENDROOT
TORSDOF 0
