REMARK  1 active torsions:
REMARK  status: ('A' for Active; 'I' for Inactive)
REMARK    1  A    between atoms: C3_3  and  C8_8 
ROOT
HETATM    1  C1  UNL     1     -32.225   7.609   2.449  1.00 20.00     0.022 A 
HETATM    2  C2  UNL     1     -33.151   9.582   3.257  1.00 20.00     0.057 A 
HETATM    3  C3  UNL     1     -32.739   8.308   3.579  1.00 20.00    -0.046 A 
HETATM    4  C4  UNL     1     -32.264   8.376   1.305  1.00 20.00    -0.021 A 
HETATM    5  C10 UNL     1     -31.827   8.014  -0.061  1.00 20.00     0.056 C 
HETATM    6  S11 UNL     1     -32.918   9.931   1.597  1.00 20.00    -0.106 SA
ENDROOT
BRANCH   3   7
HETATM    7  C8  UNL     1     -32.821   7.719   4.968  1.00 20.00     0.020 C 
HETATM    8  C5  UNL     1     -33.968   8.286   5.812  1.00 20.00     0.010 C 
HETATM    9  C6  UNL     1     -34.198   7.209   6.865  1.00 20.00     0.016 C 
HETATM   10  C9  UNL     1     -34.035   5.906   6.098  1.00 20.00     0.058 C 
HETATM   11  C7  UNL     1     -33.001   6.186   5.007  1.00 20.00     0.025 C 
HETATM   12 BR12 UNL     1     -35.740   5.388   5.291  1.00 20.00    -0.091 Br
ENDBRANCH   3   7
TORSDOF 1
