REMARK  1 active torsions:
REMARK  status: ('A' for Active; 'I' for Inactive)
REMARK    1  A    between atoms: C8_8  and  C11_11 
ROOT
HETATM    1  C1  UNL     1     -34.387   5.984   5.954  1.00 20.00     0.064 C 
HETATM    2  C2  UNL     1     -33.271   5.253   3.186  1.00 20.00     0.002 C 
HETATM    3  C3  UNL     1     -34.712   5.640   3.514  1.00 20.00     0.019 C 
HETATM    4  C4  UNL     1     -34.273   7.987   4.500  1.00 20.00     0.019 C 
HETATM    5  C5  UNL     1     -32.558   6.204   2.232  1.00 20.00     0.005 C 
HETATM    6  C6  UNL     1     -32.805   8.038   4.068  1.00 20.00     0.006 C 
HETATM    7  C7  UNL     1     -34.878   6.595   4.702  1.00 20.00     0.093 C 
HETATM    8  C8  UNL     1     -32.514   7.698   2.597  1.00 20.00    -0.011 C 
HETATM    9  N12 UNL     1     -34.001   5.504   6.937  1.00 20.00    -0.197 NA
ENDROOT
BRANCH   8  10
HETATM   10  C11 UNL     1     -33.360   8.524   1.621  1.00 20.00    -0.019 C 
HETATM   11  C9  UNL     1     -33.336   9.997   2.014  1.00 20.00     0.010 C 
HETATM   12  C10 UNL     1     -32.858   8.335   0.194  1.00 20.00     0.010 C 
ENDBRANCH   8  10
TORSDOF 1
