REMARK  0 active torsions:
REMARK  status: ('A' for Active; 'I' for Inactive)
ROOT
HETATM    1  C1  UNL     1     -32.314   7.845   1.573  1.00 20.00     0.064 C 
HETATM    2  C2  UNL     1     -33.983   8.327   4.380  1.00 20.00     0.002 C 
HETATM    3  C3  UNL     1     -32.506   8.326   3.987  1.00 20.00     0.019 C 
HETATM    4  C4  UNL     1     -32.803   5.926   3.026  1.00 20.00     0.020 C 
HETATM    5  C5  UNL     1     -34.286   7.357   5.524  1.00 20.00     0.008 C 
HETATM    6  C6  UNL     1     -33.001   5.389   4.445  1.00 20.00     0.010 C 
HETATM    7  C7  UNL     1     -32.110   7.291   2.928  1.00 20.00     0.093 C 
HETATM    8  C8  UNL     1     -34.284   5.848   5.184  1.00 20.00    -0.048 C 
HETATM    9  C9  UNL     1     -35.554   5.488   4.385  1.00 20.00     0.015 C 
HETATM   10  C10 UNL     1     -34.353   5.071   6.521  1.00 20.00     0.015 C 
HETATM   11  N11 UNL     1     -32.475   8.279   0.509  1.00 20.00    -0.197 NA
ENDROOT
TORSDOF 0
