REMARK  2 active torsions:
REMARK  status: ('A' for Active; 'I' for Inactive)
REMARK    1  A    between atoms: C5_5  and  S11_11 
REMARK    2  A    between atoms: C9_9  and  S11_11 
ROOT
HETATM    1  C1  UNL     1     -33.655   7.131   5.659  1.00 20.00     0.080 C 
HETATM    2  C2  UNL     1     -34.448   4.530   4.375  1.00 20.00     0.005 C 
HETATM    3  C3  UNL     1     -33.496   5.530   3.685  1.00 20.00     0.036 C 
HETATM    4  C4  UNL     1     -35.445   5.694   4.556  1.00 20.00     0.036 C 
HETATM    5  C5  UNL     1     -34.246   6.666   4.425  1.00 20.00     0.097 C 
HETATM    6  N10 UNL     1     -33.181   7.504   6.650  1.00 20.00    -0.196 NA
ENDROOT
BRANCH   5   7
HETATM    7  S11 UNL     1     -34.615   8.083   3.330  1.00 20.00    -0.135 SA
BRANCH   7   8
HETATM    8  C9  UNL     1     -32.903   8.724   3.169  1.00 20.00    -0.001 C 
HETATM    9  C6  UNL     1     -31.927   7.550   3.289  1.00 20.00     0.026 C 
HETATM   10  C7  UNL     1     -32.765   9.392   1.798  1.00 20.00     0.026 C 
HETATM   11  C8  UNL     1     -32.654   9.743   4.285  1.00 20.00     0.026 C 
ENDBRANCH   7   8
ENDBRANCH   5   7
TORSDOF 2
