REMARK  1 active torsions:
REMARK  status: ('A' for Active; 'I' for Inactive)
REMARK    1  A    between atoms: C4_4  and  C8_8 
ROOT
HETATM    1  C5  UNL     1     -32.071   7.876   1.423  1.00 20.00     0.002 C 
HETATM    2  C6  UNL     1     -32.496   6.689   2.292  1.00 20.00     0.011 C 
HETATM    3  C7  UNL     1     -32.769   9.105   2.003  1.00 20.00     0.021 C 
HETATM    4  C8  UNL     1     -33.626   7.218   3.194  1.00 20.00     0.037 C 
HETATM    5  C9  UNL     1     -33.224   8.692   3.400  1.00 20.00     0.090 C 
HETATM    6 CL11 UNL     1     -31.873   8.880   4.563  1.00 20.00    -0.124 Cl
ENDROOT
BRANCH   4   7
HETATM    7  C4  UNL     1     -33.950   6.425   4.444  1.00 20.00    -0.046 A 
HETATM    8  C1  UNL     1     -34.372   5.064   4.434  1.00 20.00     0.015 A 
HETATM    9  C2  UNL     1     -34.601   4.584   5.705  1.00 20.00     0.050 A 
HETATM   10  S10 UNL     1     -34.308   5.773   6.903  1.00 20.00    -0.113 SA
HETATM   11  C3  UNL     1     -33.874   6.934   5.722  1.00 20.00     0.057 A 
ENDBRANCH   4   7
TORSDOF 1
