REMARK  3 active torsions:
REMARK  status: ('A' for Active; 'I' for Inactive)
REMARK    1  A    between atoms: C4_4  and  C9_9 
REMARK    2  A    between atoms: C8_8  and  C9_9 
REMARK    3  A    between atoms: C9_9  and  O10_10 
ROOT
HETATM    1  C9  UNL     1     -32.873   7.987   4.549  1.00 20.00     0.155 C 
ENDROOT
BRANCH   1   2
HETATM    2  C4  UNL     1     -32.788   8.449   3.111  1.00 20.00    -0.022 A 
HETATM    3  C1  UNL     1     -32.922   9.807   2.704  1.00 20.00     0.017 A 
HETATM    4  C2  UNL     1     -32.804   9.952   1.339  1.00 20.00     0.050 A 
HETATM    5  S11 UNL     1     -32.533   8.454   0.555  1.00 20.00    -0.113 SA
HETATM    6  C3  UNL     1     -32.573   7.607   2.042  1.00 20.00     0.059 A 
ENDBRANCH   1   2
BRANCH   1   7
HETATM    7  C8  UNL     1     -34.033   7.043   4.792  1.00 20.00     0.019 C 
HETATM    8  C6  UNL     1     -34.073   6.330   6.168  1.00 20.00     0.007 C 
HETATM    9  C5  UNL     1     -34.617   5.091   5.428  1.00 20.00     0.001 C 
HETATM   10  C7  UNL     1     -33.922   5.631   4.161  1.00 20.00     0.007 C 
ENDBRANCH   1   7
BRANCH   1  11
HETATM   11  O10 UNL     1     -33.027   9.141   5.377  1.00 20.00    -0.391 OA
HETATM   12  H23 UNL     1     -33.845   9.575   5.092  1.00 20.00     0.210 HD
ENDBRANCH   1  11
TORSDOF 3
