REMARK  1 active torsions:
REMARK  status: ('A' for Active; 'I' for Inactive)
REMARK    1  A    between atoms: C2_2  and  C9_9 
ROOT
HETATM    1  C1  UNL     1     -33.232   6.577   3.562  1.00 20.00    -0.004 C 
HETATM    2  C2  UNL     1     -33.887   6.906   4.693  1.00 20.00    -0.078 C 
HETATM    3  C3  UNL     1     -33.498   8.131   5.492  1.00 20.00     0.034 C 
HETATM    4  C4  UNL     1     -32.584   9.104   4.742  1.00 20.00     0.006 C 
HETATM    5  C5  UNL     1     -31.483   8.354   3.998  1.00 20.00     0.024 C 
HETATM    6  C8  UNL     1     -32.062   7.338   3.009  1.00 20.00     0.105 C 
HETATM    7 CL10 UNL     1     -32.593   8.161   1.509  1.00 20.00    -0.121 Cl
ENDROOT
BRANCH   2   8
HETATM    8  C9  UNL     1     -35.033   6.130   5.228  1.00 20.00     0.014 A 
HETATM    9  C6  UNL     1     -34.836   4.674   5.480  1.00 20.00     0.010 A 
HETATM   10  C7  UNL     1     -34.945   5.629   6.630  1.00 20.00     0.010 A 
ENDBRANCH   2   8
TORSDOF 1
