REMARK  1 active torsions:
REMARK  status: ('A' for Active; 'I' for Inactive)
REMARK    1  A    between atoms: C2_2  and  C8_8 
ROOT
HETATM    1  C1  UNL     1     -34.105   7.045   5.089  1.00 20.00    -0.004 C 
HETATM    2  C2  UNL     1     -33.241   6.918   4.074  1.00 20.00    -0.079 C 
HETATM    3  C3  UNL     1     -33.275   5.540   3.491  1.00 20.00     0.036 C 
HETATM    4  C4  UNL     1     -34.565   4.964   4.080  1.00 20.00     0.028 C 
HETATM    5  C5  UNL     1     -34.850   5.777   5.346  1.00 20.00     0.105 C 
HETATM    6 CL9  UNL     1     -34.199   4.983   6.797  1.00 20.00    -0.121 Cl
ENDROOT
BRANCH   2   7
HETATM    7  C8  UNL     1     -32.311   7.953   3.556  1.00 20.00     0.006 C 
HETATM    8  C6  UNL     1     -32.579   8.233   2.076  1.00 20.00     0.014 C 
HETATM    9  C7  UNL     1     -32.410   9.247   4.370  1.00 20.00     0.014 C 
ENDBRANCH   2   7
TORSDOF 1
