REMARK  1 active torsions:
REMARK  status: ('A' for Active; 'I' for Inactive)
REMARK    1  A    between atoms: C2_2  and  C11_11 
ROOT
HETATM    1  C1  UNL     1     -33.349   6.932   4.876  1.00 20.00     0.053 C 
HETATM    2  C2  UNL     1     -32.839   6.712   3.654  1.00 20.00    -0.072 C 
HETATM    3  C3  UNL     1     -34.282   5.956   5.493  1.00 20.00     0.149 C 
HETATM    4  C4  UNL     1     -33.115   5.457   2.866  1.00 20.00     0.035 C 
HETATM    5  C5  UNL     1     -34.717   4.760   4.678  1.00 20.00     0.083 C 
HETATM    6  C6  UNL     1     -33.607   4.309   3.743  1.00 20.00     0.012 C 
HETATM    7  O12 UNL     1     -34.731   6.169   6.618  1.00 20.00    -0.293 OA
ENDROOT
BRANCH   2   8
HETATM    8  C11 UNL     1     -31.940   7.732   2.980  1.00 20.00     0.014 C 
HETATM    9  C9  UNL     1     -32.358   9.125   3.438  1.00 20.00     0.009 C 
HETATM   10  C7  UNL     1     -33.262   9.641   2.327  1.00 20.00     0.001 C 
HETATM   11  C8  UNL     1     -32.612   9.087   1.072  1.00 20.00     0.001 C 
HETATM   12  C10 UNL     1     -32.169   7.683   1.470  1.00 20.00     0.009 C 
ENDBRANCH   2   8
TORSDOF 1
