REMARK  2 active torsions:
REMARK  status: ('A' for Active; 'I' for Inactive)
REMARK    1  A    between atoms: C2_2  and  C9_9 
REMARK    2  A    between atoms: C4_4  and  C9_9 
ROOT
HETATM    1  C1  UNL     1     -33.080   6.096   3.456  1.00 20.00    -0.004 C 
HETATM    2  C2  UNL     1     -34.010   6.307   4.407  1.00 20.00    -0.079 C 
HETATM    3  C5  UNL     1     -34.078   7.622   5.154  1.00 20.00     0.034 C 
HETATM    4  C6  UNL     1     -33.271   8.752   4.509  1.00 20.00     0.006 C 
HETATM    5  C7  UNL     1     -31.901   8.253   4.057  1.00 20.00     0.024 C 
HETATM    6  C8  UNL     1     -32.022   7.089   3.070  1.00 20.00     0.105 C 
HETATM    7 CL10 UNL     1     -32.403   7.699   1.429  1.00 20.00    -0.121 Cl
ENDROOT
BRANCH   2   8
HETATM    8  C9  UNL     1     -35.038   5.305   4.781  1.00 20.00     0.060 C 
BRANCH   8   9
HETATM    9  C4  UNL     1     -34.928   4.903   6.218  1.00 20.00    -0.033 C 
HETATM   10  C3  UNL     1     -33.779   4.895   6.904  1.00 20.00     0.007 C 
ENDBRANCH   8   9
ENDBRANCH   2   8
TORSDOF 2
