REMARK  2 active torsions:
REMARK  status: ('A' for Active; 'I' for Inactive)
REMARK    1  A    between atoms: C4_4  and  C10_10 
REMARK    2  A    between atoms: C9_9  and  C10_10 
ROOT
HETATM    1  C1  UNL     1     -32.210   7.358   2.039  1.00 20.00     0.012 C 
HETATM    2  C2  UNL     1     -32.200   7.958   3.079  1.00 20.00    -0.117 C 
HETATM    3  C9  UNL     1     -32.183   8.694   4.352  1.00 20.00     0.097 C 
ENDROOT
BRANCH   3   4
HETATM    4  C10 UNL     1     -33.514   8.597   5.086  1.00 20.00     0.046 C 
BRANCH   4   5
HETATM    5  C4  UNL     1     -33.831   7.186   5.414  1.00 20.00    -0.081 C 
HETATM    6  C3  UNL     1     -34.574   6.388   4.622  1.00 20.00    -0.004 C 
HETATM    7  C8  UNL     1     -34.920   4.963   4.940  1.00 20.00     0.105 C 
HETATM    8  C7  UNL     1     -34.606   4.576   6.388  1.00 20.00     0.024 C 
HETATM    9 CL11 UNL     1     -34.024   3.905   3.804  1.00 20.00    -0.121 Cl
HETATM   10  C6  UNL     1     -33.265   5.144   6.843  1.00 20.00     0.006 C 
HETATM   11  C5  UNL     1     -33.243   6.668   6.709  1.00 20.00     0.034 C 
ENDBRANCH   4   5
ENDBRANCH   3   4
TORSDOF 2
