REMARK  1 active torsions:
REMARK  status: ('A' for Active; 'I' for Inactive)
REMARK    1  A    between atoms: C3_3  and  C5_5 
ROOT
HETATM    1  C1  UNL     1     -32.364   9.307   0.758  1.00 20.00     0.109 A 
HETATM    2  C2  UNL     1     -32.001   7.998   0.606  1.00 20.00     0.107 A 
HETATM    3  C3  UNL     1     -32.811   8.250   2.651  1.00 20.00     0.113 A 
HETATM    4  C10 UNL     1     -33.363  10.668   2.607  1.00 20.00     0.157 C 
HETATM    5  N11 UNL     1     -32.862   9.434   2.032  1.00 20.00    -0.346 N 
HETATM    6  N12 UNL     1     -32.289   7.368   1.793  1.00 20.00    -0.350 N 
HETATM    7  H27 UNL     1     -32.129   6.383   1.987  1.00 20.00     0.166 HD
ENDROOT
BRANCH   3   8
HETATM    8  C5  UNL     1     -33.247   7.945   4.036  1.00 20.00    -0.016 C 
HETATM    9  C4  UNL     1     -34.212   7.035   4.272  1.00 20.00     0.004 C 
HETATM   10  C9  UNL     1     -34.716   6.684   5.643  1.00 20.00     0.105 C 
HETATM   11  C8  UNL     1     -34.252   7.660   6.728  1.00 20.00     0.024 C 
HETATM   12 CL13 UNL     1     -34.164   5.022   6.027  1.00 20.00    -0.121 Cl
HETATM   13  C7  UNL     1     -32.792   8.061   6.538  1.00 20.00     0.006 C 
HETATM   14  C6  UNL     1     -32.579   8.700   5.162  1.00 20.00     0.042 C 
ENDBRANCH   3   8
TORSDOF 1
