REMARK  1 active torsions:
REMARK  status: ('A' for Active; 'I' for Inactive)
REMARK    1  A    between atoms: C2_2  and  C10_10 
ROOT
HETATM    1  C1  UNL     1     -33.468   7.779   4.467  1.00 20.00    -0.003 C 
HETATM    2  C2  UNL     1     -33.594   6.515   4.019  1.00 20.00    -0.075 C 
HETATM    3  C3  UNL     1     -32.811   6.033   2.816  1.00 20.00     0.034 C 
HETATM    4  C4  UNL     1     -32.189   7.161   1.990  1.00 20.00     0.006 C 
HETATM    5  C5  UNL     1     -31.521   8.189   2.897  1.00 20.00     0.024 C 
HETATM    6  C6  UNL     1     -32.543   8.795   3.861  1.00 20.00     0.105 C 
HETATM    7 CL11 UNL     1     -31.685   9.680   5.155  1.00 20.00    -0.121 Cl
ENDROOT
BRANCH   2   8
HETATM    8  C10 UNL     1     -34.512   5.521   4.627  1.00 20.00    -0.028 C 
HETATM    9  C7  UNL     1     -33.947   4.109   4.413  1.00 20.00     0.019 C 
HETATM   10  C8  UNL     1     -35.899   5.622   3.970  1.00 20.00     0.019 C 
HETATM   11  C9  UNL     1     -34.650   5.793   6.135  1.00 20.00     0.019 C 
ENDBRANCH   2   8
TORSDOF 1
