REMARK  1 active torsions:
REMARK  status: ('A' for Active; 'I' for Inactive)
REMARK    1  A    between atoms: C4_4  and  C6_6 
ROOT
HETATM    1  C5  UNL     1     -32.338   8.063   3.166  1.00 20.00     0.001 C 
HETATM    2  C6  UNL     1     -32.966   6.955   3.593  1.00 20.00    -0.048 C 
HETATM    3  C7  UNL     1     -32.927   5.889   2.532  1.00 20.00     0.041 C 
HETATM    4  C8  UNL     1     -31.835   6.393   1.586  1.00 20.00     0.028 C 
HETATM    5  C9  UNL     1     -31.782   7.906   1.788  1.00 20.00     0.106 C 
HETATM    6 CL11 UNL     1     -32.817   8.762   0.624  1.00 20.00    -0.121 Cl
ENDROOT
BRANCH   2   7
HETATM    7  C4  UNL     1     -33.651   6.765   4.883  1.00 20.00    -0.006 A 
HETATM    8  C1  UNL     1     -34.320   5.612   5.360  1.00 20.00     0.038 A 
HETATM    9  C2  UNL     1     -34.790   5.934   6.612  1.00 20.00     0.142 A 
HETATM   10  O10 UNL     1     -34.454   7.210   6.934  1.00 20.00    -0.334 OA
HETATM   11  C3  UNL     1     -33.761   7.709   5.877  1.00 20.00     0.153 A 
ENDBRANCH   2   7
TORSDOF 1
