REMARK  3 active torsions:
REMARK  status: ('A' for Active; 'I' for Inactive)
REMARK    1  A    between atoms: C4_4  and  C10_10 
REMARK    2  A    between atoms: C8_8  and  O11_11 
REMARK    3  A    between atoms: C9_9  and  C10_10 
ROOT
HETATM    1  C1  UNL     1     -32.189   7.507   2.029  1.00 20.00     0.012 C 
HETATM    2  C2  UNL     1     -32.291   8.096   3.070  1.00 20.00    -0.117 C 
HETATM    3  C9  UNL     1     -32.414   8.819   4.346  1.00 20.00     0.097 C 
ENDROOT
BRANCH   3   4
HETATM    4  C10 UNL     1     -33.746   8.549   5.030  1.00 20.00     0.046 C 
BRANCH   4   5
HETATM    5  C4  UNL     1     -33.896   7.089   5.343  1.00 20.00    -0.080 C 
HETATM    6  C3  UNL     1     -34.508   6.240   4.499  1.00 20.00     0.007 C 
HETATM    7  C8  UNL     1     -34.720   4.784   4.790  1.00 20.00     0.141 C 
HETATM    8  C7  UNL     1     -34.450   4.412   6.252  1.00 20.00     0.036 C 
HETATM    9  C6  UNL     1     -33.195   5.107   6.774  1.00 20.00     0.007 C 
HETATM   10  C5  UNL     1     -33.318   6.629   6.658  1.00 20.00     0.034 C 
BRANCH   7  11
HETATM   11  O11 UNL     1     -33.855   4.042   3.933  1.00 20.00    -0.392 OA
HETATM   12  H25 UNL     1     -34.107   4.267   3.024  1.00 20.00     0.210 HD
ENDBRANCH   7  11
ENDBRANCH   4   5
ENDBRANCH   3   4
TORSDOF 3
