REMARK  1 active torsions:
REMARK  status: ('A' for Active; 'I' for Inactive)
REMARK    1  A    between atoms: C2_2  and  C10_10 
ROOT
HETATM    1  C1  UNL     1     -33.561   6.020   3.690  1.00 20.00    -0.004 C 
HETATM    2  C2  UNL     1     -33.082   7.276   3.779  1.00 20.00    -0.076 C 
HETATM    3  C3  UNL     1     -33.173   8.055   5.075  1.00 20.00     0.034 C 
HETATM    4  C4  UNL     1     -33.509   7.199   6.298  1.00 20.00     0.006 C 
HETATM    5  C5  UNL     1     -34.623   6.206   5.980  1.00 20.00     0.024 C 
HETATM    6  C9  UNL     1     -34.246   5.292   4.810  1.00 20.00     0.105 C 
HETATM    7 CL12 UNL     1     -33.160   3.981   5.368  1.00 20.00    -0.121 Cl
ENDROOT
BRANCH   2   8
HETATM    8  C10 UNL     1     -32.418   7.984   2.649  1.00 20.00     0.040 C 
HETATM    9  C6  UNL     1     -32.380   7.182   1.364  1.00 20.00     0.037 C 
HETATM   10  C7  UNL     1     -32.159   8.264   0.330  1.00 20.00     0.168 C 
HETATM   11  O11 UNL     1     -32.847   9.427   0.806  1.00 20.00    -0.390 OA
HETATM   12  C8  UNL     1     -33.143   9.245   2.200  1.00 20.00     0.176 C 
ENDBRANCH   2   8
TORSDOF 1
