REMARK  1 active torsions:
REMARK  status: ('A' for Active; 'I' for Inactive)
REMARK    1  A    between atoms: C2_2  and  C8_8 
ROOT
HETATM    1  C1  UNL     1     -34.863   5.904   4.879  1.00 20.00     0.018 C 
HETATM    2  C2  UNL     1     -34.006   7.092   4.432  1.00 20.00     0.034 C 
HETATM    3  C3  UNL     1     -34.257   4.706   4.129  1.00 20.00     0.122 C 
HETATM    4  C4  UNL     1     -33.680   6.665   2.999  1.00 20.00     0.123 C 
HETATM    5  C5  UNL     1     -35.071   5.734   6.376  1.00 20.00     0.013 C 
HETATM    6  C6  UNL     1     -33.392   3.749   4.934  1.00 20.00     0.040 C 
HETATM    7  C7  UNL     1     -32.492   7.339   2.337  1.00 20.00     0.040 C 
HETATM    8  O9  UNL     1     -33.454   5.248   3.062  1.00 20.00    -0.381 OA
ENDROOT
BRANCH   2   9
HETATM    9  C8  UNL     1     -32.775   7.350   5.303  1.00 20.00     0.122 C 
HETATM   10 CL10 UNL     1     -32.199   9.008   5.065  1.00 20.00    -0.130 Cl
ENDBRANCH   2   9
TORSDOF 1
