REMARK  1 active torsions:
REMARK  status: ('A' for Active; 'I' for Inactive)
REMARK    1  A    between atoms: C2_2  and  C10_10 
ROOT
HETATM    1  C1  UNL     1     -34.257   7.464   4.993  1.00 20.00    -0.003 C 
HETATM    2  C2  UNL     1     -33.369   7.576   3.989  1.00 20.00    -0.075 C 
HETATM    3  C3  UNL     1     -33.053   6.426   3.066  1.00 20.00     0.034 C 
HETATM    4  C4  UNL     1     -33.574   5.073   3.558  1.00 20.00     0.006 C 
HETATM    5  C5  UNL     1     -34.984   5.199   4.131  1.00 20.00     0.024 C 
HETATM    6  C6  UNL     1     -35.042   6.216   5.276  1.00 20.00     0.105 C 
HETATM    7 CL11 UNL     1     -34.415   5.491   6.790  1.00 20.00    -0.121 Cl
ENDROOT
BRANCH   2   8
HETATM    8  C10 UNL     1     -32.638   8.858   3.719  1.00 20.00    -0.028 C 
HETATM    9  C7  UNL     1     -31.708   8.667   2.512  1.00 20.00     0.019 C 
HETATM   10  C8  UNL     1     -31.805   9.251   4.950  1.00 20.00     0.019 C 
HETATM   11  C9  UNL     1     -33.647   9.977   3.416  1.00 20.00     0.019 C 
ENDBRANCH   2   8
TORSDOF 1
