REMARK  1 active torsions:
REMARK  status: ('A' for Active; 'I' for Inactive)
REMARK    1  A    between atoms: C2_2  and  C8_8 
ROOT
HETATM    1  C1  UNL     1     -32.750   8.149   4.188  1.00 20.00     0.053 C 
HETATM    2  C2  UNL     1     -32.827   7.159   3.285  1.00 20.00    -0.072 C 
HETATM    3  C3  UNL     1     -33.134   7.914   5.601  1.00 20.00     0.150 C 
HETATM    4  C4  UNL     1     -33.339   5.780   3.622  1.00 20.00     0.043 C 
HETATM    5  C5  UNL     1     -33.534   6.517   6.024  1.00 20.00     0.092 C 
HETATM    6  C9  UNL     1     -34.216   5.729   4.893  1.00 20.00    -0.037 C 
HETATM    7  C10 UNL     1     -35.617   6.311   4.607  1.00 20.00     0.015 C 
HETATM    8  C11 UNL     1     -34.389   4.263   5.329  1.00 20.00     0.015 C 
HETATM    9  O12 UNL     1     -33.065   8.837   6.411  1.00 20.00    -0.293 OA
ENDROOT
BRANCH   2  10
HETATM   10  C8  UNL     1     -32.388   7.366   1.865  1.00 20.00     0.014 A 
HETATM   11  C6  UNL     1     -32.613   8.705   1.253  1.00 20.00     0.010 A 
HETATM   12  C7  UNL     1     -31.227   8.265   1.617  1.00 20.00     0.010 A 
ENDBRANCH   2  10
TORSDOF 1
