REMARK  0 active torsions:
REMARK  status: ('A' for Active; 'I' for Inactive)
ROOT
HETATM    1  C1  UNL     1     -33.711   5.546   3.777  1.00 20.00     0.067 C 
HETATM    2  C2  UNL     1     -34.563   6.432   4.589  1.00 20.00     0.127 C 
HETATM    3  C3  UNL     1     -34.227   7.912   4.411  1.00 20.00     0.030 C 
HETATM    4  C4  UNL     1     -34.319   6.281   6.091  1.00 20.00     0.136 C 
HETATM    5  C5  UNL     1     -33.080   8.145   5.406  1.00 20.00     0.123 C 
HETATM    6  C6  UNL     1     -34.007   8.396   2.985  1.00 20.00     0.014 C 
HETATM    7  C7  UNL     1     -34.101   4.871   6.612  1.00 20.00     0.041 C 
HETATM    8  C8  UNL     1     -31.668   8.128   4.838  1.00 20.00     0.040 C 
HETATM    9  N9  UNL     1     -33.040   4.848   3.138  1.00 20.00    -0.197 NA
HETATM   10  O10 UNL     1     -33.174   7.096   6.393  1.00 20.00    -0.380 OA
ENDROOT
TORSDOF 0
