REMARK  4 active torsions:
REMARK  status: ('A' for Active; 'I' for Inactive)
REMARK    1  A    between atoms: C2_2  and  C8_8 
REMARK    2  A    between atoms: C8_8  and  C11_11 
REMARK    3  A    between atoms: C9_9  and  C10_10 
REMARK    4  A    between atoms: C10_10  and  C11_11 
ROOT
HETATM    1  C1  UNL     1     -34.364   5.379   4.299  1.00 20.00    -0.004 C 
HETATM    2  C2  UNL     1     -34.391   6.646   4.732  1.00 20.00    -0.082 C 
HETATM    3  C3  UNL     1     -34.382   6.715   6.228  1.00 20.00     0.036 C 
HETATM    4  C4  UNL     1     -34.721   5.277   6.627  1.00 20.00     0.028 C 
HETATM    5  C5  UNL     1     -34.334   4.406   5.430  1.00 20.00     0.105 C 
HETATM    6 CL12 UNL     1     -32.695   3.741   5.605  1.00 20.00    -0.121 Cl
ENDROOT
BRANCH   2   7
HETATM    7  C8  UNL     1     -34.393   7.877   3.902  1.00 20.00     0.038 C 
BRANCH   7   8
HETATM    8  C11 UNL     1     -33.000   8.483   3.639  1.00 20.00    -0.015 C 
HETATM    9  C7  UNL     1     -32.477   9.229   4.873  1.00 20.00     0.010 C 
BRANCH   8  10
HETATM   10  C10 UNL     1     -32.939   9.410   2.407  1.00 20.00     0.004 C 
BRANCH  10  11
HETATM   11  C9  UNL     1     -32.948   8.657   1.074  1.00 20.00    -0.004 C 
HETATM   12  C6  UNL     1     -32.868   9.616  -0.104  1.00 20.00     0.005 C 
ENDBRANCH  10  11
ENDBRANCH   8  10
ENDBRANCH   7   8
ENDBRANCH   2   7
TORSDOF 4
