REMARK  2 active torsions:
REMARK  status: ('A' for Active; 'I' for Inactive)
REMARK    1  A    between atoms: C4_4  and  C9_9 
REMARK    2  A    between atoms: C8_8  and  O10_10 
ROOT
HETATM    1  C1  UNL     1     -33.366  10.094   1.637  1.00 20.00     0.012 C 
HETATM    2  C2  UNL     1     -33.006   9.505   2.619  1.00 20.00    -0.113 C 
HETATM    3  C9  UNL     1     -32.555   8.804   3.820  1.00 20.00     0.127 C 
ENDROOT
BRANCH   3   4
HETATM    4  C4  UNL     1     -33.202   7.452   3.887  1.00 20.00    -0.070 C 
HETATM    5  C3  UNL     1     -34.366   7.253   4.531  1.00 20.00     0.008 C 
HETATM    6  C8  UNL     1     -35.028   5.911   4.649  1.00 20.00     0.141 C 
HETATM    7  C7  UNL     1     -34.103   4.751   4.275  1.00 20.00     0.036 C 
HETATM    8  C6  UNL     1     -33.314   5.066   3.012  1.00 20.00     0.007 C 
HETATM    9  C5  UNL     1     -32.470   6.331   3.192  1.00 20.00     0.035 C 
BRANCH   6  10
HETATM   10  O10 UNL     1     -35.471   5.737   5.992  1.00 20.00    -0.392 OA
HETATM   11  H22 UNL     1     -35.893   4.865   6.033  1.00 20.00     0.210 HD
ENDBRANCH   6  10
ENDBRANCH   3   4
TORSDOF 2
