REMARK  0 active torsions:
REMARK  status: ('A' for Active; 'I' for Inactive)
ROOT
HETATM    1  C1  UNL     1     -34.130   4.993   4.920  1.00 20.00     0.019 A 
HETATM    2  C2  UNL     1     -34.647   4.911   6.194  1.00 20.00     0.050 A 
HETATM    3  C3  UNL     1     -33.934   7.197   5.631  1.00 20.00     0.061 A 
HETATM    4  C4  UNL     1     -33.716   6.317   4.594  1.00 20.00    -0.023 A 
HETATM    5  C5  UNL     1     -32.743   7.928   2.995  1.00 20.00     0.058 A 
HETATM    6  C6  UNL     1     -33.151   6.707   3.365  1.00 20.00    -0.043 A 
HETATM    7  C7  UNL     1     -32.231   7.803   1.624  1.00 20.00     0.150 A 
HETATM    8  C8  UNL     1     -32.954   5.663   2.297  1.00 20.00     0.047 A 
HETATM    9  C9  UNL     1     -32.335   6.400   1.116  1.00 20.00     0.087 A 
HETATM   10  O10 UNL     1     -31.779   8.746   0.991  1.00 20.00    -0.293 OA
HETATM   11  S11 UNL     1     -34.634   6.427   6.991  1.00 20.00    -0.113 SA
ENDROOT
TORSDOF 0
