REMARK  0 active torsions:
REMARK  status: ('A' for Active; 'I' for Inactive)
ROOT
HETATM    1  C1  UNL     1     -33.777   4.893   3.893  1.00 20.00     0.067 C 
HETATM    2  C2  UNL     1     -33.986   6.338   4.018  1.00 20.00     0.127 C 
HETATM    3  C3  UNL     1     -32.692   7.141   4.020  1.00 20.00     0.030 C 
HETATM    4  C4  UNL     1     -34.640   6.780   5.330  1.00 20.00     0.136 C 
HETATM    5  C5  UNL     1     -33.174   8.465   4.610  1.00 20.00     0.123 C 
HETATM    6  C6  UNL     1     -32.051   7.293   2.647  1.00 20.00     0.014 C 
HETATM    7  C7  UNL     1     -34.277   5.967   6.571  1.00 20.00     0.041 C 
HETATM    8  C8  UNL     1     -32.082   9.263   5.298  1.00 20.00     0.040 C 
HETATM    9  N9  UNL     1     -33.612   3.749   3.794  1.00 20.00    -0.197 NA
HETATM   10  O10 UNL     1     -34.192   8.131   5.569  1.00 20.00    -0.380 OA
ENDROOT
TORSDOF 0
