REMARK  2 active torsions:
REMARK  status: ('A' for Active; 'I' for Inactive)
REMARK    1  A    between atoms: C3_3  and  C8_8 
REMARK    2  A    between atoms: C8_8  and  C9_9 
ROOT
HETATM    1  C1  UNL     1     -34.009   7.107   5.406  1.00 20.00     0.044 A 
HETATM    2  C2  UNL     1     -34.071   5.791   5.000  1.00 20.00     0.005 A 
HETATM    3  C3  UNL     1     -33.004   7.312   3.468  1.00 20.00     0.081 A 
HETATM    4  C4  UNL     1     -34.530   7.650   6.678  1.00 20.00     0.071 C 
HETATM    5  C5  UNL     1     -34.644   4.611   5.680  1.00 20.00     0.058 C 
HETATM    6  N10 UNL     1     -33.397   7.981   4.529  1.00 20.00    -0.249 NA
HETATM    7  S11 UNL     1     -33.338   5.629   3.458  1.00 20.00    -0.077 SA
ENDROOT
BRANCH   3   8
HETATM    8  C8  UNL     1     -32.284   7.932   2.276  1.00 20.00     0.059 C 
HETATM    9  C6  UNL     1     -30.918   8.465   2.740  1.00 20.00     0.018 C 
BRANCH   8  10
HETATM   10  C9  UNL     1     -33.137   9.017   1.568  1.00 20.00     0.088 C 
HETATM   11  C7  UNL     1     -32.643   9.340   0.158  1.00 20.00     0.027 C 
HETATM   12 CL12 UNL     1     -33.127  10.550   2.510  1.00 20.00    -0.125 Cl
ENDBRANCH   8  10
ENDBRANCH   3   8
TORSDOF 2
