REMARK  1 active torsions:
REMARK  status: ('A' for Active; 'I' for Inactive)
REMARK    1  A    between atoms: C2_2  and  C9_9 
ROOT
HETATM    1  C1  UNL     1     -32.839   6.498   3.512  1.00 20.00    -0.004 C 
HETATM    2  C2  UNL     1     -33.916   6.807   4.246  1.00 20.00    -0.076 C 
HETATM    3  C3  UNL     1     -34.077   8.289   4.388  1.00 20.00     0.036 C 
HETATM    4  C4  UNL     1     -32.715   8.815   3.933  1.00 20.00     0.028 C 
HETATM    5  C8  UNL     1     -32.113   7.719   3.050  1.00 20.00     0.105 C 
HETATM    6 CL11 UNL     1     -32.452   8.002   1.329  1.00 20.00    -0.121 Cl
ENDROOT
BRANCH   2   7
HETATM    7  C9  UNL     1     -34.901   5.854   4.850  1.00 20.00     0.040 C 
HETATM    8  C5  UNL     1     -34.518   4.403   4.638  1.00 20.00     0.037 C 
HETATM    9  C6  UNL     1     -33.573   4.127   5.791  1.00 20.00     0.168 C 
HETATM   10  O10 UNL     1     -33.962   4.993   6.865  1.00 20.00    -0.390 OA
HETATM   11  C7  UNL     1     -34.912   5.950   6.368  1.00 20.00     0.176 C 
ENDBRANCH   2   7
TORSDOF 1
