REMARK  2 active torsions:
REMARK  status: ('A' for Active; 'I' for Inactive)
REMARK    1  A    between atoms: C4_4  and  C5_5 
REMARK    2  A    between atoms: C4_4  and  C6_6 
ROOT
HETATM    1  C1  UNL     1     -32.464   7.774   2.957  1.00 20.00     0.063 C 
HETATM    2  C2  UNL     1     -32.305   9.348   4.833  1.00 20.00     0.025 C 
HETATM    3  C5  UNL     1     -33.131   8.231   4.191  1.00 20.00     0.090 C 
HETATM    4  N7  UNL     1     -31.940   7.415   1.985  1.00 20.00    -0.197 NA
ENDROOT
BRANCH   3   5
HETATM    5  C4  UNL     1     -33.316   7.069   5.189  1.00 20.00     0.034 C 
BRANCH   5   6
HETATM    6  C6  UNL     1     -34.461   6.105   4.853  1.00 20.00     0.055 C 
HETATM    7  C3  UNL     1     -34.076   5.151   3.731  1.00 20.00     0.022 C 
HETATM    8 BR8  UNL     1     -34.916   5.024   6.426  1.00 20.00    -0.092 Br
ENDBRANCH   5   6
ENDBRANCH   3   5
TORSDOF 2
