REMARK  0 active torsions:
REMARK  status: ('A' for Active; 'I' for Inactive)
ROOT
HETATM    1  C1  UNL     1     -34.343   4.357   4.497  1.00 20.00     0.064 C 
HETATM    2  C2  UNL     1     -34.889   5.686   6.521  1.00 20.00     0.020 C 
HETATM    3  C3  UNL     1     -34.069   6.953   6.776  1.00 20.00     0.017 C 
HETATM    4  C4  UNL     1     -34.400   6.832   4.422  1.00 20.00     0.035 C 
HETATM    5  C5  UNL     1     -35.032   5.559   4.994  1.00 20.00     0.094 C 
HETATM    6  C6  UNL     1     -33.360   7.215   5.462  1.00 20.00     0.059 C 
HETATM    7  N7  UNL     1     -33.799   3.409   4.106  1.00 20.00    -0.197 NA
HETATM    8 BR8  UNL     1     -32.830   9.065   5.292  1.00 20.00    -0.091 Br
ENDROOT
TORSDOF 0
