REMARK  3 active torsions:
REMARK  status: ('A' for Active; 'I' for Inactive)
REMARK    1  A    between atoms: C4_4  and  C5_5 
REMARK    2  A    between atoms: C5_5  and  C7_7 
REMARK    3  A    between atoms: C6_6  and  C7_7 
ROOT
HETATM    1  C1  UNL     1     -32.493   8.698   0.352  1.00 20.00     0.059 C 
HETATM    2  C4  UNL     1     -32.128   7.617   1.279  1.00 20.00     0.125 C 
HETATM    3  N8  UNL     1     -32.780   9.550  -0.380  1.00 20.00    -0.197 NA
ENDROOT
BRANCH   2   4
HETATM    4  C5  UNL     1     -32.944   7.706   2.573  1.00 20.00     0.034 C 
BRANCH   4   5
HETATM    5  C7  UNL     1     -32.587   6.609   3.593  1.00 20.00     0.086 C 
HETATM    6 CL9  UNL     1     -32.756   4.987   2.844  1.00 20.00    -0.125 Cl
BRANCH   5   7
HETATM    7  C6  UNL     1     -33.414   6.720   4.900  1.00 20.00    -0.004 C 
HETATM    8  C2  UNL     1     -33.195   8.067   5.600  1.00 20.00     0.011 C 
HETATM    9  C3  UNL     1     -34.915   6.471   4.717  1.00 20.00     0.011 C 
ENDBRANCH   5   7
ENDBRANCH   4   5
ENDBRANCH   2   4
TORSDOF 3
