REMARK  1 active torsions:
REMARK  status: ('A' for Active; 'I' for Inactive)
REMARK    1  A    between atoms: C4_4  and  C7_7 
ROOT
HETATM    1  C1  UNL     1     -32.676   8.590   3.743  1.00 20.00     0.034 A 
HETATM    2  C2  UNL     1     -33.530   8.099   4.772  1.00 20.00     0.026 A 
HETATM    3  C3  UNL     1     -32.389   7.623   2.804  1.00 20.00    -0.019 A 
HETATM    4  C4  UNL     1     -33.864   6.776   4.581  1.00 20.00     0.018 A 
HETATM    5  C5  UNL     1     -31.546   7.737   1.594  1.00 20.00     0.056 C 
HETATM    6  S8  UNL     1     -33.148   6.131   3.165  1.00 20.00    -0.097 SA
HETATM    7 BR10 UNL     1     -34.100   9.189   6.200  1.00 20.00    -0.050 Br
ENDROOT
BRANCH   4   8
HETATM    8  C7  UNL     1     -34.720   5.898   5.411  1.00 20.00     0.119 C 
HETATM    9  C6  UNL     1     -34.225   5.691   6.852  1.00 20.00     0.032 C 
HETATM   10 CL9  UNL     1     -34.918   4.289   4.630  1.00 20.00    -0.120 Cl
ENDBRANCH   4   8
TORSDOF 1
