REMARK  0 active torsions:
REMARK  status: ('A' for Active; 'I' for Inactive)
ROOT
HETATM    1  C1  UNL     1     -33.962   7.909   5.602  1.00 20.00     0.064 C 
HETATM    2  C2  UNL     1     -33.772   5.590   6.474  1.00 20.00     0.021 C 
HETATM    3  C3  UNL     1     -34.092   4.332   5.671  1.00 20.00     0.021 C 
HETATM    4  C4  UNL     1     -35.374   6.077   4.680  1.00 20.00     0.039 C 
HETATM    5  C5  UNL     1     -34.705   6.682   5.925  1.00 20.00     0.094 C 
HETATM    6  C6  UNL     1     -34.541   4.851   4.312  1.00 20.00     0.083 C 
HETATM    7  N7  UNL     1     -33.375   8.877   5.347  1.00 20.00    -0.197 NA
HETATM    8 CL8  UNL     1     -33.138   5.308   3.306  1.00 20.00    -0.125 Cl
ENDROOT
TORSDOF 0
