REMARK  0 active torsions:
REMARK  status: ('A' for Active; 'I' for Inactive)
ROOT
HETATM    1  C1  UNL     1     -32.741   8.695   4.985  1.00 20.00     0.095 C 
HETATM    2  C2  UNL     1     -34.438   7.015   4.539  1.00 20.00     0.011 C 
HETATM    3  C3  UNL     1     -33.498   7.551   5.327  1.00 20.00     0.020 C 
HETATM    4  C4  UNL     1     -33.340   6.783   6.601  1.00 20.00     0.051 C 
HETATM    5  C5  UNL     1     -34.605   5.922   6.623  1.00 20.00     0.029 C 
HETATM    6  C6  UNL     1     -35.059   5.808   5.165  1.00 20.00     0.106 C 
HETATM    7  N7  UNL     1     -32.119   9.633   4.704  1.00 20.00    -0.192 NA
HETATM    8 CL8  UNL     1     -34.424   4.339   4.392  1.00 20.00    -0.121 Cl
ENDROOT
TORSDOF 0
