REMARK  2 active torsions:
REMARK  status: ('A' for Active; 'I' for Inactive)
REMARK    1  A    between atoms: C4_4  and  C5_5 
REMARK    2  A    between atoms: C4_4  and  C6_6 
ROOT
HETATM    1  C1  UNL     1     -32.462   7.308   3.843  1.00 20.00     0.063 C 
HETATM    2  C2  UNL     1     -33.503   8.847   5.447  1.00 20.00     0.025 C 
HETATM    3  C5  UNL     1     -33.295   7.381   5.059  1.00 20.00     0.090 C 
HETATM    4  N7  UNL     1     -31.806   7.248   2.888  1.00 20.00    -0.197 NA
ENDROOT
BRANCH   3   5
HETATM    5  C4  UNL     1     -34.659   6.694   4.845  1.00 20.00     0.038 C 
BRANCH   5   6
HETATM    6  C6  UNL     1     -34.656   5.166   5.026  1.00 20.00     0.079 C 
HETATM    7  C3  UNL     1     -34.154   4.782   6.414  1.00 20.00     0.026 C 
HETATM    8 CL8  UNL     1     -33.619   4.376   3.800  1.00 20.00    -0.125 Cl
ENDBRANCH   5   6
ENDBRANCH   3   5
TORSDOF 2
