REMARK  2 active torsions:
REMARK  status: ('A' for Active; 'I' for Inactive)
REMARK    1  A    between atoms: C5_5  and  C6_6 
REMARK    2  A    between atoms: C5_5  and  C7_7 
ROOT
HETATM    1  C1  UNL     1     -33.889   5.222   3.591  1.00 20.00     0.068 C 
HETATM    2  C3  UNL     1     -36.125   5.895   4.299  1.00 20.00     0.031 C 
HETATM    3  C4  UNL     1     -34.363   5.405   6.000  1.00 20.00     0.031 C 
HETATM    4  C7  UNL     1     -34.618   6.010   4.612  1.00 20.00     0.043 C 
HETATM    5  N8  UNL     1     -33.329   4.597   2.789  1.00 20.00    -0.196 NA
ENDROOT
BRANCH   4   6
HETATM    6  C5  UNL     1     -34.225   7.515   4.548  1.00 20.00     0.043 C 
BRANCH   6   7
HETATM    7  C6  UNL     1     -32.747   7.875   4.293  1.00 20.00     0.080 C 
HETATM    8  C2  UNL     1     -32.464   9.314   4.723  1.00 20.00     0.026 C 
HETATM    9 CL9  UNL     1     -32.292   7.705   2.574  1.00 20.00    -0.125 Cl
ENDBRANCH   6   7
ENDBRANCH   4   6
TORSDOF 2
