REMARK  1 active torsions:
REMARK  status: ('A' for Active; 'I' for Inactive)
REMARK    1  A    between atoms: C6_6  and  O11_11 
ROOT
HETATM    1  C1  UNL     1     -32.225   9.171   5.142  1.00 20.00     0.095 C 
HETATM    2  C2  UNL     1     -34.128   7.753   5.411  1.00 20.00     0.022 C 
HETATM    3  C3  UNL     1     -32.934   7.972   4.834  1.00 20.00     0.021 C 
HETATM    4  C4  UNL     1     -32.321   6.992   3.860  1.00 20.00     0.058 C 
HETATM    5  C5  UNL     1     -34.204   5.421   4.415  1.00 20.00     0.045 C 
HETATM    6  C6  UNL     1     -34.959   6.529   5.159  1.00 20.00     0.143 C 
HETATM    7  C7  UNL     1     -33.319   5.962   3.273  1.00 20.00    -0.041 C 
HETATM    8  C8  UNL     1     -34.181   6.610   2.171  1.00 20.00     0.015 C 
HETATM    9  C9  UNL     1     -32.535   4.797   2.643  1.00 20.00     0.015 C 
HETATM   10  N10 UNL     1     -31.649  10.146   5.392  1.00 20.00    -0.192 NA
ENDROOT
BRANCH   6  11
HETATM   11  O11 UNL     1     -35.409   6.021   6.413  1.00 20.00    -0.392 OA
HETATM   12  H24 UNL     1     -35.941   5.234   6.217  1.00 20.00     0.210 HD
ENDBRANCH   6  11
TORSDOF 1
