REMARK  0 active torsions:
REMARK  status: ('A' for Active; 'I' for Inactive)
ROOT
HETATM    1  C1  UNL     1     -32.591   8.375   5.167  1.00 20.00     0.064 C 
HETATM    2  C2  UNL     1     -34.134   6.702   6.185  1.00 20.00     0.021 C 
HETATM    3  C3  UNL     1     -35.294   6.154   5.355  1.00 20.00     0.021 C 
HETATM    4  C4  UNL     1     -33.511   6.499   3.824  1.00 20.00     0.039 C 
HETATM    5  C5  UNL     1     -32.989   6.962   5.192  1.00 20.00     0.094 C 
HETATM    6  C6  UNL     1     -34.635   5.518   4.138  1.00 20.00     0.083 C 
HETATM    7  N7  UNL     1     -32.278   9.492   5.148  1.00 20.00    -0.197 NA
HETATM    8 CL8  UNL     1     -33.981   3.904   4.537  1.00 20.00    -0.125 Cl
ENDROOT
TORSDOF 0
