REMARK  2 active torsions:
REMARK  status: ('A' for Active; 'I' for Inactive)
REMARK    1  A    between atoms: C4_4  and  C5_5 
REMARK    2  A    between atoms: C4_4  and  C6_6 
ROOT
HETATM    1  C1  UNL     1     -32.616   7.750   2.812  1.00 20.00     0.063 C 
HETATM    2  C2  UNL     1     -32.283   9.427   4.573  1.00 20.00     0.025 C 
HETATM    3  C5  UNL     1     -33.156   8.269   4.083  1.00 20.00     0.090 C 
HETATM    4  N7  UNL     1     -32.194   7.341   1.811  1.00 20.00    -0.197 NA
ENDROOT
BRANCH   3   5
HETATM    5  C4  UNL     1     -33.219   7.165   5.157  1.00 20.00     0.038 C 
BRANCH   5   6
HETATM    6  C6  UNL     1     -34.389   6.175   5.009  1.00 20.00     0.079 C 
HETATM    7  C3  UNL     1     -34.108   5.160   3.906  1.00 20.00     0.026 C 
HETATM    8 CL8  UNL     1     -34.685   5.295   6.539  1.00 20.00    -0.125 Cl
ENDBRANCH   5   6
ENDBRANCH   3   5
TORSDOF 2
