REMARK  3 active torsions:
REMARK  status: ('A' for Active; 'I' for Inactive)
REMARK    1  A    between atoms: C3_3  and  C7_7 
REMARK    2  A    between atoms: C3_3  and  C10_10 
REMARK    3  A    between atoms: C8_8  and  C11_11 
ROOT
HETATM    1  C1  UNL     1     -34.379   4.859   6.842  1.00 20.00     0.012 C 
HETATM    2  C2  UNL     1     -34.109   5.800   6.146  1.00 20.00    -0.110 C 
HETATM    3  C10 UNL     1     -33.785   6.955   5.302  1.00 20.00     0.171 C 
ENDROOT
BRANCH   3   4
HETATM    4  C3  UNL     1     -33.057   6.560   4.032  1.00 20.00     0.142 C 
HETATM    5  O12 UNL     1     -33.241   5.488   3.457  1.00 20.00    -0.297 OA
BRANCH   4   6
HETATM    6  C7  UNL     1     -32.068   7.574   3.487  1.00 20.00     0.057 C 
HETATM    7  C4  UNL     1     -32.569   8.985   3.800  1.00 20.00     0.013 C 
HETATM    8  C5  UNL     1     -32.700   9.687   2.451  1.00 20.00     0.005 C 
HETATM    9  C8  UNL     1     -32.974   8.552   1.472  1.00 20.00    -0.014 C 
HETATM   10  C6  UNL     1     -32.032   7.453   1.966  1.00 20.00     0.016 C 
BRANCH   9  11
HETATM   11  C11 UNL     1     -32.732   8.940   0.023  1.00 20.00     0.000 C 
HETATM   12  C9  UNL     1     -32.964   7.793  -0.910  1.00 20.00     0.005 C 
ENDBRANCH   9  11
ENDBRANCH   4   6
ENDBRANCH   3   4
TORSDOF 3
