REMARK  3 active torsions:
REMARK  status: ('A' for Active; 'I' for Inactive)
REMARK    1  A    between atoms: C6_6  and  C10_10 
REMARK    2  A    between atoms: C7_7  and  C11_11 
REMARK    3  A    between atoms: C11_11  and  C12_12 
ROOT
HETATM    1  C1  UNL     1     -32.578   6.635   2.665  1.00 20.00     0.069 C 
HETATM    2  C2  UNL     1     -32.548   7.341   5.683  1.00 20.00     0.006 C 
HETATM    3  C3  UNL     1     -34.774   7.732   4.559  1.00 20.00     0.006 C 
HETATM    4  C4  UNL     1     -31.838   8.073   4.541  1.00 20.00     0.025 C 
HETATM    5  C5  UNL     1     -34.071   8.465   3.413  1.00 20.00     0.025 C 
HETATM    6  C6  UNL     1     -33.986   7.839   5.869  1.00 20.00    -0.015 C 
HETATM    7  C7  UNL     1     -32.610   8.014   3.207  1.00 20.00     0.049 C 
HETATM    8  N13 UNL     1     -32.552   5.556   2.240  1.00 20.00    -0.196 NA
ENDROOT
BRANCH   7   9
HETATM    9  C11 UNL     1     -31.931   8.942   2.184  1.00 20.00     0.024 C 
BRANCH   9  10
HETATM   10  C12 UNL     1     -32.636   8.873   0.839  1.00 20.00    -0.003 C 
HETATM   11  C9  UNL     1     -31.979   9.807  -0.165  1.00 20.00     0.005 C 
ENDBRANCH   9  10
ENDBRANCH   7   9
BRANCH   6  12
HETATM   12  C10 UNL     1     -34.685   7.064   6.984  1.00 20.00     0.000 C 
HETATM   13  C8  UNL     1     -34.781   5.608   6.667  1.00 20.00     0.005 C 
ENDBRANCH   6  12
TORSDOF 3
