REMARK  2 active torsions:
REMARK  status: ('A' for Active; 'I' for Inactive)
REMARK    1  A    between atoms: C6_6  and  C10_10 
REMARK    2  A    between atoms: C7_7  and  C11_11 
ROOT
HETATM    1  C1  UNL     1     -35.187   6.096   4.437  1.00 20.00     0.069 C 
HETATM    2  C2  UNL     1     -33.373   8.453   5.045  1.00 20.00     0.002 C 
HETATM    3  C3  UNL     1     -33.094   8.426   3.542  1.00 20.00     0.005 C 
HETATM    4  C4  UNL     1     -33.312   7.073   5.712  1.00 20.00     0.024 C 
HETATM    5  C5  UNL     1     -32.898   5.894   3.495  1.00 20.00     0.029 C 
HETATM    6  C6  UNL     1     -32.222   7.236   3.146  1.00 20.00    -0.013 C 
HETATM    7  C7  UNL     1     -33.755   5.924   4.788  1.00 20.00     0.049 C 
HETATM    8  N12 UNL     1     -36.306   6.230   4.163  1.00 20.00    -0.196 NA
ENDROOT
BRANCH   7   9
HETATM    9  C11 UNL     1     -33.614   4.584   5.530  1.00 20.00     0.020 C 
HETATM   10  C9  UNL     1     -34.436   4.566   6.772  1.00 20.00     0.007 C 
ENDBRANCH   7   9
BRANCH   6  11
HETATM   11  C10 UNL     1     -31.860   7.288   1.662  1.00 20.00     0.000 C 
HETATM   12  C8  UNL     1     -31.151   8.554   1.313  1.00 20.00     0.005 C 
ENDBRANCH   6  11
TORSDOF 2
