REMARK  5 active torsions:
REMARK  status: ('A' for Active; 'I' for Inactive)
REMARK    1  A    between atoms: C6_6  and  C8_8 
REMARK    2  A    between atoms: C7_7  and  C11_11 
REMARK    3  A    between atoms: C8_8  and  C10_10 
REMARK    4  A    between atoms: C9_9  and  C10_10 
REMARK    5  A    between atoms: C9_9  and  C11_11 
ROOT
HETATM    1  C1  UNL     1     -33.745   5.619   3.582  1.00 20.00     0.069 C 
HETATM    2  C5  UNL     1     -35.943   5.951   4.634  1.00 20.00     0.031 C 
HETATM    3  C11 UNL     1     -34.500   6.481   4.523  1.00 20.00     0.045 C 
HETATM    4  N12 UNL     1     -33.150   4.939   2.853  1.00 20.00    -0.196 NA
ENDROOT
BRANCH   3   5
HETATM    5  C7  UNL     1     -33.849   6.352   5.935  1.00 20.00     0.020 C 
HETATM    6  C3  UNL     1     -34.501   7.178   7.041  1.00 20.00     0.007 C 
ENDBRANCH   3   5
BRANCH   3   7
HETATM    7  C9  UNL     1     -34.472   7.966   4.057  1.00 20.00     0.028 C 
BRANCH   7   8
HETATM    8  C10 UNL     1     -33.101   8.655   3.809  1.00 20.00    -0.017 C 
HETATM    9  C4  UNL     1     -32.589   9.205   5.150  1.00 20.00     0.010 C 
BRANCH   8  10
HETATM   10  C8  UNL     1     -33.169   9.760   2.736  1.00 20.00     0.004 C 
BRANCH  10  11
HETATM   11  C6  UNL     1     -33.197   9.235   1.297  1.00 20.00    -0.004 C 
HETATM   12  C2  UNL     1     -31.939   8.441   0.973  1.00 20.00     0.005 C 
ENDBRANCH  10  11
ENDBRANCH   8  10
ENDBRANCH   7   8
ENDBRANCH   3   7
TORSDOF 5
