REMARK  4 active torsions:
REMARK  status: ('A' for Active; 'I' for Inactive)
REMARK    1  A    between atoms: C6_6  and  C10_10 
REMARK    2  A    between atoms: C7_7  and  C11_11 
REMARK    3  A    between atoms: C9_9  and  C11_11 
REMARK    4  A    between atoms: C11_11  and  O12_12 
ROOT
HETATM    1  C1  UNL     1     -34.769   4.740   5.827  1.00 20.00     0.012 C 
HETATM    2  C2  UNL     1     -34.155   5.750   6.037  1.00 20.00    -0.115 C 
HETATM    3  C9  UNL     1     -33.400   6.987   6.299  1.00 20.00     0.125 C 
ENDROOT
BRANCH   3   4
HETATM    4  C11 UNL     1     -33.561   7.996   5.158  1.00 20.00     0.133 C 
BRANCH   4   5
HETATM    5  C7  UNL     1     -32.611   7.690   4.013  1.00 20.00     0.015 C 
HETATM    6  C4  UNL     1     -32.869   6.331   3.359  1.00 20.00     0.007 C 
HETATM    7  C3  UNL     1     -32.462   6.485   1.890  1.00 20.00     0.005 C 
HETATM    8  C6  UNL     1     -32.014   7.940   1.724  1.00 20.00    -0.014 C 
HETATM    9  C5  UNL     1     -32.731   8.675   2.853  1.00 20.00     0.012 C 
BRANCH   8  10
HETATM   10  C10 UNL     1     -32.321   8.510   0.350  1.00 20.00     0.000 C 
HETATM   11  C8  UNL     1     -31.627   7.752  -0.738  1.00 20.00     0.005 C 
ENDBRANCH   8  10
ENDBRANCH   4   5
BRANCH   4  12
HETATM   12  O12 UNL     1     -33.270   9.301   5.659  1.00 20.00    -0.394 OA
HETATM   13  H30 UNL     1     -33.400   9.913   4.920  1.00 20.00     0.210 HD
ENDBRANCH   4  12
ENDBRANCH   3   4
TORSDOF 4
