REMARK  5 active torsions:
REMARK  status: ('A' for Active; 'I' for Inactive)
REMARK    1  A    between atoms: C1_1  and  C5_5 
REMARK    2  A    between atoms: C1_1  and  C9_9 
REMARK    3  A    between atoms: C6_6  and  C10_10 
REMARK    4  A    between atoms: C9_9  and  C12_12 
REMARK    5  A    between atoms: C11_11  and  C12_12 
ROOT
HETATM    1  C2  UNL     1     -33.263   6.968   6.333  1.00 20.00     0.012 C 
HETATM    2  C3  UNL     1     -33.950   5.620   6.512  1.00 20.00     0.005 C 
HETATM    3  C4  UNL     1     -34.836   6.554   4.495  1.00 20.00     0.016 C 
HETATM    4  C5  UNL     1     -33.993   7.642   5.171  1.00 20.00     0.056 C 
HETATM    5  C6  UNL     1     -34.384   5.223   5.104  1.00 20.00    -0.014 C 
ENDROOT
BRANCH   4   6
HETATM    6  C1  UNL     1     -33.031   8.247   4.196  1.00 20.00     0.131 C 
HETATM    7  O13 UNL     1     -31.898   7.789   4.015  1.00 20.00    -0.298 OA
BRANCH   6   8
HETATM    8  C9  UNL     1     -33.524   9.467   3.430  1.00 20.00     0.079 C 
BRANCH   8   9
HETATM    9  C12 UNL     1     -32.924   9.570   2.030  1.00 20.00     0.007 C 
BRANCH   9  10
HETATM   10  C11 UNL     1     -33.243   8.329   1.196  1.00 20.00    -0.004 C 
HETATM   11  C8  UNL     1     -32.614   8.410  -0.186  1.00 20.00     0.005 C 
ENDBRANCH   9  10
ENDBRANCH   8   9
ENDBRANCH   6   8
ENDBRANCH   4   6
BRANCH   5  12
HETATM   12  C10 UNL     1     -33.255   4.574   4.307  1.00 20.00     0.000 C 
HETATM   13  C7  UNL     1     -33.675   4.240   2.910  1.00 20.00     0.005 C 
ENDBRANCH   5  12
TORSDOF 5
