REMARK  0 active torsions:
REMARK  status: ('A' for Active; 'I' for Inactive)
ROOT
HETATM    1  C1  UNL     1     -33.338   5.814   3.562  1.00 20.00     0.071 C 
HETATM    2  C2  UNL     1     -32.037   8.830   4.951  1.00 20.00     0.034 C 
HETATM    3  C3  UNL     1     -32.978   8.761   3.749  1.00 20.00     0.036 C 
HETATM    4  C4  UNL     1     -32.988   6.693   5.880  1.00 20.00     0.058 C 
HETATM    5  C5  UNL     1     -32.890   8.211   6.056  1.00 20.00     0.123 C 
HETATM    6  C6  UNL     1     -34.200   8.047   4.334  1.00 20.00     0.144 C 
HETATM    7  C7  UNL     1     -33.945   6.562   4.675  1.00 20.00     0.074 C 
HETATM    8  C8  UNL     1     -35.250   5.871   5.093  1.00 20.00     0.034 C 
HETATM    9  N9  UNL     1     -32.859   5.225   2.685  1.00 20.00    -0.196 NA
HETATM   10  O10 UNL     1     -34.216   8.633   5.664  1.00 20.00    -0.379 OA
ENDROOT
TORSDOF 0
