REMARK  2 active torsions:
REMARK  status: ('A' for Active; 'I' for Inactive)
REMARK    1  A    between atoms: C5_5  and  C8_8 
REMARK    2  A    between atoms: C8_8  and  C9_9 
ROOT
HETATM    1  C1  UNL     1     -32.241   7.702   2.990  1.00 20.00     0.068 C 
HETATM    2  C6  UNL     1     -33.014  10.038   3.039  1.00 20.00     0.031 C 
HETATM    3  C7  UNL     1     -31.875   9.028   5.017  1.00 20.00     0.031 C 
HETATM    4  C9  UNL     1     -32.845   8.745   3.852  1.00 20.00     0.046 C 
HETATM    5  N10 UNL     1     -31.763   6.888   2.315  1.00 20.00    -0.196 NA
ENDROOT
BRANCH   4   6
HETATM    6  C8  UNL     1     -34.192   8.255   4.452  1.00 20.00     0.062 C 
BRANCH   6   7
HETATM    7  C5  UNL     1     -34.264   6.796   4.846  1.00 20.00    -0.050 A 
HETATM    8  C2  UNL     1     -34.603   6.342   6.153  1.00 20.00     0.014 A 
HETATM    9  C3  UNL     1     -34.595   4.967   6.241  1.00 20.00     0.050 A 
HETATM   10  S11 UNL     1     -34.178   4.230   4.753  1.00 20.00    -0.113 SA
HETATM   11  C4  UNL     1     -34.008   5.752   3.985  1.00 20.00     0.056 A 
ENDBRANCH   6   7
ENDBRANCH   4   6
TORSDOF 2
