REMARK  4 active torsions:
REMARK  status: ('A' for Active; 'I' for Inactive)
REMARK    1  A    between atoms: C2_2  and  C8_8 
REMARK    2  A    between atoms: C6_6  and  C9_9 
REMARK    3  A    between atoms: C8_8  and  C9_9 
REMARK    4  A    between atoms: C9_9  and  O11_11 
ROOT
HETATM    1  C1  UNL     1     -32.480   9.017   1.111  1.00 20.00    -0.111 C 
HETATM    2  C2  UNL     1     -32.349   9.327   2.264  1.00 20.00    -0.104 C 
HETATM    3  C7  UNL     1     -32.640   8.638  -0.292  1.00 20.00     0.112 C 
ENDROOT
BRANCH   2   4
HETATM    4  C8  UNL     1     -32.188   9.709   3.676  1.00 20.00     0.128 C 
BRANCH   4   5
HETATM    5  C9  UNL     1     -32.269   8.489   4.596  1.00 20.00     0.158 C 
BRANCH   5   6
HETATM    6  C6  UNL     1     -33.381   7.552   4.165  1.00 20.00     0.151 C 
HETATM    7  C4  UNL     1     -33.878   6.648   5.280  1.00 20.00     0.036 C 
HETATM    8  C3  UNL     1     -34.419   5.477   4.499  1.00 20.00     0.029 C 
HETATM    9  C5  UNL     1     -33.413   5.360   3.374  1.00 20.00     0.168 C 
HETATM   10  O10 UNL     1     -32.908   6.680   3.124  1.00 20.00    -0.383 OA
ENDBRANCH   5   6
BRANCH   5  11
HETATM   11  O11 UNL     1     -32.539   8.933   5.925  1.00 20.00    -0.392 OA
HETATM   12  H25 UNL     1     -32.567   8.138   6.479  1.00 20.00     0.210 HD
ENDBRANCH   5  11
ENDBRANCH   4   5
ENDBRANCH   2   4
TORSDOF 4
