REMARK  2 active torsions:
REMARK  status: ('A' for Active; 'I' for Inactive)
REMARK    1  A    between atoms: C3_3  and  C8_8 
REMARK    2  A    between atoms: C3_3  and  C9_9 
ROOT
HETATM    1  C1  UNL     1     -32.871   9.021   0.854  1.00 20.00     0.012 C 
HETATM    2  C2  UNL     1     -32.451   8.238   1.661  1.00 20.00    -0.110 C 
HETATM    3  C9  UNL     1     -31.930   7.282   2.645  1.00 20.00     0.171 C 
ENDROOT
BRANCH   3   4
HETATM    4  C3  UNL     1     -33.008   6.371   3.198  1.00 20.00     0.142 C 
HETATM    5  O10 UNL     1     -32.963   5.145   3.108  1.00 20.00    -0.297 OA
BRANCH   4   6
HETATM    6  C8  UNL     1     -34.175   7.059   3.886  1.00 20.00     0.060 C 
HETATM    7  C4  UNL     1     -35.177   6.009   4.351  1.00 20.00     0.038 C 
HETATM    8  C6  UNL     1     -34.730   5.295   5.623  1.00 20.00     0.168 C 
HETATM    9  O11 UNL     1     -34.396   6.234   6.642  1.00 20.00    -0.391 OA
HETATM   10  C7  UNL     1     -33.297   7.061   6.266  1.00 20.00     0.168 C 
HETATM   11  C5  UNL     1     -33.644   7.901   5.041  1.00 20.00     0.038 C 
ENDBRANCH   4   6
ENDBRANCH   3   4
TORSDOF 2
