REMARK  3 active torsions:
REMARK  status: ('A' for Active; 'I' for Inactive)
REMARK    1  A    between atoms: C6_6  and  C9_9 
REMARK    2  A    between atoms: C9_9  and  C11_11 
REMARK    3  A    between atoms: C10_10  and  C11_11 
ROOT
HETATM    1  C1  UNL     1     -32.106   9.127   5.025  1.00 20.00     0.069 C 
HETATM    2  C2  UNL     1     -32.236   7.175   1.861  1.00 20.00     0.006 C 
HETATM    3  C3  UNL     1     -31.838   7.334   3.331  1.00 20.00     0.025 C 
HETATM    4  C4  UNL     1     -32.910   9.365   2.694  1.00 20.00     0.029 C 
HETATM    5  C5  UNL     1     -33.049   8.424   1.493  1.00 20.00    -0.017 C 
HETATM    6  C6  UNL     1     -32.750   8.429   3.899  1.00 20.00     0.049 C 
HETATM    7  C7  UNL     1     -32.599   9.065   0.189  1.00 20.00     0.010 C 
HETATM    8  N12 UNL     1     -31.598   9.676   5.912  1.00 20.00    -0.196 NA
ENDROOT
BRANCH   6   9
HETATM    9  C9  UNL     1     -34.096   7.853   4.361  1.00 20.00     0.024 C 
BRANCH   9  10
HETATM   10  C11 UNL     1     -33.905   6.834   5.480  1.00 20.00     0.001 C 
BRANCH  10  11
HETATM   11  C10 UNL     1     -35.244   6.240   5.915  1.00 20.00    -0.004 C 
HETATM   12  C8  UNL     1     -35.062   5.198   7.007  1.00 20.00     0.005 C 
ENDBRANCH  10  11
ENDBRANCH   9  10
ENDBRANCH   6   9
TORSDOF 3
