REMARK  1 active torsions:
REMARK  status: ('A' for Active; 'I' for Inactive)
REMARK    1  A    between atoms: C1_1  and  N10_10 
ROOT
HETATM    1  C2  UNL     1     -32.442   8.859   3.806  1.00 20.00     0.002 C 
HETATM    2  C3  UNL     1     -34.688   5.943   6.918  1.00 20.00     0.020 C 
HETATM    3  C4  UNL     1     -33.137   9.048   5.163  1.00 20.00     0.007 C 
HETATM    4  C5  UNL     1     -34.507   7.443   6.669  1.00 20.00     0.008 C 
HETATM    5  C6  UNL     1     -32.653   7.388   3.411  1.00 20.00     0.026 C 
HETATM    6  C7  UNL     1     -34.926   5.153   5.627  1.00 20.00     0.125 C 
HETATM    7  C8  UNL     1     -33.420   7.627   5.626  1.00 20.00     0.009 C 
HETATM    8  C9  UNL     1     -33.791   6.927   4.318  1.00 20.00     0.090 C 
HETATM    9  N10 UNL     1     -34.006   5.502   4.540  1.00 20.00    -0.354 N 
ENDROOT
BRANCH   9  10
HETATM   10  C1  UNL     1     -33.681   4.545   3.589  1.00 20.00     0.351 C 
HETATM   11  O11 UNL     1     -32.933   4.678   2.626  1.00 20.00    -0.284 OA
ENDBRANCH   9  10
TORSDOF 1
