REMARK  2 active torsions:
REMARK  status: ('A' for Active; 'I' for Inactive)
REMARK    1  A    between atoms: C9_9  and  C10_10 
REMARK    2  A    between atoms: C9_9  and  N11_11 
ROOT
HETATM    1  C1  UNL     1     -33.943   8.141   6.690  1.00 20.00     0.002 C 
HETATM    2  C2  UNL     1     -33.951   4.161   3.971  1.00 20.00     0.028 C 
HETATM    3  C3  UNL     1     -34.769   6.843   6.677  1.00 20.00     0.007 C 
HETATM    4  C4  UNL     1     -34.824   4.827   5.040  1.00 20.00     0.008 C 
HETATM    5  C5  UNL     1     -32.994   8.066   5.481  1.00 20.00     0.034 C 
HETATM    6  C6  UNL     1     -33.387   5.156   2.954  1.00 20.00     0.235 C 
HETATM    7  C7  UNL     1     -34.040   5.960   5.675  1.00 20.00     0.016 C 
HETATM    8  C8  UNL     1     -33.611   6.974   4.624  1.00 20.00     0.192 C 
HETATM    9  N11 UNL     1     -32.683   6.309   3.655  1.00 20.00    -0.065 N 
HETATM   10  H31 UNL     1     -31.898   5.908   4.187  1.00 20.00     0.280 HD
ENDROOT
BRANCH   9  11
HETATM   11  C9  UNL     1     -32.088   7.263   2.656  1.00 20.00     0.250 C 
BRANCH  11  12
HETATM   12  C10 UNL     1     -33.176   7.828   1.762  1.00 20.00     0.142 C 
HETATM   13 CL12 UNL     1     -32.517   8.988   0.583  1.00 20.00    -0.129 Cl
ENDBRANCH  11  12
ENDBRANCH   9  11
TORSDOF 2
