REMARK  1 active torsions:
REMARK  status: ('A' for Active; 'I' for Inactive)
REMARK    1  A    between atoms: C5_5  and  C9_9 
ROOT
HETATM    1  C1  UNL     1     -32.988   6.105   2.950  1.00 20.00     0.069 C 
HETATM    2  C2  UNL     1     -32.194   8.504   5.470  1.00 20.00     0.006 C 
HETATM    3  C3  UNL     1     -31.713   7.835   4.186  1.00 20.00     0.024 C 
HETATM    4  C4  UNL     1     -34.168   7.800   4.330  1.00 20.00     0.029 C 
HETATM    5  C5  UNL     1     -33.565   7.891   5.736  1.00 20.00    -0.013 C 
HETATM    6  C6  UNL     1     -32.987   7.522   3.371  1.00 20.00     0.046 C 
HETATM    7  C7  UNL     1     -33.080   8.409   2.124  1.00 20.00     0.031 C 
HETATM    8  N10 UNL     1     -32.990   4.993   2.619  1.00 20.00    -0.196 NA
ENDROOT
BRANCH   5   9
HETATM    9  C9  UNL     1     -33.477   6.534   6.430  1.00 20.00     0.000 C 
HETATM   10  C8  UNL     1     -34.827   5.922   6.634  1.00 20.00     0.005 C 
ENDBRANCH   5   9
TORSDOF 1
