REMARK  3 active torsions:
REMARK  status: ('A' for Active; 'I' for Inactive)
REMARK    1  A    between atoms: C1_1  and  C7_7 
REMARK    2  A    between atoms: C1_1  and  C8_8 
REMARK    3  A    between atoms: C9_9  and  C11_11 
ROOT
HETATM    1  C4  UNL     1     -31.907   6.876   3.379  1.00 20.00     0.013 C 
HETATM    2  C5  UNL     1     -31.944   7.789   2.157  1.00 20.00     0.005 C 
HETATM    3  C6  UNL     1     -32.725   9.105   3.981  1.00 20.00     0.016 C 
HETATM    4  C8  UNL     1     -32.335   7.747   4.561  1.00 20.00     0.056 C 
HETATM    5  C9  UNL     1     -33.006   8.825   2.505  1.00 20.00    -0.014 C 
ENDROOT
BRANCH   4   6
HETATM    6  C1  UNL     1     -33.556   7.130   5.219  1.00 20.00     0.135 C 
HETATM    7  O12 UNL     1     -33.806   7.308   6.410  1.00 20.00    -0.297 OA
BRANCH   6   8
HETATM    8  C7  UNL     1     -34.447   6.292   4.342  1.00 20.00     0.056 A 
HETATM    9  C2  UNL     1     -34.564   4.841   4.644  1.00 20.00     0.013 A 
HETATM   10  C3  UNL     1     -35.709   5.767   4.926  1.00 20.00     0.013 A 
ENDBRANCH   6   8
ENDBRANCH   4   6
BRANCH   5  11
HETATM   11  C11 UNL     1     -32.935  10.070   1.637  1.00 20.00     0.000 C 
HETATM   12  C10 UNL     1     -33.168   9.759   0.192  1.00 20.00     0.005 C 
ENDBRANCH   5  11
TORSDOF 3
