REMARK  3 active torsions:
REMARK  status: ('A' for Active; 'I' for Inactive)
REMARK    1  A    between atoms: C3_3  and  C7_7 
REMARK    2  A    between atoms: C3_3  and  C10_10 
REMARK    3  A    between atoms: C8_8  and  C11_11 
ROOT
HETATM    1  C1  UNL     1     -33.007   9.390  -0.061  1.00 20.00     0.012 C 
HETATM    2  C2  UNL     1     -32.514   8.543   0.632  1.00 20.00    -0.110 C 
HETATM    3  C10 UNL     1     -31.906   7.505   1.472  1.00 20.00     0.171 C 
ENDROOT
BRANCH   3   4
HETATM    4  C3  UNL     1     -32.604   7.357   2.810  1.00 20.00     0.142 C 
HETATM    5  O12 UNL     1     -32.296   8.012   3.805  1.00 20.00    -0.297 OA
BRANCH   4   6
HETATM    6  C7  UNL     1     -33.727   6.341   2.866  1.00 20.00     0.057 C 
HETATM    7  C4  UNL     1     -33.169   4.984   3.285  1.00 20.00     0.013 C 
HETATM    8  C5  UNL     1     -34.143   4.463   4.334  1.00 20.00     0.005 C 
HETATM    9  C8  UNL     1     -34.624   5.717   5.059  1.00 20.00    -0.014 C 
HETATM   10  C6  UNL     1     -34.746   6.747   3.931  1.00 20.00     0.016 C 
BRANCH   9  11
HETATM   11  C11 UNL     1     -33.654   6.164   6.151  1.00 20.00     0.000 C 
HETATM   12  C9  UNL     1     -33.504   5.131   7.224  1.00 20.00     0.005 C 
ENDBRANCH   9  11
ENDBRANCH   4   6
ENDBRANCH   3   4
TORSDOF 3
