REMARK  3 active torsions:
REMARK  status: ('A' for Active; 'I' for Inactive)
REMARK    1  A    between atoms: C6_6  and  C11_11 
REMARK    2  A    between atoms: C7_7  and  C12_12 
REMARK    3  A    between atoms: C12_12  and  C13_13 
ROOT
HETATM    1  C1  UNL     1     -32.865   6.045   2.800  1.00 20.00     0.069 C 
HETATM    2  C2  UNL     1     -32.292   7.709   5.384  1.00 20.00     0.002 C 
HETATM    3  C3  UNL     1     -33.614   7.583   6.134  1.00 20.00     0.005 C 
HETATM    4  C4  UNL     1     -32.506   8.207   3.954  1.00 20.00     0.024 C 
HETATM    5  C5  UNL     1     -34.802   7.115   3.939  1.00 20.00     0.029 C 
HETATM    6  C6  UNL     1     -34.630   6.691   5.411  1.00 20.00    -0.013 C 
HETATM    7  C7  UNL     1     -33.493   7.340   3.146  1.00 20.00     0.050 C 
HETATM    8  N14 UNL     1     -32.372   5.030   2.528  1.00 20.00    -0.196 NA
ENDROOT
BRANCH   7   9
HETATM    9  C12 UNL     1     -33.825   8.058   1.824  1.00 20.00     0.028 C 
BRANCH   9  10
HETATM   10  C13 UNL     1     -32.630   8.816   1.239  1.00 20.00    -0.021 C 
HETATM   11  C9  UNL     1     -31.443   7.901   0.933  1.00 20.00     0.009 C 
HETATM   12  C10 UNL     1     -33.067   9.540  -0.037  1.00 20.00     0.009 C 
ENDBRANCH   9  10
ENDBRANCH   7   9
BRANCH   6  13
HETATM   13  C11 UNL     1     -34.295   5.206   5.572  1.00 20.00     0.000 C 
HETATM   14  C8  UNL     1     -34.195   4.817   7.010  1.00 20.00     0.005 C 
ENDBRANCH   6  13
TORSDOF 3
