REMARK  1 active torsions:
REMARK  status: ('A' for Active; 'I' for Inactive)
REMARK    1  A    between atoms: C6_6  and  C8_8 
ROOT
HETATM    1  C1  UNL     1     -33.179   8.637   3.316  1.00 20.00     0.069 C 
HETATM    2  C2  UNL     1     -34.740   6.953   4.211  1.00 20.00     0.051 C 
HETATM    3  C3  UNL     1     -32.914   7.902   5.654  1.00 20.00     0.051 C 
HETATM    4  C4  UNL     1     -35.010   5.957   5.334  1.00 20.00     0.169 C 
HETATM    5  C5  UNL     1     -33.289   6.850   6.693  1.00 20.00     0.169 C 
HETATM    6  C6  UNL     1     -33.286   7.469   4.220  1.00 20.00     0.052 C 
HETATM    7  N9  UNL     1     -33.095   9.552   2.608  1.00 20.00    -0.196 NA
HETATM    8  O10 UNL     1     -34.672   6.517   6.601  1.00 20.00    -0.391 OA
ENDROOT
BRANCH   6   9
HETATM    9  C8  UNL     1     -32.321   6.383   3.712  1.00 20.00     0.020 C 
HETATM   10  C7  UNL     1     -32.661   5.964   2.324  1.00 20.00     0.007 C 
ENDBRANCH   6   9
TORSDOF 1
