REMARK  3 active torsions:
REMARK  status: ('A' for Active; 'I' for Inactive)
REMARK    1  A    between atoms: C1_1  and  C5_5 
REMARK    2  A    between atoms: C1_1  and  C9_9 
REMARK    3  A    between atoms: C6_6  and  C10_10 
ROOT
HETATM    1  C2  UNL     1     -33.123   5.203   2.178  1.00 20.00     0.012 C 
HETATM    2  C3  UNL     1     -32.472   6.269   1.301  1.00 20.00     0.005 C 
HETATM    3  C4  UNL     1     -32.896   7.134   3.552  1.00 20.00     0.016 C 
HETATM    4  C5  UNL     1     -33.876   6.005   3.233  1.00 20.00     0.056 C 
HETATM    5  C6  UNL     1     -32.262   7.482   2.208  1.00 20.00    -0.014 C 
ENDROOT
BRANCH   4   6
HETATM    6  C1  UNL     1     -34.257   5.181   4.451  1.00 20.00     0.130 C 
HETATM    7  O11 UNL     1     -34.003   3.979   4.508  1.00 20.00    -0.298 OA
BRANCH   6   8
HETATM    8  C9  UNL     1     -34.959   5.929   5.569  1.00 20.00     0.074 C 
HETATM    9  C7  UNL     1     -33.993   6.482   6.600  1.00 20.00     0.013 C 
ENDBRANCH   6   8
ENDBRANCH   4   6
BRANCH   5  10
HETATM   10  C10 UNL     1     -32.989   8.678   1.622  1.00 20.00     0.000 C 
HETATM   11  C8  UNL     1     -32.454   9.055   0.275  1.00 20.00     0.005 C 
ENDBRANCH   5  10
TORSDOF 3
