REMARK  0 active torsions:
REMARK  status: ('A' for Active; 'I' for Inactive)
ROOT
HETATM    1  C1  UNL     1     -34.032   5.257   3.698  1.00 20.00     0.071 C 
HETATM    2  C2  UNL     1     -34.366   7.157   5.235  1.00 20.00     0.052 C 
HETATM    3  C3  UNL     1     -33.342   6.714   6.264  1.00 20.00     0.169 C 
HETATM    4  C4  UNL     1     -34.898   4.994   5.994  1.00 20.00     0.192 C 
HETATM    5  C5  UNL     1     -34.925   5.839   4.723  1.00 20.00     0.069 C 
HETATM    6  C6  UNL     1     -36.331   5.977   4.146  1.00 20.00     0.033 C 
HETATM    7  N7  UNL     1     -33.331   4.800   2.894  1.00 20.00    -0.196 NA
HETATM    8  O8  UNL     1     -33.790   5.456   6.786  1.00 20.00    -0.389 OA
ENDROOT
TORSDOF 0
