REMARK  2 active torsions:
REMARK  status: ('A' for Active; 'I' for Inactive)
REMARK    1  A    between atoms: C2_2  and  C3_3 
REMARK    2  A    between atoms: C3_3  and  C4_4 
ROOT
HETATM    1  C3  UNL     1     -33.910   6.710   5.359  1.00 20.00     0.402 C 
HETATM    2  F7  UNL     1     -32.719   6.348   5.910  1.00 20.00    -0.189 F 
HETATM    3  F8  UNL     1     -34.727   7.038   6.394  1.00 20.00    -0.189 F 
ENDROOT
BRANCH   1   4
HETATM    4  C2  UNL     1     -33.676   7.937   4.497  1.00 20.00     0.313 C 
HETATM    5  C1  UNL     1     -32.716   7.747   3.342  1.00 20.00     0.097 C 
HETATM    6  F5  UNL     1     -34.875   8.337   3.990  1.00 20.00    -0.200 F 
HETATM    7  F6  UNL     1     -33.232   8.958   5.275  1.00 20.00    -0.200 F 
ENDBRANCH   1   4
BRANCH   1   8
HETATM    8  C4  UNL     1     -34.481   5.507   4.650  1.00 20.00     0.460 C 
HETATM    9  F9  UNL     1     -33.677   5.080   3.655  1.00 20.00    -0.165 F 
HETATM   10  F10 UNL     1     -35.679   5.809   4.100  1.00 20.00    -0.165 F 
HETATM   11  F11 UNL     1     -34.671   4.478   5.503  1.00 20.00    -0.165 F 
ENDBRANCH   1   8
TORSDOF 2
