REMARK  2 active torsions:
REMARK  status: ('A' for Active; 'I' for Inactive)
REMARK    1  A    between atoms: C1_1  and  C7_7 
REMARK    2  A    between atoms: C6_6  and  C10_10 
ROOT
HETATM    1  C2  UNL     1     -33.110   8.926   4.654  1.00 20.00     0.002 C 
HETATM    2  C3  UNL     1     -31.731   8.467   4.182  1.00 20.00     0.005 C 
HETATM    3  C4  UNL     1     -34.179   7.833   4.631  1.00 20.00     0.020 C 
HETATM    4  C5  UNL     1     -32.520   6.087   3.766  1.00 20.00     0.025 C 
HETATM    5  C6  UNL     1     -31.770   7.305   3.189  1.00 20.00    -0.014 C 
HETATM    6  C7  UNL     1     -33.612   6.426   4.796  1.00 20.00     0.045 C 
HETATM    7  C8  UNL     1     -33.170   6.145   6.234  1.00 20.00     0.027 C 
ENDROOT
BRANCH   6   8
HETATM    8  C1  UNL     1     -34.757   5.438   4.591  1.00 20.00     0.181 C 
HETATM    9  O11 UNL     1     -34.444   4.220   4.697  1.00 20.00    -0.647 OA
HETATM   10  O12 UNL     1     -35.876   5.968   4.340  1.00 20.00    -0.647 OA
ENDBRANCH   6   8
BRANCH   5  11
HETATM   11  C10 UNL     1     -32.336   7.736   1.832  1.00 20.00     0.000 C 
HETATM   12  C9  UNL     1     -31.561   8.870   1.247  1.00 20.00     0.005 C 
ENDBRANCH   5  11
TORSDOF 2
