REMARK  4 active torsions:
REMARK  status: ('A' for Active; 'I' for Inactive)
REMARK    1  A    between atoms: C6_6  and  C10_10 
REMARK    2  A    between atoms: C7_7  and  C11_11 
REMARK    3  A    between atoms: C9_9  and  C11_11 
REMARK    4  A    between atoms: C11_11  and  O12_12 
ROOT
HETATM    1  C1  UNL     1     -34.052   3.905   3.868  1.00 20.00     0.012 C 
HETATM    2  C2  UNL     1     -33.982   4.771   4.697  1.00 20.00    -0.115 C 
HETATM    3  C9  UNL     1     -33.896   5.830   5.715  1.00 20.00     0.125 C 
ENDROOT
BRANCH   3   4
HETATM    4  C11 UNL     1     -33.912   7.224   5.080  1.00 20.00     0.133 C 
BRANCH   4   5
HETATM    5  C7  UNL     1     -32.523   7.623   4.585  1.00 20.00     0.015 C 
HETATM    6  C4  UNL     1     -32.374   9.142   4.470  1.00 20.00     0.007 C 
HETATM    7  C3  UNL     1     -32.658   9.502   3.009  1.00 20.00     0.005 C 
HETATM    8  C6  UNL     1     -32.905   8.181   2.276  1.00 20.00    -0.014 C 
HETATM    9  C5  UNL     1     -32.243   7.130   3.165  1.00 20.00     0.012 C 
BRANCH   8  10
HETATM   10  C10 UNL     1     -32.372   8.176   0.853  1.00 20.00     0.000 C 
HETATM   11  C8  UNL     1     -33.021   9.228   0.009  1.00 20.00     0.005 C 
ENDBRANCH   8  10
ENDBRANCH   4   5
BRANCH   4  12
HETATM   12  O12 UNL     1     -34.337   8.169   6.062  1.00 20.00    -0.394 OA
HETATM   13  H30 UNL     1     -33.684   8.132   6.777  1.00 20.00     0.210 HD
ENDBRANCH   4  12
ENDBRANCH   3   4
TORSDOF 4
