REMARK  4 active torsions:
REMARK  status: ('A' for Active; 'I' for Inactive)
REMARK    1  A    between atoms: C5_5  and  C9_9 
REMARK    2  A    between atoms: C6_6  and  C10_10 
REMARK    3  A    between atoms: C10_10  and  C12_12 
REMARK    4  A    between atoms: C11_11  and  C12_12 
ROOT
HETATM    1  C1  UNL     1     -32.814   8.362   4.831  1.00 20.00     0.069 C 
HETATM    2  C2  UNL     1     -32.570   5.316   4.256  1.00 20.00     0.006 C 
HETATM    3  C3  UNL     1     -32.297   6.481   3.313  1.00 20.00     0.025 C 
HETATM    4  C4  UNL     1     -34.558   6.717   4.201  1.00 20.00     0.029 C 
HETATM    5  C5  UNL     1     -34.094   5.252   4.279  1.00 20.00    -0.013 C 
HETATM    6  C6  UNL     1     -33.339   7.537   3.718  1.00 20.00     0.049 C 
HETATM    7  N13 UNL     1     -32.403   9.008   5.702  1.00 20.00    -0.196 NA
ENDROOT
BRANCH   6   8
HETATM    8  C10 UNL     1     -33.693   8.452   2.545  1.00 20.00     0.024 C 
BRANCH   8   9
HETATM    9  C12 UNL     1     -32.478   9.248   2.080  1.00 20.00     0.001 C 
BRANCH   9  10
HETATM   10  C11 UNL     1     -32.843  10.184   0.929  1.00 20.00    -0.004 C 
HETATM   11  C8  UNL     1     -33.343   9.410  -0.281  1.00 20.00     0.005 C 
ENDBRANCH   9  10
ENDBRANCH   8   9
ENDBRANCH   6   8
BRANCH   5  12
HETATM   12  C9  UNL     1     -34.638   4.513   5.491  1.00 20.00     0.000 C 
HETATM   13  C7  UNL     1     -34.217   5.157   6.774  1.00 20.00     0.005 C 
ENDBRANCH   5  12
TORSDOF 4
