REMARK  3 active torsions:
REMARK  status: ('A' for Active; 'I' for Inactive)
REMARK    1  A    between atoms: C3_3  and  C5_5 
REMARK    2  A    between atoms: C3_3  and  C9_9 
REMARK    3  A    between atoms: C8_8  and  C9_9 
ROOT
HETATM    1  C1  UNL     1     -32.987   9.565   1.359  1.00 20.00     0.012 C 
HETATM    2  C2  UNL     1     -32.652   8.542   1.891  1.00 20.00    -0.117 C 
HETATM    3  C8  UNL     1     -32.242   7.287   2.539  1.00 20.00     0.100 C 
ENDROOT
BRANCH   3   4
HETATM    4  C9  UNL     1     -32.138   7.436   4.055  1.00 20.00     0.090 C 
BRANCH   4   5
HETATM    5  C3  UNL     1     -33.447   7.825   4.725  1.00 20.00     0.132 C 
HETATM    6  O10 UNL     1     -33.590   8.868   5.361  1.00 20.00    -0.298 OA
BRANCH   5   7
HETATM    7  C5  UNL     1     -34.592   6.860   4.551  1.00 20.00     0.059 A 
HETATM    8  C4  UNL     1     -34.270   5.438   4.250  1.00 20.00     0.017 A 
HETATM    9  C6  UNL     1     -34.842   5.819   5.587  1.00 20.00    -0.007 A 
HETATM   10  C7  UNL     1     -34.017   5.671   6.820  1.00 20.00     0.011 C 
ENDBRANCH   5   7
ENDBRANCH   4   5
ENDBRANCH   3   4
TORSDOF 3
