REMARK  3 active torsions:
REMARK  status: ('A' for Active; 'I' for Inactive)
REMARK    1  A    between atoms: C4_4  and  C6_6 
REMARK    2  A    between atoms: C4_4  and  O7_7 
REMARK    3  A    between atoms: C5_5  and  C6_6 
ROOT
HETATM    1  C6  UNL     1     -33.696   7.360   4.408  1.00 20.00     0.109 C 
HETATM    2 CL8  UNL     1     -32.603   8.283   5.496  1.00 20.00    -0.122 Cl
ENDROOT
BRANCH   1   3
HETATM    3  C4  UNL     1     -32.861   6.408   3.548  1.00 20.00     0.187 C 
BRANCH   3   4
HETATM    4  O7  UNL     1     -31.853   7.143   2.863  1.00 20.00    -0.394 OA
HETATM    5  C3  UNL     1     -32.361   7.743   1.680  1.00 20.00     0.201 C 
ENDBRANCH   3   4
ENDBRANCH   1   3
BRANCH   1   6
HETATM    6  C5  UNL     1     -34.811   6.633   5.196  1.00 20.00    -0.002 C 
HETATM    7  C1  UNL     1     -34.299   5.549   6.149  1.00 20.00     0.011 C 
HETATM    8  C2  UNL     1     -35.877   6.044   4.264  1.00 20.00     0.011 C 
ENDBRANCH   1   6
TORSDOF 3
