REMARK  2 active torsions:
REMARK  status: ('A' for Active; 'I' for Inactive)
REMARK    1  A    between atoms: C2_2  and  C9_9 
REMARK    2  A    between atoms: C9_9  and  N11_11 
ROOT
HETATM    1  C3  UNL     1     -35.962   6.062   4.064  1.00 20.00     0.300 C 
HETATM    2  C4  UNL     1     -34.960   7.016   3.412  1.00 20.00     0.303 C 
HETATM    3  C5  UNL     1     -33.259   6.291   4.957  1.00 20.00     0.308 C 
HETATM    4  C6  UNL     1     -34.247   5.316   5.623  1.00 20.00     0.244 C 
HETATM    5  C7  UNL     1     -34.839   5.879   6.920  1.00 20.00     0.044 C 
HETATM    6  N10 UNL     1     -35.305   4.908   4.685  1.00 20.00     0.091 N 
HETATM    7  N11 UNL     1     -33.949   7.454   4.382  1.00 20.00     0.100 N 
HETATM    8  H29 UNL     1     -36.009   4.363   5.195  1.00 20.00     0.316 HD
ENDROOT
BRANCH   7   9
HETATM    9  C9  UNL     1     -32.993   8.367   3.757  1.00 20.00     0.241 C 
HETATM   10  C8  UNL     1     -31.976   8.865   4.777  1.00 20.00     0.047 C 
BRANCH   9  11
HETATM   11  C2  UNL     1     -32.325   7.638   2.627  1.00 20.00    -0.002 C 
HETATM   12  C1  UNL     1     -32.435   7.995   1.342  1.00 20.00     0.009 C 
ENDBRANCH   9  11
ENDBRANCH   7   9
TORSDOF 2
