REMARK  4 active torsions:
REMARK  status: ('A' for Active; 'I' for Inactive)
REMARK    1  A    between atoms: C2_2  and  C8_8 
REMARK    2  A    between atoms: C5_5  and  C9_9 
REMARK    3  A    between atoms: C8_8  and  C9_9 
REMARK    4  A    between atoms: C9_9  and  O10_10 
ROOT
HETATM    1  C1  UNL     1     -34.028   8.019   5.539  1.00 20.00    -0.111 C 
HETATM    2  C2  UNL     1     -34.071   6.922   6.025  1.00 20.00    -0.104 C 
HETATM    3  C6  UNL     1     -33.976   9.355   4.946  1.00 20.00     0.112 C 
ENDROOT
BRANCH   2   4
HETATM    4  C8  UNL     1     -34.123   5.578   6.623  1.00 20.00     0.126 C 
BRANCH   4   5
HETATM    5  C9  UNL     1     -34.271   4.497   5.550  1.00 20.00     0.133 C 
BRANCH   5   6
HETATM    6  C5  UNL     1     -33.126   4.557   4.547  1.00 20.00     0.019 A 
HETATM    7  C3  UNL     1     -33.103   3.620   3.368  1.00 20.00     0.012 A 
HETATM    8  C4  UNL     1     -33.366   5.088   3.157  1.00 20.00    -0.012 A 
HETATM    9  C7  UNL     1     -32.341   5.945   2.498  1.00 20.00     0.010 C 
ENDBRANCH   5   6
BRANCH   5  10
HETATM   10  O10 UNL     1     -35.498   4.707   4.852  1.00 20.00    -0.394 OA
HETATM   11  H24 UNL     1     -36.202   4.663   5.516  1.00 20.00     0.210 HD
ENDBRANCH   5  10
ENDBRANCH   4   5
ENDBRANCH   2   4
TORSDOF 4
