REMARK  2 active torsions:
REMARK  status: ('A' for Active; 'I' for Inactive)
REMARK    1  A    between atoms: C2_2  and  C8_8 
REMARK    2  A    between atoms: C3_3  and  C5_5 
ROOT
HETATM    1  C1  UNL     1     -33.581   8.036   5.755  1.00 20.00     0.080 A 
HETATM    2  C2  UNL     1     -34.129   7.097   4.906  1.00 20.00     0.055 A 
HETATM    3  C3  UNL     1     -32.946   8.217   3.438  1.00 20.00     0.080 A 
HETATM    4  N9  UNL     1     -33.766   7.200   3.577  1.00 20.00    -0.248 NA
HETATM    5  S10 UNL     1     -32.567   9.094   4.864  1.00 20.00    -0.084 SA
ENDROOT
BRANCH   3   6
HETATM    6  C5  UNL     1     -32.367   8.595   2.095  1.00 20.00     0.049 A 
HETATM    7  C4  UNL     1     -32.011   7.521   1.089  1.00 20.00     0.016 A 
HETATM    8  C6  UNL     1     -33.191   8.411   0.837  1.00 20.00    -0.007 A 
HETATM    9  C7  UNL     1     -33.141   9.434  -0.245  1.00 20.00     0.011 C 
ENDBRANCH   3   6
BRANCH   2  10
HETATM   10  C8  UNL     1     -35.053   6.015   5.299  1.00 20.00     0.174 C 
HETATM   11 CL11 UNL     1     -34.304   4.934   6.504  1.00 20.00    -0.124 Cl
ENDBRANCH   2  10
TORSDOF 2
