REMARK  2 active torsions:
REMARK  status: ('A' for Active; 'I' for Inactive)
REMARK    1  A    between atoms: C2_2  and  C9_9 
REMARK    2  A    between atoms: C9_9  and  N11_11 
ROOT
HETATM    1  C3  UNL     1     -33.901   4.173   5.455  1.00 20.00     0.300 C 
HETATM    2  C4  UNL     1     -33.743   4.602   3.995  1.00 20.00     0.302 C 
HETATM    3  C5  UNL     1     -34.708   6.747   4.517  1.00 20.00     0.307 C 
HETATM    4  C6  UNL     1     -34.884   6.334   5.990  1.00 20.00     0.244 C 
HETATM    5  C8  UNL     1     -33.775   6.889   6.889  1.00 20.00     0.044 C 
HETATM    6  N10 UNL     1     -35.001   4.874   6.122  1.00 20.00     0.091 N 
HETATM    7  N11 UNL     1     -33.572   6.056   3.893  1.00 20.00     0.096 N 
HETATM    8  H29 UNL     1     -35.892   4.563   5.727  1.00 20.00     0.316 HD
ENDROOT
BRANCH   7   9
HETATM    9  C9  UNL     1     -33.420   6.463   2.497  1.00 20.00     0.305 C 
BRANCH   9  10
HETATM   10  C2  UNL     1     -32.775   7.818   2.430  1.00 20.00    -0.065 C 
HETATM   11  C1  UNL     1     -33.399   8.864   1.867  1.00 20.00     0.015 C 
HETATM   12  C7  UNL     1     -31.384   7.942   2.985  1.00 20.00     0.044 C 
ENDBRANCH   9  10
ENDBRANCH   7   9
TORSDOF 2
