REMARK  2 active torsions:
REMARK  status: ('A' for Active; 'I' for Inactive)
REMARK    1  A    between atoms: C3_3  and  C5_5 
REMARK    2  A    between atoms: C5_5  and  C7_7 
ROOT
HETATM    1  C1  UNL     1     -32.042   7.462   2.132  1.00 20.00     0.029 A 
HETATM    2  C2  UNL     1     -33.301   9.299   2.796  1.00 20.00     0.065 A 
HETATM    3  C3  UNL     1     -32.797   8.074   3.174  1.00 20.00     0.018 A 
HETATM    4  C4  UNL     1     -31.999   8.243   0.998  1.00 20.00    -0.021 A 
HETATM    5  C9  UNL     1     -31.321   7.963  -0.287  1.00 20.00     0.056 C 
HETATM    6  S12 UNL     1     -32.865   9.707   1.191  1.00 20.00    -0.106 SA
ENDROOT
BRANCH   3   7
HETATM    7  C5  UNL     1     -33.031   7.501   4.502  1.00 20.00     0.164 C 
HETATM    8  O11 UNL     1     -32.692   8.028   5.556  1.00 20.00    -0.292 OA
BRANCH   7   9
HETATM    9  C7  UNL     1     -33.725   6.210   4.561  1.00 20.00     0.065 A 
HETATM   10  C6  UNL     1     -35.232   6.177   4.511  1.00 20.00     0.018 A 
HETATM   11  C8  UNL     1     -34.519   5.809   5.781  1.00 20.00    -0.006 A 
HETATM   12  C10 UNL     1     -34.630   6.689   6.980  1.00 20.00     0.011 C 
ENDBRANCH   7   9
ENDBRANCH   3   7
TORSDOF 2
