REMARK  2 active torsions:
REMARK  status: ('A' for Active; 'I' for Inactive)
REMARK    1  A    between atoms: C2_2  and  C8_8 
REMARK    2  A    between atoms: C3_3  and  C5_5 
ROOT
HETATM    1  C1  UNL     1     -32.157   8.956   3.671  1.00 20.00     0.080 A 
HETATM    2  C2  UNL     1     -32.586   7.830   2.999  1.00 20.00     0.055 A 
HETATM    3  C3  UNL     1     -33.545   7.446   4.934  1.00 20.00     0.080 A 
HETATM    4  N9  UNL     1     -33.381   6.963   3.722  1.00 20.00    -0.248 NA
HETATM    5  S10 UNL     1     -32.770   8.939   5.272  1.00 20.00    -0.084 SA
ENDROOT
BRANCH   3   6
HETATM    6  C5  UNL     1     -34.386   6.712   5.992  1.00 20.00     0.049 A 
HETATM    7  C4  UNL     1     -33.675   5.820   6.987  1.00 20.00     0.016 A 
HETATM    8  C6  UNL     1     -34.552   5.204   5.937  1.00 20.00    -0.007 A 
HETATM    9  C7  UNL     1     -33.950   4.372   4.856  1.00 20.00     0.011 C 
ENDBRANCH   3   6
BRANCH   2  10
HETATM   10  C8  UNL     1     -32.267   7.488   1.599  1.00 20.00     0.174 C 
HETATM   11 CL11 UNL     1     -31.608   8.896   0.726  1.00 20.00    -0.124 Cl
ENDBRANCH   2  10
TORSDOF 2
