REMARK  3 active torsions:
REMARK  status: ('A' for Active; 'I' for Inactive)
REMARK    1  A    between atoms: C1_1  and  C3_3 
REMARK    2  A    between atoms: C1_1  and  C8_8 
REMARK    3  A    between atoms: C8_8  and  C9_9 
ROOT
HETATM    1  C1  UNL     1     -33.356   6.356   3.728  1.00 20.00     0.131 C 
HETATM    2  O10 UNL     1     -33.252   5.286   3.129  1.00 20.00    -0.298 OA
ENDROOT
BRANCH   1   3
HETATM    3  C3  UNL     1     -32.196   7.315   3.805  1.00 20.00     0.059 A 
HETATM    4  C2  UNL     1     -32.491   8.748   4.084  1.00 20.00     0.017 A 
HETATM    5  C4  UNL     1     -32.002   8.325   2.727  1.00 20.00    -0.007 A 
HETATM    6  C5  UNL     1     -32.897   8.445   1.542  1.00 20.00     0.011 C 
ENDBRANCH   1   3
BRANCH   1   7
HETATM    7  C8  UNL     1     -34.620   6.773   4.463  1.00 20.00     0.082 C 
BRANCH   7   8
HETATM    8  C9  UNL     1     -34.692   6.269   5.911  1.00 20.00    -0.016 C 
HETATM    9  C6  UNL     1     -33.521   6.795   6.745  1.00 20.00     0.010 C 
HETATM   10  C7  UNL     1     -34.693   4.739   5.934  1.00 20.00     0.010 C 
ENDBRANCH   7   8
ENDBRANCH   1   7
TORSDOF 3
