REMARK  2 active torsions:
REMARK  status: ('A' for Active; 'I' for Inactive)
REMARK    1  A    between atoms: C1_1  and  C3_3 
REMARK    2  A    between atoms: C1_1  and  C9_9 
ROOT
HETATM    1  C1  UNL     1     -33.668   6.614   5.082  1.00 20.00     0.139 C 
HETATM    2  O10 UNL     1     -33.255   7.028   6.168  1.00 20.00    -0.297 OA
ENDROOT
BRANCH   1   3
HETATM    3  C3  UNL     1     -33.081   7.158   3.802  1.00 20.00     0.060 A 
HETATM    4  C2  UNL     1     -33.814   8.250   3.107  1.00 20.00     0.017 A 
HETATM    5  C4  UNL     1     -32.503   8.529   3.784  1.00 20.00    -0.007 A 
HETATM    6  C5  UNL     1     -32.456   9.419   4.980  1.00 20.00     0.011 C 
ENDBRANCH   1   3
BRANCH   1   7
HETATM    7  C9  UNL     1     -34.760   5.530   4.987  1.00 20.00     0.010 C 
HETATM    8  C6  UNL     1     -34.184   4.309   4.259  1.00 20.00     0.022 C 
HETATM    9  C7  UNL     1     -35.990   6.060   4.240  1.00 20.00     0.022 C 
HETATM   10  C8  UNL     1     -35.190   5.111   6.404  1.00 20.00     0.022 C 
ENDBRANCH   1   7
TORSDOF 2
