REMARK  1 active torsions:
REMARK  status: ('A' for Active; 'I' for Inactive)
REMARK    1  A    between atoms: C3_3  and  C8_8 
ROOT
HETATM    1  C1  UNL     1     -32.767   8.881   3.912  1.00 20.00     0.285 C 
HETATM    2  C2  UNL     1     -32.857   8.161   2.567  1.00 20.00     0.073 C 
HETATM    3  C3  UNL     1     -33.230   6.732   4.755  1.00 20.00     0.289 C 
HETATM    4  C4  UNL     1     -31.741   8.553   1.615  1.00 20.00     0.023 C 
HETATM    5  N9  UNL     1     -33.617   8.142   4.848  1.00 20.00     0.099 N 
HETATM    6  S10 UNL     1     -32.771   6.406   3.022  1.00 20.00    -0.127 SA
HETATM    7  H27 UNL     1     -33.487   8.484   5.799  1.00 20.00     0.317 HD
ENDROOT
BRANCH   3   8
HETATM    8  C8  UNL     1     -34.380   5.838   5.190  1.00 20.00    -0.011 C 
HETATM    9  C5  UNL     1     -34.739   6.121   6.662  1.00 20.00     0.017 C 
HETATM   10  C6  UNL     1     -33.978   4.357   5.050  1.00 20.00     0.017 C 
HETATM   11  C7  UNL     1     -35.617   6.105   4.313  1.00 20.00     0.017 C 
ENDBRANCH   3   8
TORSDOF 1
