REMARK  3 active torsions:
REMARK  status: ('A' for Active; 'I' for Inactive)
REMARK    1  A    between atoms: C3_3  and  C5_5 
REMARK    2  A    between atoms: C3_3  and  C9_9 
REMARK    3  A    between atoms: C8_8  and  C9_9 
ROOT
HETATM    1  C1  UNL     1     -32.946   9.766   1.072  1.00 20.00     0.012 C 
HETATM    2  C2  UNL     1     -32.637   8.707   1.546  1.00 20.00    -0.117 C 
HETATM    3  C8  UNL     1     -32.260   7.409   2.126  1.00 20.00     0.100 C 
ENDROOT
BRANCH   3   4
HETATM    4  C9  UNL     1     -31.676   7.558   3.528  1.00 20.00     0.090 C 
BRANCH   4   5
HETATM    5  C3  UNL     1     -32.637   8.181   4.530  1.00 20.00     0.132 C 
HETATM    6  O10 UNL     1     -32.407   9.242   5.109  1.00 20.00    -0.298 OA
BRANCH   5   7
HETATM    7  C5  UNL     1     -33.921   7.430   4.770  1.00 20.00     0.059 A 
HETATM    8  C4  UNL     1     -34.266   7.064   6.169  1.00 20.00     0.017 A 
HETATM    9  C6  UNL     1     -33.822   6.000   5.201  1.00 20.00    -0.007 A 
HETATM   10  C7  UNL     1     -34.803   5.013   4.669  1.00 20.00     0.011 C 
ENDBRANCH   5   7
ENDBRANCH   4   5
ENDBRANCH   3   4
TORSDOF 3
