REMARK  2 active torsions:
REMARK  status: ('A' for Active; 'I' for Inactive)
REMARK    1  A    between atoms: C3_3  and  C5_5 
REMARK    2  A    between atoms: C3_3  and  C8_8 
ROOT
HETATM    1  C1  UNL     1     -32.457   8.098   1.173  1.00 20.00     0.012 C 
HETATM    2  C2  UNL     1     -32.236   7.740   2.297  1.00 20.00    -0.110 C 
HETATM    3  C8  UNL     1     -31.957   7.301   3.669  1.00 20.00     0.171 C 
ENDROOT
BRANCH   3   4
HETATM    4  C3  UNL     1     -33.210   7.212   4.517  1.00 20.00     0.142 C 
HETATM    5  O9  UNL     1     -33.384   7.887   5.531  1.00 20.00    -0.297 OA
BRANCH   4   6
HETATM    6  C5  UNL     1     -34.230   6.262   4.061  1.00 20.00     0.060 A 
HETATM    7  C4  UNL     1     -33.846   4.826   3.811  1.00 20.00     0.017 A 
HETATM    8  C6  UNL     1     -34.736   5.169   4.971  1.00 20.00    -0.007 A 
HETATM    9  C7  UNL     1     -34.239   5.006   6.367  1.00 20.00     0.011 C 
ENDBRANCH   4   6
ENDBRANCH   3   4
TORSDOF 2
