REMARK  2 active torsions:
REMARK  status: ('A' for Active; 'I' for Inactive)
REMARK    1  A    between atoms: C2_2  and  C9_9 
REMARK    2  A    between atoms: C9_9  and  N11_11 
ROOT
HETATM    1  C1  UNL     1     -32.277   8.921   0.386  1.00 20.00    -0.109 C 
HETATM    2  C2  UNL     1     -32.289   8.004   1.162  1.00 20.00    -0.077 C 
HETATM    3  C7  UNL     1     -32.263  10.036  -0.560  1.00 20.00     0.112 C 
ENDROOT
BRANCH   2   4
HETATM    4  C9  UNL     1     -32.299   6.882   2.105  1.00 20.00     0.365 C 
BRANCH   4   5
HETATM    5  N11 UNL     1     -33.042   7.225   3.316  1.00 20.00     0.103 N 
HETATM    6  C4  UNL     1     -32.215   8.028   4.225  1.00 20.00     0.303 C 
HETATM    7  C3  UNL     1     -32.993   8.381   5.493  1.00 20.00     0.300 C 
HETATM    8  N10 UNL     1     -33.484   7.184   6.179  1.00 20.00     0.091 N 
HETATM    9  C6  UNL     1     -34.305   6.374   5.269  1.00 20.00     0.244 C 
HETATM   10  H27 UNL     1     -32.684   6.630   6.487  1.00 20.00     0.316 HD
HETATM   11  C5  UNL     1     -33.524   6.013   3.993  1.00 20.00     0.308 C 
HETATM   12  C8  UNL     1     -34.760   5.111   5.998  1.00 20.00     0.044 C 
ENDBRANCH   4   5
ENDBRANCH   2   4
TORSDOF 2
