REMARK  3 active torsions:
REMARK  status: ('A' for Active; 'I' for Inactive)
REMARK    1  A    between atoms: C1_1  and  C3_3 
REMARK    2  A    between atoms: C1_1  and  C8_8 
REMARK    3  A    between atoms: C8_8  and  C9_9 
ROOT
HETATM    1  C1  UNL     1     -33.140   7.161   4.655  1.00 20.00     0.131 C 
HETATM    2  O10 UNL     1     -32.854   7.877   5.613  1.00 20.00    -0.298 OA
ENDROOT
BRANCH   1   3
HETATM    3  C3  UNL     1     -32.122   6.854   3.587  1.00 20.00     0.059 A 
HETATM    4  C2  UNL     1     -32.617   6.508   2.226  1.00 20.00     0.017 A 
HETATM    5  C4  UNL     1     -31.917   7.815   2.467  1.00 20.00    -0.007 A 
HETATM    6  C5  UNL     1     -32.666   9.097   2.336  1.00 20.00     0.011 C 
ENDBRANCH   1   3
BRANCH   1   7
HETATM    7  C8  UNL     1     -34.526   6.572   4.447  1.00 20.00     0.082 C 
BRANCH   7   8
HETATM    8  C9  UNL     1     -34.697   5.163   5.033  1.00 20.00    -0.016 C 
HETATM    9  C6  UNL     1     -34.452   5.153   6.544  1.00 20.00     0.010 C 
HETATM   10  C7  UNL     1     -33.734   4.191   4.349  1.00 20.00     0.010 C 
ENDBRANCH   7   8
ENDBRANCH   1   7
TORSDOF 3
