REMARK  1 active torsions:
REMARK  status: ('A' for Active; 'I' for Inactive)
REMARK    1  A    between atoms: C3_3  and  C4_4 
ROOT
HETATM    1  C1  UNL     1     -33.391   8.063   5.004  1.00 20.00     0.064 C 
HETATM    2  C4  UNL     1     -32.687   7.116   4.129  1.00 20.00     0.175 C 
HETATM    3  N5  UNL     1     -33.944   8.813   5.696  1.00 20.00    -0.197 NA
ENDROOT
BRANCH   2   4
HETATM    4  C3  UNL     1     -33.591   5.978   3.747  1.00 20.00     0.035 C 
HETATM    5  C2  UNL     1     -34.574   5.449   4.485  1.00 20.00     0.105 C 
HETATM    6 CL6  UNL     1     -35.049   5.997   6.038  1.00 20.00    -0.096 Cl
HETATM    7 CL7  UNL     1     -33.256   5.270   2.192  1.00 20.00    -0.087 Cl
ENDBRANCH   2   4
TORSDOF 1
