REMARK  1 active torsions:
REMARK  status: ('A' for Active; 'I' for Inactive)
REMARK    1  A    between atoms: C3_3  and  C5_5 
ROOT
HETATM    1  C1  UNL     1     -32.777   6.043   2.376  1.00 20.00     0.021 C 
HETATM    2  C2  UNL     1     -32.752   6.753   3.343  1.00 20.00    -0.039 C 
HETATM    3  C3  UNL     1     -32.723   7.609   4.506  1.00 20.00     0.206 C 
HETATM    4  O8  UNL     1     -32.238   8.730   4.424  1.00 20.00    -0.283 OA
ENDROOT
BRANCH   3   5
HETATM    5  C5  UNL     1     -33.294   7.053   5.737  1.00 20.00     0.073 A 
HETATM    6  C4  UNL     1     -34.373   7.818   6.461  1.00 20.00     0.018 A 
HETATM    7  C6  UNL     1     -34.718   6.553   5.727  1.00 20.00    -0.006 A 
HETATM    8  C7  UNL     1     -35.085   5.324   6.484  1.00 20.00     0.011 C 
ENDBRANCH   3   5
TORSDOF 1
