REMARK  2 active torsions:
REMARK  status: ('A' for Active; 'I' for Inactive)
REMARK    1  A    between atoms: C3_3  and  C7_7 
REMARK    2  A    between atoms: C8_8  and  C10_10 
ROOT
HETATM    1  C1  UNL     1     -33.998   4.409   5.085  1.00 20.00     0.021 C 
HETATM    2  C2  UNL     1     -33.770   5.588   5.054  1.00 20.00    -0.039 C 
HETATM    3  C3  UNL     1     -33.497   7.005   5.017  1.00 20.00     0.205 C 
HETATM    4  O11 UNL     1     -34.216   7.780   5.634  1.00 20.00    -0.283 OA
ENDROOT
BRANCH   3   5
HETATM    5  C7  UNL     1     -32.301   7.438   4.189  1.00 20.00     0.069 C 
HETATM    6  C4  UNL     1     -32.146   6.495   2.996  1.00 20.00     0.013 C 
HETATM    7  C5  UNL     1     -32.219   7.380   1.755  1.00 20.00     0.005 C 
HETATM    8  C8  UNL     1     -33.082   8.557   2.195  1.00 20.00    -0.014 C 
HETATM    9  C6  UNL     1     -32.579   8.825   3.614  1.00 20.00     0.017 C 
BRANCH   8  10
HETATM   10  C10 UNL     1     -32.960   9.764   1.280  1.00 20.00     0.000 C 
HETATM   11  C9  UNL     1     -33.417   9.459  -0.112  1.00 20.00     0.005 C 
ENDBRANCH   8  10
ENDBRANCH   3   5
TORSDOF 2
