REMARK  2 active torsions:
REMARK  status: ('A' for Active; 'I' for Inactive)
REMARK    1  A    between atoms: C2_2  and  C3_3 
REMARK    2  A    between atoms: C3_3  and  C8_8 
ROOT
HETATM    1  C4  UNL     1     -33.172   6.889   6.646  1.00 20.00     0.027 C 
HETATM    2  C5  UNL     1     -33.567   7.900   5.572  1.00 20.00     0.017 C 
HETATM    3  C6  UNL     1     -34.305   5.912   6.914  1.00 20.00     0.167 C 
HETATM    4  C7  UNL     1     -35.220   6.167   4.743  1.00 20.00     0.180 C 
HETATM    5  C8  UNL     1     -34.200   7.234   4.351  1.00 20.00     0.083 C 
HETATM    6  O10 UNL     1     -34.692   5.256   5.709  1.00 20.00    -0.390 OA
ENDROOT
BRANCH   5   7
HETATM    7  C3  UNL     1     -33.143   6.622   3.478  1.00 20.00     0.154 C 
HETATM    8  O9  UNL     1     -33.166   5.427   3.194  1.00 20.00    -0.293 OA
BRANCH   7   9
HETATM    9  C2  UNL     1     -32.095   7.539   2.955  1.00 20.00     0.040 C 
HETATM   10  C1  UNL     1     -32.366   8.826   2.724  1.00 20.00     0.015 C 
ENDBRANCH   7   9
ENDBRANCH   5   7
TORSDOF 2
