REMARK  1 active torsions:
REMARK  status: ('A' for Active; 'I' for Inactive)
REMARK    1  A    between atoms: C3_3  and  C5_5 
ROOT
HETATM    1  C1  UNL     1     -32.816   5.356   2.674  1.00 20.00     0.021 C 
HETATM    2  C2  UNL     1     -33.052   6.179   3.516  1.00 20.00    -0.039 C 
HETATM    3  C3  UNL     1     -33.335   7.169   4.527  1.00 20.00     0.206 C 
HETATM    4  O8  UNL     1     -32.507   8.034   4.781  1.00 20.00    -0.283 OA
ENDROOT
BRANCH   3   5
HETATM    5  C5  UNL     1     -34.637   7.063   5.195  1.00 20.00     0.073 A 
HETATM    6  C4  UNL     1     -35.639   6.048   4.706  1.00 20.00     0.018 A 
HETATM    7  C6  UNL     1     -34.979   5.860   6.042  1.00 20.00    -0.006 A 
HETATM    8  C7  UNL     1     -34.021   4.738   6.249  1.00 20.00     0.011 C 
ENDBRANCH   3   5
TORSDOF 1
