REMARK  2 active torsions:
REMARK  status: ('A' for Active; 'I' for Inactive)
REMARK    1  A    between atoms: C3_3  and  C7_7 
REMARK    2  A    between atoms: C8_8  and  C10_10 
ROOT
HETATM    1  C1  UNL     1     -32.883   9.392   0.327  1.00 20.00     0.021 C 
HETATM    2  C2  UNL     1     -32.883   9.133   1.500  1.00 20.00    -0.039 C 
HETATM    3  C3  UNL     1     -32.883   8.823   2.910  1.00 20.00     0.205 C 
HETATM    4  O11 UNL     1     -33.445   9.572   3.698  1.00 20.00    -0.283 OA
ENDROOT
BRANCH   3   5
HETATM    5  C7  UNL     1     -32.164   7.550   3.318  1.00 20.00     0.069 C 
HETATM    6  C4  UNL     1     -32.303   6.513   2.204  1.00 20.00     0.013 C 
HETATM    7  C5  UNL     1     -32.978   5.303   2.845  1.00 20.00     0.005 C 
HETATM    8  C8  UNL     1     -33.801   5.901   3.980  1.00 20.00    -0.014 C 
HETATM    9  C6  UNL     1     -32.862   6.967   4.545  1.00 20.00     0.017 C 
BRANCH   8  10
HETATM   10  C10 UNL     1     -34.230   4.874   5.014  1.00 20.00     0.000 C 
HETATM   11  C9  UNL     1     -34.996   5.497   6.139  1.00 20.00     0.005 C 
ENDBRANCH   8  10
ENDBRANCH   3   5
TORSDOF 2
