REMARK  3 active torsions:
REMARK  status: ('A' for Active; 'I' for Inactive)
REMARK    1  A    between atoms: C2_2  and  C8_8 
REMARK    2  A    between atoms: C6_6  and  C8_8 
REMARK    3  A    between atoms: C8_8  and  N9_9 
ROOT
HETATM    1  C8  UNL     1     -33.493   7.475   5.631  1.00 20.00     0.248 C 
ENDROOT
BRANCH   1   2
HETATM    2  C2  UNL     1     -33.894   6.180   6.283  1.00 20.00    -0.002 C 
HETATM    3  C1  UNL     1     -35.044   5.543   6.035  1.00 20.00     0.009 C 
ENDBRANCH   1   2
BRANCH   1   4
HETATM    4  C6  UNL     1     -32.676   7.239   4.375  1.00 20.00     0.048 C 
HETATM    5  C3  UNL     1     -33.195   6.119   3.499  1.00 20.00     0.035 C 
HETATM    6  C4  UNL     1     -32.538   6.437   2.172  1.00 20.00     0.168 C 
HETATM    7  O10 UNL     1     -32.402   7.865   2.108  1.00 20.00    -0.391 OA
HETATM    8  C5  UNL     1     -32.693   8.408   3.405  1.00 20.00     0.174 C 
ENDBRANCH   1   4
BRANCH   1   9
HETATM    9  N9  UNL     1     -32.744   8.242   6.600  1.00 20.00     0.087 N 
HETATM   10  C7  UNL     1     -32.724   9.661   6.255  1.00 20.00     0.307 C 
HETATM   11  H25 UNL     1     -31.779   7.902   6.642  1.00 20.00     0.316 HD
ENDBRANCH   1   9
TORSDOF 3
