REMARK  3 active torsions:
REMARK  status: ('A' for Active; 'I' for Inactive)
REMARK    1  A    between atoms: C7_7  and  C9_9 
REMARK    2  A    between atoms: C9_9  and  C10_10 
REMARK    3  A    between atoms: C10_10  and  N11_11 
ROOT
HETATM    1  C1  UNL     1     -33.949   8.101   4.998  1.00 20.00     0.029 C 
HETATM    2  C4  UNL     1     -34.003   6.713   5.630  1.00 20.00     0.023 C 
HETATM    3  C5  UNL     1     -32.880   8.190   3.919  1.00 20.00     0.235 C 
HETATM    4  C6  UNL     1     -33.101   5.726   3.487  1.00 20.00     0.254 C 
HETATM    5  C8  UNL     1     -34.176   5.635   4.562  1.00 20.00     0.108 C 
HETATM    6  N11 UNL     1     -33.116   7.114   2.886  1.00 20.00    -0.070 N 
HETATM    7 CL12 UNL     1     -34.126   4.019   5.322  1.00 20.00    -0.123 Cl
HETATM    8  H31 UNL     1     -34.056   7.266   2.496  1.00 20.00     0.279 HD
ENDROOT
BRANCH   6   9
HETATM    9  C10 UNL     1     -32.155   7.230   1.735  1.00 20.00     0.235 C 
BRANCH   9  10
HETATM   10  C9  UNL     1     -32.626   8.336   0.804  1.00 20.00     0.032 C 
BRANCH  10  11
HETATM   11  C7  UNL     1     -31.712   8.464  -0.404  1.00 20.00    -0.013 A 
HETATM   12  C2  UNL     1     -31.985   7.667  -1.649  1.00 20.00     0.005 A 
HETATM   13  C3  UNL     1     -32.195   9.155  -1.649  1.00 20.00     0.005 A 
ENDBRANCH  10  11
ENDBRANCH   9  10
ENDBRANCH   6   9
TORSDOF 3
