REMARK  2 active torsions:
REMARK  status: ('A' for Active; 'I' for Inactive)
REMARK    1  A    between atoms: C5_5  and  C8_8 
REMARK    2  A    between atoms: C8_8  and  N9_9 
ROOT
HETATM    1  C1  UNL     1     -33.395   5.323   2.227  1.00 20.00     0.014 C 
HETATM    2  C2  UNL     1     -33.206   6.019   3.187  1.00 20.00    -0.081 C 
HETATM    3  C8  UNL     1     -32.967   6.901   4.353  1.00 20.00     0.301 C 
ENDROOT
BRANCH   3   4
HETATM    4  C5  UNL     1     -34.124   6.925   5.291  1.00 20.00     0.035 A 
HETATM    5  C3  UNL     1     -33.899   6.849   6.779  1.00 20.00     0.012 A 
HETATM    6  C4  UNL     1     -34.568   5.704   6.064  1.00 20.00    -0.011 A 
HETATM    7  C6  UNL     1     -33.880   4.388   5.943  1.00 20.00     0.010 C 
ENDBRANCH   3   4
BRANCH   3   8
HETATM    8  N9  UNL     1     -32.637   8.231   3.871  1.00 20.00     0.095 N 
HETATM    9  C7  UNL     1     -31.938   9.001   4.892  1.00 20.00     0.308 C 
HETATM   10  H22 UNL     1     -33.495   8.720   3.614  1.00 20.00     0.317 HD
ENDBRANCH   3   8
TORSDOF 2
