REMARK  3 active torsions:
REMARK  status: ('A' for Active; 'I' for Inactive)
REMARK    1  A    between atoms: C3_3  and  C7_7 
REMARK    2  A    between atoms: C6_6  and  O9_9 
REMARK    3  A    between atoms: C7_7  and  O9_9 
ROOT
HETATM    1  C1  UNL     1     -32.780   5.177   2.568  1.00 20.00     0.021 C 
HETATM    2  C2  UNL     1     -33.514   5.522   3.452  1.00 20.00    -0.037 C 
HETATM    3  C3  UNL     1     -34.400   5.939   4.516  1.00 20.00     0.230 C 
HETATM    4  O8  UNL     1     -35.604   5.995   4.302  1.00 20.00    -0.281 OA
ENDROOT
BRANCH   3   5
HETATM    5  C7  UNL     1     -33.748   6.316   5.833  1.00 20.00     0.200 C 
HETATM    6  C5  UNL     1     -34.765   6.798   6.855  1.00 20.00     0.049 C 
BRANCH   5   7
HETATM    7  O9  UNL     1     -32.803   7.347   5.591  1.00 20.00    -0.378 OA
BRANCH   7   8
HETATM    8  C6  UNL     1     -33.418   8.502   5.035  1.00 20.00     0.164 C 
HETATM    9  C4  UNL     1     -32.361   9.560   4.801  1.00 20.00     0.033 C 
ENDBRANCH   7   8
ENDBRANCH   5   7
ENDBRANCH   3   5
TORSDOF 3
