REMARK  2 active torsions:
REMARK  status: ('A' for Active; 'I' for Inactive)
REMARK    1  A    between atoms: C3_3  and  C7_7 
REMARK    2  A    between atoms: C7_7  and  C8_8 
ROOT
HETATM    1  C1  UNL     1     -34.409   4.423   4.848  1.00 20.00     0.021 C 
HETATM    2  C2  UNL     1     -34.392   5.602   5.073  1.00 20.00    -0.040 C 
HETATM    3  C3  UNL     1     -34.372   7.021   5.345  1.00 20.00     0.202 C 
HETATM    4  O9  UNL     1     -34.384   7.411   6.506  1.00 20.00    -0.283 OA
ENDROOT
BRANCH   3   5
HETATM    5  C7  UNL     1     -34.334   7.946   4.147  1.00 20.00     0.101 C 
BRANCH   5   6
HETATM    6  C8  UNL     1     -32.918   8.393   3.715  1.00 20.00    -0.044 C 
HETATM    7  C4  UNL     1     -32.979   9.385   2.542  1.00 20.00     0.015 C 
HETATM    8  C5  UNL     1     -32.143   7.142   3.254  1.00 20.00     0.015 C 
HETATM    9  C6  UNL     1     -32.155   9.034   4.886  1.00 20.00     0.015 C 
ENDBRANCH   5   6
ENDBRANCH   3   5
TORSDOF 2
