REMARK  3 active torsions:
REMARK  status: ('A' for Active; 'I' for Inactive)
REMARK    1  A    between atoms: C6_6  and  C10_10 
REMARK    2  A    between atoms: C7_7  and  C11_11 
REMARK    3  A    between atoms: C11_11  and  N12_12 
ROOT
HETATM    1  C1  UNL     1     -33.686   4.149   4.237  1.00 20.00     0.014 C 
HETATM    2  C2  UNL     1     -33.916   5.299   4.495  1.00 20.00    -0.081 C 
HETATM    3  C11 UNL     1     -34.203   6.706   4.813  1.00 20.00     0.301 C 
ENDROOT
BRANCH   3   4
HETATM    4  C7  UNL     1     -33.388   7.645   3.939  1.00 20.00     0.031 C 
HETATM    5  C4  UNL     1     -31.881   7.449   4.095  1.00 20.00     0.008 C 
HETATM    6  C3  UNL     1     -31.327   8.041   2.810  1.00 20.00     0.005 C 
HETATM    7  C6  UNL     1     -32.287   7.510   1.748  1.00 20.00    -0.014 C 
HETATM    8  C5  UNL     1     -33.660   7.467   2.437  1.00 20.00     0.012 C 
BRANCH   7   9
HETATM    9  C10 UNL     1     -32.280   8.339   0.474  1.00 20.00     0.000 C 
HETATM   10  C8  UNL     1     -32.668   9.761   0.730  1.00 20.00     0.005 C 
ENDBRANCH   7   9
ENDBRANCH   3   4
BRANCH   3  11
HETATM   11  N12 UNL     1     -33.942   6.955   6.209  1.00 20.00     0.095 N 
HETATM   12  C9  UNL     1     -34.765   6.106   7.068  1.00 20.00     0.308 C 
HETATM   13  H31 UNL     1     -34.141   7.935   6.433  1.00 20.00     0.317 HD
ENDBRANCH   3  11
TORSDOF 3
