REMARK  4 active torsions:
REMARK  status: ('A' for Active; 'I' for Inactive)
REMARK    1  A    between atoms: C1_1  and  C5_5 
REMARK    2  A    between atoms: C1_1  and  C9_9 
REMARK    3  A    between atoms: C6_6  and  C10_10 
REMARK    4  A    between atoms: C9_9  and  C10_10 
ROOT
HETATM    1  C1  UNL     1     -33.769   6.813   3.948  1.00 20.00     0.131 C 
HETATM    2  O11 UNL     1     -34.501   6.126   3.237  1.00 20.00    -0.298 OA
ENDROOT
BRANCH   1   3
HETATM    3  C5  UNL     1     -34.210   7.256   5.318  1.00 20.00     0.059 A 
HETATM    4  C4  UNL     1     -33.321   6.953   6.473  1.00 20.00     0.017 A 
HETATM    5  C7  UNL     1     -34.634   6.240   6.322  1.00 20.00    -0.007 A 
HETATM    6  C8  UNL     1     -34.659   4.775   6.048  1.00 20.00     0.011 C 
ENDBRANCH   1   3
BRANCH   1   7
HETATM    7  C9  UNL     1     -32.384   7.262   3.513  1.00 20.00     0.079 C 
BRANCH   7   8
HETATM    8  C10 UNL     1     -32.285   7.477   2.006  1.00 20.00     0.012 C 
BRANCH   8   9
HETATM    9  C6  UNL     1     -33.285   8.514   1.523  1.00 20.00    -0.014 A 
HETATM   10  C2  UNL     1     -32.906   9.969   1.482  1.00 20.00     0.005 A 
HETATM   11  C3  UNL     1     -33.084   9.201   0.201  1.00 20.00     0.005 A 
ENDBRANCH   8   9
ENDBRANCH   7   8
ENDBRANCH   1   7
TORSDOF 4
