REMARK  1 active torsions:
REMARK  status: ('A' for Active; 'I' for Inactive)
REMARK    1  A    between atoms: C3_3  and  C7_7 
ROOT
HETATM    1  C1  UNL     1     -32.374   8.948   1.781  1.00 20.00     0.021 C 
HETATM    2  C2  UNL     1     -32.815   8.774   2.883  1.00 20.00    -0.039 C 
HETATM    3  C3  UNL     1     -33.345   8.565   4.210  1.00 20.00     0.208 C 
HETATM    4  O10 UNL     1     -33.900   9.486   4.795  1.00 20.00    -0.283 OA
ENDROOT
BRANCH   3   5
HETATM    5  C7  UNL     1     -33.172   7.194   4.786  1.00 20.00     0.100 C 
HETATM    6  C6  UNL     1     -33.248   6.126   3.690  1.00 20.00     0.047 C 
HETATM    7  C8  UNL     1     -34.435   5.282   4.155  1.00 20.00     0.122 C 
HETATM    8  C4  UNL     1     -34.080   4.481   5.406  1.00 20.00     0.034 C 
HETATM    9  O11 UNL     1     -35.301   6.299   4.707  1.00 20.00    -0.380 OA
HETATM   10  C5  UNL     1     -34.048   5.566   6.485  1.00 20.00     0.035 C 
HETATM   11  C9  UNL     1     -34.362   6.825   5.677  1.00 20.00     0.134 C 
ENDBRANCH   3   5
TORSDOF 1
