REMARK  4 active torsions:
REMARK  status: ('A' for Active; 'I' for Inactive)
REMARK    1  A    between atoms: C1_1  and  C8_8 
REMARK    2  A    between atoms: C1_1  and  O11_11 
REMARK    3  A    between atoms: C4_4  and  C8_8 
REMARK    4  A    between atoms: C8_8  and  N9_9 
ROOT
HETATM    1  C8  UNL     1     -33.227   6.217   4.296  1.00 20.00     0.324 C 
ENDROOT
BRANCH   1   2
HETATM    2  C1  UNL     1     -33.047   7.584   3.652  1.00 20.00     0.292 C 
HETATM    3  O10 UNL     1     -33.596   8.594   4.081  1.00 20.00    -0.263 OA
BRANCH   2   4
HETATM    4  O11 UNL     1     -32.215   7.541   2.574  1.00 20.00    -0.325 OA
HETATM    5  C7  UNL     1     -31.985   8.791   1.916  1.00 20.00     0.213 C 
ENDBRANCH   2   4
ENDBRANCH   1   2
BRANCH   1   6
HETATM    6  C4  UNL     1     -34.164   6.313   5.489  1.00 20.00     0.029 A 
HETATM    7  C2  UNL     1     -33.824   5.617   6.778  1.00 20.00     0.008 A 
HETATM    8  C3  UNL     1     -33.771   7.118   6.697  1.00 20.00     0.008 A 
ENDBRANCH   1   6
BRANCH   1   9
HETATM    9  N9  UNL     1     -33.713   5.241   3.354  1.00 20.00     0.094 N 
HETATM   10  C5  UNL     1     -34.324   4.094   4.043  1.00 20.00     0.310 C 
HETATM   11  C6  UNL     1     -32.637   4.769   2.471  1.00 20.00     0.310 C 
ENDBRANCH   1   9
TORSDOF 4
