REMARK  1 active torsions:
REMARK  status: ('A' for Active; 'I' for Inactive)
REMARK    1  A    between atoms: C3_3  and  C8_8 
ROOT
HETATM    1  C1  UNL     1     -33.116   9.716   1.947  1.00 20.00     0.016 A 
HETATM    2  C2  UNL     1     -33.225   9.988   0.553  1.00 20.00     0.015 A 
HETATM    3  C3  UNL     1     -32.662   8.439   2.192  1.00 20.00    -0.013 A 
HETATM    4  C4  UNL     1     -32.850   8.907  -0.215  1.00 20.00    -0.021 A 
HETATM    5  C10 UNL     1     -32.822   8.791  -1.689  1.00 20.00     0.056 C 
HETATM    6  S11 UNL     1     -32.369   7.573   0.744  1.00 20.00    -0.099 SA
ENDROOT
BRANCH   3   7
HETATM    7  C8  UNL     1     -32.411   7.768   3.524  1.00 20.00     0.027 C 
HETATM    8  C5  UNL     1     -33.312   8.325   4.644  1.00 20.00     0.011 C 
HETATM    9  C6  UNL     1     -33.642   7.119   5.513  1.00 20.00     0.016 C 
HETATM   10  C9  UNL     1     -33.791   6.009   4.491  1.00 20.00     0.058 C 
HETATM   11  C7  UNL     1     -32.638   6.240   3.524  1.00 20.00     0.025 C 
HETATM   12 BR12 UNL     1     -33.697   4.266   5.319  1.00 20.00    -0.091 Br
ENDBRANCH   3   7
TORSDOF 1
