REMARK  1 active torsions:
REMARK  status: ('A' for Active; 'I' for Inactive)
REMARK    1  A    between atoms: C3_3  and  C8_8 
ROOT
HETATM    1  C1  UNL     1     -32.926   8.898   2.976  1.00 20.00     0.016 A 
HETATM    2  C2  UNL     1     -32.381   9.073   1.671  1.00 20.00     0.015 A 
HETATM    3  C3  UNL     1     -32.930   7.575   3.361  1.00 20.00    -0.012 A 
HETATM    4  C4  UNL     1     -31.988   7.878   1.109  1.00 20.00    -0.021 A 
HETATM    5  C10 UNL     1     -31.380   7.641  -0.218  1.00 20.00     0.056 C 
HETATM    6  S11 UNL     1     -32.277   6.552   2.153  1.00 20.00    -0.099 SA
ENDROOT
BRANCH   3   7
HETATM    7  C8  UNL     1     -33.420   6.974   4.661  1.00 20.00     0.040 C 
HETATM    8  C6  UNL     1     -33.987   7.926   5.727  1.00 20.00     0.011 C 
HETATM    9  C5  UNL     1     -34.746   7.029   6.705  1.00 20.00     0.002 C 
HETATM   10  C7  UNL     1     -34.942   5.683   6.003  1.00 20.00     0.016 C 
HETATM   11  C9  UNL     1     -34.515   5.902   4.556  1.00 20.00     0.067 C 
HETATM   12 BR12 UNL     1     -36.058   6.503   3.509  1.00 20.00    -0.090 Br
ENDBRANCH   3   7
TORSDOF 1
