REMARK  1 active torsions:
REMARK  status: ('A' for Active; 'I' for Inactive)
REMARK    1  A    between atoms: C3_3  and  C8_8 
ROOT
HETATM    1  C1  UNL     1     -32.764   8.899   3.703  1.00 20.00     0.016 A 
HETATM    2  C2  UNL     1     -32.440   9.478   2.442  1.00 20.00     0.015 A 
HETATM    3  C3  UNL     1     -32.756   7.522   3.658  1.00 20.00    -0.012 A 
HETATM    4  C4  UNL     1     -32.198   8.521   1.480  1.00 20.00    -0.021 A 
HETATM    5  C10 UNL     1     -31.834   8.715   0.060  1.00 20.00     0.056 C 
HETATM    6  S11 UNL     1     -32.360   6.933   2.099  1.00 20.00    -0.099 SA
ENDROOT
BRANCH   3   7
HETATM    7  C8  UNL     1     -33.043   6.542   4.774  1.00 20.00     0.040 C 
HETATM    8  C6  UNL     1     -33.330   7.233   6.118  1.00 20.00     0.011 C 
HETATM    9  C5  UNL     1     -34.218   6.242   6.854  1.00 20.00     0.002 C 
HETATM   10  C7  UNL     1     -35.152   5.744   5.761  1.00 20.00     0.016 C 
HETATM   11  C9  UNL     1     -34.274   5.646   4.515  1.00 20.00     0.067 C 
HETATM   12 BR12 UNL     1     -33.701   3.789   4.256  1.00 20.00    -0.090 Br
ENDBRANCH   3   7
TORSDOF 1
