REMARK  1 active torsions:
REMARK  status: ('A' for Active; 'I' for Inactive)
REMARK    1  A    between atoms: C3_3  and  C9_9 
ROOT
HETATM    1  C1  UNL     1     -33.166   9.025   2.029  1.00 20.00     0.016 A 
HETATM    2  C2  UNL     1     -33.461   9.440   0.698  1.00 20.00     0.015 A 
HETATM    3  C3  UNL     1     -32.661   7.743   2.071  1.00 20.00    -0.013 A 
HETATM    4  C4  UNL     1     -33.170   8.461  -0.226  1.00 20.00    -0.021 A 
HETATM    5  C10 UNL     1     -33.332   8.505  -1.696  1.00 20.00     0.056 C 
HETATM    6  S12 UNL     1     -32.545   7.047   0.511  1.00 20.00    -0.099 SA
ENDROOT
BRANCH   3   7
HETATM    7  C9  UNL     1     -32.226   6.938   3.284  1.00 20.00     0.033 C 
HETATM    8  C7  UNL     1     -33.004   7.181   4.587  1.00 20.00     0.088 C 
HETATM    9  C5  UNL     1     -34.069   6.114   4.542  1.00 20.00     0.127 C 
HETATM   10  C6  UNL     1     -33.814   5.095   3.463  1.00 20.00     0.079 C 
HETATM   11  O11 UNL     1     -35.032   6.081   5.297  1.00 20.00    -0.298 OA
HETATM   12  C8  UNL     1     -32.385   5.428   3.047  1.00 20.00     0.018 C 
ENDBRANCH   3   7
TORSDOF 1
