REMARK  4 active torsions:
REMARK  status: ('A' for Active; 'I' for Inactive)
REMARK    1  A    between atoms: C1_1  and  C5_5 
REMARK       I    between atoms: C1_1  and  N8_8 
REMARK    2  A    between atoms: C5_5  and  S10_10 
REMARK    3  A    between atoms: C6_6  and  N8_8 
REMARK    4  A    between atoms: C7_7  and  N8_8 
ROOT
HETATM    1  C1  UNL     1     -33.029   6.451   3.278  1.00 20.00     0.229 C 
HETATM    2  N8  UNL     1     -33.460   6.647   4.597  1.00 20.00    -0.348 N 
HETATM    3  O9  UNL     1     -33.234   5.406   2.655  1.00 20.00    -0.273 OA
ENDROOT
BRANCH   2   4
HETATM    4  C6  UNL     1     -32.744   7.509   5.536  1.00 20.00     0.121 C 
HETATM    5  C2  UNL     1     -33.248   8.911   5.470  1.00 20.00     0.026 C 
ENDBRANCH   2   4
BRANCH   2   6
HETATM    6  C7  UNL     1     -34.655   6.006   5.133  1.00 20.00     0.079 C 
HETATM    7  C3  UNL     1     -34.479   4.496   5.073  1.00 20.00     0.032 C 
HETATM    8  C4  UNL     1     -35.863   6.465   4.330  1.00 20.00     0.032 C 
ENDBRANCH   2   6
BRANCH   1   9
HETATM    9  C5  UNL     1     -32.286   7.619   2.651  1.00 20.00     0.173 C 
BRANCH   9  10
HETATM   10  S10 UNL     1     -33.408   8.765   1.810  1.00 20.00    -0.173 SA
HETATM   11  H25 UNL     1     -32.461   9.621   1.400  1.00 20.00     0.102 HD
ENDBRANCH   9  10
ENDBRANCH   1   9
TORSDOF 4
