REMARK  1 active torsions:
REMARK  status: ('A' for Active; 'I' for Inactive)
REMARK    1  A    between atoms: C3_3  and  C6_6 
ROOT
HETATM    1  C1  UNL     1     -32.341   8.008   1.202  1.00 20.00     0.087 C 
HETATM    2  C5  UNL     1     -32.686   7.273   2.369  1.00 20.00     0.095 C 
HETATM    3  C6  UNL     1     -33.472   7.781   3.382  1.00 20.00     0.032 C 
HETATM    4  N8  UNL     1     -32.057   8.604   0.248  1.00 20.00    -0.192 NA
ENDROOT
BRANCH   3   5
HETATM    5  C3  UNL     1     -33.856   7.131   4.572  1.00 20.00     0.031 A 
HETATM    6  C4  UNL     1     -34.084   5.794   4.824  1.00 20.00     0.048 A 
HETATM    7  C7  UNL     1     -33.972   4.688   3.850  1.00 20.00     0.072 C 
HETATM    8  N9  UNL     1     -34.452   5.479   6.117  1.00 20.00    -0.258 NA
HETATM    9  C2  UNL     1     -34.497   6.584   6.828  1.00 20.00     0.167 A 
HETATM   10  S10 UNL     1     -34.110   8.038   6.004  1.00 20.00    -0.081 SA
ENDBRANCH   3   5
TORSDOF 1
