REMARK  5 active torsions:
REMARK  status: ('A' for Active; 'I' for Inactive)
REMARK    1  A    between atoms: C1_1  and  C9_9 
REMARK    2  A    between atoms: C6_6  and  C7_7 
REMARK    3  A    between atoms: C6_6  and  C8_8 
REMARK    4  A    between atoms: C7_7  and  C9_9 
REMARK    5  A    between atoms: C8_8  and  C10_10 
ROOT
HETATM    1  C6  UNL     1     -32.194   6.987   3.038  1.00 20.00     0.001 C 
ENDROOT
BRANCH   1   2
HETATM    2  C7  UNL     1     -32.853   5.908   3.905  1.00 20.00     0.011 C 
BRANCH   2   3
HETATM    3  C9  UNL     1     -34.222   6.327   4.464  1.00 20.00     0.043 C 
HETATM    4  C2  UNL     1     -35.084   5.140   4.884  1.00 20.00     0.017 C 
BRANCH   3   5
HETATM    5  C1  UNL     1     -33.993   7.274   5.630  1.00 20.00     0.235 C 
HETATM    6  O11 UNL     1     -32.892   7.594   6.066  1.00 20.00    -0.306 OA
ENDBRANCH   3   5
ENDBRANCH   2   3
ENDBRANCH   1   2
BRANCH   1   7
HETATM    7  C8  UNL     1     -33.040   7.281   1.791  1.00 20.00     0.008 C 
BRANCH   7   8
HETATM    8  C10 UNL     1     -32.506   8.405   0.863  1.00 20.00    -0.051 C 
HETATM    9  C3  UNL     1     -32.994   8.115  -0.570  1.00 20.00     0.014 C 
HETATM   10  C4  UNL     1     -33.041   9.782   1.291  1.00 20.00     0.014 C 
HETATM   11  C5  UNL     1     -30.969   8.438   0.857  1.00 20.00     0.014 C 
ENDBRANCH   7   8
ENDBRANCH   1   7
TORSDOF 5
