REMARK  2 active torsions:
REMARK  status: ('A' for Active; 'I' for Inactive)
REMARK    1  A    between atoms: C1_1  and  C7_7 
REMARK    2  A    between atoms: C3_3  and  C7_7 
ROOT
HETATM    1  C2  UNL     1     -32.008   7.468   3.732  1.00 20.00     0.015 A 
HETATM    2  C3  UNL     1     -33.486   7.478   4.019  1.00 20.00     0.004 A 
HETATM    3  C4  UNL     1     -32.711   8.785   3.983  1.00 20.00    -0.043 A 
HETATM    4  C5  UNL     1     -32.949   9.693   2.804  1.00 20.00     0.015 C 
HETATM    5  C6  UNL     1     -32.404   9.517   5.263  1.00 20.00     0.015 C 
ENDROOT
BRANCH   2   6
HETATM    6  C7  UNL     1     -34.011   6.888   5.283  1.00 20.00     0.118 C 
BRANCH   6   7
HETATM    7  C1  UNL     1     -34.207   5.358   5.291  1.00 20.00     0.172 C 
HETATM    8  O8  UNL     1     -34.587   4.860   6.386  1.00 20.00    -0.648 OA
HETATM    9  O9  UNL     1     -33.962   4.784   4.191  1.00 20.00    -0.648 OA
ENDBRANCH   6   7
ENDBRANCH   2   6
TORSDOF 2
