REMARK  2 active torsions:
REMARK  status: ('A' for Active; 'I' for Inactive)
REMARK    1  A    between atoms: C6_6  and  C7_7 
REMARK    2  A    between atoms: C7_7  and  N8_8 
ROOT
HETATM    1  C1  UNL     1     -32.364   8.241   1.169  1.00 20.00     0.157 C 
HETATM    2  N8  UNL     1     -32.137   7.318   1.864  1.00 20.00    -0.274 NA
HETATM    3  S9  UNL     1     -32.667   9.476   0.210  1.00 20.00    -0.055 SA
ENDROOT
BRANCH   2   4
HETATM    4  C7  UNL     1     -32.199   7.591   3.295  1.00 20.00     0.165 C 
BRANCH   4   5
HETATM    5  C6  UNL     1     -33.271   6.699   3.916  1.00 20.00     0.067 C 
HETATM    6  C4  UNL     1     -32.940   5.220   3.705  1.00 20.00     0.017 C 
HETATM    7  C2  UNL     1     -34.005   4.280   4.268  1.00 20.00     0.002 C 
HETATM    8  C3  UNL     1     -34.208   4.444   5.771  1.00 20.00     0.010 C 
HETATM    9  C5  UNL     1     -34.643   5.850   6.163  1.00 20.00     0.074 C 
HETATM   10  S10 UNL     1     -33.407   7.094   5.694  1.00 20.00    -0.163 SA
ENDBRANCH   4   5
ENDBRANCH   2   4
TORSDOF 2
