REMARK  2 active torsions:
REMARK  status: ('A' for Active; 'I' for Inactive)
REMARK    1  A    between atoms: C4_4  and  C8_8 
REMARK    2  A    between atoms: C5_5  and  C9_9 
ROOT
HETATM    1  C1  UNL     1     -33.640   8.181   6.102  1.00 20.00     0.032 C 
HETATM    2  C2  UNL     1     -33.414   6.550   4.217  1.00 20.00     0.043 C 
HETATM    3  C3  UNL     1     -34.649   7.230   6.729  1.00 20.00     0.169 C 
HETATM    4  C4  UNL     1     -33.621   8.027   4.580  1.00 20.00     0.004 C 
HETATM    5  C5  UNL     1     -34.407   5.621   4.943  1.00 20.00     0.057 C 
HETATM    6  C6  UNL     1     -35.831   5.739   4.380  1.00 20.00     0.046 C 
HETATM    7  O10 UNL     1     -34.394   5.878   6.355  1.00 20.00    -0.381 OA
ENDROOT
BRANCH   5   8
HETATM    8  C9  UNL     1     -33.945   4.166   4.778  1.00 20.00     0.033 C 
HETATM    9  C7  UNL     1     -32.586   3.958   5.355  1.00 20.00     0.008 C 
ENDBRANCH   5   8
BRANCH   4  10
HETATM   10  C8  UNL     1     -32.535   8.901   3.955  1.00 20.00     0.119 C 
HETATM   11 CL11 UNL     1     -32.873   9.157   2.235  1.00 20.00    -0.130 Cl
ENDBRANCH   4  10
TORSDOF 2
