REMARK  5 active torsions:
REMARK  status: ('A' for Active; 'I' for Inactive)
REMARK    1  A    between atoms: C3_3  and  C7_7 
REMARK    2  A    between atoms: C5_5  and  C6_6 
REMARK    3  A    between atoms: C5_5  and  C7_7 
REMARK    4  A    between atoms: C6_6  and  S9_9 
REMARK    5  A    between atoms: C7_7  and  O8_8 
ROOT
HETATM    1  C7  UNL     1     -32.478   7.372   4.627  1.00 20.00     0.122 C 
ENDROOT
BRANCH   1   2
HETATM    2  C3  UNL     1     -33.949   7.481   4.902  1.00 20.00     0.014 A 
HETATM    3  C1  UNL     1     -34.816   6.253   4.886  1.00 20.00     0.007 A 
HETATM    4  C2  UNL     1     -34.521   6.947   6.186  1.00 20.00     0.007 A 
ENDBRANCH   1   2
BRANCH   1   5
HETATM    5  C5  UNL     1     -32.137   7.371   3.130  1.00 20.00     0.042 C 
BRANCH   5   6
HETATM    6  C6  UNL     1     -32.654   8.562   2.323  1.00 20.00     0.076 C 
BRANCH   6   7
HETATM    7  S9  UNL     1     -32.215   8.474   0.562  1.00 20.00    -0.173 SA
HETATM    8  C4  UNL     1     -32.979  10.022   0.025  1.00 20.00     0.089 C 
ENDBRANCH   6   7
ENDBRANCH   5   6
ENDBRANCH   1   5
BRANCH   1   9
HETATM    9  O8  UNL     1     -31.813   8.483   5.235  1.00 20.00    -0.395 OA
HETATM   10  H23 UNL     1     -32.000   8.425   6.183  1.00 20.00     0.210 HD
ENDBRANCH   1   9
TORSDOF 5
