REMARK  0 active torsions:
REMARK  status: ('A' for Active; 'I' for Inactive)
ROOT
HETATM    1  C1  UNL     1     -33.094   8.172   4.812  1.00 20.00     0.066 C 
HETATM    2  C2  UNL     1     -33.845   5.444   3.813  1.00 20.00     0.038 C 
HETATM    3  C3  UNL     1     -33.451   4.588   5.017  1.00 20.00     0.273 C 
HETATM    4  C4  UNL     1     -33.731   6.449   6.522  1.00 20.00     0.292 C 
HETATM    5  C5  UNL     1     -35.546   5.487   5.427  1.00 20.00     0.278 C 
HETATM    6  C6  UNL     1     -34.186   7.393   5.401  1.00 20.00     0.127 C 
HETATM    7  C7  UNL     1     -34.861   6.411   4.433  1.00 20.00     0.035 C 
HETATM    8  N8  UNL     1     -32.230   8.789   4.345  1.00 20.00    -0.197 NA
HETATM    9  N9  UNL     1     -34.286   5.118   6.130  1.00 20.00     0.090 N 
ENDROOT
TORSDOF 0
