REMARK  1 active torsions:
REMARK  status: ('A' for Active; 'I' for Inactive)
REMARK    1  A    between atoms: C1_1  and  C7_7 
ROOT
HETATM    1  C2  UNL     1     -33.896   8.221   5.433  1.00 20.00     0.001 C 
HETATM    2  C3  UNL     1     -32.894   8.841   4.467  1.00 20.00     0.011 C 
HETATM    3  C4  UNL     1     -32.180   6.781   3.171  1.00 20.00     0.012 C 
HETATM    4  C5  UNL     1     -33.698   6.732   5.726  1.00 20.00     0.008 C 
HETATM    5  C6  UNL     1     -33.156   5.631   3.424  1.00 20.00     0.009 C 
HETATM    6  C7  UNL     1     -32.820   8.165   3.100  1.00 20.00     0.047 C 
HETATM    7  C8  UNL     1     -34.133   5.730   4.627  1.00 20.00    -0.048 C 
HETATM    8  C9  UNL     1     -35.556   6.042   4.116  1.00 20.00     0.015 C 
HETATM    9  C10 UNL     1     -34.200   4.327   5.285  1.00 20.00     0.015 C 
ENDROOT
BRANCH   6  10
HETATM   10  C1  UNL     1     -31.984   9.037   2.208  1.00 20.00     0.235 C 
HETATM   11  O11 UNL     1     -32.409   9.558   1.182  1.00 20.00    -0.306 OA
ENDBRANCH   6  10
TORSDOF 1
