REMARK  2 active torsions:
REMARK  status: ('A' for Active; 'I' for Inactive)
REMARK    1  A    between atoms: C1_1  and  C7_7 
REMARK    2  A    between atoms: C8_8  and  C11_11 
ROOT
HETATM    1  C2  UNL     1     -32.966   5.448   2.860  1.00 20.00     0.001 C 
HETATM    2  C3  UNL     1     -34.336   5.511   3.533  1.00 20.00     0.011 C 
HETATM    3  C4  UNL     1     -33.128   7.078   5.234  1.00 20.00     0.012 C 
HETATM    4  C5  UNL     1     -32.475   6.766   2.250  1.00 20.00     0.005 C 
HETATM    5  C6  UNL     1     -32.822   8.263   4.319  1.00 20.00     0.005 C 
HETATM    6  C7  UNL     1     -34.382   6.278   4.868  1.00 20.00     0.047 C 
HETATM    7  C8  UNL     1     -33.074   8.060   2.820  1.00 20.00    -0.011 C 
ENDROOT
BRANCH   7   8
HETATM    8  C11 UNL     1     -32.534   9.268   2.043  1.00 20.00    -0.019 C 
HETATM    9  C9  UNL     1     -32.875   9.141   0.563  1.00 20.00     0.010 C 
HETATM   10  C10 UNL     1     -33.093  10.563   2.621  1.00 20.00     0.010 C 
ENDBRANCH   7   8
BRANCH   6  11
HETATM   11  C1  UNL     1     -34.638   5.293   5.972  1.00 20.00     0.235 C 
HETATM   12  O12 UNL     1     -33.889   5.144   6.932  1.00 20.00    -0.306 OA
ENDBRANCH   6  11
TORSDOF 2
