REMARK  2 active torsions:
REMARK  status: ('A' for Active; 'I' for Inactive)
REMARK    1  A    between atoms: C5_5  and  C8_8 
REMARK    2  A    between atoms: C6_6  and  C9_9 
ROOT
HETATM    1  C1  UNL     1     -33.301   5.499   2.335  1.00 20.00     0.001 C 
HETATM    2  C2  UNL     1     -33.929   5.029   3.643  1.00 20.00     0.005 C 
HETATM    3  C3  UNL     1     -32.222   6.553   2.574  1.00 20.00     0.005 C 
HETATM    4  C4  UNL     1     -33.382   7.256   4.708  1.00 20.00     0.010 C 
HETATM    5  C5  UNL     1     -34.473   6.200   4.470  1.00 20.00    -0.014 C 
HETATM    6  C6  UNL     1     -32.716   7.741   3.411  1.00 20.00    -0.000 C 
ENDROOT
BRANCH   5   7
HETATM    7  C8  UNL     1     -35.036   5.702   5.801  1.00 20.00     0.000 C 
HETATM    8  C7  UNL     1     -33.982   5.051   6.635  1.00 20.00     0.005 C 
ENDBRANCH   5   7
BRANCH   6   9
HETATM    9  C9  UNL     1     -33.643   8.655   2.605  1.00 20.00     0.119 C 
HETATM   10 CL10 UNL     1     -32.782   9.304   1.201  1.00 20.00    -0.130 Cl
ENDBRANCH   6   9
TORSDOF 2
