REMARK  2 active torsions:
REMARK  status: ('A' for Active; 'I' for Inactive)
REMARK    1  A    between atoms: C5_5  and  C6_6 
REMARK    2  A    between atoms: C6_6  and  S8_8 
ROOT
HETATM    1  C1  UNL     1     -34.497   6.815   6.224  1.00 20.00     0.027 C 
HETATM    2  C2  UNL     1     -33.138   7.129   5.605  1.00 20.00     0.009 C 
HETATM    3  C3  UNL     1     -34.984   5.440   5.785  1.00 20.00     0.167 C 
HETATM    4  C4  UNL     1     -33.735   5.519   3.773  1.00 20.00     0.172 C 
HETATM    5  C5  UNL     1     -33.172   6.908   4.088  1.00 20.00     0.019 C 
HETATM    6  O7  UNL     1     -35.025   5.350   4.362  1.00 20.00    -0.391 OA
ENDROOT
BRANCH   5   7
HETATM    7  C6  UNL     1     -31.790   7.096   3.473  1.00 20.00     0.077 C 
BRANCH   7   8
HETATM    8  S8  UNL     1     -31.931   7.424   1.698  1.00 20.00    -0.182 SA
HETATM    9  H20 UNL     1     -30.616   7.536   1.465  1.00 20.00     0.101 HD
ENDBRANCH   7   8
ENDBRANCH   5   7
TORSDOF 2
