REMARK  2 active torsions:
REMARK  status: ('A' for Active; 'I' for Inactive)
REMARK    1  A    between atoms: C4_4  and  C8_8 
REMARK    2  A    between atoms: C5_5  and  C9_9 
ROOT
HETATM    1  C1  UNL     1     -32.119   7.110   2.264  1.00 20.00     0.032 C 
HETATM    2  C2  UNL     1     -33.569   8.216   3.978  1.00 20.00     0.043 C 
HETATM    3  C3  UNL     1     -32.421   5.784   2.946  1.00 20.00     0.169 C 
HETATM    4  C4  UNL     1     -33.262   8.105   2.480  1.00 20.00     0.004 C 
HETATM    5  C5  UNL     1     -33.784   6.840   4.639  1.00 20.00     0.057 C 
HETATM    6  C6  UNL     1     -35.123   6.205   4.235  1.00 20.00     0.046 C 
HETATM    7  O10 UNL     1     -32.691   5.961   4.335  1.00 20.00    -0.381 OA
ENDROOT
BRANCH   5   8
HETATM    8  C9  UNL     1     -33.775   7.008   6.165  1.00 20.00     0.033 C 
HETATM    9  C7  UNL     1     -33.980   5.704   6.857  1.00 20.00     0.008 C 
ENDBRANCH   5   8
BRANCH   4  10
HETATM   10  C8  UNL     1     -32.916   9.471   1.890  1.00 20.00     0.119 C 
HETATM   11 CL11 UNL     1     -32.613   9.324   0.150  1.00 20.00    -0.130 Cl
ENDBRANCH   4  10
TORSDOF 2
