REMARK  1 active torsions:
REMARK  status: ('A' for Active; 'I' for Inactive)
REMARK    1  A    between atoms: C6_6  and  C10_10 
ROOT
HETATM    1  C1  UNL     1     -33.499   8.614   5.493  1.00 20.00     0.001 C 
HETATM    2  C2  UNL     1     -32.382   8.730   4.457  1.00 20.00     0.005 C 
HETATM    3  C3  UNL     1     -32.770   6.716   2.877  1.00 20.00     0.006 C 
HETATM    4  C4  UNL     1     -33.708   7.219   6.072  1.00 20.00     0.008 C 
HETATM    5  C5  UNL     1     -32.918   5.810   4.100  1.00 20.00     0.009 C 
HETATM    6  C6  UNL     1     -32.805   8.240   3.069  1.00 20.00    -0.001 C 
HETATM    7  C7  UNL     1     -34.071   6.080   5.092  1.00 20.00    -0.048 C 
HETATM    8  C8  UNL     1     -34.251   4.799   5.947  1.00 20.00     0.015 C 
HETATM    9  C9  UNL     1     -35.407   6.344   4.380  1.00 20.00     0.015 C 
ENDROOT
BRANCH   6  10
HETATM   10  C10 UNL     1     -31.939   8.904   1.989  1.00 20.00     0.119 C 
HETATM   11 CL11 UNL     1     -32.752   8.803   0.420  1.00 20.00    -0.130 Cl
ENDBRANCH   6  10
TORSDOF 1
