REMARK  2 active torsions:
REMARK  status: ('A' for Active; 'I' for Inactive)
REMARK    1  A    between atoms: C1_1  and  C5_5 
REMARK    2  A    between atoms: C6_6  and  C8_8 
ROOT
HETATM    1  C2  UNL     1     -33.511   7.248   5.436  1.00 20.00     0.012 C 
HETATM    2  C3  UNL     1     -32.824   8.530   4.974  1.00 20.00     0.005 C 
HETATM    3  C4  UNL     1     -32.791   6.837   3.204  1.00 20.00     0.016 C 
HETATM    4  C5  UNL     1     -33.975   6.593   4.140  1.00 20.00     0.047 C 
HETATM    5  C6  UNL     1     -32.296   8.235   3.570  1.00 20.00    -0.014 C 
ENDROOT
BRANCH   4   6
HETATM    6  C1  UNL     1     -34.315   5.121   4.302  1.00 20.00     0.235 C 
HETATM    7  O9  UNL     1     -33.719   4.222   3.719  1.00 20.00    -0.306 OA
ENDBRANCH   4   6
BRANCH   5   8
HETATM    8  C8  UNL     1     -32.890   9.233   2.593  1.00 20.00     0.000 C 
HETATM    9  C7  UNL     1     -32.454   8.968   1.186  1.00 20.00     0.005 C 
ENDBRANCH   5   8
TORSDOF 2
