REMARK  2 active torsions:
REMARK  status: ('A' for Active; 'I' for Inactive)
REMARK    1  A    between atoms: C5_5  and  C6_6 
REMARK    2  A    between atoms: C6_6  and  S8_8 
ROOT
HETATM    1  C1  UNL     1     -34.450   5.082   6.502  1.00 20.00     0.027 C 
HETATM    2  C2  UNL     1     -34.361   6.598   6.651  1.00 20.00     0.009 C 
HETATM    3  C3  UNL     1     -34.874   4.704   5.090  1.00 20.00     0.167 C 
HETATM    4  C4  UNL     1     -33.986   6.699   4.170  1.00 20.00     0.172 C 
HETATM    5  C5  UNL     1     -33.501   7.200   5.533  1.00 20.00     0.019 C 
HETATM    6  O7  UNL     1     -33.987   5.271   4.127  1.00 20.00    -0.391 OA
ENDROOT
BRANCH   5   7
HETATM    7  C6  UNL     1     -33.507   8.724   5.594  1.00 20.00     0.077 C 
BRANCH   7   8
HETATM    8  S8  UNL     1     -32.090   9.395   4.688  1.00 20.00    -0.182 SA
HETATM    9  H20 UNL     1     -32.367  10.686   4.919  1.00 20.00     0.101 HD
ENDBRANCH   7   8
ENDBRANCH   5   7
TORSDOF 2
