REMARK  2 active torsions:
REMARK  status: ('A' for Active; 'I' for Inactive)
REMARK    1  A    between atoms: C5_5  and  C7_7 
REMARK    2  A    between atoms: C6_6  and  C8_8 
ROOT
HETATM    1  C1  UNL     1     -33.161   4.901   2.250  1.00 20.00     0.001 C 
HETATM    2  C2  UNL     1     -32.653   6.054   1.388  1.00 20.00     0.005 C 
HETATM    3  C3  UNL     1     -34.066   5.396   3.375  1.00 20.00     0.013 C 
HETATM    4  C4  UNL     1     -32.865   7.620   3.361  1.00 20.00     0.019 C 
HETATM    5  C5  UNL     1     -31.949   7.123   2.233  1.00 20.00    -0.000 C 
HETATM    6  C6  UNL     1     -33.371   6.461   4.232  1.00 20.00     0.094 C 
ENDROOT
BRANCH   6   7
HETATM    7  C8  UNL     1     -34.313   6.976   5.319  1.00 20.00     0.391 C 
HETATM    8  F9  UNL     1     -33.682   7.881   6.083  1.00 20.00    -0.171 F 
HETATM    9  F10 UNL     1     -35.388   7.553   4.761  1.00 20.00    -0.171 F 
HETATM   10  F11 UNL     1     -34.719   5.960   6.095  1.00 20.00    -0.171 F 
ENDBRANCH   6   7
BRANCH   5  11
HETATM   11  C7  UNL     1     -31.494   8.289   1.356  1.00 20.00     0.119 C 
HETATM   12 CL12 UNL     1     -32.889   9.024   0.548  1.00 20.00    -0.130 Cl
ENDBRANCH   5  11
TORSDOF 2
