REMARK  2 active torsions:
REMARK  status: ('A' for Active; 'I' for Inactive)
REMARK    1  A    between atoms: C1_1  and  C7_7 
REMARK    2  A    between atoms: C8_8  and  C12_12 
ROOT
HETATM    1  C2  UNL     1     -32.554   8.927   4.117  1.00 20.00     0.001 C 
HETATM    2  C3  UNL     1     -32.554   9.566   2.730  1.00 20.00     0.011 C 
HETATM    3  C4  UNL     1     -32.357   7.256   1.612  1.00 20.00     0.012 C 
HETATM    4  C5  UNL     1     -33.658   7.904   4.367  1.00 20.00     0.005 C 
HETATM    5  C6  UNL     1     -33.246   6.289   2.398  1.00 20.00     0.006 C 
HETATM    6  C7  UNL     1     -32.939   8.674   1.540  1.00 20.00     0.047 C 
HETATM    7  C8  UNL     1     -33.265   6.496   3.911  1.00 20.00    -0.007 C 
ENDROOT
BRANCH   7   8
HETATM    8  C12 UNL     1     -34.233   5.512   4.501  1.00 20.00    -0.048 C 
HETATM    9  C9  UNL     1     -34.230   5.642   6.031  1.00 20.00     0.015 C 
HETATM   10  C10 UNL     1     -33.819   4.086   4.108  1.00 20.00     0.015 C 
HETATM   11  C11 UNL     1     -35.645   5.798   3.967  1.00 20.00     0.015 C 
ENDBRANCH   7   8
BRANCH   6  12
HETATM   12  C1  UNL     1     -32.501   9.362   0.240  1.00 20.00     0.235 C 
HETATM   13  O13 UNL     1     -31.765   8.836  -0.588  1.00 20.00    -0.306 OA
ENDBRANCH   6  12
TORSDOF 2
