REMARK  2 active torsions:
REMARK  status: ('A' for Active; 'I' for Inactive)
REMARK    1  A    between atoms: C1_1  and  C7_7 
REMARK    2  A    between atoms: C8_8  and  C10_10 
ROOT
HETATM    1  C2  UNL     1     -32.565   8.505   4.559  1.00 20.00     0.001 C 
HETATM    2  C3  UNL     1     -32.424   8.965   3.109  1.00 20.00     0.011 C 
HETATM    3  C4  UNL     1     -32.551   6.533   2.275  1.00 20.00     0.012 C 
HETATM    4  C5  UNL     1     -33.820   7.697   4.871  1.00 20.00     0.004 C 
HETATM    5  C6  UNL     1     -33.601   5.812   3.122  1.00 20.00     0.005 C 
HETATM    6  C7  UNL     1     -32.905   8.004   2.012  1.00 20.00     0.047 C 
HETATM    7  C8  UNL     1     -33.634   6.201   4.600  1.00 20.00    -0.015 C 
ENDROOT
BRANCH   6   8
HETATM    8  C1  UNL     1     -32.327   8.456   0.665  1.00 20.00     0.235 C 
HETATM    9  O11 UNL     1     -33.018   8.845  -0.271  1.00 20.00    -0.306 OA
ENDBRANCH   6   8
BRANCH   7  10
HETATM   10  C10 UNL     1     -34.760   5.451   5.250  1.00 20.00     0.000 C 
HETATM   11  C9  UNL     1     -34.822   5.723   6.715  1.00 20.00     0.005 C 
ENDBRANCH   7  10
TORSDOF 2
