REMARK  2 active torsions:
REMARK  status: ('A' for Active; 'I' for Inactive)
REMARK    1  A    between atoms: C1_1  and  C7_7 
REMARK    2  A    between atoms: C8_8  and  C10_10 
ROOT
HETATM    1  C2  UNL     1     -33.381   8.782   4.827  1.00 20.00     0.001 C 
HETATM    2  C3  UNL     1     -33.422   7.440   5.556  1.00 20.00     0.011 C 
HETATM    3  C4  UNL     1     -33.780   5.623   3.763  1.00 20.00     0.012 C 
HETATM    4  C5  UNL     1     -32.644   8.780   3.491  1.00 20.00     0.004 C 
HETATM    5  C6  UNL     1     -32.781   6.323   2.842  1.00 20.00     0.005 C 
HETATM    6  C7  UNL     1     -34.384   6.449   4.899  1.00 20.00     0.047 C 
HETATM    7  C8  UNL     1     -33.150   7.763   2.453  1.00 20.00    -0.015 C 
ENDROOT
BRANCH   6   8
HETATM    8  C1  UNL     1     -34.897   5.499   5.942  1.00 20.00     0.235 C 
HETATM    9  O11 UNL     1     -34.174   4.743   6.582  1.00 20.00    -0.306 OA
ENDBRANCH   6   8
BRANCH   7  10
HETATM   10  C10 UNL     1     -32.521   8.096   1.093  1.00 20.00     0.000 C 
HETATM   11  C9  UNL     1     -32.860   9.483   0.661  1.00 20.00     0.005 C 
ENDBRANCH   7  10
TORSDOF 2
