REMARK  2 active torsions:
REMARK  status: ('A' for Active; 'I' for Inactive)
REMARK    1  A    between atoms: C1_1  and  C5_5 
REMARK    2  A    between atoms: C6_6  and  C8_8 
ROOT
HETATM    1  C2  UNL     1     -33.296   5.558   3.436  1.00 20.00     0.012 C 
HETATM    2  C3  UNL     1     -32.415   6.804   3.420  1.00 20.00     0.005 C 
HETATM    3  C4  UNL     1     -34.386   7.408   4.613  1.00 20.00     0.016 C 
HETATM    4  C5  UNL     1     -34.590   5.972   4.137  1.00 20.00     0.047 C 
HETATM    5  C6  UNL     1     -32.868   7.589   4.646  1.00 20.00    -0.014 C 
ENDROOT
BRANCH   4   6
HETATM    6  C1  UNL     1     -34.808   5.085   5.349  1.00 20.00     0.235 C 
HETATM    7  O9  UNL     1     -34.339   5.327   6.457  1.00 20.00    -0.306 OA
ENDBRANCH   4   6
BRANCH   5   8
HETATM    8  C8  UNL     1     -32.438   9.046   4.617  1.00 20.00     0.000 C 
HETATM    9  C7  UNL     1     -32.954   9.758   3.406  1.00 20.00     0.005 C 
ENDBRANCH   5   8
TORSDOF 2
