REMARK  4 active torsions:
REMARK  status: ('A' for Active; 'I' for Inactive)
REMARK    1  A    between atoms: C2_2  and  C8_8 
REMARK    2  A    between atoms: C5_5  and  C9_9 
REMARK    3  A    between atoms: C8_8  and  N10_10 
REMARK    4  A    between atoms: C9_9  and  N10_10 
ROOT
HETATM    1  C1  UNL     1     -32.985   8.607  -0.343  1.00 20.00    -0.109 C 
HETATM    2  C2  UNL     1     -32.707   8.398   0.806  1.00 20.00    -0.077 C 
HETATM    3  C7  UNL     1     -33.323   8.861  -1.743  1.00 20.00     0.112 C 
ENDROOT
BRANCH   2   4
HETATM    4  C8  UNL     1     -32.364   8.137   2.207  1.00 20.00     0.362 C 
BRANCH   4   5
HETATM    5  N10 UNL     1     -33.090   9.046   3.102  1.00 20.00     0.094 N 
HETATM    6  H25 UNL     1     -32.598   9.950   3.101  1.00 20.00     0.317 HD
BRANCH   5   7
HETATM    7  C9  UNL     1     -33.187   8.525   4.429  1.00 20.00     0.275 C 
BRANCH   7   8
HETATM    8  C5  UNL     1     -34.293   7.494   4.508  1.00 20.00     0.018 C 
HETATM    9  C3  UNL     1     -33.961   6.071   3.981  1.00 20.00     0.041 C 
HETATM   10  C6  UNL     1     -34.850   5.526   5.125  1.00 20.00     0.161 C 
HETATM   11  C4  UNL     1     -34.531   6.832   5.893  1.00 20.00     0.041 C 
HETATM   12  O11 UNL     1     -34.328   4.379   5.736  1.00 20.00    -0.235 OA
ENDBRANCH   7   8
ENDBRANCH   5   7
ENDBRANCH   4   5
ENDBRANCH   2   4
TORSDOF 4
