REMARK  3 active torsions:
REMARK  status: ('A' for Active; 'I' for Inactive)
REMARK    1  A    between atoms: C6_6  and  C8_8 
REMARK    2  A    between atoms: C6_6  and  C9_9 
REMARK    3  A    between atoms: C7_7  and  C9_9 
ROOT
HETATM    1  C4  UNL     1     -32.639   8.182   5.597  1.00 20.00     0.015 C 
HETATM    2  C5  UNL     1     -35.028   8.790   5.311  1.00 20.00     0.015 C 
HETATM    3  C9  UNL     1     -33.947   7.778   4.870  1.00 20.00    -0.043 C 
ENDROOT
BRANCH   3   4
HETATM    4  C6  UNL     1     -33.660   7.922   3.334  1.00 20.00     0.029 C 
BRANCH   4   5
HETATM    5  C8  UNL     1     -32.567   7.042   2.696  1.00 20.00     0.079 C 
HETATM    6  C3  UNL     1     -32.137   7.618   1.348  1.00 20.00     0.026 C 
HETATM    7 CL10 UNL     1     -33.129   5.367   2.423  1.00 20.00    -0.125 Cl
ENDBRANCH   4   5
ENDBRANCH   3   4
BRANCH   3   8
HETATM    8  C7  UNL     1     -34.391   6.319   5.262  1.00 20.00    -0.015 C 
HETATM    9  C1  UNL     1     -34.619   6.120   6.768  1.00 20.00     0.010 C 
HETATM   10  C2  UNL     1     -35.643   5.823   4.518  1.00 20.00     0.010 C 
ENDBRANCH   3   8
TORSDOF 3
