REMARK  2 active torsions:
REMARK  status: ('A' for Active; 'I' for Inactive)
REMARK    1  A    between atoms: C5_5  and  C6_6 
REMARK    2  A    between atoms: C6_6  and  C7_7 
ROOT
HETATM    1  C1  UNL     1     -34.161   4.048   4.297  1.00 20.00     0.012 C 
HETATM    2  C2  UNL     1     -34.689   5.095   4.556  1.00 20.00    -0.117 C 
HETATM    3  C5  UNL     1     -35.341   6.378   4.870  1.00 20.00     0.098 C 
ENDROOT
BRANCH   3   4
HETATM    4  C6  UNL     1     -34.347   7.407   5.448  1.00 20.00     0.006 C 
HETATM    5  C3  UNL     1     -33.429   6.741   6.487  1.00 20.00     0.012 C 
BRANCH   4   6
HETATM    6  C7  UNL     1     -33.489   8.107   4.369  1.00 20.00     0.058 C 
HETATM    7  C4  UNL     1     -32.836   7.190   3.344  1.00 20.00     0.022 C 
HETATM    8 BR8  UNL     1     -32.079   9.175   5.232  1.00 20.00    -0.091 Br
ENDBRANCH   4   6
ENDBRANCH   3   4
TORSDOF 2
