REMARK  4 active torsions:
REMARK  status: ('A' for Active; 'I' for Inactive)
REMARK    1  A    between atoms: C5_5  and  C7_7 
REMARK    2  A    between atoms: C5_5  and  C8_8 
REMARK    3  A    between atoms: C6_6  and  C8_8 
REMARK    4  A    between atoms: C6_6  and  C9_9 
ROOT
HETATM    1  C3  UNL     1     -32.125   8.811   5.021  1.00 20.00     0.010 C 
HETATM    2  C8  UNL     1     -32.815   8.275   3.764  1.00 20.00    -0.017 C 
ENDROOT
BRANCH   2   3
HETATM    3  C5  UNL     1     -33.350   6.838   3.975  1.00 20.00     0.008 C 
BRANCH   3   4
HETATM    4  C7  UNL     1     -34.718   6.711   4.677  1.00 20.00    -0.023 C 
HETATM    5  C1  UNL     1     -34.715   7.316   6.081  1.00 20.00     0.009 C 
HETATM    6  C2  UNL     1     -35.123   5.235   4.753  1.00 20.00     0.009 C 
ENDBRANCH   3   4
ENDBRANCH   2   3
BRANCH   2   7
HETATM    7  C6  UNL     1     -31.858   8.267   2.545  1.00 20.00     0.024 C 
BRANCH   7   8
HETATM    8  C9  UNL     1     -32.521   8.272   1.159  1.00 20.00     0.078 C 
HETATM    9  C4  UNL     1     -33.021   9.668   0.801  1.00 20.00     0.026 C 
HETATM   10 CL10 UNL     1     -31.378   7.729  -0.106  1.00 20.00    -0.125 Cl
ENDBRANCH   7   8
ENDBRANCH   2   7
TORSDOF 4
