REMARK  2 active torsions:
REMARK  status: ('A' for Active; 'I' for Inactive)
REMARK    1  A    between atoms: C8_8  and  C9_9 
REMARK    2  A    between atoms: C9_9  and  O11_11 
ROOT
HETATM    1  C1  UNL     1     -32.715   8.735   3.326  1.00 20.00     0.003 C 
HETATM    2  C2  UNL     1     -33.691   9.488   4.233  1.00 20.00     0.003 C 
HETATM    3  C3  UNL     1     -32.204   7.553   4.144  1.00 20.00     0.038 C 
HETATM    4  C4  UNL     1     -33.729   8.716   5.548  1.00 20.00     0.038 C 
HETATM    5  C9  UNL     1     -33.295   7.298   5.183  1.00 20.00     0.063 C 
ENDROOT
BRANCH   5   6
HETATM    6  C8  UNL     1     -34.447   6.456   4.637  1.00 20.00     0.046 C 
HETATM    7  C5  UNL     1     -35.477   6.144   5.704  1.00 20.00     0.036 C 
HETATM    8  C6  UNL     1     -34.900   4.922   6.389  1.00 20.00     0.168 C 
HETATM    9  O10 UNL     1     -34.088   4.241   5.423  1.00 20.00    -0.391 OA
HETATM   10  C7  UNL     1     -33.990   5.059   4.248  1.00 20.00     0.175 C 
ENDBRANCH   5   6
BRANCH   5  11
HETATM   11  O11 UNL     1     -32.755   6.650   6.326  1.00 20.00    -0.389 OA
HETATM   12  H27 UNL     1     -32.078   7.245   6.685  1.00 20.00     0.210 HD
ENDBRANCH   5  11
TORSDOF 2
