REMARK  3 active torsions:
REMARK  status: ('A' for Active; 'I' for Inactive)
REMARK    1  A    between atoms: C5_5  and  S11_11 
REMARK    2  A    between atoms: C7_7  and  C8_8 
REMARK    3  A    between atoms: C8_8  and  S11_11 
ROOT
HETATM    1  C1  UNL     1     -32.299   9.068   4.473  1.00 20.00     0.080 C 
HETATM    2  C2  UNL     1     -31.626   8.315   2.132  1.00 20.00     0.071 C 
HETATM    3  C3  UNL     1     -33.683   8.889   2.338  1.00 20.00     0.071 C 
HETATM    4  C4  UNL     1     -32.498   9.428   1.498  1.00 20.00     0.165 C 
HETATM    5  C5  UNL     1     -32.637   8.280   3.310  1.00 20.00     0.101 C 
HETATM    6  N9  UNL     1     -32.027   9.700   5.407  1.00 20.00    -0.196 NA
HETATM    7  O10 UNL     1     -32.680   9.274   0.117  1.00 20.00    -0.235 OA
ENDROOT
BRANCH   5   8
HETATM    8  S11 UNL     1     -33.063   6.570   3.800  1.00 20.00    -0.144 SA
BRANCH   8   9
HETATM    9  C8  UNL     1     -34.460   6.960   4.876  1.00 20.00     0.075 C 
BRANCH   9  10
HETATM   10  C7  UNL     1     -35.327   5.725   5.094  1.00 20.00     0.006 C 
HETATM   11  C6  UNL     1     -34.529   4.602   5.739  1.00 20.00     0.006 C 
ENDBRANCH   9  10
ENDBRANCH   8   9
ENDBRANCH   5   8
TORSDOF 3
