REMARK  4 active torsions:
REMARK  status: ('A' for Active; 'I' for Inactive)
REMARK    1  A    between atoms: C3_3  and  C6_6 
REMARK    2  A    between atoms: C3_3  and  C7_7 
REMARK    3  A    between atoms: C6_6  and  C8_8 
REMARK    4  A    between atoms: C8_8  and  C9_9 
ROOT
HETATM    1  C1  UNL     1     -33.822   9.466   4.407  1.00 20.00     0.011 A 
HETATM    2  C2  UNL     1     -32.330   9.349   4.290  1.00 20.00     0.011 A 
HETATM    3  C3  UNL     1     -33.215   8.273   3.707  1.00 20.00    -0.028 A 
ENDROOT
BRANCH   3   4
HETATM    4  C6  UNL     1     -33.265   6.928   4.417  1.00 20.00     0.011 C 
BRANCH   4   5
HETATM    5  C8  UNL     1     -34.648   6.284   4.294  1.00 20.00     0.005 C 
BRANCH   5   6
HETATM    6  C9  UNL     1     -34.732   4.886   4.936  1.00 20.00    -0.023 C 
HETATM    7  C4  UNL     1     -34.406   4.980   6.428  1.00 20.00     0.009 C 
HETATM    8  C5  UNL     1     -33.797   3.878   4.266  1.00 20.00     0.009 C 
ENDBRANCH   5   6
ENDBRANCH   4   5
ENDBRANCH   3   4
BRANCH   3   9
HETATM    9  C7  UNL     1     -33.339   8.195   2.210  1.00 20.00     0.124 C 
HETATM   10 CL10 UNL     1     -33.113   9.799   1.472  1.00 20.00    -0.130 Cl
ENDBRANCH   3   9
TORSDOF 4
