REMARK  4 active torsions:
REMARK  status: ('A' for Active; 'I' for Inactive)
REMARK    1  A    between atoms: C6_6  and  C8_8 
REMARK    2  A    between atoms: C6_6  and  C9_9 
REMARK    3  A    between atoms: C7_7  and  O11_11 
REMARK    4  A    between atoms: C8_8  and  O11_11 
ROOT
HETATM    1  C1  UNL     1     -31.932   7.817   4.257  1.00 20.00     0.091 C 
HETATM    2  C8  UNL     1     -32.486   6.901   3.246  1.00 20.00     0.228 C 
HETATM    3  N10 UNL     1     -31.494   8.538   5.054  1.00 20.00    -0.195 NA
ENDROOT
BRANCH   2   4
HETATM    4  C6  UNL     1     -34.003   6.746   3.442  1.00 20.00     0.055 C 
BRANCH   4   5
HETATM    5  C9  UNL     1     -34.476   5.722   4.516  1.00 20.00    -0.048 C 
HETATM    6  C3  UNL     1     -36.019   5.687   4.488  1.00 20.00     0.014 C 
HETATM    7  C4  UNL     1     -33.956   4.310   4.198  1.00 20.00     0.014 C 
HETATM    8  C5  UNL     1     -34.031   6.115   5.933  1.00 20.00     0.014 C 
ENDBRANCH   4   5
ENDBRANCH   2   4
BRANCH   2   9
HETATM    9  O11 UNL     1     -32.224   7.432   1.951  1.00 20.00    -0.372 OA
BRANCH   9  10
HETATM   10  C7  UNL     1     -32.819   8.711   1.784  1.00 20.00     0.165 C 
HETATM   11  C2  UNL     1     -32.507   9.221   0.393  1.00 20.00     0.033 C 
ENDBRANCH   9  10
ENDBRANCH   2   9
TORSDOF 4
