REMARK  4 active torsions:
REMARK  status: ('A' for Active; 'I' for Inactive)
REMARK    1  A    between atoms: C2_2  and  C9_9 
REMARK    2  A    between atoms: C2_2  and  C10_10 
REMARK    3  A    between atoms: C3_3  and  C5_5 
REMARK    4  A    between atoms: C3_3  and  C9_9 
ROOT
HETATM    1  C3  UNL     1     -32.529   8.369   4.489  1.00 20.00     0.135 C 
HETATM    2  O11 UNL     1     -32.159   9.483   4.837  1.00 20.00    -0.297 OA
ENDROOT
BRANCH   1   3
HETATM    3  C5  UNL     1     -33.774   7.786   5.070  1.00 20.00     0.060 A 
HETATM    4  C4  UNL     1     -33.910   7.732   6.556  1.00 20.00     0.017 A 
HETATM    5  C6  UNL     1     -33.676   6.464   5.780  1.00 20.00    -0.007 A 
HETATM    6  C7  UNL     1     -34.771   5.466   5.625  1.00 20.00     0.011 C 
ENDBRANCH   1   3
BRANCH   1   7
HETATM    7  C9  UNL     1     -31.789   7.474   3.512  1.00 20.00     0.111 C 
BRANCH   7   8
HETATM    8  C2  UNL     1     -32.670   7.080   2.354  1.00 20.00    -0.083 C 
HETATM    9  C1  UNL     1     -32.943   5.791   2.098  1.00 20.00     0.014 C 
BRANCH   8  10
HETATM   10  C10 UNL     1     -33.230   8.185   1.488  1.00 20.00     0.029 C 
HETATM   11  C8  UNL     1     -32.315   8.538   0.324  1.00 20.00     0.010 C 
ENDBRANCH   8  10
ENDBRANCH   7   8
ENDBRANCH   1   7
TORSDOF 4
