REMARK  2 active torsions:
REMARK  status: ('A' for Active; 'I' for Inactive)
REMARK    1  A    between atoms: C6_6  and  O10_10 
REMARK    2  A    between atoms: C8_8  and  O10_10 
ROOT
HETATM    1  C1  UNL     1     -33.400   5.530   3.501  1.00 20.00     0.098 C 
HETATM    2  C2  UNL     1     -35.296   5.489   5.954  1.00 20.00     0.004 C 
HETATM    3  C3  UNL     1     -33.939   5.898   6.530  1.00 20.00     0.004 C 
HETATM    4  C4  UNL     1     -35.467   6.286   4.663  1.00 20.00     0.053 C 
HETATM    5  C5  UNL     1     -33.358   6.922   5.557  1.00 20.00     0.053 C 
HETATM    6  C6  UNL     1     -34.046   6.635   4.225  1.00 20.00     0.148 C 
HETATM    7  N9  UNL     1     -32.890   4.658   2.930  1.00 20.00    -0.194 NA
ENDROOT
BRANCH   6   8
HETATM    8  O10 UNL     1     -34.040   7.803   3.417  1.00 20.00    -0.366 OA
BRANCH   8   9
HETATM    9  C8  UNL     1     -32.717   8.202   3.082  1.00 20.00     0.165 C 
HETATM   10  C7  UNL     1     -32.779   9.447   2.224  1.00 20.00     0.033 C 
ENDBRANCH   8   9
ENDBRANCH   6   8
TORSDOF 2
