REMARK  4 active torsions:
REMARK  status: ('A' for Active; 'I' for Inactive)
REMARK    1  A    between atoms: C3_3  and  C6_6 
REMARK    2  A    between atoms: C3_3  and  C7_7 
REMARK    3  A    between atoms: C6_6  and  C9_9 
REMARK    4  A    between atoms: C8_8  and  C9_9 
ROOT
HETATM    1  C1  UNL     1     -33.624   6.043   6.334  1.00 20.00     0.011 A 
HETATM    2  C2  UNL     1     -35.041   6.466   6.599  1.00 20.00     0.011 A 
HETATM    3  C3  UNL     1     -34.507   6.473   5.186  1.00 20.00    -0.027 A 
ENDROOT
BRANCH   3   4
HETATM    4  C6  UNL     1     -34.226   7.820   4.535  1.00 20.00     0.015 C 
BRANCH   4   5
HETATM    5  C9  UNL     1     -33.076   7.790   3.507  1.00 20.00    -0.018 C 
HETATM    6  C5  UNL     1     -31.706   7.810   4.192  1.00 20.00     0.010 C 
BRANCH   5   7
HETATM    7  C8  UNL     1     -33.243   8.978   2.536  1.00 20.00    -0.000 C 
HETATM    8  C4  UNL     1     -32.197   9.022   1.431  1.00 20.00     0.005 C 
ENDBRANCH   5   7
ENDBRANCH   4   5
ENDBRANCH   3   4
BRANCH   3   9
HETATM    9  C7  UNL     1     -35.001   5.412   4.240  1.00 20.00     0.124 C 
HETATM   10 CL10 UNL     1     -33.719   4.227   3.893  1.00 20.00    -0.130 Cl
ENDBRANCH   3   9
TORSDOF 4
