REMARK  1 active torsions:
REMARK  status: ('A' for Active; 'I' for Inactive)
REMARK    1  A    between atoms: C6_6  and  O9_9 
ROOT
HETATM    1  C1  UNL     1     -33.430   5.877   3.728  1.00 20.00     0.098 C 
HETATM    2  C2  UNL     1     -35.627   5.001   5.732  1.00 20.00     0.004 C 
HETATM    3  C3  UNL     1     -34.365   5.132   6.586  1.00 20.00     0.004 C 
HETATM    4  C4  UNL     1     -35.644   6.219   4.812  1.00 20.00     0.053 C 
HETATM    5  C5  UNL     1     -33.681   6.422   6.138  1.00 20.00     0.053 C 
HETATM    6  C6  UNL     1     -34.185   6.662   4.717  1.00 20.00     0.148 C 
HETATM    7  N8  UNL     1     -32.834   5.259   2.948  1.00 20.00    -0.194 NA
ENDROOT
BRANCH   6   8
HETATM    8  O9  UNL     1     -34.096   8.042   4.399  1.00 20.00    -0.370 OA
HETATM    9  C7  UNL     1     -32.749   8.496   4.405  1.00 20.00     0.204 C 
ENDBRANCH   6   8
TORSDOF 1
