REMARK  4 active torsions:
REMARK  status: ('A' for Active; 'I' for Inactive)
REMARK    1  A    between atoms: C2_2  and  C7_7 
REMARK    2  A    between atoms: C2_2  and  C8_8 
REMARK    3  A    between atoms: C3_3  and  C9_9 
REMARK    4  A    between atoms: C8_8  and  C9_9 
ROOT
HETATM    1  C8  UNL     1     -34.132   7.698   4.112  1.00 20.00     0.045 C 
ENDROOT
BRANCH   1   2
HETATM    2  C2  UNL     1     -32.689   7.851   3.673  1.00 20.00    -0.089 C 
HETATM    3  C1  UNL     1     -31.746   8.248   4.544  1.00 20.00     0.014 C 
BRANCH   2   4
HETATM    4  C7  UNL     1     -32.331   7.543   2.237  1.00 20.00     0.029 C 
HETATM    5  C5  UNL     1     -32.432   8.756   1.322  1.00 20.00     0.010 C 
ENDBRANCH   2   4
ENDBRANCH   1   2
BRANCH   1   6
HETATM    6  C9  UNL     1     -34.470   6.319   4.706  1.00 20.00     0.055 C 
HETATM    7  C6  UNL     1     -33.795   5.205   3.909  1.00 20.00     0.018 C 
BRANCH   6   8
HETATM    8  C3  UNL     1     -34.028   6.208   6.162  1.00 20.00     0.127 C 
HETATM    9  C4  UNL     1     -34.297   4.896   6.853  1.00 20.00     0.091 C 
HETATM   10  O10 UNL     1     -33.449   7.124   6.745  1.00 20.00    -0.298 OA
ENDBRANCH   6   8
ENDBRANCH   1   6
TORSDOF 4
