REMARK  3 active torsions:
REMARK  status: ('A' for Active; 'I' for Inactive)
REMARK    1  A    between atoms: C6_6  and  C8_8 
REMARK    2  A    between atoms: C7_7  and  C8_8 
REMARK    3  A    between atoms: C7_7  and  C9_9 
ROOT
HETATM    1  C8  UNL     1     -32.819   7.052   4.196  1.00 20.00     0.042 C 
ENDROOT
BRANCH   1   2
HETATM    2  C6  UNL     1     -34.162   6.336   4.216  1.00 20.00     0.122 C 
HETATM    3  C2  UNL     1     -34.042   4.843   3.947  1.00 20.00     0.034 C 
HETATM    4  C1  UNL     1     -33.918   4.264   5.334  1.00 20.00     0.029 C 
HETATM    5  C5  UNL     1     -34.818   5.177   6.135  1.00 20.00     0.168 C 
HETATM    6  O10 UNL     1     -34.729   6.474   5.531  1.00 20.00    -0.386 OA
ENDBRANCH   1   2
BRANCH   1   7
HETATM    7  C7  UNL     1     -32.968   8.522   3.950  1.00 20.00    -0.025 A 
HETATM    8  C3  UNL     1     -33.751   9.333   4.956  1.00 20.00     0.011 A 
HETATM    9  C4  UNL     1     -32.257   9.472   4.884  1.00 20.00     0.011 A 
BRANCH   7  10
HETATM   10  C9  UNL     1     -33.073   8.905   2.500  1.00 20.00     0.124 C 
HETATM   11 CL11 UNL     1     -31.694   8.265   1.574  1.00 20.00    -0.130 Cl
ENDBRANCH   7  10
ENDBRANCH   1   7
TORSDOF 3
