REMARK  5 active torsions:
REMARK  status: ('A' for Active; 'I' for Inactive)
REMARK    1  A    between atoms: C2_2  and  C4_4 
REMARK    2  A    between atoms: C2_2  and  C5_5 
REMARK    3  A    between atoms: C5_5  and  C6_6 
REMARK    4  A    between atoms: C6_6  and  C7_7 
REMARK    5  A    between atoms: C7_7  and  C8_8 
ROOT
HETATM    1  C5  UNL     1     -33.864   8.265   4.275  1.00 20.00     0.033 C 
ENDROOT
BRANCH   1   2
HETATM    2  C2  UNL     1     -34.127   7.128   5.238  1.00 20.00    -0.090 C 
HETATM    3  C1  UNL     1     -34.097   7.332   6.565  1.00 20.00     0.014 C 
BRANCH   2   4
HETATM    4  C4  UNL     1     -34.424   5.758   4.672  1.00 20.00     0.029 C 
HETATM    5  C3  UNL     1     -34.667   4.709   5.748  1.00 20.00     0.010 C 
ENDBRANCH   2   4
ENDBRANCH   1   2
BRANCH   1   6
HETATM    6  C6  UNL     1     -32.378   8.431   3.941  1.00 20.00     0.005 C 
BRANCH   6   7
HETATM    7  C7  UNL     1     -31.819   7.176   3.265  1.00 20.00     0.015 C 
BRANCH   7   8
HETATM    8  C8  UNL     1     -32.532   6.898   1.949  1.00 20.00     0.114 C 
HETATM    9 CL9  UNL     1     -32.314   8.261   0.826  1.00 20.00    -0.130 Cl
ENDBRANCH   7   8
ENDBRANCH   6   7
ENDBRANCH   1   6
TORSDOF 5
