REMARK  2 active torsions:
REMARK  status: ('A' for Active; 'I' for Inactive)
REMARK    1  A    between atoms: C5_5  and  C6_6 
REMARK    2  A    between atoms: C6_6  and  O8_8 
ROOT
HETATM    1  C1  UNL     1     -33.015   7.444   4.217  1.00 20.00     0.097 C 
HETATM    2  C3  UNL     1     -35.338   6.715   3.876  1.00 20.00     0.062 C 
HETATM    3  C6  UNL     1     -33.962   6.333   4.430  1.00 20.00     0.144 C 
HETATM    4  N7  UNL     1     -32.270   8.317   4.048  1.00 20.00    -0.194 NA
ENDROOT
BRANCH   3   5
HETATM    5  C5  UNL     1     -34.079   5.979   5.924  1.00 20.00     0.049 C 
HETATM    6  C2  UNL     1     -34.569   7.126   6.804  1.00 20.00     0.009 C 
ENDBRANCH   3   5
BRANCH   3   7
HETATM    7  O8  UNL     1     -33.508   5.177   3.724  1.00 20.00    -0.371 OA
HETATM    8  C4  UNL     1     -32.981   5.523   2.453  1.00 20.00     0.204 C 
ENDBRANCH   3   7
TORSDOF 2
