REMARK  5 active torsions:
REMARK  status: ('A' for Active; 'I' for Inactive)
REMARK    1  A    between atoms: C4_4  and  C7_7 
REMARK    2  A    between atoms: C4_4  and  C8_8 
REMARK    3  A    between atoms: C6_6  and  C9_9 
REMARK    4  A    between atoms: C8_8  and  N10_10 
REMARK    5  A    between atoms: C9_9  and  N10_10 
ROOT
HETATM    1  C1  UNL     1     -34.330   4.956   3.969  1.00 20.00     0.012 C 
HETATM    2  C2  UNL     1     -34.358   5.686   4.922  1.00 20.00    -0.116 C 
HETATM    3  C6  UNL     1     -34.393   6.576   6.093  1.00 20.00     0.123 C 
ENDROOT
BRANCH   3   4
HETATM    4  C9  UNL     1     -33.875   7.973   5.764  1.00 20.00     0.282 C 
BRANCH   4   5
HETATM    5  N10 UNL     1     -32.485   7.923   5.335  1.00 20.00     0.088 N 
HETATM    6  H25 UNL     1     -31.882   7.854   6.153  1.00 20.00     0.316 HD
BRANCH   5   7
HETATM    7  C8  UNL     1     -32.131   9.123   4.583  1.00 20.00     0.302 C 
BRANCH   7   8
HETATM    8  C4  UNL     1     -32.603   9.078   3.149  1.00 20.00    -0.062 C 
HETATM    9  C3  UNL     1     -33.471   9.990   2.682  1.00 20.00     0.016 C 
BRANCH   8  10
HETATM   10  C7  UNL     1     -32.074   7.981   2.252  1.00 20.00     0.030 C 
HETATM   11  C5  UNL     1     -32.629   8.055   0.836  1.00 20.00     0.010 C 
ENDBRANCH   8  10
ENDBRANCH   7   8
ENDBRANCH   5   7
ENDBRANCH   4   5
ENDBRANCH   3   4
TORSDOF 5
