REMARK  4 active torsions:
REMARK  status: ('A' for Active; 'I' for Inactive)
REMARK    1  A    between atoms: C4_4  and  C5_5 
REMARK    2  A    between atoms: C5_5  and  C8_8 
REMARK    3  A    between atoms: C6_6  and  C8_8 
REMARK    4  A    between atoms: C7_7  and  C8_8 
ROOT
HETATM    1  C8  UNL     1     -32.632   7.049   3.906  1.00 20.00     0.003 C 
ENDROOT
BRANCH   1   2
HETATM    2  C5  UNL     1     -31.989   7.685   2.644  1.00 20.00     0.005 C 
BRANCH   2   3
HETATM    3  C4  UNL     1     -32.956   8.212   1.578  1.00 20.00    -0.004 C 
HETATM    4  C1  UNL     1     -32.259   8.762   0.343  1.00 20.00     0.005 C 
ENDBRANCH   2   3
ENDBRANCH   1   2
BRANCH   1   5
HETATM    5  C6  UNL     1     -33.450   8.107   4.680  1.00 20.00     0.119 C 
HETATM    6 CL9  UNL     1     -32.444   9.483   5.214  1.00 20.00    -0.130 Cl
ENDBRANCH   1   5
BRANCH   1   7
HETATM    7  C7  UNL     1     -33.486   5.783   3.583  1.00 20.00    -0.018 C 
HETATM    8  C2  UNL     1     -34.071   5.143   4.849  1.00 20.00     0.010 C 
HETATM    9  C3  UNL     1     -32.737   4.723   2.771  1.00 20.00     0.010 C 
ENDBRANCH   1   7
TORSDOF 4
