REMARK  4 active torsions:
REMARK  status: ('A' for Active; 'I' for Inactive)
REMARK    1  A    between atoms: C4_4  and  C7_7 
REMARK    2  A    between atoms: C4_4  and  C8_8 
REMARK    3  A    between atoms: C7_7  and  C9_9 
REMARK    4  A    between atoms: C9_9  and  C10_10 
ROOT
HETATM    1  C1  UNL     1     -34.448   4.813   4.423  1.00 20.00     0.002 C 
HETATM    2  C2  UNL     1     -33.284   5.317   3.548  1.00 20.00     0.010 C 
HETATM    3  C3  UNL     1     -35.150   6.163   4.178  1.00 20.00     0.010 C 
HETATM    4  C4  UNL     1     -33.757   6.772   3.839  1.00 20.00    -0.028 C 
ENDROOT
BRANCH   4   5
HETATM    5  C7  UNL     1     -33.759   7.680   2.614  1.00 20.00     0.011 C 
BRANCH   5   6
HETATM    6  C9  UNL     1     -32.352   7.832   2.030  1.00 20.00     0.005 C 
BRANCH   6   7
HETATM    7  C10 UNL     1     -32.308   8.684   0.748  1.00 20.00    -0.023 C 
HETATM    8  C5  UNL     1     -32.832  10.092   1.042  1.00 20.00     0.009 C 
HETATM    9  C6  UNL     1     -33.113   8.062  -0.394  1.00 20.00     0.009 C 
ENDBRANCH   6   7
ENDBRANCH   5   6
ENDBRANCH   4   5
BRANCH   4  10
HETATM   10  C8  UNL     1     -33.056   7.433   5.025  1.00 20.00     0.124 C 
HETATM   11 CL11 UNL     1     -34.017   8.799   5.615  1.00 20.00    -0.130 Cl
ENDBRANCH   4  10
TORSDOF 4
