REMARK  5 active torsions:
REMARK  status: ('A' for Active; 'I' for Inactive)
REMARK    1  A    between atoms: C2_2  and  C8_8 
REMARK    2  A    between atoms: C2_2  and  C9_9 
REMARK    3  A    between atoms: C3_3  and  C10_10 
REMARK    4  A    between atoms: C9_9  and  C10_10 
REMARK    5  A    between atoms: C10_10  and  C11_11 
ROOT
HETATM    1  C10 UNL     1     -33.182   6.656   5.221  1.00 20.00     0.062 C 
ENDROOT
BRANCH   1   2
HETATM    2  C3  UNL     1     -34.235   6.115   4.249  1.00 20.00     0.127 C 
HETATM    3  C4  UNL     1     -33.766   5.107   3.231  1.00 20.00     0.091 C 
HETATM    4  O12 UNL     1     -35.414   6.465   4.294  1.00 20.00    -0.298 OA
ENDBRANCH   1   2
BRANCH   1   5
HETATM    5  C9  UNL     1     -33.013   8.178   5.022  1.00 20.00     0.045 C 
BRANCH   5   6
HETATM    6  C2  UNL     1     -32.646   8.580   3.606  1.00 20.00    -0.089 C 
HETATM    7  C1  UNL     1     -31.545   8.088   3.014  1.00 20.00     0.014 C 
BRANCH   6   8
HETATM    8  C8  UNL     1     -33.543   9.554   2.875  1.00 20.00     0.029 C 
HETATM    9  C5  UNL     1     -33.055   9.876   1.469  1.00 20.00     0.010 C 
ENDBRANCH   6   8
ENDBRANCH   5   6
ENDBRANCH   1   5
BRANCH   1  10
HETATM   10  C11 UNL     1     -33.491   6.291   6.698  1.00 20.00    -0.011 C 
HETATM   11  C6  UNL     1     -33.988   4.859   6.916  1.00 20.00     0.010 C 
HETATM   12  C7  UNL     1     -34.474   7.281   7.332  1.00 20.00     0.010 C 
ENDBRANCH   1  10
TORSDOF 5
