REMARK  5 active torsions:
REMARK  status: ('A' for Active; 'I' for Inactive)
REMARK    1  A    between atoms: C2_2  and  C5_5 
REMARK    2  A    between atoms: C2_2  and  C6_6 
REMARK    3  A    between atoms: C6_6  and  C7_7 
REMARK    4  A    between atoms: C7_7  and  C8_8 
REMARK    5  A    between atoms: C8_8  and  C9_9 
ROOT
HETATM    1  C6  UNL     1     -32.003   8.981   3.860  1.00 20.00     0.033 C 
ENDROOT
BRANCH   1   2
HETATM    2  C2  UNL     1     -32.499   9.286   2.460  1.00 20.00    -0.090 C 
HETATM    3  C1  UNL     1     -33.152  10.436   2.218  1.00 20.00     0.014 C 
BRANCH   2   4
HETATM    4  C5  UNL     1     -32.237   8.214   1.422  1.00 20.00     0.029 C 
HETATM    5  C3  UNL     1     -32.755   8.470   0.011  1.00 20.00     0.010 C 
ENDBRANCH   2   4
ENDBRANCH   1   2
BRANCH   1   6
HETATM    6  C7  UNL     1     -32.645   7.721   4.452  1.00 20.00     0.006 C 
BRANCH   6   7
HETATM    7  C8  UNL     1     -34.165   7.884   4.578  1.00 20.00     0.020 C 
BRANCH   7   8
HETATM    8  C9  UNL     1     -34.864   6.644   5.150  1.00 20.00     0.078 C 
HETATM    9  C4  UNL     1     -34.357   6.325   6.551  1.00 20.00     0.026 C 
HETATM   10 CL10 UNL     1     -34.601   5.218   4.102  1.00 20.00    -0.125 Cl
ENDBRANCH   7   8
ENDBRANCH   6   7
ENDBRANCH   1   6
TORSDOF 5
