REMARK  1 active torsions:
REMARK  status: ('A' for Active; 'I' for Inactive)
REMARK    1  A    between atoms: C7_7  and  C9_9 
ROOT
HETATM    1  C1  UNL     1     -33.916   5.727   6.344  1.00 20.00     0.005 C 
HETATM    2  C2  UNL     1     -34.352   7.061   5.722  1.00 20.00     0.006 C 
HETATM    3  C3  UNL     1     -35.338   5.322   4.478  1.00 20.00     0.010 C 
HETATM    4  C4  UNL     1     -33.012   4.903   4.150  1.00 20.00     0.015 C 
HETATM    5  C5  UNL     1     -34.131   4.724   5.196  1.00 20.00    -0.013 C 
HETATM    6  C6  UNL     1     -34.649   6.677   4.260  1.00 20.00    -0.005 C 
HETATM    7  C7  UNL     1     -33.349   6.271   3.496  1.00 20.00    -0.028 C 
HETATM    8  C8  UNL     1     -33.631   6.105   1.990  1.00 20.00     0.016 C 
ENDROOT
BRANCH   7   9
HETATM    9  C9  UNL     1     -32.194   7.270   3.646  1.00 20.00     0.124 C 
HETATM   10 CL10 UNL     1     -32.792   8.920   3.418  1.00 20.00    -0.130 Cl
ENDBRANCH   7   9
TORSDOF 1
