REMARK  5 active torsions:
REMARK  status: ('A' for Active; 'I' for Inactive)
REMARK    1  A    between atoms: C4_4  and  C5_5 
REMARK    2  A    between atoms: C5_5  and  C8_8 
REMARK    3  A    between atoms: C6_6  and  C8_8 
REMARK    4  A    between atoms: C6_6  and  C9_9 
REMARK    5  A    between atoms: C7_7  and  C9_9 
ROOT
HETATM    1  C6  UNL     1     -33.349   8.409   4.993  1.00 20.00     0.009 C 
ENDROOT
BRANCH   1   2
HETATM    2  C8  UNL     1     -33.707   6.950   5.349  1.00 20.00    -0.018 C 
HETATM    3  C2  UNL     1     -33.831   6.740   6.860  1.00 20.00     0.010 C 
BRANCH   2   4
HETATM    4  C5  UNL     1     -34.977   6.478   4.606  1.00 20.00     0.004 C 
BRANCH   4   5
HETATM    5  C4  UNL     1     -35.294   4.985   4.724  1.00 20.00    -0.004 C 
HETATM    6  C1  UNL     1     -34.135   4.135   4.222  1.00 20.00     0.005 C 
ENDBRANCH   4   5
ENDBRANCH   2   4
ENDBRANCH   1   2
BRANCH   1   7
HETATM    7  C9  UNL     1     -33.236   8.725   3.484  1.00 20.00    -0.004 C 
HETATM    8  C3  UNL     1     -32.931  10.217   3.293  1.00 20.00     0.011 C 
BRANCH   7   9
HETATM    9  C7  UNL     1     -32.229   7.850   2.722  1.00 20.00     0.119 C 
HETATM   10 CL10 UNL     1     -32.191   8.167   0.970  1.00 20.00    -0.130 Cl
ENDBRANCH   7   9
ENDBRANCH   1   7
TORSDOF 5
