REMARK  4 active torsions:
REMARK  status: ('A' for Active; 'I' for Inactive)
REMARK    1  A    between atoms: C2_2  and  C9_9 
REMARK    2  A    between atoms: C2_2  and  C10_10 
REMARK    3  A    between atoms: C3_3  and  C5_5 
REMARK    4  A    between atoms: C3_3  and  C9_9 
ROOT
HETATM    1  C3  UNL     1     -33.753   7.024   4.123  1.00 20.00     0.135 C 
HETATM    2  O11 UNL     1     -34.037   7.798   5.029  1.00 20.00    -0.297 OA
ENDROOT
BRANCH   1   3
HETATM    3  C5  UNL     1     -34.529   5.760   3.956  1.00 20.00     0.060 A 
HETATM    4  C4  UNL     1     -33.786   4.462   3.941  1.00 20.00     0.017 A 
HETATM    5  C6  UNL     1     -34.672   4.809   5.104  1.00 20.00    -0.007 A 
HETATM    6  C7  UNL     1     -34.074   5.062   6.446  1.00 20.00     0.011 C 
ENDBRANCH   1   3
BRANCH   1   7
HETATM    7  C9  UNL     1     -32.617   7.221   3.137  1.00 20.00     0.111 C 
BRANCH   7   8
HETATM    8  C2  UNL     1     -32.833   8.446   2.288  1.00 20.00    -0.083 C 
HETATM    9  C1  UNL     1     -32.946   9.664   2.843  1.00 20.00     0.014 C 
BRANCH   8  10
HETATM   10  C10 UNL     1     -32.924   8.259   0.791  1.00 20.00     0.029 C 
HETATM   11  C8  UNL     1     -33.150   9.569   0.049  1.00 20.00     0.010 C 
ENDBRANCH   8  10
ENDBRANCH   7   8
ENDBRANCH   1   7
TORSDOF 4
