REMARK  3 active torsions:
REMARK  status: ('A' for Active; 'I' for Inactive)
REMARK    1  A    between atoms: C1_1  and  C6_6 
REMARK    2  A    between atoms: C5_5  and  C6_6 
REMARK    3  A    between atoms: C6_6  and  O8_8 
ROOT
HETATM    1  C4  UNL     1     -33.178   4.713   5.895  1.00 20.00     0.054 C 
HETATM    2  C6  UNL     1     -34.319   5.289   5.055  1.00 20.00     0.110 C 
ENDROOT
BRANCH   2   3
HETATM    3  C1  UNL     1     -35.114   6.262   5.915  1.00 20.00     0.268 C 
HETATM    4  O7  UNL     1     -34.635   6.921   6.833  1.00 20.00    -0.304 OA
ENDBRANCH   2   3
BRANCH   2   5
HETATM    5  C5  UNL     1     -33.823   5.955   3.744  1.00 20.00     0.018 C 
HETATM    6  C2  UNL     1     -33.041   5.019   2.818  1.00 20.00     0.013 C 
HETATM    7  C3  UNL     1     -32.993   7.220   4.011  1.00 20.00     0.013 C 
ENDBRANCH   2   5
BRANCH   2   8
HETATM    8  O8  UNL     1     -35.189   4.216   4.701  1.00 20.00    -0.383 OA
HETATM    9  H20 UNL     1     -35.476   3.809   5.532  1.00 20.00     0.211 HD
ENDBRANCH   2   8
TORSDOF 3
