REMARK  3 active torsions:
REMARK  status: ('A' for Active; 'I' for Inactive)
REMARK    1  A    between atoms: C5_5  and  C8_8 
REMARK    2  A    between atoms: C5_5  and  C9_9 
REMARK    3  A    between atoms: C8_8  and  C10_10 
ROOT
HETATM    1  C1  UNL     1     -33.804   9.550   4.807  1.00 20.00     0.001 C 
HETATM    2  C2  UNL     1     -32.337   9.516   5.236  1.00 20.00     0.001 C 
HETATM    3  C3  UNL     1     -33.982   8.406   3.811  1.00 20.00     0.010 C 
HETATM    4  C4  UNL     1     -31.699   8.351   4.482  1.00 20.00     0.010 C 
HETATM    5  C5  UNL     1     -32.862   7.409   4.143  1.00 20.00    -0.028 C 
ENDROOT
BRANCH   5   6
HETATM    6  C8  UNL     1     -33.237   6.530   5.348  1.00 20.00     0.014 C 
BRANCH   6   7
HETATM    7  C10 UNL     1     -34.725   6.152   5.385  1.00 20.00    -0.022 C 
HETATM    8  C6  UNL     1     -35.161   5.370   4.145  1.00 20.00     0.009 C 
HETATM    9  C7  UNL     1     -35.014   5.330   6.643  1.00 20.00     0.009 C 
ENDBRANCH   6   7
ENDBRANCH   5   6
BRANCH   5  10
HETATM   10  C9  UNL     1     -32.533   6.513   2.948  1.00 20.00     0.124 C 
HETATM   11 CL11 UNL     1     -32.013   7.507   1.580  1.00 20.00    -0.130 Cl
ENDBRANCH   5  10
TORSDOF 3
