REMARK  3 active torsions:
REMARK  status: ('A' for Active; 'I' for Inactive)
REMARK    1  A    between atoms: C5_5  and  C6_6 
REMARK    2  A    between atoms: C5_5  and  C7_7 
REMARK    3  A    between atoms: C6_6  and  O9_9 
ROOT
HETATM    1  C1  UNL     1     -32.993   5.687   2.818  1.00 20.00     0.091 C 
HETATM    2  C6  UNL     1     -32.984   6.862   3.700  1.00 20.00     0.227 C 
HETATM    3  N8  UNL     1     -32.999   4.759   2.122  1.00 20.00    -0.195 NA
ENDROOT
BRANCH   2   4
HETATM    4  C5  UNL     1     -34.341   7.096   4.376  1.00 20.00     0.050 C 
BRANCH   4   5
HETATM    5  C7  UNL     1     -34.662   6.164   5.562  1.00 20.00    -0.019 C 
HETATM    6  C2  UNL     1     -34.666   4.708   5.087  1.00 20.00     0.009 C 
HETATM    7  C3  UNL     1     -33.673   6.326   6.716  1.00 20.00     0.009 C 
ENDBRANCH   4   5
ENDBRANCH   2   4
BRANCH   2   8
HETATM    8  O9  UNL     1     -32.655   8.023   2.935  1.00 20.00    -0.376 OA
HETATM    9  C4  UNL     1     -31.256   8.116   2.719  1.00 20.00     0.203 C 
ENDBRANCH   2   8
TORSDOF 3
