REMARK  5 active torsions:
REMARK  status: ('A' for Active; 'I' for Inactive)
REMARK    1  A    between atoms: C2_2  and  C8_8 
REMARK    2  A    between atoms: C2_2  and  C9_9 
REMARK    3  A    between atoms: C6_6  and  C10_10 
REMARK    4  A    between atoms: C9_9  and  C10_10 
REMARK    5  A    between atoms: C10_10  and  O11_11 
ROOT
HETATM    1  C10 UNL     1     -33.416   5.678   3.295  1.00 20.00     0.126 C 
ENDROOT
BRANCH   1   2
HETATM    2  C6  UNL     1     -34.042   6.026   4.629  1.00 20.00     0.015 C 
HETATM    3  C4  UNL     1     -33.131   5.900   5.878  1.00 20.00     0.007 C 
HETATM    4  C3  UNL     1     -34.373   5.396   6.642  1.00 20.00     0.001 C 
HETATM    5  C5  UNL     1     -34.937   4.939   5.280  1.00 20.00     0.007 C 
ENDBRANCH   1   2
BRANCH   1   6
HETATM    6  C9  UNL     1     -32.178   6.551   3.056  1.00 20.00     0.065 C 
BRANCH   6   7
HETATM    7  C2  UNL     1     -32.512   7.931   2.518  1.00 20.00    -0.087 C 
HETATM    8  C1  UNL     1     -32.790   8.933   3.370  1.00 20.00     0.014 C 
BRANCH   7   9
HETATM    9  C8  UNL     1     -32.465   8.076   1.010  1.00 20.00     0.029 C 
HETATM   10  C7  UNL     1     -32.755   9.458   0.435  1.00 20.00     0.010 C 
ENDBRANCH   7   9
ENDBRANCH   6   7
ENDBRANCH   1   6
BRANCH   1  11
HETATM   11  O11 UNL     1     -33.020   4.309   3.328  1.00 20.00    -0.395 OA
HETATM   12  H29 UNL     1     -32.624   4.115   2.465  1.00 20.00     0.210 HD
ENDBRANCH   1  11
TORSDOF 5
