REMARK  2 active torsions:
REMARK  status: ('A' for Active; 'I' for Inactive)
REMARK    1  A    between atoms: C5_5  and  O9_9 
REMARK    2  A    between atoms: C7_7  and  O9_9 
ROOT
HETATM    1  C1  UNL     1     -33.497   5.683   3.630  1.00 20.00     0.098 C 
HETATM    2  C2  UNL     1     -35.031   5.284   6.184  1.00 20.00     0.008 C 
HETATM    3  C3  UNL     1     -35.583   6.105   5.004  1.00 20.00     0.054 C 
HETATM    4  C4  UNL     1     -33.748   6.131   6.110  1.00 20.00     0.054 C 
HETATM    5  C5  UNL     1     -34.123   6.504   4.648  1.00 20.00     0.148 C 
HETATM    6  N8  UNL     1     -32.996   5.026   2.815  1.00 20.00    -0.194 NA
ENDROOT
BRANCH   5   7
HETATM    7  O9  UNL     1     -33.929   7.888   4.294  1.00 20.00    -0.366 OA
BRANCH   7   8
HETATM    8  C7  UNL     1     -32.632   8.319   4.656  1.00 20.00     0.165 C 
HETATM    9  C6  UNL     1     -32.471   9.774   4.268  1.00 20.00     0.033 C 
ENDBRANCH   7   8
ENDBRANCH   5   7
TORSDOF 2
