REMARK  2 active torsions:
REMARK  status: ('A' for Active; 'I' for Inactive)
REMARK    1  A    between atoms: C5_5  and  O9_9 
REMARK    2  A    between atoms: C7_7  and  O9_9 
ROOT
HETATM    1  C1  UNL     1     -33.269   5.865   3.598  1.00 20.00     0.098 C 
HETATM    2  C2  UNL     1     -35.224   6.342   5.057  1.00 20.00     0.065 C 
HETATM    3  C3  UNL     1     -34.932   5.276   6.102  1.00 20.00     0.078 C 
HETATM    4  C4  UNL     1     -33.004   7.118   5.728  1.00 20.00     0.127 C 
HETATM    5  C5  UNL     1     -33.885   6.844   4.510  1.00 20.00     0.157 C 
HETATM    6  N8  UNL     1     -32.783   5.094   2.880  1.00 20.00    -0.194 NA
HETATM    7  S10 UNL     1     -33.456   5.870   6.973  1.00 20.00    -0.165 SA
ENDROOT
BRANCH   5   8
HETATM    8  O9  UNL     1     -34.094   8.052   3.785  1.00 20.00    -0.365 OA
BRANCH   8   9
HETATM    9  C7  UNL     1     -32.870   8.577   3.293  1.00 20.00     0.165 C 
HETATM   10  C6  UNL     1     -33.153   9.857   2.534  1.00 20.00     0.033 C 
ENDBRANCH   8   9
ENDBRANCH   5   8
TORSDOF 2
