REMARK  3 active torsions:
REMARK  status: ('A' for Active; 'I' for Inactive)
REMARK    1  A    between atoms: C6_6  and  C7_7 
REMARK    2  A    between atoms: C6_6  and  C8_8 
REMARK    3  A    between atoms: C8_8  and  O10_10 
ROOT
HETATM    1  C1  UNL     1     -32.652   7.277   3.558  1.00 20.00     0.097 C 
HETATM    2  C4  UNL     1     -34.785   8.182   4.379  1.00 20.00     0.062 C 
HETATM    3  C8  UNL     1     -33.390   7.676   4.770  1.00 20.00     0.144 C 
HETATM    4  N9  UNL     1     -32.072   6.961   2.604  1.00 20.00    -0.194 NA
ENDROOT
BRANCH   3   5
HETATM    5  C6  UNL     1     -33.530   6.501   5.763  1.00 20.00     0.057 C 
BRANCH   5   6
HETATM    6  C7  UNL     1     -34.671   5.485   5.509  1.00 20.00    -0.019 C 
HETATM    7  C2  UNL     1     -34.473   4.838   4.132  1.00 20.00     0.009 C 
HETATM    8  C3  UNL     1     -34.769   4.391   6.572  1.00 20.00     0.009 C 
ENDBRANCH   5   6
ENDBRANCH   3   5
BRANCH   3   9
HETATM    9  O10 UNL     1     -32.715   8.755   5.415  1.00 20.00    -0.371 OA
HETATM   10  C5  UNL     1     -32.210   9.686   4.470  1.00 20.00     0.204 C 
ENDBRANCH   3   9
TORSDOF 3
