REMARK  4 active torsions:
REMARK  status: ('A' for Active; 'I' for Inactive)
REMARK    1  A    between atoms: C4_4  and  C5_5 
REMARK    2  A    between atoms: C5_5  and  C7_7 
REMARK    3  A    between atoms: C6_6  and  O9_9 
REMARK    4  A    between atoms: C7_7  and  O9_9 
ROOT
HETATM    1  C1  UNL     1     -32.641   6.958   2.793  1.00 20.00     0.091 C 
HETATM    2  C7  UNL     1     -33.178   6.447   4.062  1.00 20.00     0.227 C 
HETATM    3  N8  UNL     1     -32.215   7.363   1.793  1.00 20.00    -0.195 NA
ENDROOT
BRANCH   2   4
HETATM    4  C5  UNL     1     -34.301   5.429   3.843  1.00 20.00     0.046 C 
BRANCH   4   5
HETATM    5  C4  UNL     1     -34.519   4.507   5.045  1.00 20.00    -0.001 C 
HETATM    6  C2  UNL     1     -34.920   5.295   6.282  1.00 20.00     0.005 C 
ENDBRANCH   4   5
ENDBRANCH   2   4
BRANCH   2   7
HETATM    7  O9  UNL     1     -33.718   7.531   4.817  1.00 20.00    -0.372 OA
BRANCH   7   8
HETATM    8  C6  UNL     1     -32.697   8.253   5.487  1.00 20.00     0.165 C 
HETATM    9  C3  UNL     1     -33.326   9.387   6.269  1.00 20.00     0.033 C 
ENDBRANCH   7   8
ENDBRANCH   2   7
TORSDOF 4
