REMARK  1 active torsions:
REMARK  status: ('A' for Active; 'I' for Inactive)
REMARK    1  A    between atoms: C3_3  and  C8_8 
ROOT
HETATM    1  C1  UNL     1     -33.241   7.983   5.251  1.00 20.00     0.218 C 
HETATM    2  C2  UNL     1     -32.985   7.149   4.021  1.00 20.00     0.109 C 
HETATM    3  C3  UNL     1     -33.278   5.721   4.502  1.00 20.00     0.021 C 
HETATM    4  C4  UNL     1     -34.365   5.917   5.583  1.00 20.00     0.029 C 
HETATM    5  C5  UNL     1     -34.278   4.842   6.669  1.00 20.00     0.038 C 
HETATM    6  C6  UNL     1     -35.794   5.976   5.027  1.00 20.00     0.038 C 
HETATM    7  N9  UNL     1     -34.009   7.218   6.121  1.00 20.00    -0.352 N 
HETATM    8  O10 UNL     1     -32.863   9.133   5.416  1.00 20.00    -0.274 OA
HETATM    9  H25 UNL     1     -34.294   7.537   7.042  1.00 20.00     0.163 HD
ENDROOT
BRANCH   3  10
HETATM   10  C8  UNL     1     -33.625   4.781   3.357  1.00 20.00     0.003 C 
HETATM   11  C7  UNL     1     -32.529   4.712   2.342  1.00 20.00     0.005 C 
ENDBRANCH   3  10
TORSDOF 1
