REMARK  1 active torsions:
REMARK  status: ('A' for Active; 'I' for Inactive)
REMARK    1  A    between atoms: C4_4  and  C8_8 
ROOT
HETATM    1  C1  UNL     1     -32.509   8.306   4.746  1.00 20.00     0.218 C 
HETATM    2  C2  UNL     1     -33.385   7.588   5.746  1.00 20.00     0.114 C 
HETATM    3  C3  UNL     1     -32.684   6.068   4.023  1.00 20.00     0.088 C 
HETATM    4  C4  UNL     1     -33.868   6.337   4.977  1.00 20.00    -0.016 C 
HETATM    5  C5  UNL     1     -32.999   5.313   2.742  1.00 20.00     0.033 C 
HETATM    6  C6  UNL     1     -35.186   6.656   4.246  1.00 20.00     0.018 C 
HETATM    7  N9  UNL     1     -32.164   7.389   3.762  1.00 20.00    -0.356 N 
HETATM    8  O10 UNL     1     -32.151   9.471   4.830  1.00 20.00    -0.274 OA
HETATM    9  H25 UNL     1     -31.605   7.622   2.947  1.00 20.00     0.162 HD
ENDROOT
BRANCH   4  10
HETATM   10  C8  UNL     1     -34.097   5.161   5.932  1.00 20.00     0.007 C 
HETATM   11  C7  UNL     1     -35.127   5.485   6.962  1.00 20.00     0.006 C 
ENDBRANCH   4  10
TORSDOF 1
