REMARK  1 active torsions:
REMARK  status: ('A' for Active; 'I' for Inactive)
REMARK    1  A    between atoms: C3_3  and  C8_8 
ROOT
HETATM    1  C1  UNL     1     -33.075   6.076   3.201  1.00 20.00     0.218 C 
HETATM    2  C2  UNL     1     -34.289   5.870   4.073  1.00 20.00     0.109 C 
HETATM    3  C3  UNL     1     -34.226   7.043   5.070  1.00 20.00     0.021 C 
HETATM    4  C4  UNL     1     -33.511   8.155   4.262  1.00 20.00     0.029 C 
HETATM    5  C5  UNL     1     -32.681   9.131   5.098  1.00 20.00     0.038 C 
HETATM    6  C6  UNL     1     -34.531   8.951   3.429  1.00 20.00     0.038 C 
HETATM    7  N9  UNL     1     -32.660   7.391   3.369  1.00 20.00    -0.352 N 
HETATM    8  O10 UNL     1     -32.587   5.236   2.461  1.00 20.00    -0.274 OA
HETATM    9  H25 UNL     1     -31.840   7.779   2.912  1.00 20.00     0.163 HD
ENDROOT
BRANCH   3  10
HETATM   10  C8  UNL     1     -33.505   6.604   6.348  1.00 20.00     0.003 C 
HETATM   11  C7  UNL     1     -34.192   5.451   7.007  1.00 20.00     0.005 C 
ENDBRANCH   3  10
TORSDOF 1
