REMARK  1 active torsions:
REMARK  status: ('A' for Active; 'I' for Inactive)
REMARK    1  A    between atoms: C5_5  and  C6_6 
ROOT
HETATM    1  C1  UNL     1     -32.499   8.636   4.505  1.00 20.00     0.218 C 
HETATM    2  C2  UNL     1     -33.943   8.255   4.716  1.00 20.00     0.110 C 
HETATM    3  C5  UNL     1     -33.988   6.765   4.329  1.00 20.00     0.026 C 
HETATM    4  C7  UNL     1     -32.863   6.640   3.272  1.00 20.00     0.030 C 
HETATM    5  C8  UNL     1     -33.400   6.993   1.874  1.00 20.00     0.038 C 
HETATM    6  C9  UNL     1     -32.180   5.273   3.212  1.00 20.00     0.038 C 
HETATM    7  N10 UNL     1     -31.926   7.664   3.694  1.00 20.00    -0.352 N 
HETATM    8  O11 UNL     1     -31.962   9.641   4.945  1.00 20.00    -0.274 OA
HETATM    9  H26 UNL     1     -30.947   7.670   3.423  1.00 20.00     0.163 HD
ENDROOT
BRANCH   3  10
HETATM   10  C6  UNL     1     -33.806   5.895   5.577  1.00 20.00    -0.008 A 
HETATM   11  C3  UNL     1     -34.988   5.562   6.437  1.00 20.00     0.005 A 
HETATM   12  C4  UNL     1     -34.341   4.495   5.598  1.00 20.00     0.005 A 
ENDBRANCH   3  10
TORSDOF 1
