REMARK  0 active torsions:
REMARK  status: ('A' for Active; 'I' for Inactive)
ROOT
HETATM    1  C1  UNL     1     -33.235   8.014   4.885  1.00 20.00     0.010 A 
HETATM    2  C2  UNL     1     -32.575   8.494   3.752  1.00 20.00     0.019 A 
HETATM    3  C3  UNL     1     -32.756   6.324   2.667  1.00 20.00     0.026 A 
HETATM    4  C4  UNL     1     -33.653   6.693   4.891  1.00 20.00    -0.033 A 
HETATM    5  C5  UNL     1     -33.420   5.858   3.790  1.00 20.00    -0.049 A 
HETATM    6  C6  UNL     1     -32.337   7.655   2.652  1.00 20.00     0.011 A 
HETATM    7  C7  UNL     1     -33.931   4.475   4.049  1.00 20.00     0.041 C 
HETATM    8  C8  UNL     1     -34.899   4.735   5.216  1.00 20.00     0.030 C 
HETATM    9  C9  UNL     1     -34.348   5.947   5.989  1.00 20.00     0.116 C 
HETATM   10 CL10 UNL     1     -33.179   5.448   7.229  1.00 20.00    -0.120 Cl
HETATM   11 BR11 UNL     1     -31.431   8.335   1.136  1.00 20.00    -0.051 Br
ENDROOT
TORSDOF 0
