REMARK  4 active torsions:
REMARK  status: ('A' for Active; 'I' for Inactive)
REMARK    1  A    between atoms: C5_5  and  C6_6 
REMARK    2  A    between atoms: C6_6  and  S10_10 
REMARK    3  A    between atoms: C7_7  and  C8_8 
REMARK    4  A    between atoms: C7_7  and  S10_10 
ROOT
HETATM    1  C1  UNL     1     -32.920   8.446   4.756  1.00 20.00     0.074 C 
HETATM    2  C7  UNL     1     -33.681   7.221   4.455  1.00 20.00     0.157 C 
HETATM    3  N9  UNL     1     -32.325   9.413   4.995  1.00 20.00    -0.196 NA
ENDROOT
BRANCH   2   4
HETATM    4  C8  UNL     1     -33.969   6.360   5.711  1.00 20.00     0.005 C 
HETATM    5  C3  UNL     1     -34.674   5.051   5.327  1.00 20.00     0.011 C 
HETATM    6  C4  UNL     1     -34.777   7.071   6.804  1.00 20.00     0.011 C 
ENDBRANCH   2   4
BRANCH   2   7
HETATM    7  S10 UNL     1     -32.839   6.254   3.145  1.00 20.00    -0.149 SA
BRANCH   7   8
HETATM    8  C6  UNL     1     -32.335   7.639   2.103  1.00 20.00     0.075 C 
BRANCH   8   9
HETATM    9  C5  UNL     1     -33.553   8.423   1.630  1.00 20.00     0.006 C 
HETATM   10  C2  UNL     1     -33.143   9.597   0.753  1.00 20.00     0.006 C 
ENDBRANCH   8   9
ENDBRANCH   7   8
ENDBRANCH   2   7
TORSDOF 4
