REMARK  1 active torsions:
REMARK  status: ('A' for Active; 'I' for Inactive)
REMARK    1  A    between atoms: C3_3  and  C6_6 
ROOT
HETATM    1  C1  UNL     1     -32.854   7.594   3.444  1.00 20.00     0.131 A 
HETATM    2  C2  UNL     1     -33.024   8.887   5.207  1.00 20.00     0.166 A 
HETATM    3  C3  UNL     1     -33.563   6.738   4.260  1.00 20.00     0.005 A 
HETATM    4  N7  UNL     1     -32.544   8.826   3.984  1.00 20.00    -0.265 NA
HETATM    5  S8  UNL     1     -33.858   7.497   5.770  1.00 20.00    -0.085 SA
ENDROOT
BRANCH   3   6
HETATM    6  C6  UNL     1     -34.063   5.331   3.993  1.00 20.00     0.019 C 
HETATM    7  C4  UNL     1     -34.179   4.519   5.285  1.00 20.00     0.015 C 
HETATM    8  C5  UNL     1     -33.183   4.606   2.971  1.00 20.00     0.015 C 
ENDBRANCH   3   6
TORSDOF 1
