REMARK  1 active torsions:
REMARK  status: ('A' for Active; 'I' for Inactive)
REMARK    1  A    between atoms: C2_2  and  C6_6 
ROOT
HETATM    1  C1  UNL     1     -34.124   7.645   6.102  1.00 20.00     0.111 C 
HETATM    2  C2  UNL     1     -33.449   7.203   4.805  1.00 20.00     0.231 C 
HETATM    3  C3  UNL     1     -34.782   5.273   5.158  1.00 20.00     0.278 C 
HETATM    4  C4  UNL     1     -33.836   4.078   5.220  1.00 20.00     0.054 C 
HETATM    5  N7  UNL     1     -34.345   6.239   4.140  1.00 20.00     0.102 N 
HETATM    6  S8  UNL     1     -34.837   6.123   6.764  1.00 20.00    -0.132 SA
HETATM    7  H21 UNL     1     -35.168   6.746   3.811  1.00 20.00     0.317 HD
ENDROOT
BRANCH   2   8
HETATM    8  C6  UNL     1     -33.173   8.389   3.887  1.00 20.00     0.032 C 
HETATM    9  C5  UNL     1     -32.536   7.961   2.605  1.00 20.00     0.007 C 
ENDBRANCH   2   8
TORSDOF 1
