REMARK  1 active torsions:
REMARK  status: ('A' for Active; 'I' for Inactive)
REMARK    1  A    between atoms: C4_4  and  C7_7 
ROOT
HETATM    1  C1  UNL     1     -34.278   4.823   4.287  1.00 20.00     0.109 C 
HETATM    2  C2  UNL     1     -34.629   6.840   6.108  1.00 20.00     0.109 C 
HETATM    3  C3  UNL     1     -33.057   5.638   3.846  1.00 20.00     0.226 C 
HETATM    4  C4  UNL     1     -33.370   7.434   5.468  1.00 20.00     0.230 C 
HETATM    5  C5  UNL     1     -32.787   5.403   2.358  1.00 20.00     0.043 C 
HETATM    6  N8  UNL     1     -33.244   7.079   4.050  1.00 20.00     0.093 N 
HETATM    7  S9  UNL     1     -34.610   5.025   6.061  1.00 20.00    -0.165 SA
HETATM    8  H24 UNL     1     -32.453   7.581   3.646  1.00 20.00     0.316 HD
ENDROOT
BRANCH   4   9
HETATM    9  C7  UNL     1     -33.407   8.960   5.571  1.00 20.00     0.032 C 
HETATM   10  C6  UNL     1     -32.189   9.579   4.972  1.00 20.00     0.007 C 
ENDBRANCH   4   9
TORSDOF 1
