REMARK  2 active torsions:
REMARK  status: ('A' for Active; 'I' for Inactive)
REMARK    1  A    between atoms: C3_3  and  C6_6 
REMARK    2  A    between atoms: C6_6  and  C7_7 
ROOT
HETATM    1  C1  UNL     1     -33.079   7.135   6.422  1.00 20.00     0.285 C 
HETATM    2  C2  UNL     1     -34.166   6.304   5.741  1.00 20.00     0.073 C 
HETATM    3  C3  UNL     1     -32.642   7.823   4.213  1.00 20.00     0.282 C 
HETATM    4  C4  UNL     1     -34.230   4.879   6.263  1.00 20.00     0.023 C 
HETATM    5  N8  UNL     1     -32.852   8.311   5.578  1.00 20.00     0.098 N 
HETATM    6  S9  UNL     1     -33.701   6.358   3.987  1.00 20.00    -0.128 SA
HETATM    7  H24 UNL     1     -33.693   8.888   5.600  1.00 20.00     0.317 HD
ENDROOT
BRANCH   3   8
HETATM    8  C6  UNL     1     -32.989   8.907   3.205  1.00 20.00     0.046 C 
BRANCH   8   9
HETATM    9  C7  UNL     1     -32.360   8.624   1.843  1.00 20.00    -0.002 C 
HETATM   10  C5  UNL     1     -32.729   9.693   0.827  1.00 20.00     0.005 C 
ENDBRANCH   8   9
ENDBRANCH   3   8
TORSDOF 2
