REMARK  1 active torsions:
REMARK  status: ('A' for Active; 'I' for Inactive)
REMARK    1  A    between atoms: C4_4  and  C5_5 
ROOT
HETATM    1  C3  UNL     1     -34.047   6.721   6.161  1.00 20.00     0.116 C 
HETATM    2  C5  UNL     1     -32.744   7.248   3.942  1.00 20.00     0.286 C 
HETATM    3  C6  UNL     1     -34.399   5.811   4.976  1.00 20.00     0.160 C 
HETATM    4  C7  UNL     1     -34.491   4.352   5.451  1.00 20.00     0.049 C 
HETATM    5  C8  UNL     1     -35.746   6.195   4.337  1.00 20.00     0.049 C 
HETATM    6  N9  UNL     1     -33.292   5.893   4.010  1.00 20.00     0.107 N 
HETATM    7  S10 UNL     1     -33.241   8.160   5.424  1.00 20.00    -0.131 SA
HETATM    8  H25 UNL     1     -33.663   5.646   3.082  1.00 20.00     0.318 HD
ENDROOT
BRANCH   2   9
HETATM    9  C4  UNL     1     -33.159   7.984   2.704  1.00 20.00     0.029 A 
HETATM   10  C1  UNL     1     -32.375   9.178   2.234  1.00 20.00     0.008 A 
HETATM   11  C2  UNL     1     -32.327   7.893   1.455  1.00 20.00     0.008 A 
ENDBRANCH   2   9
TORSDOF 1
