REMARK  1 active torsions:
REMARK  status: ('A' for Active; 'I' for Inactive)
REMARK    1  A    between atoms: C3_3  and  C7_7 
ROOT
HETATM    1  C1  UNL     1     -33.859   4.059   4.308  1.00 20.00     0.111 C 
HETATM    2  C2  UNL     1     -34.569   5.109   5.162  1.00 20.00     0.227 C 
HETATM    3  C3  UNL     1     -33.652   6.576   3.558  1.00 20.00     0.285 C 
HETATM    4  C4  UNL     1     -34.612   4.701   6.630  1.00 20.00     0.043 C 
HETATM    5  N8  UNL     1     -33.833   6.376   5.002  1.00 20.00     0.102 N 
HETATM    6  S9  UNL     1     -33.448   4.941   2.786  1.00 20.00    -0.131 SA
HETATM    7  H24 UNL     1     -34.355   7.150   5.409  1.00 20.00     0.317 HD
ENDROOT
BRANCH   3   8
HETATM    8  C7  UNL     1     -32.447   7.462   3.273  1.00 20.00     0.021 C 
HETATM    9  C5  UNL     1     -32.244   7.635   1.767  1.00 20.00     0.012 C 
HETATM   10  C6  UNL     1     -32.602   8.825   3.948  1.00 20.00     0.012 C 
ENDBRANCH   3   8
TORSDOF 1
