REMARK  2 active torsions:
REMARK  status: ('A' for Active; 'I' for Inactive)
REMARK    1  A    between atoms: C3_3  and  C7_7 
REMARK    2  A    between atoms: C7_7  and  C8_8 
ROOT
HETATM    1  C1  UNL     1     -32.010   7.513   1.383  1.00 20.00     0.012 C 
HETATM    2  C2  UNL     1     -32.446   6.818   2.259  1.00 20.00    -0.116 C 
HETATM    3  C8  UNL     1     -32.977   5.960   3.323  1.00 20.00     0.113 C 
ENDROOT
BRANCH   3   4
HETATM    4  C7  UNL     1     -33.427   6.803   4.549  1.00 20.00     0.058 C 
HETATM    5  C5  UNL     1     -34.346   8.022   4.218  1.00 20.00     0.021 C 
HETATM    6  C4  UNL     1     -33.530   8.863   5.214  1.00 20.00     0.003 C 
HETATM    7  C6  UNL     1     -32.384   7.848   5.057  1.00 20.00     0.021 C 
BRANCH   4   8
HETATM    8  C3  UNL     1     -33.981   5.905   5.658  1.00 20.00     0.182 C 
HETATM    9  O9  UNL     1     -33.627   6.215   6.829  1.00 20.00    -0.647 OA
HETATM   10  O10 UNL     1     -34.724   4.966   5.257  1.00 20.00    -0.647 OA
ENDBRANCH   4   8
ENDBRANCH   3   4
TORSDOF 2
