REMARK  0 active torsions:
REMARK  status: ('A' for Active; 'I' for Inactive)
ROOT
HETATM    1  C1  UNL     1     -34.462   4.697   5.500  1.00 20.00     0.019 A 
HETATM    2  C2  UNL     1     -34.323   6.072   5.898  1.00 20.00     0.031 A 
HETATM    3  C3  UNL     1     -34.006   4.302   4.306  1.00 20.00     0.094 A 
HETATM    4  C4  UNL     1     -33.742   6.964   5.087  1.00 20.00     0.102 A 
HETATM    5  C5  UNL     1     -33.223   6.544   3.743  1.00 20.00     0.268 A 
HETATM    6  C6  UNL     1     -32.921   4.691   2.146  1.00 20.00     0.159 C 
HETATM    7  N7  UNL     1     -33.397   5.186   3.432  1.00 20.00    -0.328 N 
HETATM    8  O8  UNL     1     -32.689   7.368   3.001  1.00 20.00    -0.266 OA
HETATM    9 CL9  UNL     1     -33.564   8.613   5.541  1.00 20.00    -0.078 Cl
ENDROOT
TORSDOF 0
