REMARK  3 active torsions:
REMARK  status: ('A' for Active; 'I' for Inactive)
REMARK    1  A    between atoms: C4_4  and  C7_7 
REMARK    2  A    between atoms: C7_7  and  O10_10 
REMARK    3  A    between atoms: C8_8  and  O10_10 
ROOT
HETATM    1  C1  UNL     1     -32.603   7.860   2.761  1.00 20.00     0.071 C 
HETATM    2  C2  UNL     1     -32.107   9.408   4.687  1.00 20.00     0.028 A 
HETATM    3  C3  UNL     1     -33.546   9.609   4.312  1.00 20.00     0.028 A 
HETATM    4  C4  UNL     1     -32.900   8.256   4.113  1.00 20.00     0.070 A 
HETATM    5  N9  UNL     1     -32.364   7.541   1.671  1.00 20.00    -0.196 NA
ENDROOT
BRANCH   4   6
HETATM    6  C7  UNL     1     -33.297   7.140   5.037  1.00 20.00     0.192 C 
BRANCH   6   7
HETATM    7  O10 UNL     1     -34.474   6.510   4.542  1.00 20.00    -0.385 OA
BRANCH   7   8
HETATM    8  C8  UNL     1     -34.634   5.208   5.086  1.00 20.00     0.113 C 
HETATM    9  C5  UNL     1     -33.738   4.236   4.333  1.00 20.00     0.039 C 
HETATM   10  C6  UNL     1     -34.310   5.242   6.572  1.00 20.00     0.039 C 
ENDBRANCH   7   8
ENDBRANCH   6   7
ENDBRANCH   4   6
TORSDOF 3
