REMARK  0 active torsions:
REMARK  status: ('A' for Active; 'I' for Inactive)
ROOT
HETATM    1  C1  UNL     1     -34.218   6.750   5.662  1.00 20.00     0.125 C 
HETATM    2  C2  UNL     1     -33.044   7.916   3.724  1.00 20.00     0.074 A 
HETATM    3  C3  UNL     1     -32.730   6.032   2.572  1.00 20.00     0.167 A 
HETATM    4  C4  UNL     1     -33.561   6.845   4.415  1.00 20.00     0.156 A 
HETATM    5  C5  UNL     1     -32.505   7.388   2.527  1.00 20.00     0.059 A 
HETATM    6  N6  UNL     1     -34.759   6.672   6.686  1.00 20.00    -0.189 NA
HETATM    7  O7  UNL     1     -33.374   5.693   3.719  1.00 20.00    -0.310 OA
HETATM    8 CL8  UNL     1     -31.741   8.276   1.305  1.00 20.00    -0.082 Cl
ENDROOT
TORSDOF 0
