REMARK  3 active torsions:
REMARK  status: ('A' for Active; 'I' for Inactive)
REMARK    1  A    between atoms: C3_3  and  C6_6 
REMARK    2  A    between atoms: C6_6  and  C8_8 
REMARK    3  A    between atoms: C7_7  and  C8_8 
ROOT
HETATM    1  C1  UNL     1     -35.091   5.751   4.742  1.00 20.00     0.285 C 
HETATM    2  C2  UNL     1     -34.761   5.969   6.220  1.00 20.00     0.073 C 
HETATM    3  C3  UNL     1     -33.570   7.525   4.439  1.00 20.00     0.282 C 
HETATM    4  C4  UNL     1     -33.817   4.912   6.784  1.00 20.00     0.023 C 
HETATM    5  N9  UNL     1     -33.935   6.191   3.957  1.00 20.00     0.098 N 
HETATM    6  S10 UNL     1     -33.943   7.592   6.222  1.00 20.00    -0.128 SA
HETATM    7  H27 UNL     1     -33.162   5.548   4.123  1.00 20.00     0.317 HD
ENDROOT
BRANCH   3   8
HETATM    8  C6  UNL     1     -32.095   7.793   4.182  1.00 20.00     0.046 C 
BRANCH   8   9
HETATM    9  C8  UNL     1     -31.770   7.743   2.691  1.00 20.00     0.002 C 
BRANCH   9  10
HETATM   10  C7  UNL     1     -32.545   8.811   1.918  1.00 20.00    -0.004 C 
HETATM   11  C5  UNL     1     -32.200   8.788   0.438  1.00 20.00     0.005 C 
ENDBRANCH   9  10
ENDBRANCH   8   9
ENDBRANCH   3   8
TORSDOF 3
