REMARK  1 active torsions:
REMARK  status: ('A' for Active; 'I' for Inactive)
REMARK    1  A    between atoms: C2_2  and  C6_6 
ROOT
HETATM    1  C1  UNL     1     -33.996   8.287   4.789  1.00 20.00     0.111 C 
HETATM    2  C2  UNL     1     -33.683   6.792   4.807  1.00 20.00     0.231 C 
HETATM    3  C3  UNL     1     -32.180   7.406   3.095  1.00 20.00     0.278 C 
HETATM    4  C4  UNL     1     -32.048   7.528   1.584  1.00 20.00     0.054 C 
HETATM    5  N7  UNL     1     -33.211   6.425   3.460  1.00 20.00     0.102 N 
HETATM    6  S8  UNL     1     -32.641   9.004   3.833  1.00 20.00    -0.132 SA
HETATM    7  H21 UNL     1     -32.826   5.482   3.457  1.00 20.00     0.317 HD
ENDROOT
BRANCH   2   8
HETATM    8  C6  UNL     1     -34.908   5.968   5.184  1.00 20.00     0.032 C 
HETATM    9  C5  UNL     1     -34.614   4.502   5.180  1.00 20.00     0.007 C 
ENDBRANCH   2   8
TORSDOF 1
