REMARK  1 active torsions:
REMARK  status: ('A' for Active; 'I' for Inactive)
REMARK    1  A    between atoms: C3_3  and  C7_7 
ROOT
HETATM    1  C1  UNL     1     -34.225   7.881   6.193  1.00 20.00     0.284 C 
HETATM    2  C2  UNL     1     -33.885   6.245   3.710  1.00 20.00     0.109 C 
HETATM    3  C3  UNL     1     -33.314   7.646   3.950  1.00 20.00     0.229 C 
HETATM    4  C4  UNL     1     -34.930   6.522   6.260  1.00 20.00     0.071 C 
HETATM    5  C5  UNL     1     -34.079   5.443   6.927  1.00 20.00     0.023 C 
HETATM    6  N8  UNL     1     -33.016   7.886   5.368  1.00 20.00     0.089 N 
HETATM    7  S9  UNL     1     -35.453   5.987   4.593  1.00 20.00    -0.161 SA
HETATM    8  H24 UNL     1     -32.556   8.791   5.465  1.00 20.00     0.316 HD
ENDROOT
BRANCH   3   9
HETATM    9  C7  UNL     1     -32.018   7.815   3.152  1.00 20.00     0.032 C 
HETATM   10  C6  UNL     1     -32.247   7.628   1.690  1.00 20.00     0.007 C 
ENDBRANCH   3   9
TORSDOF 1
