REMARK  1 active torsions:
REMARK  status: ('A' for Active; 'I' for Inactive)
REMARK    1  A    between atoms: C2_2  and  C8_8 
ROOT
HETATM    1  C1  UNL     1     -35.071   5.957   4.508  1.00 20.00     0.284 C 
HETATM    2  C2  UNL     1     -32.820   6.983   4.291  1.00 20.00     0.233 C 
HETATM    3  C3  UNL     1     -34.998   6.053   6.032  1.00 20.00     0.071 C 
HETATM    4  C4  UNL     1     -33.464   8.186   5.015  1.00 20.00     0.076 C 
HETATM    5  C5  UNL     1     -34.232   4.896   6.672  1.00 20.00     0.023 C 
HETATM    6  C6  UNL     1     -32.459   9.272   5.404  1.00 20.00     0.023 C 
HETATM    7  N9  UNL     1     -33.785   5.976   3.820  1.00 20.00     0.090 N 
HETATM    8  S10 UNL     1     -34.287   7.647   6.569  1.00 20.00    -0.156 SA
HETATM    9  H27 UNL     1     -33.358   5.038   3.906  1.00 20.00     0.316 HD
ENDROOT
BRANCH   2  10
HETATM   10  C8  UNL     1     -31.971   7.407   3.085  1.00 20.00     0.032 C 
HETATM   11  C7  UNL     1     -32.795   8.103   2.056  1.00 20.00     0.007 C 
ENDBRANCH   2  10
TORSDOF 1
