REMARK  3 active torsions:
REMARK  status: ('A' for Active; 'I' for Inactive)
REMARK    1  A    between atoms: C3_3  and  C6_6 
REMARK    2  A    between atoms: C6_6  and  C8_8 
REMARK    3  A    between atoms: C7_7  and  C8_8 
ROOT
HETATM    1  C1  UNL     1     -34.548   5.752   6.239  1.00 20.00     0.111 C 
HETATM    2  C2  UNL     1     -34.296   5.082   4.888  1.00 20.00     0.227 C 
HETATM    3  C3  UNL     1     -33.037   7.069   4.528  1.00 20.00     0.282 C 
HETATM    4  C4  UNL     1     -33.189   4.026   4.934  1.00 20.00     0.043 C 
HETATM    5  N9  UNL     1     -33.996   6.142   3.909  1.00 20.00     0.102 N 
HETATM    6  S10 UNL     1     -33.362   7.114   6.316  1.00 20.00    -0.132 SA
HETATM    7  H27 UNL     1     -33.542   5.709   3.101  1.00 20.00     0.317 HD
ENDROOT
BRANCH   3   8
HETATM    8  C6  UNL     1     -33.157   8.463   3.926  1.00 20.00     0.046 C 
BRANCH   8   9
HETATM    9  C8  UNL     1     -32.876   8.447   2.425  1.00 20.00     0.002 C 
BRANCH   9  10
HETATM   10  C7  UNL     1     -32.965   9.852   1.832  1.00 20.00    -0.004 C 
HETATM   11  C5  UNL     1     -32.653   9.850   0.344  1.00 20.00     0.005 C 
ENDBRANCH   9  10
ENDBRANCH   8   9
ENDBRANCH   3   8
TORSDOF 3
