REMARK  2 active torsions:
REMARK  status: ('A' for Active; 'I' for Inactive)
REMARK    1  A    between atoms: C3_3  and  C7_7 
REMARK    2  A    between atoms: C7_7  and  C8_8 
ROOT
HETATM    1  C1  UNL     1     -32.002   7.441   1.825  1.00 20.00     0.111 C 
HETATM    2  C2  UNL     1     -33.098   8.439   2.190  1.00 20.00     0.227 C 
HETATM    3  C3  UNL     1     -33.168   7.131   4.168  1.00 20.00     0.282 C 
HETATM    4  C4  UNL     1     -32.815   9.819   1.606  1.00 20.00     0.043 C 
HETATM    5  N9  UNL     1     -33.165   8.510   3.662  1.00 20.00     0.102 N 
HETATM    6  S10 UNL     1     -32.219   6.097   3.013  1.00 20.00    -0.132 SA
HETATM    7  H27 UNL     1     -32.316   8.968   3.996  1.00 20.00     0.317 HD
ENDROOT
BRANCH   3   8
HETATM    8  C7  UNL     1     -34.592   6.603   4.308  1.00 20.00     0.050 C 
BRANCH   8   9
HETATM    9  C8  UNL     1     -34.709   5.395   5.252  1.00 20.00    -0.020 C 
HETATM   10  C5  UNL     1     -33.869   4.206   4.783  1.00 20.00     0.009 C 
HETATM   11  C6  UNL     1     -34.287   5.801   6.666  1.00 20.00     0.009 C 
ENDBRANCH   8   9
ENDBRANCH   3   8
TORSDOF 2
