REMARK  2 active torsions:
REMARK  status: ('A' for Active; 'I' for Inactive)
REMARK    1  A    between atoms: C6_6  and  C8_8 
REMARK    2  A    between atoms: C8_8  and  O9_9 
ROOT
HETATM    1  C1  UNL     1     -34.145   5.095   6.766  1.00 20.00    -0.004 C 
HETATM    2  C2  UNL     1     -34.092   4.220   5.622  1.00 20.00    -0.003 C 
HETATM    3  C3  UNL     1     -33.760   6.376   6.680  1.00 20.00    -0.025 C 
HETATM    4  C4  UNL     1     -33.875   4.698   4.388  1.00 20.00    -0.003 C 
HETATM    5  C5  UNL     1     -33.257   6.975   5.392  1.00 20.00     0.054 C 
HETATM    6  C6  UNL     1     -33.643   6.167   4.126  1.00 20.00     0.060 C 
HETATM    7 BR10 UNL     1     -35.388   6.854   3.467  1.00 20.00    -0.079 Br
ENDROOT
BRANCH   6   8
HETATM    8  C8  UNL     1     -32.625   6.394   3.007  1.00 20.00     0.192 C 
BRANCH   8   9
HETATM    9  O9  UNL     1     -32.474   7.788   2.817  1.00 20.00    -0.394 OA
HETATM   10  C7  UNL     1     -31.537   8.082   1.786  1.00 20.00     0.201 C 
ENDBRANCH   8   9
ENDBRANCH   6   8
TORSDOF 2
