REMARK  1 active torsions:
REMARK  status: ('A' for Active; 'I' for Inactive)
REMARK    1  A    between atoms: C3_3  and  C7_7 
ROOT
HETATM    1  C1  UNL     1     -32.628   8.667   2.904  1.00 20.00    -0.011 C 
HETATM    2  C2  UNL     1     -32.355   7.741   1.972  1.00 20.00    -0.015 C 
HETATM    3  C4  UNL     1     -33.284   8.345   4.216  1.00 20.00     0.040 C 
HETATM    4  C5  UNL     1     -32.647   6.278   2.162  1.00 20.00     0.047 C 
HETATM    5  C6  UNL     1     -32.948   5.915   3.619  1.00 20.00     0.017 C 
HETATM    6  C7  UNL     1     -33.889   6.937   4.258  1.00 20.00     0.058 C 
HETATM    7 BR10 UNL     1     -31.562   8.187   0.340  1.00 20.00    -0.056 Br
ENDROOT
BRANCH   6   8
HETATM    8  C3  UNL     1     -34.173   6.558   5.679  1.00 20.00     0.127 C 
HETATM    9  C8  UNL     1     -34.812   5.215   5.907  1.00 20.00     0.091 C 
HETATM   10  O9  UNL     1     -33.895   7.308   6.614  1.00 20.00    -0.298 OA
ENDBRANCH   6   8
TORSDOF 1
