REMARK  1 active torsions:
REMARK  status: ('A' for Active; 'I' for Inactive)
REMARK    1  A    between atoms: C6_6  and  O10_10 
ROOT
HETATM    1  C1  UNL     1     -34.233   4.559   5.770  1.00 20.00     0.001 C 
HETATM    2  C2  UNL     1     -35.138   5.105   4.679  1.00 20.00     0.001 C 
HETATM    3  C3  UNL     1     -32.975   5.420   5.669  1.00 20.00     0.013 C 
HETATM    4  C4  UNL     1     -34.964   6.611   4.831  1.00 20.00     0.013 C 
HETATM    5  C5  UNL     1     -32.804   8.723   4.499  1.00 20.00     0.053 C 
HETATM    6  C6  UNL     1     -32.592   7.308   3.917  1.00 20.00     0.132 C 
HETATM    7  C7  UNL     1     -32.977   8.053   5.880  1.00 20.00     0.095 C 
HETATM    8  C8  UNL     1     -33.461   6.769   5.114  1.00 20.00     0.003 C 
HETATM    9 CL11 UNL     1     -34.017   8.859   7.094  1.00 20.00    -0.124 Cl
ENDROOT
BRANCH   6  10
HETATM   10  O10 UNL     1     -33.098   7.076   2.591  1.00 20.00    -0.390 OA
HETATM   11  C9  UNL     1     -32.211   7.588   1.615  1.00 20.00     0.202 C 
ENDBRANCH   6  10
TORSDOF 1
