REMARK  2 active torsions:
REMARK  status: ('A' for Active; 'I' for Inactive)
REMARK    1  A    between atoms: C3_3  and  O11_11 
REMARK    2  A    between atoms: C9_9  and  O11_11 
ROOT
HETATM    1  C1  UNL     1     -33.961   6.051   6.482  1.00 20.00     0.069 C 
HETATM    2  C2  UNL     1     -34.183   4.756   5.658  1.00 20.00     0.173 C 
HETATM    3  C3  UNL     1     -33.548   6.753   5.171  1.00 20.00     0.135 C 
HETATM    4  C4  UNL     1     -34.370   5.667   4.391  1.00 20.00     0.008 C 
HETATM    5  C5  UNL     1     -35.857   5.918   4.093  1.00 20.00     0.020 C 
HETATM    6  C6  UNL     1     -33.655   5.178   3.129  1.00 20.00     0.020 C 
HETATM    7  O10 UNL     1     -33.067   3.842   5.640  1.00 20.00    -0.234 OA
ENDROOT
BRANCH   3   8
HETATM    8  O11 UNL     1     -34.037   8.062   5.063  1.00 20.00    -0.380 OA
BRANCH   8   9
HETATM    9  C9  UNL     1     -33.266   8.810   4.144  1.00 20.00     0.114 C 
HETATM   10  C7  UNL     1     -34.157   9.840   3.465  1.00 20.00     0.039 C 
HETATM   11  C8  UNL     1     -32.104   9.462   4.878  1.00 20.00     0.039 C 
ENDBRANCH   8   9
ENDBRANCH   3   8
TORSDOF 2
