REMARK  2 active torsions:
REMARK  status: ('A' for Active; 'I' for Inactive)
REMARK    1  A    between atoms: C2_2  and  O10_10 
REMARK    2  A    between atoms: C9_9  and  O10_10 
ROOT
HETATM    1  C1  UNL     1     -33.626   7.065   6.176  1.00 20.00     0.053 C 
HETATM    2  C2  UNL     1     -34.095   7.247   4.715  1.00 20.00     0.132 C 
HETATM    3  C3  UNL     1     -34.844   6.140   6.395  1.00 20.00     0.095 C 
HETATM    4  C4  UNL     1     -34.839   5.873   4.850  1.00 20.00    -0.005 C 
HETATM    5  C5  UNL     1     -36.234   5.873   4.229  1.00 20.00     0.019 C 
HETATM    6  C6  UNL     1     -34.033   4.659   4.379  1.00 20.00     0.019 C 
HETATM    7 CL11 UNL     1     -34.689   4.787   7.562  1.00 20.00    -0.124 Cl
ENDROOT
BRANCH   2   8
HETATM    8  O10 UNL     1     -33.057   7.332   3.723  1.00 20.00    -0.381 OA
BRANCH   8   9
HETATM    9  C9  UNL     1     -32.778   8.680   3.399  1.00 20.00     0.114 C 
HETATM   10  C7  UNL     1     -32.354   9.421   4.658  1.00 20.00     0.039 C 
HETATM   11  C8  UNL     1     -31.700   8.724   2.326  1.00 20.00     0.039 C 
ENDBRANCH   8   9
ENDBRANCH   2   8
TORSDOF 2
