REMARK  1 active torsions:
REMARK  status: ('A' for Active; 'I' for Inactive)
REMARK    1  A    between atoms: C2_2  and  O8_8 
ROOT
HETATM    1  C1  UNL     1     -34.216   7.542   6.193  1.00 20.00     0.049 C 
HETATM    2  C2  UNL     1     -34.079   7.713   4.661  1.00 20.00     0.131 C 
HETATM    3  C3  UNL     1     -33.925   6.037   6.003  1.00 20.00     0.070 C 
HETATM    4  C4  UNL     1     -34.414   6.187   4.521  1.00 20.00    -0.008 C 
HETATM    5  C5  UNL     1     -35.901   5.957   4.222  1.00 20.00     0.018 C 
HETATM    6  C6  UNL     1     -33.546   5.413   3.529  1.00 20.00     0.018 C 
HETATM    7 BR9  UNL     1     -34.884   4.833   7.170  1.00 20.00    -0.090 Br
ENDROOT
BRANCH   2   8
HETATM    8  O8  UNL     1     -32.778   8.136   4.204  1.00 20.00    -0.390 OA
HETATM    9  C7  UNL     1     -32.619   9.531   4.369  1.00 20.00     0.202 C 
ENDBRANCH   2   8
TORSDOF 1
