REMARK  3 active torsions:
REMARK  status: ('A' for Active; 'I' for Inactive)
REMARK    1  A    between atoms: C4_4  and  O11_11 
REMARK    2  A    between atoms: C8_8  and  C10_10 
REMARK    3  A    between atoms: C10_10  and  O11_11 
ROOT
HETATM    1  C1  UNL     1     -35.079   5.908   6.319  1.00 20.00    -0.030 C 
HETATM    2  C2  UNL     1     -34.665   7.128   6.683  1.00 20.00    -0.030 C 
HETATM    3  C5  UNL     1     -34.622   5.230   5.064  1.00 20.00     0.031 C 
HETATM    4  C6  UNL     1     -33.679   7.928   5.888  1.00 20.00     0.034 C 
HETATM    5  C7  UNL     1     -33.918   6.178   4.070  1.00 20.00    -0.009 C 
HETATM    6  C8  UNL     1     -32.930   7.102   4.821  1.00 20.00     0.017 C 
HETATM    7  C9  UNL     1     -33.255   5.355   2.963  1.00 20.00     0.011 C 
ENDROOT
BRANCH   6   8
HETATM    8  C10 UNL     1     -32.161   8.045   3.893  1.00 20.00     0.179 C 
BRANCH   8   9
HETATM    9  O11 UNL     1     -33.065   8.570   2.941  1.00 20.00    -0.363 OA
BRANCH   9  10
HETATM   10  C4  UNL     1     -32.509   9.054   1.834  1.00 20.00     0.124 C 
HETATM   11  C3  UNL     1     -32.265   8.348   0.728  1.00 20.00     0.037 C 
ENDBRANCH   9  10
ENDBRANCH   8   9
ENDBRANCH   6   8
TORSDOF 3
