REMARK  1 active torsions:
REMARK  status: ('A' for Active; 'I' for Inactive)
REMARK    1  A    between atoms: C2_2  and  O8_8 
ROOT
HETATM    1  C1  UNL     1     -33.077   5.976   3.441  1.00 20.00     0.053 C 
HETATM    2  C2  UNL     1     -33.314   6.666   4.804  1.00 20.00     0.131 C 
HETATM    3  C3  UNL     1     -32.180   7.171   3.053  1.00 20.00     0.095 C 
HETATM    4  C4  UNL     1     -32.972   8.026   4.102  1.00 20.00    -0.005 C 
HETATM    5  C5  UNL     1     -34.184   8.795   3.568  1.00 20.00     0.019 C 
HETATM    6  C6  UNL     1     -32.078   8.936   4.942  1.00 20.00     0.019 C 
HETATM    7 CL9  UNL     1     -32.112   7.664   1.330  1.00 20.00    -0.124 Cl
ENDROOT
BRANCH   2   8
HETATM    8  O8  UNL     1     -34.634   6.542   5.362  1.00 20.00    -0.390 OA
HETATM    9  C7  UNL     1     -34.800   5.285   5.990  1.00 20.00     0.202 C 
ENDBRANCH   2   8
TORSDOF 1
