REMARK  3 active torsions:
REMARK  status: ('A' for Active; 'I' for Inactive)
REMARK    1  A    between atoms: C2_2  and  O10_10 
REMARK    2  A    between atoms: C7_7  and  C8_8 
REMARK    3  A    between atoms: C8_8  and  O10_10 
ROOT
HETATM    1  C3  UNL     1     -34.805   6.374   5.904  1.00 20.00     0.005 C 
HETATM    2  C4  UNL     1     -34.573   4.909   5.556  1.00 20.00     0.026 C 
HETATM    3  C5  UNL     1     -33.667   7.239   5.370  1.00 20.00     0.034 C 
HETATM    4  C6  UNL     1     -34.277   4.748   4.071  1.00 20.00     0.168 C 
HETATM    5  C7  UNL     1     -33.425   6.957   3.885  1.00 20.00     0.145 C 
HETATM    6  O9  UNL     1     -33.171   5.562   3.683  1.00 20.00    -0.384 OA
ENDROOT
BRANCH   5   7
HETATM    7  C8  UNL     1     -32.219   7.729   3.370  1.00 20.00     0.206 C 
BRANCH   7   8
HETATM    8  O10 UNL     1     -32.299   7.806   1.958  1.00 20.00    -0.361 OA
BRANCH   8   9
HETATM    9  C2  UNL     1     -33.120   8.738   1.487  1.00 20.00     0.124 C 
HETATM   10  C1  UNL     1     -32.756   9.751   0.698  1.00 20.00     0.037 C 
ENDBRANCH   8   9
ENDBRANCH   7   8
ENDBRANCH   5   7
TORSDOF 3
