REMARK  2 active torsions:
REMARK  status: ('A' for Active; 'I' for Inactive)
REMARK    1  A    between atoms: C3_3  and  C6_6 
REMARK    2  A    between atoms: C6_6  and  C7_7 
ROOT
HETATM    1  C4  UNL     1     -32.722   8.514   4.654  1.00 20.00     0.011 C 
HETATM    2  C6  UNL     1     -33.358   7.321   3.979  1.00 20.00    -0.001 C 
ENDROOT
BRANCH   2   3
HETATM    3  C3  UNL     1     -33.725   6.266   5.031  1.00 20.00    -0.010 A 
HETATM    4  C1  UNL     1     -34.925   6.464   5.917  1.00 20.00     0.005 A 
HETATM    5  C2  UNL     1     -34.946   5.407   4.848  1.00 20.00     0.005 A 
ENDBRANCH   2   3
BRANCH   2   6
HETATM    6  C7  UNL     1     -32.494   6.699   2.864  1.00 20.00     0.058 C 
HETATM    7  C5  UNL     1     -32.946   5.340   2.347  1.00 20.00     0.022 C 
HETATM    8 BR8  UNL     1     -32.372   7.934   1.337  1.00 20.00    -0.091 Br
ENDBRANCH   2   6
TORSDOF 2
