REMARK  1 active torsions:
REMARK  status: ('A' for Active; 'I' for Inactive)
REMARK    1  A    between atoms: C9_9  and  N10_10 
ROOT
HETATM    1  C1  UNL     1     -32.467   8.482   0.727  1.00 20.00     0.013 C 
HETATM    2  C2  UNL     1     -32.600   8.658   1.907  1.00 20.00    -0.087 C 
HETATM    3  C9  UNL     1     -32.759   8.876   3.347  1.00 20.00     0.364 C 
ENDROOT
BRANCH   3   4
HETATM    4  N10 UNL     1     -33.677   7.901   3.916  1.00 20.00     0.100 N 
HETATM    5  C3  UNL     1     -33.217   6.520   3.735  1.00 20.00     0.278 C 
HETATM    6  C5  UNL     1     -33.884   5.728   4.871  1.00 20.00     0.015 C 
HETATM    7  C6  UNL     1     -34.604   6.794   5.714  1.00 20.00     0.015 C 
HETATM    8  C7  UNL     1     -34.840   4.656   4.361  1.00 20.00     0.012 C 
HETATM    9  C4  UNL     1     -33.863   8.077   5.356  1.00 20.00     0.278 C 
HETATM   10  C8  UNL     1     -34.589   6.499   7.206  1.00 20.00     0.012 C 
ENDBRANCH   3   4
TORSDOF 1
