REMARK  2 active torsions:
REMARK  status: ('A' for Active; 'I' for Inactive)
REMARK    1  A    between atoms: C5_5  and  S10_10 
REMARK    2  A    between atoms: C8_8  and  S10_10 
ROOT
HETATM    1  C1  UNL     1     -32.803   6.110   3.661  1.00 20.00     0.080 C 
HETATM    2  C2  UNL     1     -32.590   8.713   5.137  1.00 20.00     0.009 C 
HETATM    3  C3  UNL     1     -33.631   8.486   4.020  1.00 20.00     0.037 C 
HETATM    4  C4  UNL     1     -33.120   7.425   5.827  1.00 20.00     0.014 C 
HETATM    5  C5  UNL     1     -33.664   6.991   4.423  1.00 20.00     0.100 C 
HETATM    6  C6  UNL     1     -34.049   7.712   7.003  1.00 20.00     0.012 C 
HETATM    7  N9  UNL     1     -32.113   5.405   3.051  1.00 20.00    -0.196 NA
ENDROOT
BRANCH   5   8
HETATM    8  S10 UNL     1     -35.364   6.321   4.437  1.00 20.00    -0.144 SA
BRANCH   8   9
HETATM    9  C8  UNL     1     -34.935   4.579   4.634  1.00 20.00     0.071 C 
HETATM   10  C7  UNL     1     -34.160   4.363   5.920  1.00 20.00     0.016 C 
ENDBRANCH   8   9
ENDBRANCH   5   8
TORSDOF 2
