REMARK  2 active torsions:
REMARK  status: ('A' for Active; 'I' for Inactive)
REMARK    1  A    between atoms: C4_4  and  C9_9 
REMARK    2  A    between atoms: C5_5  and  C8_8 
ROOT
HETATM    1  C1  UNL     1     -34.106   7.855   5.343  1.00 20.00     0.032 C 
HETATM    2  C2  UNL     1     -32.865   6.813   3.420  1.00 20.00     0.038 C 
HETATM    3  C3  UNL     1     -33.143   9.043   5.320  1.00 20.00     0.168 C 
HETATM    4  C4  UNL     1     -33.420   6.588   4.837  1.00 20.00     0.008 C 
HETATM    5  C5  UNL     1     -32.561   8.291   3.142  1.00 20.00     0.121 C 
HETATM    6  O10 UNL     1     -32.112   8.924   4.338  1.00 20.00    -0.386 OA
ENDROOT
BRANCH   4   7
HETATM    7  C9  UNL     1     -34.356   5.384   4.880  1.00 20.00     0.082 C 
HETATM    8  C7  UNL     1     -33.655   4.122   4.411  1.00 20.00     0.027 C 
HETATM    9 CL11 UNL     1     -34.952   5.161   6.547  1.00 20.00    -0.125 Cl
ENDBRANCH   4   7
BRANCH   5  10
HETATM   10  C8  UNL     1     -31.483   8.447   2.078  1.00 20.00     0.027 C 
HETATM   11  C6  UNL     1     -31.903   7.856   0.771  1.00 20.00     0.007 C 
ENDBRANCH   5  10
TORSDOF 2
