REMARK  2 active torsions:
REMARK  status: ('A' for Active; 'I' for Inactive)
REMARK    1  A    between atoms: C5_5  and  C7_7 
REMARK    2  A    between atoms: C6_6  and  C8_8 
ROOT
HETATM    1  C1  UNL     1     -32.736   9.206   4.987  1.00 20.00     0.001 C 
HETATM    2  C2  UNL     1     -32.034   8.860   3.677  1.00 20.00     0.005 C 
HETATM    3  C3  UNL     1     -33.079   7.954   5.790  1.00 20.00     0.013 C 
HETATM    4  C4  UNL     1     -33.198   6.616   3.648  1.00 20.00     0.018 C 
HETATM    5  C5  UNL     1     -32.858   7.875   2.837  1.00 20.00    -0.004 C 
HETATM    6  C6  UNL     1     -33.910   6.963   4.964  1.00 20.00     0.094 C 
ENDROOT
BRANCH   6   7
HETATM    7  C8  UNL     1     -34.198   5.698   5.770  1.00 20.00     0.391 C 
HETATM    8  F9  UNL     1     -34.954   4.856   5.050  1.00 20.00    -0.171 F 
HETATM    9  F10 UNL     1     -33.049   5.085   6.091  1.00 20.00    -0.171 F 
HETATM   10  F11 UNL     1     -34.853   6.012   6.899  1.00 20.00    -0.171 F 
ENDBRANCH   6   7
BRANCH   5  11
HETATM   11  C7  UNL     1     -32.113   7.506   1.556  1.00 20.00     0.089 C 
HETATM   12 BR12 UNL     1     -32.381   8.896   0.231  1.00 20.00    -0.096 Br
ENDBRANCH   5  11
TORSDOF 2
