REMARK  2 active torsions:
REMARK  status: ('A' for Active; 'I' for Inactive)
REMARK    1  A    between atoms: C4_4  and  C9_9 
REMARK    2  A    between atoms: C5_5  and  C8_8 
ROOT
HETATM    1  C1  UNL     1     -33.322   8.346   5.503  1.00 20.00     0.032 C 
HETATM    2  C2  UNL     1     -33.267   6.512   3.787  1.00 20.00     0.038 C 
HETATM    3  C3  UNL     1     -32.091   8.792   4.718  1.00 20.00     0.168 C 
HETATM    4  C4  UNL     1     -34.161   7.314   4.735  1.00 20.00     0.008 C 
HETATM    5  C5  UNL     1     -32.518   7.437   2.812  1.00 20.00     0.121 C 
HETATM    6  O10 UNL     1     -32.363   8.768   3.322  1.00 20.00    -0.386 OA
ENDROOT
BRANCH   4   7
HETATM    7  C9  UNL     1     -34.927   6.404   5.691  1.00 20.00     0.082 C 
HETATM    8  C7  UNL     1     -35.727   5.358   4.935  1.00 20.00     0.027 C 
HETATM    9 CL11 UNL     1     -33.775   5.603   6.792  1.00 20.00    -0.125 Cl
ENDBRANCH   4   7
BRANCH   5  10
HETATM   10  C8  UNL     1     -33.248   7.555   1.479  1.00 20.00     0.027 C 
HETATM   11  C6  UNL     1     -32.536   8.468   0.534  1.00 20.00     0.007 C 
ENDBRANCH   5  10
TORSDOF 2
