REMARK  2 active torsions:
REMARK  status: ('A' for Active; 'I' for Inactive)
REMARK    1  A    between atoms: C4_4  and  C8_8 
REMARK    2  A    between atoms: C5_5  and  C9_9 
ROOT
HETATM    1  C1  UNL     1     -32.554   6.898   2.090  1.00 20.00     0.005 C 
HETATM    2  C2  UNL     1     -32.853   5.902   3.214  1.00 20.00     0.006 C 
HETATM    3  C3  UNL     1     -33.420   8.106   3.984  1.00 20.00     0.010 C 
HETATM    4  C4  UNL     1     -32.555   8.285   2.740  1.00 20.00    -0.014 C 
HETATM    5  C5  UNL     1     -32.983   6.735   4.492  1.00 20.00    -0.000 C 
ENDROOT
BRANCH   5   6
HETATM    6  C9  UNL     1     -33.945   6.136   5.503  1.00 20.00     0.058 C 
HETATM    7  C7  UNL     1     -34.126   7.025   6.722  1.00 20.00     0.022 C 
HETATM    8 BR10 UNL     1     -35.686   5.880   4.648  1.00 20.00    -0.091 Br
ENDBRANCH   5   6
BRANCH   4   9
HETATM    9  C8  UNL     1     -33.057   9.381   1.816  1.00 20.00     0.000 C 
HETATM   10  C6  UNL     1     -32.205   9.515   0.592  1.00 20.00     0.005 C 
ENDBRANCH   4   9
TORSDOF 2
