REMARK  2 active torsions:
REMARK  status: ('A' for Active; 'I' for Inactive)
REMARK    1  A    between atoms: C8_8  and  C9_9 
REMARK    2  A    between atoms: C9_9  and  N11_11 
ROOT
HETATM    1  C1  UNL     1     -32.850   9.343   0.496  1.00 20.00     0.060 C 
HETATM    2  C8  UNL     1     -33.222   8.456   1.607  1.00 20.00     0.154 C 
HETATM    3  N10 UNL     1     -32.559  10.043  -0.382  1.00 20.00    -0.197 NA
ENDROOT
BRANCH   2   4
HETATM    4  C9  UNL     1     -32.128   8.380   2.667  1.00 20.00     0.286 C 
BRANCH   4   5
HETATM    5  N11 UNL     1     -32.517   7.491   3.752  1.00 20.00     0.090 N 
HETATM    6  C2  UNL     1     -33.432   8.129   4.704  1.00 20.00     0.277 C 
HETATM    7  C4  UNL     1     -34.207   6.969   5.348  1.00 20.00     0.015 C 
HETATM    8  C5  UNL     1     -33.734   5.720   4.587  1.00 20.00     0.015 C 
HETATM    9  C6  UNL     1     -33.963   6.856   6.848  1.00 20.00     0.012 C 
HETATM   10  C3  UNL     1     -33.206   6.291   3.277  1.00 20.00     0.277 C 
HETATM   11  C7  UNL     1     -34.828   4.683   4.382  1.00 20.00     0.012 C 
ENDBRANCH   4   5
ENDBRANCH   2   4
TORSDOF 2
