REMARK  2 active torsions:
REMARK  status: ('A' for Active; 'I' for Inactive)
REMARK    1  A    between atoms: C5_5  and  C9_9 
REMARK    2  A    between atoms: C6_6  and  C10_10 
ROOT
HETATM    1  C1  UNL     1     -32.450   6.297   2.378  1.00 20.00     0.005 C 
HETATM    2  C2  UNL     1     -32.631   8.702   3.126  1.00 20.00     0.005 C 
HETATM    3  C3  UNL     1     -33.449   5.885   3.458  1.00 20.00     0.006 C 
HETATM    4  C4  UNL     1     -33.630   8.290   4.206  1.00 20.00     0.006 C 
HETATM    5  C5  UNL     1     -32.667   7.747   1.927  1.00 20.00    -0.015 C 
HETATM    6  C6  UNL     1     -33.412   6.841   4.658  1.00 20.00     0.003 C 
ENDROOT
BRANCH   6   7
HETATM    7  C10 UNL     1     -34.453   6.438   5.701  1.00 20.00     0.082 C 
HETATM    8  C8  UNL     1     -34.405   7.352   6.914  1.00 20.00     0.027 C 
HETATM    9 CL11 UNL     1     -34.164   4.751   6.204  1.00 20.00    -0.125 Cl
ENDBRANCH   6   7
BRANCH   5  10
HETATM   10  C9  UNL     1     -31.625   8.149   0.885  1.00 20.00     0.000 C 
HETATM   11  C7  UNL     1     -31.840   9.546   0.402  1.00 20.00     0.005 C 
ENDBRANCH   5  10
TORSDOF 2
