REMARK  1 active torsions:
REMARK  status: ('A' for Active; 'I' for Inactive)
REMARK    1  A    between atoms: C4_4  and  C9_9 
ROOT
HETATM    1  C1  UNL     1     -33.487   8.589   5.421  1.00 20.00     0.032 C 
HETATM    2  C2  UNL     1     -33.357   6.544   3.984  1.00 20.00     0.043 C 
HETATM    3  C3  UNL     1     -34.358   7.791   6.380  1.00 20.00     0.169 C 
HETATM    4  C4  UNL     1     -33.621   8.055   3.993  1.00 20.00     0.008 C 
HETATM    5  C5  UNL     1     -34.202   5.792   5.031  1.00 20.00     0.054 C 
HETATM    6  C6  UNL     1     -33.666   4.361   5.177  1.00 20.00     0.045 C 
HETATM    7  C7  UNL     1     -35.683   5.711   4.632  1.00 20.00     0.045 C 
HETATM    8  O10 UNL     1     -34.056   6.399   6.324  1.00 20.00    -0.381 OA
ENDROOT
BRANCH   4   9
HETATM    9  C9  UNL     1     -32.669   8.782   3.046  1.00 20.00     0.082 C 
HETATM   10  C8  UNL     1     -32.978  10.269   2.980  1.00 20.00     0.027 C 
HETATM   11 CL11 UNL     1     -32.795   8.067   1.415  1.00 20.00    -0.125 Cl
ENDBRANCH   4   9
TORSDOF 1
