REMARK  2 active torsions:
REMARK  status: ('A' for Active; 'I' for Inactive)
REMARK    1  A    between atoms: C2_2  and  C3_3 
REMARK    2  A    between atoms: C2_2  and  N4_4 
ROOT
HETATM    1  C1  UNL     1     -33.043   8.152   5.209  1.00 20.00     0.332 C 
HETATM    2  N4  UNL     1     -34.079   7.817   5.649  1.00 20.00    -0.242 NA
HETATM    3  O5  UNL     1     -32.007   8.491   4.767  1.00 20.00    -0.260 OA
ENDROOT
BRANCH   2   4
HETATM    4  C2  UNL     1     -34.150   6.400   6.012  1.00 20.00     0.224 C 
BRANCH   4   5
HETATM    5  C3  UNL     1     -34.646   5.609   4.823  1.00 20.00     0.372 C 
HETATM    6  F6  UNL     1     -33.812   5.781   3.769  1.00 20.00    -0.213 F 
HETATM    7  F7  UNL     1     -35.867   6.057   4.442  1.00 20.00    -0.213 F 
ENDBRANCH   4   5
ENDBRANCH   2   4
TORSDOF 2
