REMARK  3 active torsions:
REMARK  status: ('A' for Active; 'I' for Inactive)
REMARK    1  A    between atoms: C1_1  and  C7_7 
REMARK    2  A    between atoms: C8_8  and  C11_11 
REMARK    3  A    between atoms: C11_11  and  C12_12 
ROOT
HETATM    1  C2  UNL     1     -33.147   5.219   3.351  1.00 20.00     0.001 C 
HETATM    2  C3  UNL     1     -34.560   5.664   3.718  1.00 20.00     0.012 C 
HETATM    3  C4  UNL     1     -34.053   8.111   4.453  1.00 20.00     0.012 C 
HETATM    4  C5  UNL     1     -32.449   6.073   2.295  1.00 20.00     0.005 C 
HETATM    5  C6  UNL     1     -32.660   8.132   3.816  1.00 20.00     0.005 C 
HETATM    6  C7  UNL     1     -34.642   6.744   4.802  1.00 20.00     0.055 C 
HETATM    7  C8  UNL     1     -32.655   7.591   2.379  1.00 20.00    -0.014 C 
ENDROOT
BRANCH   6   8
HETATM    8  C1  UNL     1     -34.074   6.238   6.098  1.00 20.00     0.127 C 
HETATM    9  C9  UNL     1     -34.664   4.967   6.645  1.00 20.00     0.091 C 
HETATM   10  O13 UNL     1     -33.170   6.833   6.682  1.00 20.00    -0.298 OA
ENDBRANCH   6   8
BRANCH   7  11
HETATM   11  C11 UNL     1     -31.570   8.290   1.550  1.00 20.00     0.004 C 
BRANCH  11  12
HETATM   12  C12 UNL     1     -32.004   9.696   1.158  1.00 20.00    -0.004 C 
HETATM   13  C10 UNL     1     -33.264   9.660   0.307  1.00 20.00     0.005 C 
ENDBRANCH  11  12
ENDBRANCH   7  11
TORSDOF 3
