REMARK  3 active torsions:
REMARK  status: ('A' for Active; 'I' for Inactive)
REMARK    1  A    between atoms: C5_5  and  S11_11 
REMARK    2  A    between atoms: C8_8  and  C9_9 
REMARK    3  A    between atoms: C9_9  and  S11_11 
ROOT
HETATM    1  C1  UNL     1     -32.914   6.102   3.312  1.00 20.00     0.080 C 
HETATM    2  C2  UNL     1     -33.540   7.081   6.090  1.00 20.00     0.009 C 
HETATM    3  C3  UNL     1     -32.678   7.894   5.100  1.00 20.00     0.037 C 
HETATM    4  C4  UNL     1     -34.639   7.028   4.996  1.00 20.00     0.014 C 
HETATM    5  C5  UNL     1     -33.502   7.259   3.949  1.00 20.00     0.100 C 
HETATM    6  C6  UNL     1     -35.465   5.754   4.951  1.00 20.00     0.012 C 
HETATM    7  N10 UNL     1     -32.442   5.173   2.802  1.00 20.00    -0.196 NA
ENDROOT
BRANCH   5   8
HETATM    8  S11 UNL     1     -33.981   8.496   2.686  1.00 20.00    -0.143 SA
BRANCH   8   9
HETATM    9  C9  UNL     1     -32.343   8.774   1.979  1.00 20.00     0.075 C 
BRANCH   9  10
HETATM   10  C8  UNL     1     -32.408   9.826   0.878  1.00 20.00     0.006 C 
HETATM   11  C7  UNL     1     -33.336   9.387  -0.245  1.00 20.00     0.006 C 
ENDBRANCH   9  10
ENDBRANCH   8   9
ENDBRANCH   5   8
TORSDOF 3
