REMARK  1 active torsions:
REMARK  status: ('A' for Active; 'I' for Inactive)
REMARK    1  A    between atoms: C1_1  and  C7_7 
ROOT
HETATM    1  C2  UNL     1     -33.729   5.669   2.804  1.00 20.00     0.002 C 
HETATM    2  C3  UNL     1     -32.466   6.520   2.660  1.00 20.00     0.012 C 
HETATM    3  C4  UNL     1     -32.646   7.495   5.070  1.00 20.00     0.013 C 
HETATM    4  C5  UNL     1     -33.759   4.878   4.112  1.00 20.00     0.008 C 
HETATM    5  C6  UNL     1     -34.096   7.110   5.384  1.00 20.00     0.009 C 
HETATM    6  C7  UNL     1     -32.340   7.730   3.586  1.00 20.00     0.055 C 
HETATM    7  C8  UNL     1     -34.423   5.600   5.307  1.00 20.00    -0.048 C 
HETATM    8  C10 UNL     1     -33.966   4.902   6.606  1.00 20.00     0.015 C 
HETATM    9  C11 UNL     1     -35.958   5.448   5.214  1.00 20.00     0.015 C 
ENDROOT
BRANCH   6  10
HETATM   10  C1  UNL     1     -33.139   8.887   3.057  1.00 20.00     0.127 C 
HETATM   11  C9  UNL     1     -32.854   9.316   1.643  1.00 20.00     0.091 C 
HETATM   12  O12 UNL     1     -33.986   9.455   3.745  1.00 20.00    -0.298 OA
ENDBRANCH   6  10
TORSDOF 1
