REMARK  2 active torsions:
REMARK  status: ('A' for Active; 'I' for Inactive)
REMARK    1  A    between atoms: C2_2  and  C3_3 
REMARK    2  A    between atoms: C2_2  and  C10_10 
ROOT
HETATM    1  C1  UNL     1     -33.293   4.523   3.254  1.00 20.00     0.066 C 
HETATM    2  C10 UNL     1     -32.482   5.159   2.211  1.00 20.00     0.202 C 
HETATM    3  N11 UNL     1     -33.934   4.016   4.078  1.00 20.00    -0.197 NA
ENDROOT
BRANCH   2   4
HETATM    4  C2  UNL     1     -32.403   6.657   2.381  1.00 20.00     0.145 C 
HETATM    5  O12 UNL     1     -32.251   7.460   1.468  1.00 20.00    -0.296 OA
BRANCH   4   6
HETATM    6  C3  UNL     1     -32.523   7.138   3.765  1.00 20.00     0.073 A 
HETATM    7  C4  UNL     1     -33.883   7.345   4.414  1.00 20.00    -0.029 A 
HETATM    8  C5  UNL     1     -32.992   8.552   4.071  1.00 20.00    -0.029 A 
HETATM    9  C6  UNL     1     -34.035   6.921   5.859  1.00 20.00     0.016 C 
HETATM   10  C7  UNL     1     -35.147   7.102   3.619  1.00 20.00     0.016 C 
HETATM   11  C8  UNL     1     -33.394   9.479   2.945  1.00 20.00     0.016 C 
HETATM   12  C9  UNL     1     -32.285   9.292   5.186  1.00 20.00     0.016 C 
ENDBRANCH   4   6
ENDBRANCH   2   4
TORSDOF 2
