REMARK  4 active torsions:
REMARK  status: ('A' for Active; 'I' for Inactive)
REMARK    1  A    between atoms: C1_1  and  C7_7 
REMARK    2  A    between atoms: C1_1  and  C9_9 
REMARK    3  A    between atoms: C8_8  and  C9_9 
REMARK    4  A    between atoms: C9_9  and  N10_10 
ROOT
HETATM    1  C4  UNL     1     -34.278   4.541   4.496  1.00 20.00     0.058 C 
HETATM    2  C9  UNL     1     -34.419   6.012   4.908  1.00 20.00     0.214 C 
ENDROOT
BRANCH   2   3
HETATM    3  C1  UNL     1     -33.388   6.885   4.162  1.00 20.00     0.165 C 
HETATM    4  O11 UNL     1     -32.939   7.921   4.660  1.00 20.00    -0.295 OA
BRANCH   3   5
HETATM    5  C7  UNL     1     -32.951   6.433   2.774  1.00 20.00     0.076 C 
HETATM    6  C2  UNL     1     -31.953   7.387   2.139  1.00 20.00     0.013 C 
ENDBRANCH   3   5
ENDBRANCH   2   3
BRANCH   2   7
HETATM    7  C8  UNL     1     -35.862   6.496   4.646  1.00 20.00     0.045 C 
HETATM    8  C3  UNL     1     -36.300   6.481   3.185  1.00 20.00     0.008 C 
ENDBRANCH   2   7
BRANCH   2   9
HETATM    9  N10 UNL     1     -34.111   6.086   6.343  1.00 20.00     0.096 N 
HETATM   10  C5  UNL     1     -34.710   4.956   7.046  1.00 20.00     0.310 C 
HETATM   11  C6  UNL     1     -34.588   7.350   6.896  1.00 20.00     0.310 C 
ENDBRANCH   2   9
TORSDOF 4
