REMARK  1 active torsions:
REMARK  status: ('A' for Active; 'I' for Inactive)
REMARK    1  A    between atoms: C1_1  and  C2_2 
ROOT
HETATM    1  C2  UNL     1     -32.667   7.085   4.203  1.00 20.00     0.089 A 
HETATM    2  C3  UNL     1     -33.798   7.090   5.221  1.00 20.00    -0.028 A 
HETATM    3  C4  UNL     1     -33.421   8.379   4.470  1.00 20.00    -0.028 A 
HETATM    4  C5  UNL     1     -33.420   6.944   6.680  1.00 20.00     0.016 C 
HETATM    5  C6  UNL     1     -35.106   6.398   4.905  1.00 20.00     0.016 C 
HETATM    6  C7  UNL     1     -34.365   8.937   3.426  1.00 20.00     0.016 C 
HETATM    7  C8  UNL     1     -32.681   9.476   5.204  1.00 20.00     0.016 C 
ENDROOT
BRANCH   1   8
HETATM    8  C1  UNL     1     -32.798   6.378   2.922  1.00 20.00     0.224 C 
HETATM    9  O9  UNL     1     -33.581   5.443   2.779  1.00 20.00    -0.279 OA
HETATM   10 CL10 UNL     1     -31.738   7.024   1.706  1.00 20.00    -0.043 Cl
ENDBRANCH   1   8
TORSDOF 1
