REMARK  3 active torsions:
REMARK  status: ('A' for Active; 'I' for Inactive)
REMARK    1  A    between atoms: C5_5  and  C7_7 
REMARK    2  A    between atoms: C6_6  and  C7_7 
REMARK    3  A    between atoms: C6_6  and  O9_9 
ROOT
HETATM    1  C1  UNL     1     -33.011   6.550   3.084  1.00 20.00     0.071 C 
HETATM    2  C4  UNL     1     -34.729   8.219   3.617  1.00 20.00     0.034 C 
HETATM    3  C7  UNL     1     -34.020   6.936   4.104  1.00 20.00     0.070 C 
HETATM    4  N8  UNL     1     -32.222   6.250   2.287  1.00 20.00    -0.196 NA
ENDROOT
BRANCH   3   5
HETATM    5  C5  UNL     1     -35.042   5.778   4.285  1.00 20.00     0.022 C 
HETATM    6  C2  UNL     1     -34.460   4.443   4.744  1.00 20.00     0.007 C 
ENDBRANCH   3   5
BRANCH   3   7
HETATM    7  C6  UNL     1     -33.311   7.234   5.466  1.00 20.00     0.136 C 
HETATM    8  C3  UNL     1     -34.231   7.680   6.602  1.00 20.00     0.041 C 
BRANCH   7   9
HETATM    9  O9  UNL     1     -32.312   8.241   5.283  1.00 20.00    -0.394 OA
HETATM   10  H22 UNL     1     -31.836   8.306   6.124  1.00 20.00     0.210 HD
ENDBRANCH   7   9
ENDBRANCH   3   7
TORSDOF 3
