REMARK  4 active torsions:
REMARK  status: ('A' for Active; 'I' for Inactive)
REMARK    1  A    between atoms: C4_4  and  C5_5 
REMARK    2  A    between atoms: C5_5  and  C7_7 
REMARK    3  A    between atoms: C6_6  and  C7_7 
REMARK    4  A    between atoms: C7_7  and  O9_9 
ROOT
HETATM    1  C1  UNL     1     -32.539   8.450   2.797  1.00 20.00     0.066 C 
HETATM    2  C3  UNL     1     -32.218   6.046   2.418  1.00 20.00     0.028 C 
HETATM    3  C6  UNL     1     -32.035   7.202   3.405  1.00 20.00     0.117 C 
HETATM    4  N8  UNL     1     -32.933   9.432   2.320  1.00 20.00    -0.197 NA
ENDROOT
BRANCH   3   5
HETATM    5  C7  UNL     1     -32.721   6.894   4.755  1.00 20.00     0.135 C 
BRANCH   5   6
HETATM    6  C5  UNL     1     -34.246   6.740   4.625  1.00 20.00     0.033 C 
BRANCH   6   7
HETATM    7  C4  UNL     1     -34.922   6.433   5.965  1.00 20.00    -0.002 C 
HETATM    8  C2  UNL     1     -34.425   5.120   6.550  1.00 20.00     0.005 C 
ENDBRANCH   6   7
ENDBRANCH   5   6
BRANCH   5   9
HETATM    9  O9  UNL     1     -32.408   7.922   5.693  1.00 20.00    -0.394 OA
HETATM   10  H22 UNL     1     -32.797   7.650   6.538  1.00 20.00     0.210 HD
ENDBRANCH   5   9
ENDBRANCH   3   5
TORSDOF 4
