REMARK  4 active torsions:
REMARK  status: ('A' for Active; 'I' for Inactive)
REMARK    1  A    between atoms: C5_5  and  C7_7 
REMARK    2  A    between atoms: C6_6  and  C8_8 
REMARK    3  A    between atoms: C7_7  and  C8_8 
REMARK    4  A    between atoms: C8_8  and  O10_10 
ROOT
HETATM    1  C1  UNL     1     -33.160   7.220   3.591  1.00 20.00     0.067 C 
HETATM    2  C7  UNL     1     -33.583   5.838   3.928  1.00 20.00     0.126 C 
HETATM    3  N9  UNL     1     -32.826   8.301   3.331  1.00 20.00    -0.197 NA
ENDROOT
BRANCH   2   4
HETATM    4  C5  UNL     1     -33.557   4.958   2.659  1.00 20.00     0.018 C 
HETATM    5  C2  UNL     1     -32.198   4.954   1.965  1.00 20.00     0.006 C 
ENDBRANCH   2   4
BRANCH   2   6
HETATM    6  C8  UNL     1     -34.964   5.845   4.667  1.00 20.00     0.070 C 
HETATM    7  C4  UNL     1     -36.106   6.373   3.786  1.00 20.00     0.047 C 
BRANCH   6   8
HETATM    8  C6  UNL     1     -34.879   6.643   5.994  1.00 20.00     0.034 C 
HETATM    9  C3  UNL     1     -33.771   6.194   6.943  1.00 20.00     0.008 C 
ENDBRANCH   6   8
BRANCH   6  10
HETATM   10  O10 UNL     1     -35.290   4.487   5.004  1.00 20.00    -0.389 OA
HETATM   11  H25 UNL     1     -36.132   4.526   5.477  1.00 20.00     0.210 HD
ENDBRANCH   6  10
ENDBRANCH   2   6
TORSDOF 4
