REMARK  3 active torsions:
REMARK  status: ('A' for Active; 'I' for Inactive)
REMARK    1  A    between atoms: C5_5  and  C6_6 
REMARK    2  A    between atoms: C6_6  and  C7_7 
REMARK    3  A    between atoms: C6_6  and  O9_9 
ROOT
HETATM    1  C1  UNL     1     -33.497   5.097   3.655  1.00 20.00     0.071 C 
HETATM    2  C3  UNL     1     -34.324   4.684   5.925  1.00 20.00     0.033 C 
HETATM    3  C4  UNL     1     -35.787   5.784   4.230  1.00 20.00     0.033 C 
HETATM    4  C7  UNL     1     -34.337   5.668   4.736  1.00 20.00     0.067 C 
HETATM    5  N8  UNL     1     -32.840   4.649   2.809  1.00 20.00    -0.196 NA
ENDROOT
BRANCH   4   6
HETATM    6  C6  UNL     1     -33.792   7.061   5.182  1.00 20.00     0.139 C 
BRANCH   6   7
HETATM    7  C5  UNL     1     -32.520   7.525   4.449  1.00 20.00     0.029 C 
HETATM    8  C2  UNL     1     -32.021   8.873   4.958  1.00 20.00     0.007 C 
ENDBRANCH   6   7
BRANCH   6   9
HETATM    9  O9  UNL     1     -33.511   7.058   6.585  1.00 20.00    -0.394 OA
HETATM   10  H22 UNL     1     -32.776   6.441   6.713  1.00 20.00     0.210 HD
ENDBRANCH   6   9
ENDBRANCH   4   6
TORSDOF 3
