REMARK  3 active torsions:
REMARK  status: ('A' for Active; 'I' for Inactive)
REMARK    1  A    between atoms: C3_3  and  C11_11 
REMARK    2  A    between atoms: C8_8  and  N12_12 
REMARK    3  A    between atoms: C11_11  and  N12_12 
ROOT
HETATM    1  C1  UNL     1     -34.345   5.973   6.288  1.00 20.00     0.127 C 
HETATM    2  C4  UNL     1     -34.080   7.432   6.588  1.00 20.00     0.080 C 
HETATM    3  C5  UNL     1     -34.761   5.637   4.873  1.00 20.00     0.080 C 
HETATM    4  C6  UNL     1     -33.140   8.032   5.549  1.00 20.00     0.040 C 
HETATM    5  C7  UNL     1     -33.807   6.273   3.868  1.00 20.00     0.040 C 
HETATM    6  C8  UNL     1     -33.648   7.769   4.133  1.00 20.00     0.189 C 
HETATM    7  O13 UNL     1     -34.324   5.119   7.174  1.00 20.00    -0.298 OA
ENDROOT
BRANCH   6   8
HETATM    8  N12 UNL     1     -32.667   8.325   3.162  1.00 20.00    -0.067 N 
HETATM    9  C10 UNL     1     -31.242   8.159   3.623  1.00 20.00     0.270 C 
HETATM   10  H33 UNL     1     -32.833   9.343   3.098  1.00 20.00     0.280 HD
BRANCH   8  11
HETATM   11  C11 UNL     1     -32.861   7.780   1.770  1.00 20.00     0.268 C 
BRANCH  11  12
HETATM   12  C3  UNL     1     -32.295   8.662   0.693  1.00 20.00    -0.068 C 
HETATM   13  C2  UNL     1     -31.031   8.524   0.265  1.00 20.00     0.015 C 
HETATM   14  C9  UNL     1     -33.218   9.686   0.097  1.00 20.00     0.044 C 
ENDBRANCH  11  12
ENDBRANCH   8  11
ENDBRANCH   6   8
TORSDOF 3
