REMARK  3 active torsions:
REMARK  status: ('A' for Active; 'I' for Inactive)
REMARK    1  A    between atoms: C6_6  and  C7_7 
REMARK    2  A    between atoms: C7_7  and  C8_8 
REMARK    3  A    between atoms: C8_8  and  O10_10 
ROOT
HETATM    1  C1  UNL     1     -33.175   5.940   3.400  1.00 20.00     0.072 C 
HETATM    2  C3  UNL     1     -35.146   7.242   4.026  1.00 20.00     0.034 C 
HETATM    3  C7  UNL     1     -33.820   6.639   4.548  1.00 20.00     0.075 C 
HETATM    4  N9  UNL     1     -32.675   5.396   2.504  1.00 20.00    -0.196 NA
ENDROOT
BRANCH   3   5
HETATM    5  C6  UNL     1     -32.867   7.776   5.031  1.00 20.00     0.023 C 
HETATM    6  C2  UNL     1     -32.531   8.847   3.993  1.00 20.00     0.007 C 
ENDBRANCH   3   5
BRANCH   3   7
HETATM    7  C8  UNL     1     -34.101   5.590   5.704  1.00 20.00     0.071 C 
HETATM    8  C4  UNL     1     -34.769   6.214   6.941  1.00 20.00     0.047 C 
HETATM    9  C5  UNL     1     -32.845   4.833   6.173  1.00 20.00     0.047 C 
BRANCH   7  10
HETATM   10  O10 UNL     1     -35.038   4.604   5.234  1.00 20.00    -0.389 OA
HETATM   11  H25 UNL     1     -35.151   3.980   5.963  1.00 20.00     0.210 HD
ENDBRANCH   7  10
ENDBRANCH   3   7
TORSDOF 3
