REMARK  4 active torsions:
REMARK  status: ('A' for Active; 'I' for Inactive)
REMARK    1  A    between atoms: C6_6  and  C9_9 
REMARK    2  A    between atoms: C7_7  and  C8_8 
REMARK    3  A    between atoms: C8_8  and  C9_9 
REMARK    4  A    between atoms: C8_8  and  O11_11 
ROOT
HETATM    1  C1  UNL     1     -33.508   5.468   3.707  1.00 20.00     0.071 C 
HETATM    2  C5  UNL     1     -35.689   6.326   4.358  1.00 20.00     0.034 C 
HETATM    3  C9  UNL     1     -34.171   6.397   4.661  1.00 20.00     0.071 C 
HETATM    4  N10 UNL     1     -33.006   4.743   2.952  1.00 20.00    -0.196 NA
ENDROOT
BRANCH   3   5
HETATM    5  C6  UNL     1     -33.903   5.876   6.100  1.00 20.00     0.022 C 
HETATM    6  C2  UNL     1     -34.422   4.474   6.402  1.00 20.00     0.007 C 
ENDBRANCH   3   5
BRANCH   3   7
HETATM    7  C8  UNL     1     -33.683   7.869   4.443  1.00 20.00     0.143 C 
BRANCH   7   8
HETATM    8  C7  UNL     1     -32.237   8.087   3.914  1.00 20.00     0.008 C 
HETATM    9  C3  UNL     1     -31.667   9.482   4.176  1.00 20.00     0.012 C 
HETATM   10  C4  UNL     1     -32.168   7.809   2.404  1.00 20.00     0.012 C 
ENDBRANCH   7   8
BRANCH   7  11
HETATM   11  O11 UNL     1     -33.883   8.606   5.655  1.00 20.00    -0.393 OA
HETATM   12  H28 UNL     1     -33.232   8.267   6.286  1.00 20.00     0.210 HD
ENDBRANCH   7  11
ENDBRANCH   3   7
TORSDOF 4
