REMARK  4 active torsions:
REMARK  status: ('A' for Active; 'I' for Inactive)
REMARK    1  A    between atoms: C4_4  and  C9_9 
REMARK    2  A    between atoms: C7_7  and  C8_8 
REMARK    3  A    between atoms: C8_8  and  C9_9 
REMARK    4  A    between atoms: C9_9  and  O11_11 
ROOT
HETATM    1  C1  UNL     1     -33.674   5.586   3.780  1.00 20.00     0.067 C 
HETATM    2  C8  UNL     1     -34.467   6.664   4.420  1.00 20.00     0.126 C 
HETATM    3  N10 UNL     1     -33.058   4.741   3.277  1.00 20.00    -0.197 NA
ENDROOT
BRANCH   2   4
HETATM    4  C7  UNL     1     -35.556   6.023   5.313  1.00 20.00     0.018 C 
HETATM    5  C5  UNL     1     -34.980   5.204   6.466  1.00 20.00     0.006 C 
ENDBRANCH   2   4
BRANCH   2   6
HETATM    6  C9  UNL     1     -33.538   7.653   5.199  1.00 20.00     0.074 C 
HETATM    7  C6  UNL     1     -34.341   8.769   5.842  1.00 20.00     0.047 C 
BRANCH   6   8
HETATM    8  C4  UNL     1     -32.473   8.284   4.282  1.00 20.00     0.021 A 
HETATM    9  C2  UNL     1     -32.887   9.061   3.063  1.00 20.00     0.008 A 
HETATM   10  C3  UNL     1     -32.295   9.777   4.245  1.00 20.00     0.008 A 
ENDBRANCH   6   8
BRANCH   6  11
HETATM   11  O11 UNL     1     -32.860   6.934   6.235  1.00 20.00    -0.388 OA
HETATM   12  H26 UNL     1     -32.321   7.585   6.707  1.00 20.00     0.210 HD
ENDBRANCH   6  11
ENDBRANCH   2   6
TORSDOF 4
