REMARK  4 active torsions:
REMARK  status: ('A' for Active; 'I' for Inactive)
REMARK    1  A    between atoms: C5_5  and  C7_7 
REMARK    2  A    between atoms: C6_6  and  C8_8 
REMARK    3  A    between atoms: C7_7  and  C8_8 
REMARK    4  A    between atoms: C8_8  and  O10_10 
ROOT
HETATM    1  C1  UNL     1     -33.839   7.946   5.156  1.00 20.00     0.067 C 
HETATM    2  C7  UNL     1     -33.929   6.857   4.150  1.00 20.00     0.126 C 
HETATM    3  N9  UNL     1     -33.771   8.800   5.939  1.00 20.00    -0.197 NA
ENDROOT
BRANCH   2   4
HETATM    4  C5  UNL     1     -32.513   6.448   3.693  1.00 20.00     0.018 C 
HETATM    5  C2  UNL     1     -31.700   7.620   3.150  1.00 20.00     0.006 C 
ENDBRANCH   2   4
BRANCH   2   6
HETATM    6  C8  UNL     1     -34.786   5.665   4.697  1.00 20.00     0.070 C 
HETATM    7  C4  UNL     1     -34.419   4.324   4.046  1.00 20.00     0.047 C 
BRANCH   6   8
HETATM    8  C6  UNL     1     -34.686   5.574   6.242  1.00 20.00     0.034 C 
HETATM    9  C3  UNL     1     -33.301   5.213   6.776  1.00 20.00     0.008 C 
ENDBRANCH   6   8
BRANCH   6  10
HETATM   10  O10 UNL     1     -36.161   5.926   4.371  1.00 20.00    -0.389 OA
HETATM   11  H25 UNL     1     -36.664   5.188   4.740  1.00 20.00     0.210 HD
ENDBRANCH   6  10
ENDBRANCH   2   6
TORSDOF 4
