REMARK  1 active torsions:
REMARK  status: ('A' for Active; 'I' for Inactive)
REMARK    1  A    between atoms: C6_6  and  C10_10 
ROOT
HETATM    1  C1  UNL     1     -33.872   5.701   6.494  1.00 20.00    -0.025 A 
HETATM    2  C2  UNL     1     -33.393   6.952   6.401  1.00 20.00    -0.020 A 
HETATM    3  C3  UNL     1     -35.256   7.946   4.931  1.00 20.00     0.020 A 
HETATM    4  C4  UNL     1     -34.714   5.381   5.275  1.00 20.00     0.009 A 
HETATM    5  C5  UNL     1     -34.668   6.651   4.430  1.00 20.00     0.006 A 
HETATM    6  C6  UNL     1     -33.791   7.657   5.162  1.00 20.00    -0.015 A 
HETATM    7  C7  UNL     1     -34.156   4.182   4.519  1.00 20.00     0.014 C 
ENDROOT
BRANCH   6   8
HETATM    8  C10 UNL     1     -32.754   8.420   4.404  1.00 20.00    -0.010 C 
HETATM    9  C8  UNL     1     -32.154   9.559   5.248  1.00 20.00     0.010 C 
HETATM   10  C9  UNL     1     -31.622   7.503   3.908  1.00 20.00     0.010 C 
ENDBRANCH   6   8
TORSDOF 1
