REMARK  0 active torsions:
REMARK  status: ('A' for Active; 'I' for Inactive)
ROOT
HETATM    1  C1  UNL     1     -33.130   7.211   4.867  1.00 20.00    -0.058 C 
HETATM    2  C2  UNL     1     -33.825   5.925   4.799  1.00 20.00    -0.061 C 
HETATM    3  C3  UNL     1     -32.362   6.915   2.502  1.00 20.00    -0.085 C 
HETATM    4  C4  UNL     1     -33.496   8.191   5.708  1.00 20.00     0.020 C 
HETATM    5  C5  UNL     1     -34.104   5.186   5.884  1.00 20.00     0.019 C 
HETATM    6  C6  UNL     1     -32.180   7.668   1.408  1.00 20.00     0.014 C 
HETATM    7  C7  UNL     1     -31.989   7.385   3.888  1.00 20.00     0.071 C 
HETATM    8  C8  UNL     1     -34.176   5.460   3.403  1.00 20.00     0.042 C 
HETATM    9  C9  UNL     1     -32.980   5.541   2.448  1.00 20.00     0.038 C 
ENDROOT
TORSDOF 0
