REMARK  1 active torsions:
REMARK  status: ('A' for Active; 'I' for Inactive)
REMARK    1  A    between atoms: C6_6  and  C10_10 
ROOT
HETATM    1  C1  UNL     1     -34.230   7.304   6.681  1.00 20.00    -0.025 A 
HETATM    2  C2  UNL     1     -34.026   7.838   5.466  1.00 20.00    -0.020 A 
HETATM    3  C3  UNL     1     -34.862   5.871   4.035  1.00 20.00     0.020 A 
HETATM    4  C4  UNL     1     -34.137   5.795   6.598  1.00 20.00     0.009 A 
HETATM    5  C5  UNL     1     -33.886   5.498   5.125  1.00 20.00     0.006 A 
HETATM    6  C6  UNL     1     -33.764   6.837   4.407  1.00 20.00    -0.015 A 
HETATM    7  C7  UNL     1     -35.385   5.099   7.122  1.00 20.00     0.014 C 
ENDROOT
BRANCH   6   8
HETATM    8  C10 UNL     1     -32.628   7.069   3.464  1.00 20.00    -0.010 C 
HETATM    9  C8  UNL     1     -32.481   5.917   2.455  1.00 20.00     0.010 C 
HETATM   10  C9  UNL     1     -32.783   8.397   2.702  1.00 20.00     0.010 C 
ENDBRANCH   6   8
TORSDOF 1
