REMARK  3 active torsions:
REMARK  status: ('A' for Active; 'I' for Inactive)
REMARK    1  A    between atoms: C2_2  and  C10_10 
REMARK    2  A    between atoms: C5_5  and  C10_10 
REMARK    3  A    between atoms: C7_7  and  O11_11 
ROOT
HETATM    1  C3  UNL     1     -33.482   4.471   3.756  1.00 20.00     0.008 C 
HETATM    2  C4  UNL     1     -34.472   4.325   4.917  1.00 20.00     0.032 C 
HETATM    3  C5  UNL     1     -33.455   5.963   3.405  1.00 20.00    -0.004 C 
HETATM    4  C6  UNL     1     -33.863   6.670   4.711  1.00 20.00     0.015 C 
HETATM    5  C7  UNL     1     -34.958   5.737   5.244  1.00 20.00     0.122 C 
HETATM    6  C9  UNL     1     -32.730   6.835   5.723  1.00 20.00     0.013 C 
ENDROOT
BRANCH   3   7
HETATM    7  C10 UNL     1     -32.134   6.406   2.795  1.00 20.00     0.038 C 
BRANCH   7   8
HETATM    8  C2  UNL     1     -32.255   7.684   2.002  1.00 20.00    -0.093 C 
HETATM    9  C1  UNL     1     -31.924   7.737   0.702  1.00 20.00     0.014 C 
HETATM   10  C8  UNL     1     -32.728   8.904   2.739  1.00 20.00     0.042 C 
ENDBRANCH   7   8
ENDBRANCH   3   7
BRANCH   5  11
HETATM   11  O11 UNL     1     -36.176   5.968   4.540  1.00 20.00    -0.395 OA
HETATM   12  H29 UNL     1     -36.804   5.297   4.849  1.00 20.00     0.210 HD
ENDBRANCH   5  11
TORSDOF 3
