REMARK  4 active torsions:
REMARK  status: ('A' for Active; 'I' for Inactive)
REMARK    1  A    between atoms: C2_2  and  C8_8 
REMARK    2  A    between atoms: C6_6  and  C9_9 
REMARK    3  A    between atoms: C8_8  and  C9_9 
REMARK    4  A    between atoms: C9_9  and  O11_11 
ROOT
HETATM    1  C9  UNL     1     -32.831   7.536   5.709  1.00 20.00     0.151 C 
ENDROOT
BRANCH   1   2
HETATM    2  C6  UNL     1     -32.306   7.883   4.330  1.00 20.00     0.150 C 
HETATM    3  C4  UNL     1     -32.098   6.670   3.438  1.00 20.00     0.036 C 
HETATM    4  C3  UNL     1     -32.231   7.280   2.066  1.00 20.00     0.029 C 
HETATM    5  C5  UNL     1     -33.336   8.294   2.280  1.00 20.00     0.168 C 
HETATM    6  O10 UNL     1     -33.249   8.725   3.646  1.00 20.00    -0.383 OA
ENDBRANCH   1   2
BRANCH   1   7
HETATM    7  C8  UNL     1     -34.356   7.366   5.687  1.00 20.00     0.067 C 
BRANCH   7   8
HETATM    8  C2  UNL     1     -34.806   6.006   5.199  1.00 20.00    -0.091 C 
HETATM    9  C1  UNL     1     -35.623   5.875   4.143  1.00 20.00     0.014 C 
HETATM   10  C7  UNL     1     -34.265   4.807   5.923  1.00 20.00     0.042 C 
ENDBRANCH   7   8
ENDBRANCH   1   7
BRANCH   1  11
HETATM   11  O11 UNL     1     -32.473   8.607   6.581  1.00 20.00    -0.393 OA
HETATM   12  H27 UNL     1     -31.505   8.662   6.565  1.00 20.00     0.210 HD
ENDBRANCH   1  11
TORSDOF 4
