REMARK  0 active torsions:
REMARK  status: ('A' for Active; 'I' for Inactive)
ROOT
HETATM    1  C1  UNL     1     -32.767   6.208   2.218  1.00 20.00     0.063 A 
HETATM    2  C2  UNL     1     -32.537   8.467   3.106  1.00 20.00     0.098 A 
HETATM    3  C3  UNL     1     -33.444   6.742   4.457  1.00 20.00     0.055 A 
HETATM    4  C4  UNL     1     -33.301   5.814   3.433  1.00 20.00    -0.037 A 
HETATM    5  C5  UNL     1     -32.384   7.544   2.057  1.00 20.00     0.175 A 
HETATM    6  C6  UNL     1     -33.075   8.068   4.329  1.00 20.00     0.134 A 
HETATM    7  C7  UNL     1     -34.022   6.066   5.607  1.00 20.00     0.163 A 
HETATM    8  C8  UNL     1     -33.773   4.448   3.818  1.00 20.00     0.047 A 
HETATM    9  C9  UNL     1     -34.257   4.613   5.269  1.00 20.00     0.088 A 
HETATM   10  O10 UNL     1     -31.887   7.931   0.941  1.00 20.00    -0.288 OA
HETATM   11  O11 UNL     1     -34.272   6.607   6.668  1.00 20.00    -0.292 OA
HETATM   12  F12 UNL     1     -33.222   8.941   5.332  1.00 20.00    -0.205 F 
ENDROOT
TORSDOF 0
