REMARK  5 active torsions:
REMARK  status: ('A' for Active; 'I' for Inactive)
REMARK    1  A    between atoms: C2_2  and  C5_5 
REMARK    2  A    between atoms: C5_5  and  C7_7 
REMARK    3  A    between atoms: C6_6  and  C9_9 
REMARK    4  A    between atoms: C7_7  and  C8_8 
REMARK    5  A    between atoms: C8_8  and  C9_9 
ROOT
HETATM    1  C7  UNL     1     -33.532   7.705   2.758  1.00 20.00     0.006 C 
ENDROOT
BRANCH   1   2
HETATM    2  C5  UNL     1     -32.285   7.814   1.871  1.00 20.00     0.033 C 
BRANCH   2   3
HETATM    3  C2  UNL     1     -32.551   8.307   0.468  1.00 20.00    -0.093 C 
HETATM    4  C1  UNL     1     -32.195   7.588  -0.608  1.00 20.00     0.014 C 
HETATM    5  C3  UNL     1     -33.200   9.654   0.327  1.00 20.00     0.042 C 
ENDBRANCH   2   3
ENDBRANCH   1   2
BRANCH   1   6
HETATM    6  C8  UNL     1     -33.209   7.290   4.200  1.00 20.00     0.020 C 
BRANCH   6   7
HETATM    7  C9  UNL     1     -34.456   7.161   5.091  1.00 20.00     0.082 C 
HETATM    8 CL10 UNL     1     -33.979   6.728   6.764  1.00 20.00    -0.125 Cl
BRANCH   7   9
HETATM    9  C6  UNL     1     -35.422   6.113   4.521  1.00 20.00     0.016 C 
HETATM   10  C4  UNL     1     -34.811   4.723   4.398  1.00 20.00     0.006 C 
ENDBRANCH   7   9
ENDBRANCH   6   7
ENDBRANCH   1   6
TORSDOF 5
