REMARK  2 active torsions:
REMARK  status: ('A' for Active; 'I' for Inactive)
REMARK    1  A    between atoms: C2_2  and  C3_3 
REMARK    2  A    between atoms: C3_3  and  C5_5 
ROOT
HETATM    1  C3  UNL     1     -33.374   7.257   4.244  1.00 20.00     0.159 C 
HETATM    2  O9  UNL     1     -33.229   7.694   5.386  1.00 20.00    -0.292 OA
ENDROOT
BRANCH   1   3
HETATM    3  C2  UNL     1     -32.621   7.876   3.103  1.00 20.00    -0.025 C 
HETATM    4  C1  UNL     1     -32.260   7.156   2.032  1.00 20.00     0.022 C 
HETATM    5  C7  UNL     1     -32.297   9.335   3.226  1.00 20.00     0.051 C 
ENDBRANCH   1   3
BRANCH   1   6
HETATM    6  C5  UNL     1     -34.305   6.099   3.984  1.00 20.00     0.064 A 
HETATM    7  C4  UNL     1     -33.720   4.732   3.919  1.00 20.00     0.018 A 
HETATM    8  C6  UNL     1     -34.594   5.128   5.076  1.00 20.00    -0.006 A 
HETATM    9  C8  UNL     1     -34.015   5.234   6.445  1.00 20.00     0.011 C 
ENDBRANCH   1   6
TORSDOF 2
