REMARK  2 active torsions:
REMARK  status: ('A' for Active; 'I' for Inactive)
REMARK    1  A    between atoms: C7_7  and  C8_8 
REMARK    2  A    between atoms: C7_7  and  N9_9 
ROOT
HETATM    1  C1  UNL     1     -33.341   6.062   3.523  1.00 20.00     0.277 C 
HETATM    2  C2  UNL     1     -33.353   8.225   4.457  1.00 20.00     0.277 C 
HETATM    3  C3  UNL     1     -34.408   6.109   4.630  1.00 20.00     0.015 C 
HETATM    4  C4  UNL     1     -34.027   7.324   5.492  1.00 20.00     0.015 C 
HETATM    5  C5  UNL     1     -34.576   4.786   5.361  1.00 20.00     0.012 C 
HETATM    6  C6  UNL     1     -33.097   7.010   6.666  1.00 20.00     0.012 C 
HETATM    7  N9  UNL     1     -32.538   7.277   3.698  1.00 20.00     0.090 N 
ENDROOT
BRANCH   7   8
HETATM    8  C7  UNL     1     -32.055   7.826   2.441  1.00 20.00     0.287 C 
BRANCH   8   9
HETATM    9  C8  UNL     1     -33.137   8.568   1.674  1.00 20.00     0.144 C 
HETATM   10 CL10 UNL     1     -32.511   9.220   0.139  1.00 20.00    -0.129 Cl
ENDBRANCH   8   9
ENDBRANCH   7   8
TORSDOF 2
