REMARK  4 active torsions:
REMARK  status: ('A' for Active; 'I' for Inactive)
REMARK    1  A    between atoms: C2_2  and  C5_5 
REMARK    2  A    between atoms: C5_5  and  C6_6 
REMARK    3  A    between atoms: C6_6  and  C7_7 
REMARK    4  A    between atoms: C7_7  and  C8_8 
ROOT
HETATM    1  C6  UNL     1     -33.147   7.422   4.763  1.00 20.00     0.006 C 
ENDROOT
BRANCH   1   2
HETATM    2  C5  UNL     1     -32.699   8.710   4.059  1.00 20.00     0.033 C 
BRANCH   2   3
HETATM    3  C2  UNL     1     -32.764   8.662   2.550  1.00 20.00    -0.093 C 
HETATM    4  C1  UNL     1     -32.628   7.508   1.878  1.00 20.00     0.014 C 
HETATM    5  C3  UNL     1     -32.950   9.967   1.831  1.00 20.00     0.042 C 
ENDBRANCH   2   3
ENDBRANCH   1   2
BRANCH   1   6
HETATM    6  C7  UNL     1     -34.610   7.058   4.476  1.00 20.00     0.020 C 
BRANCH   6   7
HETATM    7  C8  UNL     1     -35.060   5.764   5.168  1.00 20.00     0.078 C 
HETATM    8  C4  UNL     1     -34.203   4.581   4.732  1.00 20.00     0.026 C 
HETATM    9 CL9  UNL     1     -34.965   5.918   6.949  1.00 20.00    -0.125 Cl
ENDBRANCH   6   7
ENDBRANCH   1   6
TORSDOF 4
