REMARK  2 active torsions:
REMARK  status: ('A' for Active; 'I' for Inactive)
REMARK    1  A    between atoms: C1_1  and  C7_7 
REMARK    2  A    between atoms: C7_7  and  O11_11 
ROOT
HETATM    1  C3  UNL     1     -31.557   8.078   2.556  1.00 20.00     0.029 C 
HETATM    2  C4  UNL     1     -32.107   7.170   3.655  1.00 20.00     0.046 C 
HETATM    3  C5  UNL     1     -32.639   9.024   2.058  1.00 20.00     0.167 C 
HETATM    4  C6  UNL     1     -33.800   8.981   4.130  1.00 20.00     0.209 C 
HETATM    5  C7  UNL     1     -32.812   7.986   4.749  1.00 20.00     0.097 C 
HETATM    6  O10 UNL     1     -33.166   9.793   3.137  1.00 20.00    -0.388 OA
ENDROOT
BRANCH   5   7
HETATM    7  C1  UNL     1     -33.513   7.094   5.728  1.00 20.00     0.015 C 
HETATM    8  C2  UNL     1     -34.497   6.209   5.477  1.00 20.00    -0.088 C 
HETATM    9  C8  UNL     1     -35.099   5.383   6.580  1.00 20.00     0.042 C 
HETATM   10  C9  UNL     1     -35.074   5.965   4.112  1.00 20.00     0.042 C 
ENDBRANCH   5   7
BRANCH   5  11
HETATM   11  O11 UNL     1     -31.830   8.745   5.462  1.00 20.00    -0.384 OA
HETATM   12  H27 UNL     1     -31.222   8.103   5.857  1.00 20.00     0.211 HD
ENDBRANCH   5  11
TORSDOF 2
