REMARK  2 active torsions:
REMARK  status: ('A' for Active; 'I' for Inactive)
REMARK    1  A    between atoms: C2_2  and  C10_10 
REMARK    2  A    between atoms: C7_7  and  C10_10 
ROOT
HETATM    1  C3  UNL     1     -33.467   5.266   3.520  1.00 20.00     0.002 C 
HETATM    2  C4  UNL     1     -32.736   6.324   2.700  1.00 20.00     0.005 C 
HETATM    3  C5  UNL     1     -34.737   5.824   4.162  1.00 20.00     0.016 C 
HETATM    4  C6  UNL     1     -33.682   8.144   4.181  1.00 20.00     0.020 C 
HETATM    5  C7  UNL     1     -32.410   7.564   3.540  1.00 20.00    -0.010 C 
HETATM    6  C8  UNL     1     -34.504   7.111   4.948  1.00 20.00     0.058 C 
HETATM    7 BR11 UNL     1     -33.644   6.705   6.663  1.00 20.00    -0.091 Br
ENDROOT
BRANCH   5   8
HETATM    8  C10 UNL     1     -31.709   8.622   2.688  1.00 20.00     0.037 C 
BRANCH   8   9
HETATM    9  C2  UNL     1     -32.570   9.111   1.552  1.00 20.00    -0.093 C 
HETATM   10  C1  UNL     1     -32.531   8.528   0.343  1.00 20.00     0.014 C 
HETATM   11  C9  UNL     1     -33.442  10.304   1.817  1.00 20.00     0.042 C 
ENDBRANCH   8   9
ENDBRANCH   5   8
TORSDOF 2
