REMARK  3 active torsions:
REMARK  status: ('A' for Active; 'I' for Inactive)
REMARK    1  A    between atoms: C2_2  and  C10_10 
REMARK    2  A    between atoms: C5_5  and  C10_10 
REMARK    3  A    between atoms: C7_7  and  O11_11 
ROOT
HETATM    1  C3  UNL     1     -32.610   6.455   2.315  1.00 20.00     0.008 C 
HETATM    2  C4  UNL     1     -33.624   5.457   2.876  1.00 20.00     0.032 C 
HETATM    3  C5  UNL     1     -32.315   7.430   3.458  1.00 20.00    -0.004 C 
HETATM    4  C6  UNL     1     -33.658   7.496   4.194  1.00 20.00     0.015 C 
HETATM    5  C7  UNL     1     -34.083   6.026   4.220  1.00 20.00     0.122 C 
HETATM    6  C9  UNL     1     -33.562   8.105   5.587  1.00 20.00     0.013 C 
ENDROOT
BRANCH   3   7
HETATM    7  C10 UNL     1     -31.814   8.777   2.959  1.00 20.00     0.038 C 
BRANCH   7   8
HETATM    8  C2  UNL     1     -32.800   9.466   2.047  1.00 20.00    -0.093 C 
HETATM    9  C1  UNL     1     -32.760   9.297   0.716  1.00 20.00     0.014 C 
HETATM   10  C8  UNL     1     -33.805  10.377   2.690  1.00 20.00     0.042 C 
ENDBRANCH   7   8
ENDBRANCH   3   7
BRANCH   5  11
HETATM   11  O11 UNL     1     -35.486   5.888   4.360  1.00 20.00    -0.395 OA
HETATM   12  H29 UNL     1     -35.685   4.937   4.311  1.00 20.00     0.210 HD
ENDBRANCH   5  11
TORSDOF 3
