REMARK  2 active torsions:
REMARK  status: ('A' for Active; 'I' for Inactive)
REMARK    1  A    between atoms: C7_7  and  C8_8 
REMARK    2  A    between atoms: C7_7  and  N9_9 
ROOT
HETATM    1  C1  UNL     1     -33.460   8.011   4.332  1.00 20.00     0.277 C 
HETATM    2  C2  UNL     1     -33.171   5.870   3.438  1.00 20.00     0.277 C 
HETATM    3  C3  UNL     1     -34.270   7.047   5.215  1.00 20.00     0.015 C 
HETATM    4  C4  UNL     1     -33.764   5.649   4.824  1.00 20.00     0.015 C 
HETATM    5  C5  UNL     1     -34.100   7.326   6.703  1.00 20.00     0.012 C 
HETATM    6  C6  UNL     1     -34.851   4.585   4.839  1.00 20.00     0.012 C 
HETATM    7  N9  UNL     1     -32.502   7.158   3.621  1.00 20.00     0.090 N 
ENDROOT
BRANCH   7   8
HETATM    8  C7  UNL     1     -32.057   7.741   2.365  1.00 20.00     0.287 C 
BRANCH   8   9
HETATM    9  C8  UNL     1     -33.190   7.914   1.368  1.00 20.00     0.144 C 
HETATM   10 CL10 UNL     1     -32.608   8.625  -0.158  1.00 20.00    -0.129 Cl
ENDBRANCH   8   9
ENDBRANCH   7   8
TORSDOF 2
