REMARK  3 active torsions:
REMARK  status: ('A' for Active; 'I' for Inactive)
REMARK    1  A    between atoms: C2_2  and  C9_9 
REMARK    2  A    between atoms: C3_3  and  C5_5 
REMARK    3  A    between atoms: C3_3  and  C9_9 
ROOT
HETATM    1  C3  UNL     1     -33.075   7.858   4.703  1.00 20.00     0.135 C 
HETATM    2  O10 UNL     1     -32.506   8.785   5.278  1.00 20.00    -0.297 OA
ENDROOT
BRANCH   1   3
HETATM    3  C5  UNL     1     -33.327   7.910   3.218  1.00 20.00     0.060 A 
HETATM    4  C4  UNL     1     -32.366   7.213   2.322  1.00 20.00     0.017 A 
HETATM    5  C6  UNL     1     -32.386   8.718   2.380  1.00 20.00    -0.007 A 
HETATM    6  C8  UNL     1     -32.928   9.505   1.237  1.00 20.00     0.011 C 
ENDBRANCH   1   3
BRANCH   1   7
HETATM    7  C9  UNL     1     -33.602   6.627   5.426  1.00 20.00     0.111 C 
BRANCH   7   8
HETATM    8  C2  UNL     1     -34.343   5.704   4.497  1.00 20.00    -0.086 C 
HETATM    9  C1  UNL     1     -33.715   4.719   3.837  1.00 20.00     0.014 C 
HETATM   10  C7  UNL     1     -35.824   5.918   4.368  1.00 20.00     0.043 C 
ENDBRANCH   7   8
ENDBRANCH   1   7
TORSDOF 3
