REMARK  2 active torsions:
REMARK  status: ('A' for Active; 'I' for Inactive)
REMARK    1  A    between atoms: C3_3  and  C11_11 
REMARK    2  A    between atoms: C9_9  and  C11_11 
ROOT
HETATM    1  C1  UNL     1     -34.552   6.119   4.313  1.00 20.00     0.127 C 
HETATM    2  C4  UNL     1     -34.085   6.841   5.555  1.00 20.00     0.078 C 
HETATM    3  C5  UNL     1     -33.505   5.693   3.311  1.00 20.00     0.083 C 
HETATM    4  C6  UNL     1     -33.873   8.314   5.254  1.00 20.00     0.007 C 
HETATM    5  C7  UNL     1     -32.541   8.663   4.590  1.00 20.00     0.001 C 
HETATM    6  C8  UNL     1     -31.852   7.595   3.739  1.00 20.00     0.005 C 
HETATM    7  C9  UNL     1     -32.698   6.843   2.700  1.00 20.00    -0.004 C 
HETATM    8  O12 UNL     1     -35.746   5.879   4.127  1.00 20.00    -0.298 OA
ENDROOT
BRANCH   7   9
HETATM    9  C11 UNL     1     -33.552   7.763   1.828  1.00 20.00     0.037 C 
BRANCH   9  10
HETATM   10  C3  UNL     1     -32.734   8.821   1.140  1.00 20.00    -0.093 C 
HETATM   11  C2  UNL     1     -32.975  10.127   1.335  1.00 20.00     0.014 C 
HETATM   12  C10 UNL     1     -31.667   8.356   0.191  1.00 20.00     0.042 C 
ENDBRANCH   9  10
ENDBRANCH   7   9
TORSDOF 2
