REMARK  5 active torsions:
REMARK  status: ('A' for Active; 'I' for Inactive)
REMARK    1  A    between atoms: C2_2  and  C6_6 
REMARK    2  A    between atoms: C6_6  and  C8_8 
REMARK    3  A    between atoms: C7_7  and  C8_8 
REMARK    4  A    between atoms: C7_7  and  C9_9 
REMARK    5  A    between atoms: C9_9  and  O10_10 
ROOT
HETATM    1  C4  UNL     1     -32.911   5.169   2.661  1.00 20.00     0.010 C 
HETATM    2  C8  UNL     1     -32.563   6.063   3.857  1.00 20.00    -0.012 C 
ENDROOT
BRANCH   2   3
HETATM    3  C6  UNL     1     -31.700   7.248   3.361  1.00 20.00     0.037 C 
BRANCH   3   4
HETATM    4  C2  UNL     1     -32.390   8.179   2.389  1.00 20.00    -0.093 C 
HETATM    5  C1  UNL     1     -32.393   7.938   1.069  1.00 20.00     0.014 C 
HETATM    6  C3  UNL     1     -33.106   9.366   2.968  1.00 20.00     0.042 C 
ENDBRANCH   3   4
ENDBRANCH   2   3
BRANCH   2   7
HETATM    7  C7  UNL     1     -33.831   6.558   4.591  1.00 20.00     0.035 C 
BRANCH   7   8
HETATM    8  C9  UNL     1     -34.501   5.513   5.492  1.00 20.00     0.114 C 
HETATM    9  C5  UNL     1     -35.467   6.172   6.470  1.00 20.00     0.039 C 
BRANCH   8  10
HETATM   10  O10 UNL     1     -35.224   4.591   4.683  1.00 20.00    -0.396 OA
HETATM   11  H28 UNL     1     -35.612   3.937   5.286  1.00 20.00     0.210 HD
ENDBRANCH   8  10
ENDBRANCH   7   8
ENDBRANCH   2   7
TORSDOF 5
