REMARK  2 active torsions:
REMARK  status: ('A' for Active; 'I' for Inactive)
REMARK    1  A    between atoms: C9_9  and  C10_10 
REMARK    2  A    between atoms: C9_9  and  N12_12 
ROOT
HETATM    1  C1  UNL     1     -32.687   9.111   3.401  1.00 20.00     0.065 C 
HETATM    2  C8  UNL     1     -31.126   9.056   5.312  1.00 20.00     0.027 C 
HETATM    3  C10 UNL     1     -32.563   9.314   4.857  1.00 20.00     0.114 C 
HETATM    4  N11 UNL     1     -32.786   8.951   2.255  1.00 20.00    -0.197 NA
ENDROOT
BRANCH   3   5
HETATM    5  C9  UNL     1     -33.589   8.481   5.631  1.00 20.00     0.253 C 
BRANCH   5   6
HETATM    6  N12 UNL     1     -33.414   7.015   5.391  1.00 20.00    -0.069 N 
HETATM    7  C2  UNL     1     -34.093   6.144   6.425  1.00 20.00     0.239 C 
HETATM    8  C4  UNL     1     -34.468   4.882   5.660  1.00 20.00     0.012 C 
HETATM    9  C5  UNL     1     -34.858   5.418   4.277  1.00 20.00     0.012 C 
HETATM   10  C6  UNL     1     -33.299   3.898   5.584  1.00 20.00     0.012 C 
HETATM   11  C3  UNL     1     -33.865   6.550   4.018  1.00 20.00     0.239 C 
HETATM   12  C7  UNL     1     -36.301   5.927   4.244  1.00 20.00     0.012 C 
HETATM   13  H31 UNL     1     -32.403   6.821   5.457  1.00 20.00     0.280 HD
ENDBRANCH   5   6
ENDBRANCH   3   5
TORSDOF 2
