REMARK  3 active torsions:
REMARK  status: ('A' for Active; 'I' for Inactive)
REMARK    1  A    between atoms: C2_2  and  C3_3 
REMARK    2  A    between atoms: C3_3  and  C7_7 
REMARK    3  A    between atoms: C8_8  and  C11_11 
ROOT
HETATM    1  C4  UNL     1     -32.314   8.981   4.550  1.00 20.00     0.013 C 
HETATM    2  C5  UNL     1     -32.755   9.380   3.147  1.00 20.00     0.005 C 
HETATM    3  C6  UNL     1     -32.663   6.984   3.168  1.00 20.00     0.017 C 
HETATM    4  C7  UNL     1     -32.546   7.470   4.618  1.00 20.00     0.060 C 
HETATM    5  C8  UNL     1     -32.306   8.194   2.301  1.00 20.00    -0.014 C 
ENDROOT
BRANCH   4   6
HETATM    6  C3  UNL     1     -33.804   7.162   5.371  1.00 20.00     0.158 C 
HETATM    7  O12 UNL     1     -34.181   7.903   6.281  1.00 20.00    -0.292 OA
BRANCH   6   8
HETATM    8  C2  UNL     1     -34.607   5.946   5.014  1.00 20.00    -0.025 C 
HETATM    9  C1  UNL     1     -35.581   5.998   4.095  1.00 20.00     0.022 C 
HETATM   10  C9  UNL     1     -34.260   4.677   5.734  1.00 20.00     0.051 C 
ENDBRANCH   6   8
ENDBRANCH   4   6
BRANCH   5  11
HETATM   11  C11 UNL     1     -32.953   8.160   0.928  1.00 20.00     0.000 C 
HETATM   12  C10 UNL     1     -32.609   9.370   0.117  1.00 20.00     0.005 C 
ENDBRANCH   5  11
TORSDOF 3
