REMARK  3 active torsions:
REMARK  status: ('A' for Active; 'I' for Inactive)
REMARK    1  A    between atoms: C2_2  and  C7_7 
REMARK    2  A    between atoms: C5_5  and  C7_7 
REMARK    3  A    between atoms: C7_7  and  O8_8 
ROOT
HETATM    1  C7  UNL     1     -33.371   7.864   4.549  1.00 20.00     0.150 C 
ENDROOT
BRANCH   1   2
HETATM    2  C2  UNL     1     -32.614   8.103   3.262  1.00 20.00    -0.064 C 
HETATM    3  C1  UNL     1     -32.263   7.080   2.465  1.00 20.00     0.016 C 
HETATM    4  C6  UNL     1     -32.272   9.520   2.893  1.00 20.00     0.045 C 
ENDBRANCH   1   2
BRANCH   1   5
HETATM    5  C5  UNL     1     -33.630   6.385   4.815  1.00 20.00     0.019 A 
HETATM    6  C3  UNL     1     -34.784   5.962   5.681  1.00 20.00     0.008 A 
HETATM    7  C4  UNL     1     -34.821   5.704   4.200  1.00 20.00     0.008 A 
ENDBRANCH   1   5
BRANCH   1   8
HETATM    8  O8  UNL     1     -32.627   8.415   5.634  1.00 20.00    -0.391 OA
HETATM    9  H20 UNL     1     -33.143   8.243   6.437  1.00 20.00     0.210 HD
ENDBRANCH   1   8
TORSDOF 3
