REMARK  3 active torsions:
REMARK  status: ('A' for Active; 'I' for Inactive)
REMARK    1  A    between atoms: C2_2  and  C9_9 
REMARK    2  A    between atoms: C7_7  and  C9_9 
REMARK    3  A    between atoms: C9_9  and  O11_11 
ROOT
HETATM    1  C3  UNL     1     -33.700   7.314   5.800  1.00 20.00     0.034 C 
HETATM    2  C4  UNL     1     -33.710   5.291   4.317  1.00 20.00     0.034 C 
HETATM    3  C5  UNL     1     -34.713   6.589   6.677  1.00 20.00     0.168 C 
HETATM    4  C6  UNL     1     -34.722   4.678   5.278  1.00 20.00     0.168 C 
HETATM    5  C7  UNL     1     -33.788   6.821   4.351  1.00 20.00     0.023 C 
HETATM    6  O10 UNL     1     -34.528   5.176   6.601  1.00 20.00    -0.391 OA
ENDROOT
BRANCH   5   7
HETATM    7  C9  UNL     1     -32.695   7.447   3.489  1.00 20.00     0.150 C 
BRANCH   7   8
HETATM    8  C2  UNL     1     -33.019   8.864   3.074  1.00 20.00    -0.064 C 
HETATM    9  C1  UNL     1     -33.147   9.194   1.779  1.00 20.00     0.016 C 
HETATM   10  C8  UNL     1     -33.205   9.894   4.154  1.00 20.00     0.045 C 
ENDBRANCH   7   8
BRANCH   7  11
HETATM   11  O11 UNL     1     -32.503   6.652   2.321  1.00 20.00    -0.391 OA
HETATM   12  H27 UNL     1     -31.766   7.051   1.834  1.00 20.00     0.210 HD
ENDBRANCH   7  11
ENDBRANCH   5   7
TORSDOF 3
