REMARK  2 active torsions:
REMARK  status: ('A' for Active; 'I' for Inactive)
REMARK    1  A    between atoms: C2_2  and  C9_9 
REMARK    2  A    between atoms: C6_6  and  C9_9 
ROOT
HETATM    1  C3  UNL     1     -34.389   6.601   6.548  1.00 20.00     0.006 C 
HETATM    2  C4  UNL     1     -33.352   7.719   6.693  1.00 20.00     0.020 C 
HETATM    3  C5  UNL     1     -33.879   7.553   4.372  1.00 20.00     0.025 C 
HETATM    4  C6  UNL     1     -34.893   6.668   5.097  1.00 20.00    -0.009 C 
HETATM    5  C7  UNL     1     -33.518   8.572   5.442  1.00 20.00     0.082 C 
HETATM    6 CL10 UNL     1     -32.052   9.478   5.043  1.00 20.00    -0.125 Cl
ENDROOT
BRANCH   4   7
HETATM    7  C9  UNL     1     -35.055   5.300   4.455  1.00 20.00     0.037 C 
BRANCH   7   8
HETATM    8  C2  UNL     1     -33.745   4.718   3.984  1.00 20.00    -0.093 C 
HETATM    9  C1  UNL     1     -33.297   4.920   2.735  1.00 20.00     0.014 C 
HETATM   10  C8  UNL     1     -32.982   3.871   4.962  1.00 20.00     0.042 C 
ENDBRANCH   7   8
ENDBRANCH   4   7
TORSDOF 2
