REMARK  3 active torsions:
REMARK  status: ('A' for Active; 'I' for Inactive)
REMARK    1  A    between atoms: C7_7  and  C8_8 
REMARK    2  A    between atoms: C7_7  and  C9_9 
REMARK    3  A    between atoms: C8_8  and  N10_10 
ROOT
HETATM    1  C1  UNL     1     -32.915   6.170   3.009  1.00 20.00     0.239 C 
HETATM    2  C2  UNL     1     -32.364   7.818   4.631  1.00 20.00     0.239 C 
HETATM    3  C3  UNL     1     -34.006   6.093   4.079  1.00 20.00     0.012 C 
HETATM    4  C4  UNL     1     -33.690   7.219   5.089  1.00 20.00     0.012 C 
HETATM    5  C5  UNL     1     -34.129   4.680   4.637  1.00 20.00     0.012 C 
HETATM    6  C6  UNL     1     -33.657   6.842   6.563  1.00 20.00     0.012 C 
HETATM    7  N10 UNL     1     -32.329   7.550   3.150  1.00 20.00    -0.070 N 
HETATM    8  H30 UNL     1     -31.362   7.505   2.865  1.00 20.00     0.279 HD
ENDROOT
BRANCH   7   9
HETATM    9  C8  UNL     1     -33.019   8.593   2.320  1.00 20.00     0.236 C 
BRANCH   9  10
HETATM   10  C7  UNL     1     -32.539   8.534   0.874  1.00 20.00     0.043 C 
BRANCH  10  11
HETATM   11  C9  UNL     1     -33.208   9.513  -0.087  1.00 20.00     0.116 C 
HETATM   12 CL11 UNL     1     -32.547   9.394  -1.734  1.00 20.00    -0.130 Cl
ENDBRANCH  10  11
ENDBRANCH   9  10
ENDBRANCH   7   9
TORSDOF 3
