REMARK  4 active torsions:
REMARK  status: ('A' for Active; 'I' for Inactive)
REMARK    1  A    between atoms: C2_2  and  C9_9 
REMARK    2  A    between atoms: C5_5  and  C9_9 
REMARK    3  A    between atoms: C8_8  and  C9_9 
REMARK    4  A    between atoms: C9_9  and  O10_10 
ROOT
HETATM    1  C9  UNL     1     -33.444   6.595   4.478  1.00 20.00     0.083 C 
ENDROOT
BRANCH   1   2
HETATM    2  C2  UNL     1     -33.218   5.435   3.497  1.00 20.00    -0.059 C 
HETATM    3  C1  UNL     1     -32.583   5.562   2.319  1.00 20.00     0.017 C 
HETATM    4  C6  UNL     1     -33.741   4.079   3.905  1.00 20.00     0.046 C 
ENDBRANCH   1   2
BRANCH   1   5
HETATM    5  C5  UNL     1     -33.505   6.227   5.953  1.00 20.00     0.024 A 
HETATM    6  C3  UNL     1     -34.241   7.108   6.924  1.00 20.00     0.008 A 
HETATM    7  C4  UNL     1     -34.797   5.759   6.563  1.00 20.00     0.008 A 
ENDBRANCH   1   5
BRANCH   1   8
HETATM    8  C8  UNL     1     -32.409   7.733   4.271  1.00 20.00     0.038 C 
HETATM    9  C7  UNL     1     -32.558   8.929   5.205  1.00 20.00     0.008 C 
ENDBRANCH   1   8
BRANCH   1  10
HETATM   10  O10 UNL     1     -34.722   7.182   4.164  1.00 20.00    -0.385 OA
HETATM   11  H26 UNL     1     -35.368   6.474   4.279  1.00 20.00     0.211 HD
ENDBRANCH   1  10
TORSDOF 4
