REMARK  4 active torsions:
REMARK  status: ('A' for Active; 'I' for Inactive)
REMARK    1  A    between atoms: C2_2  and  C7_7 
REMARK    2  A    between atoms: C6_6  and  C7_7 
REMARK    3  A    between atoms: C6_6  and  S9_9 
REMARK    4  A    between atoms: C7_7  and  N8_8 
ROOT
HETATM    1  C7  UNL     1     -33.084   7.484   4.377  1.00 20.00     0.257 C 
ENDROOT
BRANCH   1   2
HETATM    2  C2  UNL     1     -33.589   6.048   4.410  1.00 20.00    -0.060 C 
HETATM    3  C1  UNL     1     -33.028   5.101   3.638  1.00 20.00     0.016 C 
HETATM    4  C3  UNL     1     -34.734   5.707   5.326  1.00 20.00     0.044 C 
ENDBRANCH   1   2
BRANCH   1   5
HETATM    5  C6  UNL     1     -31.896   7.716   3.425  1.00 20.00     0.113 C 
BRANCH   5   6
HETATM    6  S9  UNL     1     -32.411   7.857   1.683  1.00 20.00    -0.171 SA
HETATM    7  C5  UNL     1     -32.992   9.567   1.725  1.00 20.00     0.089 C 
ENDBRANCH   5   6
ENDBRANCH   1   5
BRANCH   1   8
HETATM    8  N8  UNL     1     -32.695   7.931   5.724  1.00 20.00     0.088 N 
HETATM    9  C4  UNL     1     -32.679   9.381   5.791  1.00 20.00     0.307 C 
HETATM   10  H24 UNL     1     -31.771   7.565   5.929  1.00 20.00     0.316 HD
ENDBRANCH   1   8
TORSDOF 4
