REMARK  3 active torsions:
REMARK  status: ('A' for Active; 'I' for Inactive)
REMARK    1  A    between atoms: C2_2  and  C9_9 
REMARK    2  A    between atoms: C6_6  and  C9_9 
REMARK    3  A    between atoms: C9_9  and  N10_10 
ROOT
HETATM    1  C9  UNL     1     -33.458   6.171   3.958  1.00 20.00     0.254 C 
ENDROOT
BRANCH   1   2
HETATM    2  C2  UNL     1     -34.669   5.430   4.497  1.00 20.00    -0.060 C 
HETATM    3  C1  UNL     1     -34.529   4.445   5.400  1.00 20.00     0.016 C 
HETATM    4  C7  UNL     1     -36.033   5.817   3.993  1.00 20.00     0.044 C 
ENDBRANCH   1   2
BRANCH   1   5
HETATM    5  C6  UNL     1     -33.501   7.650   4.289  1.00 20.00     0.049 C 
HETATM    6  C3  UNL     1     -32.292   8.428   3.816  1.00 20.00     0.035 C 
HETATM    7  C4  UNL     1     -32.371   9.671   4.677  1.00 20.00     0.168 C 
HETATM    8  O11 UNL     1     -32.963   9.276   5.924  1.00 20.00    -0.391 OA
HETATM    9  C5  UNL     1     -33.483   7.945   5.779  1.00 20.00     0.174 C 
ENDBRANCH   1   5
BRANCH   1  10
HETATM   10  N10 UNL     1     -33.298   5.997   2.510  1.00 20.00     0.088 N 
HETATM   11  C8  UNL     1     -32.687   4.712   2.215  1.00 20.00     0.307 C 
HETATM   12  H28 UNL     1     -32.710   6.746   2.155  1.00 20.00     0.316 HD
ENDBRANCH   1  10
TORSDOF 3
