REMARK  2 active torsions:
REMARK  status: ('A' for Active; 'I' for Inactive)
REMARK    1  A    between atoms: C2_2  and  C9_9 
REMARK    2  A    between atoms: C6_6  and  C9_9 
ROOT
HETATM    1  C3  UNL     1     -33.980   5.372   3.496  1.00 20.00     0.006 C 
HETATM    2  C4  UNL     1     -35.093   4.877   4.410  1.00 20.00     0.016 C 
HETATM    3  C5  UNL     1     -34.274   7.024   5.246  1.00 20.00     0.020 C 
HETATM    4  C6  UNL     1     -33.982   6.878   3.745  1.00 20.00    -0.010 C 
HETATM    5  C7  UNL     1     -34.928   5.709   5.675  1.00 20.00     0.058 C 
HETATM    6 BR10 UNL     1     -33.764   4.767   6.937  1.00 20.00    -0.091 Br
ENDROOT
BRANCH   4   7
HETATM    7  C9  UNL     1     -32.689   7.552   3.317  1.00 20.00     0.037 C 
BRANCH   7   8
HETATM    8  C2  UNL     1     -32.688   9.040   3.579  1.00 20.00    -0.093 C 
HETATM    9  C1  UNL     1     -33.097   9.915   2.648  1.00 20.00     0.014 C 
HETATM   10  C8  UNL     1     -32.178   9.498   4.914  1.00 20.00     0.042 C 
ENDBRANCH   7   8
ENDBRANCH   4   7
TORSDOF 2
