REMARK  2 active torsions:
REMARK  status: ('A' for Active; 'I' for Inactive)
REMARK    1  A    between atoms: C2_2  and  C7_7 
REMARK    2  A    between atoms: C7_7  and  O11_11 
ROOT
HETATM    1  C3  UNL     1     -32.355   6.006   4.399  1.00 20.00     0.073 C 
HETATM    2  C4  UNL     1     -34.216   7.579   5.063  1.00 20.00     0.073 C 
HETATM    3  C5  UNL     1     -33.422   5.067   3.827  1.00 20.00     0.275 C 
HETATM    4  C6  UNL     1     -35.208   6.577   4.465  1.00 20.00     0.275 C 
HETATM    5  C7  UNL     1     -32.827   7.460   4.433  1.00 20.00     0.083 C 
HETATM    6  C9  UNL     1     -34.751   4.604   5.812  1.00 20.00     0.309 C 
HETATM    7  N10 UNL     1     -34.736   5.187   4.472  1.00 20.00     0.084 N 
ENDROOT
BRANCH   5   8
HETATM    8  C2  UNL     1     -32.787   8.075   3.062  1.00 20.00    -0.059 C 
HETATM    9  C1  UNL     1     -32.379   7.385   1.987  1.00 20.00     0.017 C 
HETATM   10  C8  UNL     1     -33.229   9.505   2.965  1.00 20.00     0.046 C 
ENDBRANCH   5   8
BRANCH   5  11
HETATM   11  O11 UNL     1     -31.887   8.229   5.177  1.00 20.00    -0.385 OA
HETATM   12  H28 UNL     1     -31.885   7.860   6.072  1.00 20.00     0.211 HD
ENDBRANCH   5  11
TORSDOF 2
