REMARK  3 active torsions:
REMARK  status: ('A' for Active; 'I' for Inactive)
REMARK    1  A    between atoms: C1_1  and  C7_7 
REMARK    2  A    between atoms: C1_1  and  C8_8 
REMARK    3  A    between atoms: C8_8  and  O10_10 
ROOT
HETATM    1  C1  UNL     1     -33.604   6.759   5.039  1.00 20.00     0.163 C 
HETATM    2  O9  UNL     1     -33.485   7.187   6.190  1.00 20.00    -0.294 OA
ENDROOT
BRANCH   1   3
HETATM    3  C7  UNL     1     -34.489   5.547   4.750  1.00 20.00     0.050 C 
HETATM    4  C2  UNL     1     -34.485   4.612   5.954  1.00 20.00     0.017 C 
HETATM    5  C3  UNL     1     -35.901   6.012   4.412  1.00 20.00     0.017 C 
ENDBRANCH   1   3
BRANCH   1   6
HETATM    6  C8  UNL     1     -32.872   7.422   3.865  1.00 20.00     0.113 C 
HETATM    7  C4  UNL     1     -32.550   6.402   2.779  1.00 20.00     0.054 C 
HETATM    8  C5  UNL     1     -31.625   8.167   4.332  1.00 20.00     0.054 C 
BRANCH   6   9
HETATM    9  O10 UNL     1     -33.768   8.372   3.289  1.00 20.00    -0.378 OA
HETATM   10  C6  UNL     1     -33.069   9.340   2.521  1.00 20.00     0.203 C 
ENDBRANCH   6   9
ENDBRANCH   1   6
TORSDOF 3
