REMARK  3 active torsions:
REMARK  status: ('A' for Active; 'I' for Inactive)
REMARK    1  A    between atoms: C1_1  and  C7_7 
REMARK    2  A    between atoms: C1_1  and  C8_8 
REMARK    3  A    between atoms: C8_8  and  C9_9 
ROOT
HETATM    1  C3  UNL     1     -34.135   8.021   5.624  1.00 20.00     0.018 C 
HETATM    2  C8  UNL     1     -33.395   6.810   5.047  1.00 20.00     0.058 C 
ENDROOT
BRANCH   2   3
HETATM    3  C1  UNL     1     -32.946   7.170   3.625  1.00 20.00     0.131 C 
HETATM    4  O10 UNL     1     -32.744   6.306   2.772  1.00 20.00    -0.298 OA
BRANCH   3   5
HETATM    5  C7  UNL     1     -32.796   8.653   3.322  1.00 20.00     0.074 C 
HETATM    6  C2  UNL     1     -32.377   8.917   1.887  1.00 20.00     0.013 C 
ENDBRANCH   3   5
ENDBRANCH   2   3
BRANCH   2   7
HETATM    7  C9  UNL     1     -34.175   5.457   5.122  1.00 20.00    -0.041 C 
HETATM    8  C4  UNL     1     -34.530   5.129   6.588  1.00 20.00     0.015 C 
HETATM    9  C5  UNL     1     -33.386   4.271   4.537  1.00 20.00     0.015 C 
HETATM   10  C6  UNL     1     -35.502   5.577   4.341  1.00 20.00     0.015 C 
ENDBRANCH   2   7
TORSDOF 3
