REMARK  3 active torsions:
REMARK  status: ('A' for Active; 'I' for Inactive)
REMARK    1  A    between atoms: C3_3  and  C6_6 
REMARK    2  A    between atoms: C3_3  and  O8_8 
REMARK    3  A    between atoms: C6_6  and  C7_7 
ROOT
HETATM    1  C1  UNL     1     -34.140   8.026   5.509  1.00 20.00     0.045 A 
HETATM    2  C2  UNL     1     -33.394   6.770   5.137  1.00 20.00     0.019 A 
HETATM    3  C3  UNL     1     -32.988   8.099   4.538  1.00 20.00     0.061 A 
HETATM    4  C4  UNL     1     -34.065   5.706   4.338  1.00 20.00     0.013 C 
ENDROOT
BRANCH   3   5
HETATM    5  C6  UNL     1     -33.240   8.439   3.107  1.00 20.00     0.038 C 
BRANCH   5   6
HETATM    6  C7  UNL     1     -32.071   8.035   2.193  1.00 20.00    -0.002 C 
HETATM    7  C5  UNL     1     -32.342   8.349   0.730  1.00 20.00     0.005 C 
ENDBRANCH   5   6
ENDBRANCH   3   5
BRANCH   3   8
HETATM    8  O8  UNL     1     -31.768   8.663   5.054  1.00 20.00    -0.389 OA
HETATM    9  H22 UNL     1     -31.509   8.096   5.791  1.00 20.00     0.210 HD
ENDBRANCH   3   8
TORSDOF 3
