REMARK  3 active torsions:
REMARK  status: ('A' for Active; 'I' for Inactive)
REMARK    1  A    between atoms: C1_1  and  C7_7 
REMARK    2  A    between atoms: C1_1  and  C12_12 
REMARK    3  A    between atoms: C8_8  and  C13_13 
ROOT
HETATM    1  C2  UNL     1     -32.814   5.500   2.353  1.00 20.00     0.001 C 
HETATM    2  C3  UNL     1     -33.304   6.836   1.806  1.00 20.00     0.012 C 
HETATM    3  C4  UNL     1     -32.982   8.332   3.884  1.00 20.00     0.012 C 
HETATM    4  C5  UNL     1     -33.508   5.018   3.625  1.00 20.00     0.005 C 
HETATM    5  C6  UNL     1     -32.833   7.169   4.867  1.00 20.00     0.006 C 
HETATM    6  C7  UNL     1     -32.582   8.028   2.441  1.00 20.00     0.055 C 
HETATM    7  C8  UNL     1     -33.896   6.079   4.666  1.00 20.00    -0.011 C 
ENDROOT
BRANCH   6   8
HETATM    8  C1  UNL     1     -32.857   9.252   1.617  1.00 20.00     0.130 C 
HETATM    9  O14 UNL     1     -33.364  10.254   2.120  1.00 20.00    -0.298 OA
BRANCH   8  10
HETATM   10  C12 UNL     1     -32.476   9.171   0.151  1.00 20.00     0.074 C 
HETATM   11  C9  UNL     1     -33.668   9.338  -0.774  1.00 20.00     0.013 C 
ENDBRANCH   8  10
ENDBRANCH   6   8
BRANCH   7  12
HETATM   12  C13 UNL     1     -34.200   5.382   5.998  1.00 20.00    -0.019 C 
HETATM   13  C10 UNL     1     -32.904   5.016   6.713  1.00 20.00     0.010 C 
HETATM   14  C11 UNL     1     -35.070   6.274   6.877  1.00 20.00     0.010 C 
ENDBRANCH   7  12
TORSDOF 3
