REMARK  3 active torsions:
REMARK  status: ('A' for Active; 'I' for Inactive)
REMARK    1  A    between atoms: C5_5  and  C9_9 
REMARK    2  A    between atoms: C6_6  and  C11_11 
REMARK    3  A    between atoms: C10_10  and  C11_11 
ROOT
HETATM    1  C1  UNL     1     -33.695   8.357   4.862  1.00 20.00     0.005 C 
HETATM    2  C2  UNL     1     -34.048   5.980   4.071  1.00 20.00     0.005 C 
HETATM    3  C3  UNL     1     -32.245   8.302   4.379  1.00 20.00     0.006 C 
HETATM    4  C4  UNL     1     -32.598   5.925   3.589  1.00 20.00     0.006 C 
HETATM    5  C5  UNL     1     -34.264   6.977   5.218  1.00 20.00    -0.015 C 
HETATM    6  C6  UNL     1     -32.028   7.305   3.233  1.00 20.00     0.004 C 
ENDROOT
BRANCH   6   7
HETATM    7  C11 UNL     1     -32.603   7.829   1.914  1.00 20.00     0.086 C 
HETATM    8 CL12 UNL     1     -32.403   6.546   0.694  1.00 20.00    -0.125 Cl
BRANCH   7   9
HETATM    9  C10 UNL     1     -31.908   9.121   1.501  1.00 20.00     0.016 C 
HETATM   10  C8  UNL     1     -32.454   9.689   0.198  1.00 20.00     0.006 C 
ENDBRANCH   7   9
ENDBRANCH   6   7
BRANCH   5  11
HETATM   11  C9  UNL     1     -33.689   6.453   6.537  1.00 20.00     0.000 C 
HETATM   12  C7  UNL     1     -34.285   5.136   6.915  1.00 20.00     0.005 C 
ENDBRANCH   5  11
TORSDOF 3
