REMARK  2 active torsions:
REMARK  status: ('A' for Active; 'I' for Inactive)
REMARK    1  A    between atoms: C4_4  and  C7_7 
REMARK    2  A    between atoms: C6_6  and  C7_7 
ROOT
HETATM    1  C1  UNL     1     -34.065   7.861   5.357  1.00 20.00     0.034 C 
HETATM    2  C2  UNL     1     -34.476   7.352   6.723  1.00 20.00     0.168 C 
HETATM    3  C3  UNL     1     -34.487   5.557   5.237  1.00 20.00     0.173 C 
HETATM    4  C4  UNL     1     -33.521   6.605   4.712  1.00 20.00     0.026 C 
HETATM    5  O8  UNL     1     -34.873   5.983   6.554  1.00 20.00    -0.391 OA
ENDROOT
BRANCH   4   6
HETATM    6  C7  UNL     1     -33.448   6.665   3.198  1.00 20.00     0.063 C 
HETATM    7 BR9  UNL     1     -32.877   4.903   2.548  1.00 20.00    -0.091 Br
BRANCH   6   8
HETATM    8  C6  UNL     1     -32.470   7.741   2.717  1.00 20.00     0.012 C 
HETATM    9  C5  UNL     1     -32.302   7.777   1.203  1.00 20.00     0.006 C 
ENDBRANCH   6   8
ENDBRANCH   4   6
TORSDOF 2
