REMARK  3 active torsions:
REMARK  status: ('A' for Active; 'I' for Inactive)
REMARK    1  A    between atoms: C2_2  and  C6_6 
REMARK    2  A    between atoms: C3_3  and  C7_7 
REMARK    3  A    between atoms: C3_3  and  O8_8 
ROOT
HETATM    1  C1  UNL     1     -34.089   8.257   4.402  1.00 20.00     0.045 A 
HETATM    2  C2  UNL     1     -33.193   7.081   4.114  1.00 20.00     0.022 A 
HETATM    3  C3  UNL     1     -33.273   7.645   5.512  1.00 20.00     0.062 A 
ENDROOT
BRANCH   3   4
HETATM    4  C7  UNL     1     -33.951   6.869   6.591  1.00 20.00     0.034 C 
HETATM    5  C5  UNL     1     -34.707   5.675   6.069  1.00 20.00     0.008 C 
ENDBRANCH   3   4
BRANCH   3   6
HETATM    6  O8  UNL     1     -32.158   8.426   5.974  1.00 20.00    -0.389 OA
HETATM    7  H22 UNL     1     -32.532   9.257   6.295  1.00 20.00     0.210 HD
ENDBRANCH   3   6
BRANCH   2   8
HETATM    8  C6  UNL     1     -31.977   7.256   3.270  1.00 20.00     0.003 C 
HETATM    9  C4  UNL     1     -32.273   7.203   1.793  1.00 20.00     0.005 C 
ENDBRANCH   2   8
TORSDOF 3
