REMARK  4 active torsions:
REMARK  status: ('A' for Active; 'I' for Inactive)
REMARK    1  A    between atoms: C3_3  and  C5_5 
REMARK    2  A    between atoms: C3_3  and  O8_8 
REMARK    3  A    between atoms: C5_5  and  C6_6 
REMARK    4  A    between atoms: C6_6  and  C7_7 
ROOT
HETATM    1  C1  UNL     1     -33.108   9.691   5.491  1.00 20.00     0.045 A 
HETATM    2  C2  UNL     1     -33.692   9.045   4.262  1.00 20.00     0.019 A 
HETATM    3  C3  UNL     1     -33.188   8.189   5.398  1.00 20.00     0.062 A 
HETATM    4  C4  UNL     1     -32.967   9.122   2.962  1.00 20.00     0.013 C 
ENDROOT
BRANCH   3   5
HETATM    5  C5  UNL     1     -34.156   7.442   6.254  1.00 20.00     0.047 C 
BRANCH   5   6
HETATM    6  C6  UNL     1     -34.057   5.930   6.044  1.00 20.00     0.120 C 
BRANCH   6   7
HETATM    7  C7  UNL     1     -34.306   5.537   4.604  1.00 20.00     0.388 C 
HETATM    8  F9  UNL     1     -35.550   5.879   4.209  1.00 20.00    -0.171 F 
HETATM    9  F10 UNL     1     -33.424   6.132   3.773  1.00 20.00    -0.171 F 
HETATM   10  F11 UNL     1     -34.179   4.201   4.449  1.00 20.00    -0.171 F 
ENDBRANCH   6   7
ENDBRANCH   5   6
ENDBRANCH   3   5
BRANCH   3  11
HETATM   11  O8  UNL     1     -31.938   7.505   5.207  1.00 20.00    -0.389 OA
HETATM   12  H22 UNL     1     -31.393   7.733   5.971  1.00 20.00     0.210 HD
ENDBRANCH   3  11
TORSDOF 4
