REMARK  3 active torsions:
REMARK  status: ('A' for Active; 'I' for Inactive)
REMARK    1  A    between atoms: C2_2  and  C6_6 
REMARK    2  A    between atoms: C3_3  and  C7_7 
REMARK    3  A    between atoms: C3_3  and  O8_8 
ROOT
HETATM    1  C1  UNL     1     -33.359   8.412   4.485  1.00 20.00     0.045 A 
HETATM    2  C2  UNL     1     -32.554   7.194   4.114  1.00 20.00     0.022 A 
HETATM    3  C3  UNL     1     -33.575   7.117   5.227  1.00 20.00     0.062 A 
ENDROOT
BRANCH   3   4
HETATM    4  C7  UNL     1     -34.864   6.378   5.078  1.00 20.00     0.034 C 
HETATM    5  C5  UNL     1     -34.909   5.109   5.888  1.00 20.00     0.008 C 
ENDBRANCH   3   4
BRANCH   3   6
HETATM    6  O8  UNL     1     -33.035   7.060   6.560  1.00 20.00    -0.389 OA
HETATM    7  H22 UNL     1     -32.084   7.199   6.463  1.00 20.00     0.210 HD
ENDBRANCH   3   6
BRANCH   2   8
HETATM    8  C6  UNL     1     -32.758   6.530   2.796  1.00 20.00     0.003 C 
HETATM    9  C4  UNL     1     -32.325   5.086   2.789  1.00 20.00     0.005 C 
ENDBRANCH   2   8
TORSDOF 3
