REMARK  3 active torsions:
REMARK  status: ('A' for Active; 'I' for Inactive)
REMARK    1  A    between atoms: C1_1  and  C8_8 
REMARK    2  A    between atoms: C1_1  and  C9_9 
REMARK    3  A    between atoms: C9_9  and  C10_10 
ROOT
HETATM    1  C4  UNL     1     -32.655   6.767   2.711  1.00 20.00     0.018 C 
HETATM    2  C9  UNL     1     -33.122   6.897   4.165  1.00 20.00     0.059 C 
ENDROOT
BRANCH   2   3
HETATM    3  C1  UNL     1     -34.510   6.251   4.273  1.00 20.00     0.134 C 
HETATM    4  O11 UNL     1     -35.483   6.714   3.676  1.00 20.00    -0.297 OA
BRANCH   3   5
HETATM    5  C8  UNL     1     -34.621   4.986   5.124  1.00 20.00     0.048 C 
HETATM    6  C2  UNL     1     -34.220   5.301   6.561  1.00 20.00     0.017 C 
HETATM    7  C3  UNL     1     -33.760   3.864   4.551  1.00 20.00     0.017 C 
ENDBRANCH   3   5
ENDBRANCH   2   3
BRANCH   2   8
HETATM    8  C10 UNL     1     -33.078   8.349   4.747  1.00 20.00    -0.041 C 
HETATM    9  C5  UNL     1     -31.685   8.626   5.354  1.00 20.00     0.015 C 
HETATM   10  C6  UNL     1     -34.113   8.500   5.881  1.00 20.00     0.015 C 
HETATM   11  C7  UNL     1     -33.358   9.431   3.688  1.00 20.00     0.015 C 
ENDBRANCH   2   8
TORSDOF 3
