REMARK  5 active torsions:
REMARK  status: ('A' for Active; 'I' for Inactive)
REMARK    1  A    between atoms: C4_4  and  C7_7 
REMARK    2  A    between atoms: C5_5  and  C8_8 
REMARK    3  A    between atoms: C6_6  and  C7_7 
REMARK    4  A    between atoms: C6_6  and  O9_9 
REMARK    5  A    between atoms: C7_7  and  C8_8 
ROOT
HETATM    1  C7  UNL     1     -33.055   7.249   4.309  1.00 20.00     0.027 C 
ENDROOT
BRANCH   1   2
HETATM    2  C4  UNL     1     -33.470   8.531   5.067  1.00 20.00     0.004 C 
HETATM    3  C1  UNL     1     -32.294   9.429   5.432  1.00 20.00     0.005 C 
ENDBRANCH   1   2
BRANCH   1   4
HETATM    4  C6  UNL     1     -32.261   7.600   3.034  1.00 20.00     0.173 C 
BRANCH   4   5
HETATM    5  O9  UNL     1     -33.040   8.385   2.141  1.00 20.00    -0.396 OA
HETATM    6  C3  UNL     1     -32.336   8.656   0.937  1.00 20.00     0.201 C 
ENDBRANCH   4   5
ENDBRANCH   1   4
BRANCH   1   7
HETATM    7  C8  UNL     1     -34.258   6.311   3.997  1.00 20.00     0.088 C 
HETATM    8 CL10 UNL     1     -33.652   4.691   3.489  1.00 20.00    -0.125 Cl
BRANCH   7   9
HETATM    9  C5  UNL     1     -35.260   6.159   5.154  1.00 20.00     0.016 C 
HETATM   10  C2  UNL     1     -34.626   5.632   6.437  1.00 20.00     0.006 C 
ENDBRANCH   7   9
ENDBRANCH   1   7
TORSDOF 5
