REMARK  2 active torsions:
REMARK  status: ('A' for Active; 'I' for Inactive)
REMARK    1  A    between atoms: C3_3  and  C6_6 
REMARK    2  A    between atoms: C6_6  and  O9_9 
ROOT
HETATM    1  C2  UNL     1     -33.920   4.503   4.449  1.00 20.00     0.045 A 
HETATM    2  C5  UNL     1     -33.995   5.221   3.127  1.00 20.00     0.019 A 
HETATM    3  C6  UNL     1     -34.813   5.709   4.302  1.00 20.00     0.066 A 
HETATM    4  C8  UNL     1     -32.818   5.979   2.618  1.00 20.00     0.013 C 
ENDROOT
BRANCH   3   5
HETATM    5  C3  UNL     1     -34.547   7.014   5.047  1.00 20.00     0.024 A 
HETATM    6  C1  UNL     1     -34.017   7.050   6.457  1.00 20.00     0.012 A 
HETATM    7  C4  UNL     1     -33.154   7.522   5.315  1.00 20.00    -0.011 A 
HETATM    8  C7  UNL     1     -32.838   8.969   5.162  1.00 20.00     0.010 C 
ENDBRANCH   3   5
BRANCH   3   9
HETATM    9  O9  UNL     1     -36.222   5.396   4.208  1.00 20.00    -0.389 OA
HETATM   10  H23 UNL     1     -36.437   4.938   5.029  1.00 20.00     0.210 HD
ENDBRANCH   3   9
TORSDOF 2
