REMARK  2 active torsions:
REMARK  status: ('A' for Active; 'I' for Inactive)
REMARK    1  A    between atoms: C6_6  and  C9_9 
REMARK    2  A    between atoms: C8_8  and  C9_9 
ROOT
HETATM    1  C1  UNL     1     -33.264   6.723   6.394  1.00 20.00     0.027 C 
HETATM    2  C2  UNL     1     -32.940   7.788   5.348  1.00 20.00     0.008 C 
HETATM    3  C3  UNL     1     -33.622   6.092   3.533  1.00 20.00     0.032 C 
HETATM    4  C4  UNL     1     -34.738   6.337   6.489  1.00 20.00     0.167 C 
HETATM    5  C5  UNL     1     -34.583   5.236   4.368  1.00 20.00     0.168 C 
HETATM    6  C6  UNL     1     -33.544   7.570   3.948  1.00 20.00     0.006 C 
HETATM    7  O10 UNL     1     -35.370   6.024   5.251  1.00 20.00    -0.391 OA
ENDROOT
BRANCH   6   8
HETATM    8  C9  UNL     1     -32.752   8.373   2.912  1.00 20.00     0.086 C 
HETATM    9 CL11 UNL     1     -32.758  10.073   3.439  1.00 20.00    -0.125 Cl
BRANCH   8  10
HETATM   10  C8  UNL     1     -33.361   8.200   1.528  1.00 20.00     0.016 C 
HETATM   11  C7  UNL     1     -32.596   8.966   0.457  1.00 20.00     0.006 C 
ENDBRANCH   8  10
ENDBRANCH   6   8
TORSDOF 2
