REMARK  2 active torsions:
REMARK  status: ('A' for Active; 'I' for Inactive)
REMARK    1  A    between atoms: C4_4  and  C7_7 
REMARK    2  A    between atoms: C7_7  and  C8_8 
ROOT
HETATM    1  C1  UNL     1     -34.756   5.445   4.769  1.00 20.00     0.034 C 
HETATM    2  C2  UNL     1     -35.184   5.185   6.198  1.00 20.00     0.168 C 
HETATM    3  C3  UNL     1     -34.246   7.315   6.090  1.00 20.00     0.173 C 
HETATM    4  C4  UNL     1     -33.671   6.482   4.958  1.00 20.00     0.026 C 
HETATM    5  O9  UNL     1     -34.997   6.413   6.917  1.00 20.00    -0.391 OA
ENDROOT
BRANCH   4   6
HETATM    6  C7  UNL     1     -33.352   7.283   3.710  1.00 20.00     0.067 C 
HETATM    7 BR10 UNL     1     -32.695   9.054   4.262  1.00 20.00    -0.090 Br
BRANCH   6   8
HETATM    8  C8  UNL     1     -32.359   6.635   2.724  1.00 20.00    -0.008 C 
HETATM    9  C5  UNL     1     -32.064   7.582   1.554  1.00 20.00     0.011 C 
HETATM   10  C6  UNL     1     -32.807   5.292   2.194  1.00 20.00     0.011 C 
ENDBRANCH   6   8
ENDBRANCH   4   6
TORSDOF 2
