REMARK  4 active torsions:
REMARK  status: ('A' for Active; 'I' for Inactive)
REMARK    1  A    between atoms: C6_6  and  C7_7 
REMARK    2  A    between atoms: C6_6  and  C9_9 
REMARK    3  A    between atoms: C8_8  and  C10_10 
REMARK    4  A    between atoms: C9_9  and  C10_10 
ROOT
HETATM    1  C5  UNL     1     -33.227   5.355   2.574  1.00 20.00     0.011 C 
HETATM    2  C9  UNL     1     -33.046   6.735   3.226  1.00 20.00     0.001 C 
ENDROOT
BRANCH   2   3
HETATM    3  C6  UNL     1     -31.753   7.431   2.734  1.00 20.00     0.009 C 
BRANCH   3   4
HETATM    4  C7  UNL     1     -31.856   8.165   1.379  1.00 20.00    -0.022 C 
HETATM    5  C1  UNL     1     -32.904   9.278   1.394  1.00 20.00     0.009 C 
HETATM    6  C2  UNL     1     -32.191   7.157   0.274  1.00 20.00     0.009 C 
ENDBRANCH   3   4
ENDBRANCH   2   3
BRANCH   2   7
HETATM    7  C10 UNL     1     -33.129   6.637   4.781  1.00 20.00     0.089 C 
HETATM    8 CL11 UNL     1     -33.324   8.285   5.491  1.00 20.00    -0.124 Cl
BRANCH   7   9
HETATM    9  C8  UNL     1     -34.225   5.686   5.340  1.00 20.00    -0.004 C 
HETATM   10  C3  UNL     1     -35.633   6.090   4.887  1.00 20.00     0.011 C 
HETATM   11  C4  UNL     1     -34.209   5.642   6.877  1.00 20.00     0.011 C 
ENDBRANCH   7   9
ENDBRANCH   2   7
TORSDOF 4
