REMARK  4 active torsions:
REMARK  status: ('A' for Active; 'I' for Inactive)
REMARK    1  A    between atoms: C5_5  and  C8_8 
REMARK    2  A    between atoms: C6_6  and  C8_8 
REMARK    3  A    between atoms: C7_7  and  N9_9 
REMARK    4  A    between atoms: C8_8  and  N9_9 
ROOT
HETATM    1  C8  UNL     1     -33.355   7.560   3.816  1.00 20.00     0.237 C 
ENDROOT
BRANCH   1   2
HETATM    2  C5  UNL     1     -32.200   7.038   2.954  1.00 20.00     0.150 C 
HETATM    3 CL10 UNL     1     -32.324   7.635   1.275  1.00 20.00    -0.128 Cl
ENDBRANCH   1   2
BRANCH   1   4
HETATM    4  C6  UNL     1     -33.124   9.025   4.269  1.00 20.00     0.011 C 
HETATM    5  C1  UNL     1     -32.971  10.010   3.106  1.00 20.00     0.012 C 
HETATM    6  C2  UNL     1     -31.915   9.136   5.204  1.00 20.00     0.012 C 
ENDBRANCH   1   4
BRANCH   1   7
HETATM    7  N9  UNL     1     -33.588   6.684   4.943  1.00 20.00     0.093 N 
HETATM    8  H28 UNL     1     -34.104   7.187   5.670  1.00 20.00     0.316 HD
BRANCH   7   9
HETATM    9  C7  UNL     1     -34.358   5.507   4.550  1.00 20.00     0.213 C 
HETATM   10  C3  UNL     1     -35.834   5.873   4.492  1.00 20.00     0.042 C 
HETATM   11  C4  UNL     1     -34.093   4.390   5.548  1.00 20.00     0.042 C 
ENDBRANCH   7   9
ENDBRANCH   1   7
TORSDOF 4
