REMARK  3 active torsions:
REMARK  status: ('A' for Active; 'I' for Inactive)
REMARK    1  A    between atoms: C3_3  and  C9_9 
REMARK    2  A    between atoms: C3_3  and  O10_10 
REMARK    3  A    between atoms: C8_8  and  C9_9 
ROOT
HETATM    1  C1  UNL     1     -34.287   7.506   6.459  1.00 20.00     0.046 A 
HETATM    2  C2  UNL     1     -33.415   6.296   6.668  1.00 20.00     0.019 A 
HETATM    3  C3  UNL     1     -33.178   7.205   5.482  1.00 20.00     0.068 A 
HETATM    4  C4  UNL     1     -33.982   4.926   6.523  1.00 20.00     0.013 C 
ENDROOT
BRANCH   3   5
HETATM    5  C9  UNL     1     -33.517   6.781   4.040  1.00 20.00    -0.017 C 
HETATM    6  C6  UNL     1     -32.925   5.384   3.790  1.00 20.00     0.018 C 
HETATM    7  C7  UNL     1     -35.047   6.716   3.897  1.00 20.00     0.018 C 
BRANCH   5   8
HETATM    8  C8  UNL     1     -32.908   7.828   3.071  1.00 20.00     0.007 C 
HETATM    9  C5  UNL     1     -33.142   7.574   1.587  1.00 20.00     0.006 C 
ENDBRANCH   5   8
ENDBRANCH   3   5
BRANCH   3  10
HETATM   10  O10 UNL     1     -32.017   8.050   5.572  1.00 20.00    -0.389 OA
HETATM   11  H28 UNL     1     -31.674   7.931   6.467  1.00 20.00     0.210 HD
ENDBRANCH   3  10
TORSDOF 3
