REMARK  2 active torsions:
REMARK  status: ('A' for Active; 'I' for Inactive)
REMARK    1  A    between atoms: C3_3  and  C7_7 
REMARK    2  A    between atoms: C3_3  and  O8_8 
ROOT
HETATM    1  C1  UNL     1     -34.005   7.844   3.540  1.00 20.00     0.045 A 
HETATM    2  C2  UNL     1     -32.943   6.804   3.294  1.00 20.00     0.019 A 
HETATM    3  C3  UNL     1     -33.173   7.333   4.689  1.00 20.00     0.065 A 
HETATM    4  C4  UNL     1     -31.719   7.155   2.519  1.00 20.00     0.013 C 
ENDROOT
BRANCH   3   5
HETATM    5  C7  UNL     1     -33.795   6.457   5.725  1.00 20.00     0.012 C 
HETATM    6  C5  UNL     1     -34.352   7.273   6.905  1.00 20.00     0.012 C 
HETATM    7  C6  UNL     1     -34.919   5.584   5.136  1.00 20.00     0.012 C 
ENDBRANCH   3   5
BRANCH   3   8
HETATM    8  O8  UNL     1     -32.201   8.251   5.216  1.00 20.00    -0.389 OA
HETATM    9  H22 UNL     1     -31.757   7.782   5.935  1.00 20.00     0.210 HD
ENDBRANCH   3   8
TORSDOF 2
