REMARK  2 active torsions:
REMARK  status: ('A' for Active; 'I' for Inactive)
REMARK    1  A    between atoms: C5_5  and  C7_7 
REMARK    2  A    between atoms: C7_7  and  O9_9 
ROOT
HETATM    1  C2  UNL     1     -33.749   8.982   4.868  1.00 20.00     0.045 A 
HETATM    2  C6  UNL     1     -32.540   8.355   4.222  1.00 20.00     0.019 A 
HETATM    3  C7  UNL     1     -33.444   7.531   5.099  1.00 20.00     0.066 A 
HETATM    4  C8  UNL     1     -32.478   8.190   2.743  1.00 20.00     0.013 C 
ENDROOT
BRANCH   3   5
HETATM    5  C5  UNL     1     -34.361   6.479   4.528  1.00 20.00     0.030 C 
HETATM    6  C1  UNL     1     -35.489   6.095   5.488  1.00 20.00     0.018 C 
HETATM    7  C3  UNL     1     -34.905   5.182   6.555  1.00 20.00     0.074 C 
HETATM    8  S10 UNL     1     -33.683   4.160   5.690  1.00 20.00    -0.169 SA
HETATM    9  C4  UNL     1     -33.630   5.182   4.188  1.00 20.00     0.081 C 
ENDBRANCH   3   5
BRANCH   3  10
HETATM   10  O9  UNL     1     -32.929   7.179   6.390  1.00 20.00    -0.389 OA
HETATM   11  H24 UNL     1     -32.104   7.674   6.494  1.00 20.00     0.210 HD
ENDBRANCH   3  10
TORSDOF 2
