REMARK  2 active torsions:
REMARK  status: ('A' for Active; 'I' for Inactive)
REMARK    1  A    between atoms: C4_4  and  C7_7 
REMARK    2  A    between atoms: C7_7  and  C8_8 
ROOT
HETATM    1  C1  UNL     1     -34.177   6.765   6.371  1.00 20.00     0.034 C 
HETATM    2  C2  UNL     1     -34.280   5.323   6.822  1.00 20.00     0.168 C 
HETATM    3  C3  UNL     1     -34.124   5.355   4.497  1.00 20.00     0.173 C 
HETATM    4  C4  UNL     1     -33.479   6.620   5.036  1.00 20.00     0.026 C 
HETATM    5  O9  UNL     1     -34.403   4.525   5.635  1.00 20.00    -0.391 OA
ENDROOT
BRANCH   4   6
HETATM    6  C7  UNL     1     -33.629   7.821   4.122  1.00 20.00     0.067 C 
HETATM    7 BR10 UNL     1     -33.752   9.437   5.237  1.00 20.00    -0.090 Br
BRANCH   6   8
HETATM    8  C8  UNL     1     -32.533   7.999   3.053  1.00 20.00    -0.008 C 
HETATM    9  C5  UNL     1     -32.760   9.289   2.255  1.00 20.00     0.011 C 
HETATM   10  C6  UNL     1     -32.402   6.830   2.104  1.00 20.00     0.011 C 
ENDBRANCH   6   8
ENDBRANCH   4   6
TORSDOF 2
