REMARK  3 active torsions:
REMARK  status: ('A' for Active; 'I' for Inactive)
REMARK    1  A    between atoms: C1_1  and  C8_8 
REMARK    2  A    between atoms: C2_2  and  C3_3 
REMARK    3  A    between atoms: C3_3  and  C9_9 
ROOT
HETATM    1  C1  UNL     1     -32.834   6.740   3.019  1.00 20.00    -0.012 C 
HETATM    2  C3  UNL     1     -33.657   6.050   3.832  1.00 20.00    -0.020 C 
ENDROOT
BRANCH   2   3
HETATM    3  C2  UNL     1     -33.560   4.567   3.674  1.00 20.00     0.265 C 
HETATM    4  O10 UNL     1     -34.224   3.764   4.319  1.00 20.00    -0.302 OA
ENDBRANCH   2   3
BRANCH   2   5
HETATM    5  C9  UNL     1     -34.626   6.629   4.844  1.00 20.00     0.013 C 
HETATM    6  C6  UNL     1     -36.082   6.290   4.511  1.00 20.00     0.015 C 
HETATM    7  C7  UNL     1     -34.278   6.226   6.279  1.00 20.00     0.015 C 
ENDBRANCH   2   5
BRANCH   1   8
HETATM    8  C8  UNL     1     -32.676   8.240   2.909  1.00 20.00     0.001 C 
HETATM    9  C4  UNL     1     -32.252   8.820   4.259  1.00 20.00     0.013 C 
HETATM   10  C5  UNL     1     -31.643   8.577   1.832  1.00 20.00     0.013 C 
ENDBRANCH   1   8
TORSDOF 3
