REMARK  2 active torsions:
REMARK  status: ('A' for Active; 'I' for Inactive)
REMARK    1  A    between atoms: C3_3  and  C7_7 
REMARK    2  A    between atoms: C4_4  and  C9_9 
ROOT
HETATM    1  C1  UNL     1     -34.307   4.936   6.301  1.00 20.00    -0.003 C 
HETATM    2  C2  UNL     1     -33.742   6.128   6.531  1.00 20.00     0.131 C 
HETATM    3  C5  UNL     1     -34.956   4.614   4.993  1.00 20.00     0.032 C 
HETATM    4  C6  UNL     1     -34.580   5.652   3.937  1.00 20.00     0.040 C 
HETATM    5  C7  UNL     1     -34.613   7.049   4.550  1.00 20.00     0.151 C 
HETATM    6  O10 UNL     1     -33.724   7.189   5.663  1.00 20.00    -0.354 OA
ENDROOT
BRANCH   5   7
HETATM    7  C3  UNL     1     -34.134   8.068   3.569  1.00 20.00     0.009 C 
HETATM    8  C4  UNL     1     -32.946   8.102   2.934  1.00 20.00    -0.071 C 
HETATM    9  C8  UNL     1     -31.921   7.026   3.183  1.00 20.00     0.044 C 
BRANCH   8  10
HETATM   10  C9  UNL     1     -32.519   9.188   1.986  1.00 20.00     0.148 C 
HETATM   11 CL11 UNL     1     -32.174   8.511   0.380  1.00 20.00    -0.126 Cl
ENDBRANCH   8  10
ENDBRANCH   5   7
TORSDOF 2
