REMARK  4 active torsions:
REMARK  status: ('A' for Active; 'I' for Inactive)
REMARK    1  A    between atoms: C1_1  and  C9_9 
REMARK    2  A    between atoms: C2_2  and  C7_7 
REMARK    3  A    between atoms: C2_2  and  C8_8 
REMARK    4  A    between atoms: C8_8  and  O10_10 
ROOT
HETATM    1  C1  UNL     1     -33.776   7.860   4.197  1.00 20.00    -0.013 C 
HETATM    2  C2  UNL     1     -33.971   6.528   4.093  1.00 20.00    -0.060 C 
ENDROOT
BRANCH   2   3
HETATM    3  C7  UNL     1     -32.938   5.511   3.664  1.00 20.00     0.031 C 
HETATM    4  C3  UNL     1     -33.482   4.089   3.651  1.00 20.00     0.010 C 
ENDBRANCH   2   3
BRANCH   2   5
HETATM    5  C8  UNL     1     -35.326   5.956   4.453  1.00 20.00     0.198 C 
BRANCH   5   6
HETATM    6  O10 UNL     1     -35.186   5.024   5.518  1.00 20.00    -0.397 OA
HETATM    7  H28 UNL     1     -36.075   4.686   5.712  1.00 20.00     0.209 HD
ENDBRANCH   5   6
ENDBRANCH   2   5
BRANCH   1   8
HETATM    8  C9  UNL     1     -32.557   8.731   3.904  1.00 20.00    -0.033 C 
HETATM    9  C4  UNL     1     -32.102   9.465   5.177  1.00 20.00     0.018 C 
HETATM   10  C5  UNL     1     -31.385   7.946   3.288  1.00 20.00     0.018 C 
HETATM   11  C6  UNL     1     -32.974   9.802   2.868  1.00 20.00     0.018 C 
ENDBRANCH   1   8
TORSDOF 4
