REMARK  2 active torsions:
REMARK  status: ('A' for Active; 'I' for Inactive)
REMARK    1  A    between atoms: C1_1  and  C6_6 
REMARK    2  A    between atoms: C2_2  and  C7_7 
ROOT
HETATM    1  C3  UNL     1     -33.789   6.924   6.330  1.00 20.00     0.037 C 
HETATM    2  C4  UNL     1     -33.915   5.459   6.686  1.00 20.00     0.168 C 
HETATM    3  C5  UNL     1     -34.355   5.687   4.410  1.00 20.00     0.176 C 
HETATM    4  C6  UNL     1     -33.486   6.858   4.847  1.00 20.00     0.034 C 
HETATM    5  O8  UNL     1     -34.480   4.810   5.540  1.00 20.00    -0.390 OA
ENDROOT
BRANCH   4   6
HETATM    6  C1  UNL     1     -33.770   8.126   4.119  1.00 20.00    -0.023 C 
HETATM    7  C2  UNL     1     -32.854   8.802   3.411  1.00 20.00    -0.015 C 
BRANCH   7   8
HETATM    8  C7  UNL     1     -33.147  10.068   2.674  1.00 20.00     0.141 C 
HETATM    9 CL9  UNL     1     -32.820   9.851   0.942  1.00 20.00    -0.126 Cl
ENDBRANCH   7   8
ENDBRANCH   4   6
TORSDOF 2
