REMARK  4 active torsions:
REMARK  status: ('A' for Active; 'I' for Inactive)
REMARK    1  A    between atoms: C2_2  and  C8_8 
REMARK    2  A    between atoms: C3_3  and  C9_9 
REMARK    3  A    between atoms: C3_3  and  O11_11 
REMARK    4  A    between atoms: C9_9  and  C10_10 
ROOT
HETATM    1  C1  UNL     1     -32.280   6.497   3.137  1.00 20.00     0.045 A 
HETATM    2  C2  UNL     1     -32.837   7.724   2.462  1.00 20.00     0.022 A 
HETATM    3  C3  UNL     1     -32.900   7.593   3.965  1.00 20.00     0.063 A 
ENDROOT
BRANCH   3   4
HETATM    4  C9  UNL     1     -34.240   7.360   4.653  1.00 20.00     0.046 C 
BRANCH   4   5
HETATM    5  C10 UNL     1     -34.263   6.240   5.724  1.00 20.00    -0.049 C 
HETATM    6  C5  UNL     1     -34.682   4.925   5.037  1.00 20.00     0.014 C 
HETATM    7  C6  UNL     1     -35.279   6.555   6.835  1.00 20.00     0.014 C 
HETATM    8  C7  UNL     1     -32.873   6.042   6.351  1.00 20.00     0.014 C 
ENDBRANCH   4   5
ENDBRANCH   3   4
BRANCH   3   9
HETATM    9  O11 UNL     1     -31.985   8.390   4.737  1.00 20.00    -0.389 OA
HETATM   10  H31 UNL     1     -31.538   7.775   5.333  1.00 20.00     0.210 HD
ENDBRANCH   3   9
BRANCH   2  11
HETATM   11  C8  UNL     1     -31.920   8.695   1.802  1.00 20.00     0.003 C 
HETATM   12  C4  UNL     1     -31.533   8.284   0.405  1.00 20.00     0.005 C 
ENDBRANCH   2  11
TORSDOF 4
