REMARK  2 active torsions:
REMARK  status: ('A' for Active; 'I' for Inactive)
REMARK    1  A    between atoms: C6_6  and  C8_8 
REMARK    2  A    between atoms: C7_7  and  C9_9 
ROOT
HETATM    1  C1  UNL     1     -34.900   5.260   5.743  1.00 20.00     0.027 C 
HETATM    2  C4  UNL     1     -34.795   6.745   6.064  1.00 20.00     0.010 C 
HETATM    3  C5  UNL     1     -34.884   5.041   4.239  1.00 20.00     0.168 C 
HETATM    4  C7  UNL     1     -33.601   7.387   5.339  1.00 20.00     0.029 C 
HETATM    5  C8  UNL     1     -33.642   7.033   3.836  1.00 20.00     0.130 C 
HETATM    6  O10 UNL     1     -33.708   5.610   3.669  1.00 20.00    -0.385 OA
ENDROOT
BRANCH   5   7
HETATM    7  C6  UNL     1     -32.423   7.510   3.095  1.00 20.00     0.015 A 
HETATM    8  C2  UNL     1     -32.261   7.212   1.630  1.00 20.00     0.007 A 
HETATM    9  C3  UNL     1     -32.537   8.618   2.085  1.00 20.00     0.007 A 
ENDBRANCH   5   7
BRANCH   4  10
HETATM   10  C9  UNL     1     -33.594   8.895   5.594  1.00 20.00     0.121 C 
HETATM   11 CL11 UNL     1     -31.978   9.554   5.290  1.00 20.00    -0.130 Cl
ENDBRANCH   4  10
TORSDOF 2
