REMARK  2 active torsions:
REMARK  status: ('A' for Active; 'I' for Inactive)
REMARK    1  A    between atoms: C3_3  and  C8_8 
REMARK    2  A    between atoms: C4_4  and  C9_9 
ROOT
HETATM    1  C1  UNL     1     -32.646   8.563   3.720  1.00 20.00     0.034 C 
HETATM    2  C2  UNL     1     -33.275   8.877   5.062  1.00 20.00     0.168 C 
HETATM    3  C3  UNL     1     -33.146   7.156   3.466  1.00 20.00     0.031 C 
HETATM    4  C4  UNL     1     -33.065   6.561   4.869  1.00 20.00     0.134 C 
HETATM    5  O10 UNL     1     -33.392   7.635   5.771  1.00 20.00    -0.385 OA
ENDROOT
BRANCH   4   6
HETATM    6  C9  UNL     1     -34.018   5.402   5.100  1.00 20.00    -0.025 C 
HETATM    7  C5  UNL     1     -33.953   4.950   6.572  1.00 20.00     0.017 C 
HETATM    8  C6  UNL     1     -33.634   4.214   4.196  1.00 20.00     0.017 C 
HETATM    9  C7  UNL     1     -35.462   5.831   4.773  1.00 20.00     0.017 C 
ENDBRANCH   4   6
BRANCH   3  10
HETATM   10  C8  UNL     1     -32.340   6.401   2.424  1.00 20.00     0.121 C 
HETATM   11 CL11 UNL     1     -31.911   7.475   1.077  1.00 20.00    -0.130 Cl
ENDBRANCH   3  10
TORSDOF 2
