REMARK  1 active torsions:
REMARK  status: ('A' for Active; 'I' for Inactive)
REMARK    1  A    between atoms: C3_3  and  C8_8 
ROOT
HETATM    1  C1  UNL     1     -35.319   5.614   3.926  1.00 20.00     0.284 C 
HETATM    2  C2  UNL     1     -34.290   7.346   5.847  1.00 20.00     0.110 C 
HETATM    3  C3  UNL     1     -33.536   7.220   4.522  1.00 20.00     0.233 C 
HETATM    4  C4  UNL     1     -34.937   4.725   5.113  1.00 20.00     0.071 C 
HETATM    5  C5  UNL     1     -33.763   3.795   4.815  1.00 20.00     0.023 C 
HETATM    6  N9  UNL     1     -34.293   6.543   3.463  1.00 20.00     0.090 N 
HETATM    7  S10 UNL     1     -34.586   5.718   6.611  1.00 20.00    -0.161 SA
HETATM    8  H27 UNL     1     -33.633   6.028   2.858  1.00 20.00     0.316 HD
ENDROOT
BRANCH   3   9
HETATM    9  C8  UNL     1     -33.148   8.604   3.999  1.00 20.00     0.011 C 
HETATM   10  C6  UNL     1     -32.278   9.334   5.018  1.00 20.00     0.012 C 
HETATM   11  C7  UNL     1     -32.428   8.485   2.659  1.00 20.00     0.012 C 
ENDBRANCH   3   9
TORSDOF 1
