REMARK  2 active torsions:
REMARK  status: ('A' for Active; 'I' for Inactive)
REMARK    1  A    between atoms: C4_4  and  C5_5 
REMARK    2  A    between atoms: C6_6  and  C7_7 
ROOT
HETATM    1  C1  UNL     1     -32.326   7.542   1.564  1.00 20.00     0.038 A 
HETATM    2  C2  UNL     1     -32.109   8.395   0.507  1.00 20.00     0.142 A 
HETATM    3  C3  UNL     1     -32.893   9.624   2.126  1.00 20.00     0.152 A 
HETATM    4  C4  UNL     1     -32.835   8.340   2.615  1.00 20.00    -0.011 A 
HETATM    5  O10 UNL     1     -32.452   9.666   0.842  1.00 20.00    -0.334 OA
ENDROOT
BRANCH   4   6
HETATM    6  C5  UNL     1     -33.233   7.921   3.965  1.00 20.00     0.023 C 
HETATM    7  C7  UNL     1     -33.710   6.709   4.293  1.00 20.00    -0.024 C 
HETATM    8  C8  UNL     1     -33.905   5.530   3.391  1.00 20.00     0.051 C 
BRANCH   7   9
HETATM    9  C6  UNL     1     -34.060   6.522   5.729  1.00 20.00     0.265 C 
HETATM   10  O9  UNL     1     -33.924   7.404   6.569  1.00 20.00    -0.302 OA
ENDBRANCH   7   9
ENDBRANCH   4   6
TORSDOF 2
