REMARK  2 active torsions:
REMARK  status: ('A' for Active; 'I' for Inactive)
REMARK    1  A    between atoms: C4_4  and  C8_8 
REMARK    2  A    between atoms: C5_5  and  C9_9 
ROOT
HETATM    1  C1  UNL     1     -33.035   4.943   2.290  1.00 20.00     0.027 C 
HETATM    2  C2  UNL     1     -31.913   5.976   2.213  1.00 20.00     0.010 C 
HETATM    3  C3  UNL     1     -33.596   4.856   3.703  1.00 20.00     0.168 C 
HETATM    4  C4  UNL     1     -32.327   7.319   2.835  1.00 20.00     0.029 C 
HETATM    5  C5  UNL     1     -32.907   7.063   4.242  1.00 20.00     0.130 C 
HETATM    6  O10 UNL     1     -34.000   6.140   4.176  1.00 20.00    -0.385 OA
ENDROOT
BRANCH   5   7
HETATM    7  C9  UNL     1     -33.407   8.327   4.932  1.00 20.00     0.007 C 
HETATM    8  C6  UNL     1     -33.997   7.996   6.302  1.00 20.00     0.012 C 
HETATM    9  C7  UNL     1     -32.279   9.349   5.069  1.00 20.00     0.012 C 
ENDBRANCH   5   7
BRANCH   4  10
HETATM   10  C8  UNL     1     -33.300   8.061   1.909  1.00 20.00     0.121 C 
HETATM   11 CL11 UNL     1     -32.525   8.380   0.351  1.00 20.00    -0.130 Cl
ENDBRANCH   4  10
TORSDOF 2
