REMARK  2 active torsions:
REMARK  status: ('A' for Active; 'I' for Inactive)
REMARK    1  A    between atoms: C1_1  and  C7_7 
REMARK    2  A    between atoms: C2_2  and  C8_8 
ROOT
HETATM    1  C3  UNL     1     -33.867   4.954   4.261  1.00 20.00     0.035 C 
HETATM    2  C4  UNL     1     -33.241   7.085   5.426  1.00 20.00     0.035 C 
HETATM    3  C5  UNL     1     -34.614   4.561   5.530  1.00 20.00     0.168 C 
HETATM    4  C6  UNL     1     -34.023   6.575   6.631  1.00 20.00     0.168 C 
HETATM    5  C7  UNL     1     -33.787   6.471   4.142  1.00 20.00     0.012 C 
HETATM    6  O9  UNL     1     -34.003   5.148   6.680  1.00 20.00    -0.391 OA
ENDROOT
BRANCH   5   7
HETATM    7  C1  UNL     1     -32.834   6.809   3.012  1.00 20.00    -0.025 C 
HETATM    8  C2  UNL     1     -32.535   8.061   2.637  1.00 20.00    -0.020 C 
BRANCH   8   9
HETATM    9  C8  UNL     1     -31.608   8.385   1.516  1.00 20.00     0.112 C 
HETATM   10 BR10 UNL     1     -32.606   9.341   0.148  1.00 20.00    -0.092 Br
ENDBRANCH   8   9
ENDBRANCH   5   7
TORSDOF 2
