REMARK  2 active torsions:
REMARK  status: ('A' for Active; 'I' for Inactive)
REMARK    1  A    between atoms: C5_5  and  C7_7 
REMARK    2  A    between atoms: C7_7  and  C8_8 
ROOT
HETATM    1  C1  UNL     1     -34.163   5.651   4.362  1.00 20.00     0.066 C 
HETATM    2  C2  UNL     1     -33.749   7.717   5.666  1.00 20.00     0.048 C 
HETATM    3  C3  UNL     1     -32.826   8.893   5.437  1.00 20.00     0.169 C 
HETATM    4  C4  UNL     1     -33.762   7.058   4.302  1.00 20.00     0.123 C 
HETATM    5  C5  UNL     1     -32.312   7.248   3.864  1.00 20.00     0.139 C 
HETATM    6  N9  UNL     1     -34.481   4.536   4.409  1.00 20.00    -0.197 NA
HETATM    7  O10 UNL     1     -31.861   8.477   4.463  1.00 20.00    -0.384 OA
ENDROOT
BRANCH   5   8
HETATM    8  C7  UNL     1     -32.140   7.333   2.357  1.00 20.00     0.033 C 
BRANCH   8   9
HETATM    9  C8  UNL     1     -32.520   8.714   1.832  1.00 20.00    -0.002 C 
HETATM   10  C6  UNL     1     -32.322   8.808   0.327  1.00 20.00     0.005 C 
ENDBRANCH   8   9
ENDBRANCH   5   8
TORSDOF 2
