REMARK  3 active torsions:
REMARK  status: ('A' for Active; 'I' for Inactive)
REMARK    1  A    between atoms: C2_2  and  C6_6 
REMARK    2  A    between atoms: C3_3  and  O8_8 
REMARK    3  A    between atoms: C6_6  and  C7_7 
ROOT
HETATM    1  C1  UNL     1     -35.272   6.420   4.336  1.00 20.00     0.045 A 
HETATM    2  C2  UNL     1     -34.000   6.759   5.070  1.00 20.00     0.022 A 
HETATM    3  C3  UNL     1     -34.620   5.387   5.222  1.00 20.00     0.058 A 
HETATM    4  C4  UNL     1     -34.011   4.165   4.618  1.00 20.00     0.046 C 
ENDROOT
BRANCH   2   5
HETATM    5  C6  UNL     1     -32.735   6.984   4.317  1.00 20.00     0.007 C 
BRANCH   5   6
HETATM    6  C7  UNL     1     -32.673   8.379   3.670  1.00 20.00    -0.004 C 
HETATM    7  C5  UNL     1     -32.799   9.500   4.689  1.00 20.00     0.005 C 
ENDBRANCH   5   6
ENDBRANCH   2   5
BRANCH   3   8
HETATM    8  O8  UNL     1     -35.272   5.139   6.481  1.00 20.00    -0.390 OA
HETATM    9  H22 UNL     1     -36.161   4.833   6.260  1.00 20.00     0.210 HD
ENDBRANCH   3   8
TORSDOF 3
