REMARK  4 active torsions:
REMARK  status: ('A' for Active; 'I' for Inactive)
REMARK    1  A    between atoms: C1_1  and  C9_9 
REMARK    2  A    between atoms: C2_2  and  C6_6 
REMARK    3  A    between atoms: C7_7  and  C9_9 
REMARK    4  A    between atoms: C8_8  and  C9_9 
ROOT
HETATM    1  C1  UNL     1     -33.537   7.443   4.550  1.00 20.00    -0.019 C 
HETATM    2  C2  UNL     1     -33.124   8.457   3.765  1.00 20.00    -0.073 C 
HETATM    3  C3  UNL     1     -32.212   9.521   4.319  1.00 20.00     0.044 C 
ENDROOT
BRANCH   1   4
HETATM    4  C9  UNL     1     -34.461   6.301   4.180  1.00 20.00     0.007 C 
BRANCH   4   5
HETATM    5  C7  UNL     1     -35.278   5.845   5.408  1.00 20.00     0.004 C 
HETATM    6  C4  UNL     1     -34.411   5.380   6.572  1.00 20.00     0.006 C 
ENDBRANCH   4   5
BRANCH   4   7
HETATM    7  C8  UNL     1     -33.658   5.107   3.623  1.00 20.00     0.004 C 
HETATM    8  C5  UNL     1     -32.888   5.437   2.350  1.00 20.00     0.006 C 
ENDBRANCH   4   7
ENDBRANCH   1   4
BRANCH   2   9
HETATM    9  C6  UNL     1     -33.478   8.612   2.312  1.00 20.00     0.148 C 
HETATM   10 CL10 UNL     1     -32.010   8.610   1.311  1.00 20.00    -0.126 Cl
ENDBRANCH   2   9
TORSDOF 4
