REMARK  5 active torsions:
REMARK  status: ('A' for Active; 'I' for Inactive)
REMARK    1  A    between atoms: C1_1  and  C7_7 
REMARK    2  A    between atoms: C1_1  and  C10_10 
REMARK    3  A    between atoms: C4_4  and  C8_8 
REMARK    4  A    between atoms: C8_8  and  C9_9 
REMARK    5  A    between atoms: C9_9  and  C10_10 
ROOT
HETATM    1  C6  UNL     1     -33.419   4.826   2.967  1.00 20.00     0.018 C 
HETATM    2  C10 UNL     1     -33.408   6.269   3.464  1.00 20.00     0.051 C 
ENDROOT
BRANCH   2   3
HETATM    3  C1  UNL     1     -33.704   6.265   4.963  1.00 20.00     0.130 C 
HETATM    4  O11 UNL     1     -33.260   7.136   5.711  1.00 20.00    -0.298 OA
BRANCH   3   5
HETATM    5  C7  UNL     1     -34.545   5.107   5.475  1.00 20.00     0.074 C 
HETATM    6  C5  UNL     1     -34.771   5.167   6.975  1.00 20.00     0.013 C 
ENDBRANCH   3   5
ENDBRANCH   2   3
BRANCH   2   7
HETATM    7  C9  UNL     1     -32.065   6.946   3.151  1.00 20.00     0.012 C 
BRANCH   7   8
HETATM    8  C8  UNL     1     -31.973   7.418   1.697  1.00 20.00     0.005 C 
BRANCH   8   9
HETATM    9  C4  UNL     1     -33.061   8.392   1.361  1.00 20.00    -0.014 A 
HETATM   10  C2  UNL     1     -32.847   9.866   1.566  1.00 20.00     0.005 A 
HETATM   11  C3  UNL     1     -32.920   9.304   0.174  1.00 20.00     0.005 A 
ENDBRANCH   8   9
ENDBRANCH   7   8
ENDBRANCH   2   7
TORSDOF 5
