REMARK  4 active torsions:
REMARK  status: ('A' for Active; 'I' for Inactive)
REMARK    1  A    between atoms: C1_1  and  C6_6 
REMARK    2  A    between atoms: C4_4  and  C6_6 
REMARK    3  A    between atoms: C5_5  and  C6_6 
REMARK    4  A    between atoms: C5_5  and  C7_7 
ROOT
HETATM    1  C6  UNL     1     -33.719   6.130   3.292  1.00 20.00     0.059 C 
ENDROOT
BRANCH   1   2
HETATM    2  C1  UNL     1     -33.436   4.635   3.417  1.00 20.00     0.127 C 
HETATM    3  C2  UNL     1     -32.647   3.998   2.303  1.00 20.00     0.091 C 
HETATM    4  O8  UNL     1     -33.825   3.974   4.380  1.00 20.00    -0.298 OA
ENDBRANCH   1   2
BRANCH   1   5
HETATM    5  C4  UNL     1     -32.392   6.904   3.201  1.00 20.00     0.008 C 
HETATM    6  C3  UNL     1     -32.591   8.406   3.045  1.00 20.00     0.006 C 
ENDBRANCH   1   5
BRANCH   1   7
HETATM    7  C5  UNL     1     -34.542   6.623   4.497  1.00 20.00     0.083 C 
BRANCH   7   8
HETATM    8  C7  UNL     1     -33.848   6.416   5.835  1.00 20.00     0.353 C 
HETATM    9  F9  UNL     1     -34.740   6.465   6.852  1.00 20.00    -0.214 F 
HETATM   10  F10 UNL     1     -32.943   7.401   6.049  1.00 20.00    -0.214 F 
ENDBRANCH   7   8
ENDBRANCH   1   7
TORSDOF 4
