REMARK  4 active torsions:
REMARK  status: ('A' for Active; 'I' for Inactive)
REMARK    1  A    between atoms: C1_1  and  C5_5 
REMARK    2  A    between atoms: C1_1  and  C8_8 
REMARK    3  A    between atoms: C5_5  and  C6_6 
REMARK    4  A    between atoms: C6_6  and  C7_7 
ROOT
HETATM    1  C1  UNL     1     -33.451   7.003   3.965  1.00 20.00     0.134 C 
HETATM    2  O9  UNL     1     -33.195   5.906   3.463  1.00 20.00    -0.297 OA
ENDROOT
BRANCH   1   3
HETATM    3  C5  UNL     1     -34.682   7.191   4.846  1.00 20.00     0.084 C 
BRANCH   3   4
HETATM    4  C6  UNL     1     -35.539   5.933   4.966  1.00 20.00     0.078 C 
BRANCH   4   5
HETATM    5  C7  UNL     1     -34.781   4.764   5.568  1.00 20.00     0.353 C 
HETATM    6  F10 UNL     1     -33.974   5.220   6.559  1.00 20.00    -0.214 F 
HETATM    7  F11 UNL     1     -33.971   4.209   4.633  1.00 20.00    -0.214 F 
ENDBRANCH   4   5
ENDBRANCH   3   4
ENDBRANCH   1   3
BRANCH   1   8
HETATM    8  C8  UNL     1     -32.542   8.226   3.722  1.00 20.00     0.009 C 
HETATM    9  C2  UNL     1     -32.614   9.149   4.945  1.00 20.00     0.022 C 
HETATM   10  C3  UNL     1     -32.972   8.980   2.458  1.00 20.00     0.022 C 
HETATM   11  C4  UNL     1     -31.087   7.756   3.537  1.00 20.00     0.022 C 
ENDBRANCH   1   8
TORSDOF 4
