REMARK  3 active torsions:
REMARK  status: ('A' for Active; 'I' for Inactive)
REMARK    1  A    between atoms: C4_4  and  C7_7 
REMARK    2  A    between atoms: C8_8  and  C9_9 
REMARK    3  A    between atoms: C9_9  and  N10_10 
ROOT
HETATM    1  C1  UNL     1     -34.491   5.861   6.957  1.00 20.00     0.032 C 
HETATM    2  C2  UNL     1     -35.152   5.250   5.726  1.00 20.00     0.038 C 
HETATM    3  C3  UNL     1     -33.672   7.037   6.437  1.00 20.00     0.273 C 
HETATM    4  C4  UNL     1     -34.400   5.848   4.538  1.00 20.00     0.237 C 
HETATM    5  N10 UNL     1     -34.098   7.190   5.048  1.00 20.00     0.098 N 
ENDROOT
BRANCH   5   6
HETATM    6  C9  UNL     1     -33.167   7.970   4.250  1.00 20.00     0.219 C 
HETATM    7  C6  UNL     1     -32.598   9.108   5.091  1.00 20.00     0.043 C 
BRANCH   6   8
HETATM    8  C8  UNL     1     -33.837   8.512   2.981  1.00 20.00     0.031 C 
HETATM    9  C5  UNL     1     -32.871   9.285   2.092  1.00 20.00     0.007 C 
ENDBRANCH   6   8
ENDBRANCH   5   6
BRANCH   4  10
HETATM   10  C7  UNL     1     -33.193   4.988   4.148  1.00 20.00     0.150 C 
HETATM   11 CL11 UNL     1     -32.701   5.340   2.481  1.00 20.00    -0.128 Cl
ENDBRANCH   4  10
TORSDOF 3
