REMARK  2 active torsions:
REMARK  status: ('A' for Active; 'I' for Inactive)
REMARK    1  A    between atoms: C4_4  and  C5_5 
REMARK    2  A    between atoms: C5_5  and  C6_6 
ROOT
HETATM    1  C1  UNL     1     -32.997   8.794   3.240  1.00 20.00     0.038 A 
HETATM    2  C2  UNL     1     -32.203   7.397   1.560  1.00 20.00     0.074 A 
HETATM    3  C3  UNL     1     -32.704   8.646   1.853  1.00 20.00     0.041 A 
HETATM    4  C4  UNL     1     -32.708   7.652   3.954  1.00 20.00    -0.015 A 
HETATM    5  S7  UNL     1     -32.087   6.409   2.954  1.00 20.00    -0.105 SA
HETATM    6 CL8  UNL     1     -32.957   9.893   0.712  1.00 20.00    -0.084 Cl
ENDROOT
BRANCH   4   7
HETATM    7  C5  UNL     1     -32.871   7.408   5.404  1.00 20.00     0.061 C 
BRANCH   7   8
HETATM    8  C6  UNL     1     -34.309   7.087   5.841  1.00 20.00     0.119 C 
HETATM    9 CL9  UNL     1     -34.938   5.640   5.015  1.00 20.00    -0.130 Cl
ENDBRANCH   7   8
ENDBRANCH   4   7
TORSDOF 2
