REMARK  4 active torsions:
REMARK  status: ('A' for Active; 'I' for Inactive)
REMARK    1  A    between atoms: C4_4  and  C6_6 
REMARK    2  A    between atoms: C6_6  and  C8_8 
REMARK    3  A    between atoms: C7_7  and  C8_8 
REMARK    4  A    between atoms: C8_8  and  O10_10 
ROOT
HETATM    1  C6  UNL     1     -33.379   7.999   3.726  1.00 20.00     0.038 C 
ENDROOT
BRANCH   1   2
HETATM    2  C4  UNL     1     -33.328   6.886   4.755  1.00 20.00     0.014 C 
HETATM    3  C1  UNL     1     -33.929   7.251   6.095  1.00 20.00     0.033 C 
HETATM    4  C2  UNL     1     -34.185   5.886   6.699  1.00 20.00     0.168 C 
HETATM    5  O9  UNL     1     -34.471   4.997   5.609  1.00 20.00    -0.391 OA
HETATM    6  C3  UNL     1     -34.153   5.667   4.379  1.00 20.00     0.172 C 
ENDBRANCH   1   2
BRANCH   1   7
HETATM    7  C8  UNL     1     -32.342   7.812   2.613  1.00 20.00     0.118 C 
BRANCH   7   8
HETATM    8  C7  UNL     1     -32.746   8.595   1.359  1.00 20.00     0.027 C 
HETATM    9  C5  UNL     1     -32.839  10.095   1.603  1.00 20.00     0.007 C 
ENDBRANCH   7   8
BRANCH   7  10
HETATM   10  O10 UNL     1     -32.253   6.422   2.308  1.00 20.00    -0.396 OA
HETATM   11  H26 UNL     1     -33.137   6.146   2.019  1.00 20.00     0.210 HD
ENDBRANCH   7  10
ENDBRANCH   1   7
TORSDOF 4
