REMARK  1 active torsions:
REMARK  status: ('A' for Active; 'I' for Inactive)
REMARK    1  A    between atoms: C7_7  and  N12_12 
ROOT
HETATM    1  C1  UNL     1     -33.970   5.721   5.382  1.00 20.00     0.134 C 
HETATM    2  C2  UNL     1     -33.583   5.222   4.010  1.00 20.00     0.106 C 
HETATM    3  C4  UNL     1     -32.201   5.714   3.625  1.00 20.00     0.243 C 
HETATM    4  C5  UNL     1     -33.790   7.204   5.664  1.00 20.00     0.082 C 
HETATM    5  C8  UNL     1     -32.431   7.703   5.137  1.00 20.00     0.195 C 
HETATM    6  C9  UNL     1     -35.034   7.959   5.207  1.00 20.00     0.020 C 
HETATM    7  C11 UNL     1     -32.211   9.208   5.257  1.00 20.00     0.041 C 
HETATM    8  N12 UNL     1     -32.120   7.218   3.735  1.00 20.00    -0.061 N 
HETATM    9  O13 UNL     1     -34.505   4.975   6.202  1.00 20.00    -0.297 OA
HETATM   10  H33 UNL     1     -31.101   7.435   3.587  1.00 20.00     0.280 HD
ENDROOT
BRANCH   8  11
HETATM   11  C7  UNL     1     -32.810   7.912   2.584  1.00 20.00     0.193 A 
HETATM   12  C3  UNL     1     -32.144   7.858   1.236  1.00 20.00     0.040 A 
HETATM   13  C6  UNL     1     -32.155   9.144   2.019  1.00 20.00     0.014 A 
HETATM   14  C10 UNL     1     -32.988  10.290   1.562  1.00 20.00     0.012 C 
ENDBRANCH   8  11
TORSDOF 1
