REMARK  2 active torsions:
REMARK  status: ('A' for Active; 'I' for Inactive)
REMARK    1  A    between atoms: C3_3  and  C10_10 
REMARK    2  A    between atoms: C9_9  and  C10_10 
ROOT
HETATM    1  C1  UNL     1     -33.758   7.326   4.398  1.00 20.00     0.006 C 
HETATM    2  C2  UNL     1     -34.980   6.413   4.559  1.00 20.00     0.016 C 
HETATM    3  C3  UNL     1     -32.761   6.574   3.500  1.00 20.00    -0.006 C 
HETATM    4  C4  UNL     1     -33.583   5.424   2.893  1.00 20.00     0.000 C 
HETATM    5  C5  UNL     1     -34.563   5.056   4.007  1.00 20.00     0.062 C 
HETATM    6  C6  UNL     1     -32.743   4.286   2.329  1.00 20.00     0.011 C 
HETATM    7 BR11 UNL     1     -33.765   3.993   5.438  1.00 20.00    -0.091 Br
ENDROOT
BRANCH   3   8
HETATM    8  C10 UNL     1     -32.118   7.478   2.458  1.00 20.00    -0.014 C 
HETATM    9  C8  UNL     1     -31.303   8.578   3.148  1.00 20.00     0.010 C 
BRANCH   8  10
HETATM   10  C9  UNL     1     -33.150   8.123   1.512  1.00 20.00     0.000 C 
HETATM   11  C7  UNL     1     -32.526   9.035   0.465  1.00 20.00     0.005 C 
ENDBRANCH   8  10
ENDBRANCH   3   8
TORSDOF 2
