REMARK  4 active torsions:
REMARK  status: ('A' for Active; 'I' for Inactive)
REMARK    1  A    between atoms: C1_1  and  C8_8 
REMARK    2  A    between atoms: C1_1  and  C10_10 
REMARK    3  A    between atoms: C5_5  and  C9_9 
REMARK    4  A    between atoms: C9_9  and  C10_10 
ROOT
HETATM    1  C7  UNL     1     -32.216   9.133   5.103  1.00 20.00     0.018 C 
HETATM    2  C10 UNL     1     -33.367   8.997   4.110  1.00 20.00     0.051 C 
ENDROOT
BRANCH   2   3
HETATM    3  C1  UNL     1     -32.785   8.656   2.738  1.00 20.00     0.130 C 
HETATM    4  O11 UNL     1     -32.172   7.607   2.537  1.00 20.00    -0.298 OA
BRANCH   3   5
HETATM    5  C8  UNL     1     -33.037   9.670   1.633  1.00 20.00     0.074 C 
HETATM    6  C6  UNL     1     -32.447   9.243   0.301  1.00 20.00     0.013 C 
ENDBRANCH   3   5
ENDBRANCH   2   3
BRANCH   2   7
HETATM    7  C9  UNL     1     -34.371   7.937   4.582  1.00 20.00     0.016 C 
BRANCH   7   8
HETATM    8  C5  UNL     1     -33.660   6.752   5.200  1.00 20.00    -0.014 C 
HETATM    9  C3  UNL     1     -34.483   5.446   5.347  1.00 20.00     0.005 C 
HETATM   10  C2  UNL     1     -33.745   5.218   6.683  1.00 20.00     0.001 C 
HETATM   11  C4  UNL     1     -33.536   6.746   6.746  1.00 20.00     0.005 C 
ENDBRANCH   7   8
ENDBRANCH   2   7
TORSDOF 4
