REMARK  4 active torsions:
REMARK  status: ('A' for Active; 'I' for Inactive)
REMARK    1  A    between atoms: C4_4  and  C5_5 
REMARK    2  A    between atoms: C5_5  and  C6_6 
REMARK    3  A    between atoms: C6_6  and  C7_7 
REMARK    4  A    between atoms: C7_7  and  O9_9 
ROOT
HETATM    1  C1  UNL     1     -33.761   7.654   4.283  1.00 20.00     0.066 C 
HETATM    2  C6  UNL     1     -33.571   6.194   4.143  1.00 20.00     0.121 C 
HETATM    3  N8  UNL     1     -33.908   8.800   4.394  1.00 20.00    -0.197 NA
ENDROOT
BRANCH   2   4
HETATM    4  C5  UNL     1     -33.750   5.770   2.670  1.00 20.00     0.021 C 
BRANCH   4   5
HETATM    5  C4  UNL     1     -32.499   6.027   1.821  1.00 20.00    -0.003 C 
HETATM    6  C2  UNL     1     -32.143   7.505   1.793  1.00 20.00     0.005 C 
ENDBRANCH   4   5
ENDBRANCH   2   4
BRANCH   2   7
HETATM    7  C7  UNL     1     -34.542   5.411   5.056  1.00 20.00     0.131 C 
HETATM    8  C3  UNL     1     -34.380   5.734   6.538  1.00 20.00     0.040 C 
BRANCH   7   9
HETATM    9  O9  UNL     1     -35.890   5.665   4.662  1.00 20.00    -0.395 OA
HETATM   10  H22 UNL     1     -36.448   5.089   5.207  1.00 20.00     0.210 HD
ENDBRANCH   7   9
ENDBRANCH   2   7
TORSDOF 4
