REMARK  4 active torsions:
REMARK  status: ('A' for Active; 'I' for Inactive)
REMARK    1  A    between atoms: C1_1  and  C7_7 
REMARK    2  A    between atoms: C6_6  and  C8_8 
REMARK    3  A    between atoms: C6_6  and  O10_10 
REMARK    4  A    between atoms: C7_7  and  C8_8 
ROOT
HETATM    1  C3  UNL     1     -33.468   5.334   2.467  1.00 20.00     0.018 C 
HETATM    2  C7  UNL     1     -33.415   6.059   3.813  1.00 20.00     0.056 C 
ENDROOT
BRANCH   2   3
HETATM    3  C1  UNL     1     -34.646   5.712   4.656  1.00 20.00     0.127 C 
HETATM    4  C2  UNL     1     -34.408   4.946   5.934  1.00 20.00     0.091 C 
HETATM    5  O9  UNL     1     -35.788   6.011   4.308  1.00 20.00    -0.298 OA
ENDBRANCH   2   3
BRANCH   2   6
HETATM    6  C8  UNL     1     -33.241   7.594   3.701  1.00 20.00     0.016 C 
HETATM    7  C4  UNL     1     -33.162   8.246   5.088  1.00 20.00     0.013 C 
BRANCH   6   8
HETATM    8  C6  UNL     1     -32.032   8.002   2.845  1.00 20.00     0.172 C 
BRANCH   8   9
HETATM    9  O10 UNL     1     -32.337   7.820   1.467  1.00 20.00    -0.396 OA
HETATM   10  C5  UNL     1     -31.235   8.166   0.641  1.00 20.00     0.201 C 
ENDBRANCH   8   9
ENDBRANCH   6   8
ENDBRANCH   2   6
TORSDOF 4
