REMARK  3 active torsions:
REMARK  status: ('A' for Active; 'I' for Inactive)
REMARK    1  A    between atoms: C8_8  and  C10_10 
REMARK    2  A    between atoms: C9_9  and  C11_11 
REMARK    3  A    between atoms: C10_10  and  C11_11 
ROOT
HETATM    1  C1  UNL     1     -33.833   5.767   4.238  1.00 20.00     0.131 C 
HETATM    2  C2  UNL     1     -34.565   5.046   5.349  1.00 20.00     0.079 C 
HETATM    3  C3  UNL     1     -33.988   5.427   6.705  1.00 20.00     0.007 C 
HETATM    4  C4  UNL     1     -33.940   6.941   6.892  1.00 20.00     0.001 C 
HETATM    5  C5  UNL     1     -33.136   7.606   5.777  1.00 20.00     0.012 C 
HETATM    6  C8  UNL     1     -33.704   7.280   4.393  1.00 20.00     0.055 C 
HETATM    7  O12 UNL     1     -33.452   5.164   3.235  1.00 20.00    -0.298 OA
ENDROOT
BRANCH   6   8
HETATM    8  C10 UNL     1     -32.837   7.888   3.295  1.00 20.00     0.012 C 
BRANCH   8   9
HETATM    9  C11 UNL     1     -33.613   8.028   1.989  1.00 20.00     0.005 C 
BRANCH   9  10
HETATM   10  C9  UNL     1     -32.757   8.659   0.903  1.00 20.00    -0.014 A 
HETATM   11  C6  UNL     1     -33.402   9.292  -0.299  1.00 20.00     0.005 A 
HETATM   12  C7  UNL     1     -32.729  10.153   0.734  1.00 20.00     0.005 A 
ENDBRANCH   9  10
ENDBRANCH   8   9
ENDBRANCH   6   8
TORSDOF 3
