REMARK  2 active torsions:
REMARK  status: ('A' for Active; 'I' for Inactive)
REMARK    1  A    between atoms: C1_1  and  C9_9 
REMARK    2  A    between atoms: C6_6  and  C9_9 
ROOT
HETATM    1  C2  UNL     1     -34.777   6.143   4.171  1.00 20.00     0.031 C 
HETATM    2  C3  UNL     1     -33.693   7.114   6.214  1.00 20.00     0.031 C 
HETATM    3  C4  UNL     1     -35.083   4.907   5.007  1.00 20.00     0.168 C 
HETATM    4  C5  UNL     1     -34.060   5.823   6.937  1.00 20.00     0.168 C 
HETATM    5  C6  UNL     1     -33.538   6.867   4.709  1.00 20.00     0.000 C 
HETATM    6  O11 UNL     1     -35.245   5.253   6.382  1.00 20.00    -0.391 OA
ENDROOT
BRANCH   5   7
HETATM    7  C9  UNL     1     -33.294   8.174   3.960  1.00 20.00     0.055 C 
HETATM    8  C8  UNL     1     -32.444   9.127   4.795  1.00 20.00     0.018 C 
BRANCH   7   9
HETATM    9  C1  UNL     1     -32.634   7.885   2.615  1.00 20.00     0.127 C 
HETATM   10  C7  UNL     1     -32.340   9.071   1.731  1.00 20.00     0.091 C 
HETATM   11  O10 UNL     1     -32.371   6.742   2.242  1.00 20.00    -0.298 OA
ENDBRANCH   7   9
ENDBRANCH   5   7
TORSDOF 2
