REMARK  3 active torsions:
REMARK  status: ('A' for Active; 'I' for Inactive)
REMARK    1  A    between atoms: C7_7  and  C9_9 
REMARK    2  A    between atoms: C8_8  and  C10_10 
REMARK    3  A    between atoms: C9_9  and  C10_10 
ROOT
HETATM    1  C1  UNL     1     -34.237   7.270   5.322  1.00 20.00     0.131 C 
HETATM    2  C2  UNL     1     -34.844   6.009   5.884  1.00 20.00     0.079 C 
HETATM    3  C3  UNL     1     -35.111   5.196   4.623  1.00 20.00     0.008 C 
HETATM    4  C4  UNL     1     -34.008   5.619   3.660  1.00 20.00     0.013 C 
HETATM    5  C7  UNL     1     -33.908   7.134   3.850  1.00 20.00     0.055 C 
HETATM    6  O11 UNL     1     -34.038   8.279   5.986  1.00 20.00    -0.298 OA
ENDROOT
BRANCH   5   7
HETATM    7  C9  UNL     1     -32.541   7.685   3.495  1.00 20.00     0.012 C 
BRANCH   7   8
HETATM    8  C10 UNL     1     -32.224   7.497   2.011  1.00 20.00     0.005 C 
BRANCH   8   9
HETATM    9  C8  UNL     1     -33.255   8.181   1.126  1.00 20.00    -0.014 A 
HETATM   10  C5  UNL     1     -33.062   9.611   0.706  1.00 20.00     0.005 A 
HETATM   11  C6  UNL     1     -32.926   8.506  -0.304  1.00 20.00     0.005 A 
ENDBRANCH   8   9
ENDBRANCH   7   8
ENDBRANCH   5   7
TORSDOF 3
