REMARK  3 active torsions:
REMARK  status: ('A' for Active; 'I' for Inactive)
REMARK    1  A    between atoms: C2_2  and  C10_10 
REMARK    2  A    between atoms: C3_3  and  C8_8 
REMARK    3  A    between atoms: C8_8  and  C10_10 
ROOT
HETATM    1  C4  UNL     1     -32.036   7.450   1.615  1.00 20.00     0.001 C 
HETATM    2  C5  UNL     1     -33.078   8.543   1.775  1.00 20.00     0.001 C 
HETATM    3  C6  UNL     1     -31.694   7.090   3.054  1.00 20.00     0.021 C 
HETATM    4  C7  UNL     1     -33.904   8.133   2.996  1.00 20.00     0.021 C 
HETATM    5  C8  UNL     1     -33.051   7.108   3.770  1.00 20.00     0.055 C 
ENDROOT
BRANCH   5   6
HETATM    6  C3  UNL     1     -33.692   5.744   3.693  1.00 20.00     0.182 C 
HETATM    7  O11 UNL     1     -34.819   5.646   4.253  1.00 20.00    -0.647 OA
HETATM    8  O12 UNL     1     -33.015   4.875   3.076  1.00 20.00    -0.647 OA
ENDBRANCH   5   6
BRANCH   5   9
HETATM    9  C10 UNL     1     -32.913   7.460   5.248  1.00 20.00     0.022 C 
HETATM   10  C9  UNL     1     -32.219   8.815   5.422  1.00 20.00     0.015 C 
BRANCH   9  11
HETATM   11  C2  UNL     1     -34.266   7.486   5.917  1.00 20.00    -0.031 C 
HETATM   12  C1  UNL     1     -34.614   6.692   6.937  1.00 20.00     0.007 C 
ENDBRANCH   9  11
ENDBRANCH   5   9
TORSDOF 3
