REMARK  3 active torsions:
REMARK  status: ('A' for Active; 'I' for Inactive)
REMARK    1  A    between atoms: C7_7  and  C9_9 
REMARK    2  A    between atoms: C8_8  and  C10_10 
REMARK    3  A    between atoms: C9_9  and  C10_10 
ROOT
HETATM    1  C1  UNL     1     -33.819   5.259   3.792  1.00 20.00     0.131 C 
HETATM    2  C2  UNL     1     -34.524   4.671   4.988  1.00 20.00     0.079 C 
HETATM    3  C3  UNL     1     -35.068   5.915   5.678  1.00 20.00     0.008 C 
HETATM    4  C4  UNL     1     -34.052   7.003   5.356  1.00 20.00     0.013 C 
HETATM    5  C7  UNL     1     -33.707   6.767   3.884  1.00 20.00     0.055 C 
HETATM    6  O11 UNL     1     -33.390   4.589   2.861  1.00 20.00    -0.298 OA
ENDROOT
BRANCH   5   7
HETATM    7  C9  UNL     1     -32.333   7.284   3.508  1.00 20.00     0.012 C 
BRANCH   7   8
HETATM    8  C10 UNL     1     -32.139   7.320   1.992  1.00 20.00     0.005 C 
BRANCH   8   9
HETATM    9  C8  UNL     1     -33.177   8.201   1.315  1.00 20.00    -0.014 A 
HETATM   10  C5  UNL     1     -32.910   9.667   1.110  1.00 20.00     0.005 A 
HETATM   11  C6  UNL     1     -32.930   8.734  -0.069  1.00 20.00     0.005 A 
ENDBRANCH   8   9
ENDBRANCH   7   8
ENDBRANCH   5   7
TORSDOF 3
