REMARK  3 active torsions:
REMARK  status: ('A' for Active; 'I' for Inactive)
REMARK    1  A    between atoms: C2_2  and  C11_11 
REMARK    2  A    between atoms: C3_3  and  C9_9 
REMARK    3  A    between atoms: C9_9  and  C11_11 
ROOT
HETATM    1  C1  UNL     1     -32.187   8.424   1.618  1.00 20.00    -0.111 C 
HETATM    2  C2  UNL     1     -32.049   8.127   2.773  1.00 20.00    -0.106 C 
HETATM    3  C10 UNL     1     -32.355   8.785   0.211  1.00 20.00     0.112 C 
ENDROOT
BRANCH   2   4
HETATM    4  C11 UNL     1     -31.866   7.768   4.180  1.00 20.00     0.114 C 
BRANCH   4   5
HETATM    5  C9  UNL     1     -33.171   7.248   4.783  1.00 20.00     0.058 C 
HETATM    6  C7  UNL     1     -33.702   6.048   3.994  1.00 20.00     0.021 C 
HETATM    7  C5  UNL     1     -34.940   5.419   4.634  1.00 20.00     0.001 C 
HETATM    8  C4  UNL     1     -34.707   5.081   6.102  1.00 20.00     0.000 C 
HETATM    9  C6  UNL     1     -34.250   6.302   6.891  1.00 20.00     0.001 C 
HETATM   10  C8  UNL     1     -33.005   6.941   6.274  1.00 20.00     0.021 C 
BRANCH   5  11
HETATM   11  C3  UNL     1     -34.116   8.435   4.608  1.00 20.00     0.182 C 
HETATM   12  O12 UNL     1     -33.779   9.488   5.217  1.00 20.00    -0.647 OA
HETATM   13  O13 UNL     1     -35.118   8.209   3.873  1.00 20.00    -0.647 OA
ENDBRANCH   5  11
ENDBRANCH   4   5
ENDBRANCH   2   4
TORSDOF 3
