REMARK  4 active torsions:
REMARK  status: ('A' for Active; 'I' for Inactive)
REMARK    1  A    between atoms: C1_1  and  C6_6 
REMARK    2  A    between atoms: C4_4  and  C6_6 
REMARK    3  A    between atoms: C5_5  and  C6_6 
REMARK    4  A    between atoms: C5_5  and  C7_7 
ROOT
HETATM    1  C6  UNL     1     -34.363   6.632   4.334  1.00 20.00     0.063 C 
ENDROOT
BRANCH   1   2
HETATM    2  C1  UNL     1     -34.497   5.283   5.037  1.00 20.00     0.127 C 
HETATM    3  C2  UNL     1     -34.734   5.313   6.525  1.00 20.00     0.091 C 
HETATM    4  O8  UNL     1     -34.419   4.217   4.426  1.00 20.00    -0.298 OA
ENDBRANCH   1   2
BRANCH   1   5
HETATM    5  C4  UNL     1     -34.155   6.415   2.826  1.00 20.00     0.008 C 
HETATM    6  C3  UNL     1     -32.889   5.629   2.509  1.00 20.00     0.006 C 
ENDBRANCH   1   5
BRANCH   1   7
HETATM    7  C5  UNL     1     -33.188   7.429   4.927  1.00 20.00     0.129 C 
BRANCH   7   8
HETATM    8  C7  UNL     1     -32.996   8.790   4.287  1.00 20.00     0.388 C 
HETATM    9  F9  UNL     1     -32.726   8.695   2.969  1.00 20.00    -0.171 F 
HETATM   10  F10 UNL     1     -31.989   9.471   4.874  1.00 20.00    -0.171 F 
HETATM   11  F11 UNL     1     -34.119   9.532   4.417  1.00 20.00    -0.171 F 
ENDBRANCH   7   8
ENDBRANCH   1   7
TORSDOF 4
