REMARK  3 active torsions:
REMARK  status: ('A' for Active; 'I' for Inactive)
REMARK    1  A    between atoms: C4_4  and  C6_6 
REMARK    2  A    between atoms: C5_5  and  O8_8 
REMARK    3  A    between atoms: C6_6  and  C7_7 
ROOT
HETATM    1  C1  UNL     1     -32.349   8.671   1.810  1.00 20.00     0.003 C 
HETATM    2  C2  UNL     1     -32.940   8.708   3.220  1.00 20.00     0.007 C 
HETATM    3  C3  UNL     1     -32.163   7.194   1.461  1.00 20.00     0.032 C 
HETATM    4  C4  UNL     1     -33.464   7.295   3.462  1.00 20.00     0.023 C 
HETATM    5  C5  UNL     1     -32.418   6.435   2.758  1.00 20.00     0.122 C 
ENDROOT
BRANCH   4   6
HETATM    6  C6  UNL     1     -33.625   6.960   4.937  1.00 20.00     0.124 C 
BRANCH   6   7
HETATM    7  C7  UNL     1     -34.534   5.780   5.135  1.00 20.00     0.388 C 
HETATM    8  F9  UNL     1     -35.769   6.008   4.640  1.00 20.00    -0.171 F 
HETATM    9  F10 UNL     1     -34.664   5.526   6.457  1.00 20.00    -0.171 F 
HETATM   10  F11 UNL     1     -34.047   4.665   4.551  1.00 20.00    -0.171 F 
ENDBRANCH   6   7
ENDBRANCH   4   6
BRANCH   5  11
HETATM   11  O8  UNL     1     -32.909   5.132   2.509  1.00 20.00    -0.395 OA
HETATM   12  H22 UNL     1     -32.235   4.667   1.984  1.00 20.00     0.210 HD
ENDBRANCH   5  11
TORSDOF 3
