REMARK  4 active torsions:
REMARK  status: ('A' for Active; 'I' for Inactive)
REMARK    1  A    between atoms: C6_6  and  C9_9 
REMARK    2  A    between atoms: C7_7  and  C10_10 
REMARK    3  A    between atoms: C8_8  and  O11_11 
REMARK    4  A    between atoms: C9_9  and  C10_10 
ROOT
HETATM    1  C1  UNL     1     -34.641   6.804   5.856  1.00 20.00     0.003 C 
HETATM    2  C2  UNL     1     -33.487   7.685   5.377  1.00 20.00     0.007 C 
HETATM    3  C5  UNL     1     -34.991   5.873   4.691  1.00 20.00     0.032 C 
HETATM    4  C7  UNL     1     -33.385   7.433   3.871  1.00 20.00     0.014 C 
HETATM    5  C8  UNL     1     -33.807   5.969   3.736  1.00 20.00     0.122 C 
ENDROOT
BRANCH   4   6
HETATM    6  C10 UNL     1     -32.006   7.750   3.314  1.00 20.00     0.007 C 
BRANCH   6   7
HETATM    7  C9  UNL     1     -31.946   7.525   1.805  1.00 20.00     0.005 C 
BRANCH   7   8
HETATM    8  C6  UNL     1     -32.964   8.385   1.073  1.00 20.00    -0.014 A 
HETATM    9  C3  UNL     1     -32.595   9.767   0.609  1.00 20.00     0.005 A 
HETATM   10  C4  UNL     1     -32.801   8.667  -0.395  1.00 20.00     0.005 A 
ENDBRANCH   7   8
ENDBRANCH   6   7
ENDBRANCH   4   6
BRANCH   5  11
HETATM   11  O11 UNL     1     -32.770   5.098   4.167  1.00 20.00    -0.395 OA
HETATM   12  H29 UNL     1     -33.140   4.200   4.165  1.00 20.00     0.210 HD
ENDBRANCH   5  11
TORSDOF 4
