REMARK  4 active torsions:
REMARK  status: ('A' for Active; 'I' for Inactive)
REMARK    1  A    between atoms: C1_1  and  C10_10 
REMARK    2  A    between atoms: C5_5  and  C8_8 
REMARK    3  A    between atoms: C8_8  and  C10_10 
REMARK    4  A    between atoms: C9_9  and  C10_10 
ROOT
HETATM    1  C10 UNL     1     -32.974   6.976   4.145  1.00 20.00     0.055 C 
ENDROOT
BRANCH   1   2
HETATM    2  C1  UNL     1     -33.518   5.597   3.776  1.00 20.00     0.127 C 
HETATM    3  C6  UNL     1     -34.468   4.957   4.755  1.00 20.00     0.091 C 
HETATM    4  O11 UNL     1     -33.200   5.026   2.733  1.00 20.00    -0.298 OA
ENDBRANCH   1   2
BRANCH   1   5
HETATM    5  C8  UNL     1     -32.008   7.468   3.055  1.00 20.00     0.016 C 
BRANCH   5   6
HETATM    6  C5  UNL     1     -32.668   7.595   1.697  1.00 20.00    -0.014 C 
HETATM    7  C3  UNL     1     -31.725   7.638   0.467  1.00 20.00     0.005 C 
HETATM    8  C2  UNL     1     -32.704   8.655  -0.155  1.00 20.00     0.001 C 
HETATM    9  C4  UNL     1     -33.132   9.016   1.282  1.00 20.00     0.005 C 
ENDBRANCH   5   6
ENDBRANCH   1   5
BRANCH   1  10
HETATM   10  C9  UNL     1     -34.136   7.967   4.321  1.00 20.00     0.007 C 
HETATM   11  C7  UNL     1     -33.629   9.350   4.718  1.00 20.00     0.006 C 
ENDBRANCH   1  10
TORSDOF 4
