REMARK  2 active torsions:
REMARK  status: ('A' for Active; 'I' for Inactive)
REMARK    1  A    between atoms: C4_4  and  C7_7 
REMARK    2  A    between atoms: C7_7  and  O8_8 
ROOT
HETATM    1  C1  UNL     1     -33.590   6.321   6.671  1.00 20.00     0.008 C 
HETATM    2  C2  UNL     1     -34.126   4.892   6.551  1.00 20.00     0.016 C 
HETATM    3  C3  UNL     1     -34.626   6.167   4.529  1.00 20.00     0.022 C 
HETATM    4  C4  UNL     1     -33.431   6.807   5.233  1.00 20.00     0.011 C 
HETATM    5  C5  UNL     1     -34.705   4.773   5.140  1.00 20.00     0.058 C 
HETATM    6 BR9  UNL     1     -33.639   3.520   4.080  1.00 20.00    -0.091 Br
ENDROOT
BRANCH   4   7
HETATM    7  C7  UNL     1     -33.407   8.322   5.113  1.00 20.00     0.171 C 
BRANCH   7   8
HETATM    8  O8  UNL     1     -33.245   8.670   3.749  1.00 20.00    -0.396 OA
HETATM    9  C6  UNL     1     -31.887   8.568   3.339  1.00 20.00     0.201 C 
ENDBRANCH   7   8
ENDBRANCH   4   7
TORSDOF 2
