REMARK  4 active torsions:
REMARK  status: ('A' for Active; 'I' for Inactive)
REMARK    1  A    between atoms: C6_6  and  C7_7 
REMARK    2  A    between atoms: C6_6  and  O10_10 
REMARK    3  A    between atoms: C7_7  and  C8_8 
REMARK    4  A    between atoms: C7_7  and  O9_9 
ROOT
HETATM    1  C7  UNL     1     -33.483   7.066   5.188  1.00 20.00     0.154 C 
ENDROOT
BRANCH   1   2
HETATM    2  C6  UNL     1     -33.315   8.411   4.450  1.00 20.00     0.146 C 
HETATM    3  C1  UNL     1     -32.492   9.423   5.245  1.00 20.00     0.042 C 
BRANCH   2   4
HETATM    4  O10 UNL     1     -32.678   8.232   3.189  1.00 20.00    -0.388 OA
HETATM    5  C5  UNL     1     -31.352   7.747   3.341  1.00 20.00     0.202 C 
ENDBRANCH   2   4
ENDBRANCH   1   2
BRANCH   1   6
HETATM    6  C8  UNL     1     -34.338   5.965   4.478  1.00 20.00    -0.023 C 
HETATM    7  C2  UNL     1     -34.403   4.724   5.399  1.00 20.00     0.017 C 
HETATM    8  C3  UNL     1     -35.777   6.457   4.241  1.00 20.00     0.017 C 
HETATM    9  C4  UNL     1     -33.740   5.510   3.133  1.00 20.00     0.017 C 
ENDBRANCH   1   6
BRANCH   1  10
HETATM   10  O9  UNL     1     -34.050   7.303   6.480  1.00 20.00    -0.392 OA
HETATM   11  H28 UNL     1     -33.430   7.882   6.946  1.00 20.00     0.210 HD
ENDBRANCH   1  10
TORSDOF 4
