REMARK  2 active torsions:
REMARK  status: ('A' for Active; 'I' for Inactive)
REMARK    1  A    between atoms: C7_7  and  C8_8 
REMARK    2  A    between atoms: C8_8  and  S9_9 
ROOT
HETATM    1  C1  UNL     1     -34.117   4.432   5.807  1.00 20.00     0.005 C 
HETATM    2  C2  UNL     1     -33.527   4.572   4.396  1.00 20.00     0.005 C 
HETATM    3  C3  UNL     1     -35.446   5.957   4.553  1.00 20.00     0.009 C 
HETATM    4  C4  UNL     1     -33.963   6.912   6.150  1.00 20.00     0.010 C 
HETATM    5  C5  UNL     1     -34.930   5.727   5.972  1.00 20.00    -0.014 C 
HETATM    6  C6  UNL     1     -34.043   5.950   3.942  1.00 20.00    -0.009 C 
HETATM    7  C7  UNL     1     -33.306   7.038   4.758  1.00 20.00    -0.001 C 
ENDROOT
BRANCH   7   8
HETATM    8  C8  UNL     1     -33.468   8.434   4.167  1.00 20.00     0.075 C 
BRANCH   8   9
HETATM    9  S9  UNL     1     -32.243   9.564   4.875  1.00 20.00    -0.182 SA
HETATM   10  H23 UNL     1     -32.630  10.648   4.188  1.00 20.00     0.101 HD
ENDBRANCH   8   9
ENDBRANCH   7   8
TORSDOF 2
