REMARK  3 active torsions:
REMARK  status: ('A' for Active; 'I' for Inactive)
REMARK    1  A    between atoms: C7_7  and  C9_9 
REMARK    2  A    between atoms: C9_9  and  N10_10 
REMARK    3  A    between atoms: N10_10  and  O11_11 
ROOT
HETATM    1  C1  UNL     1     -33.827   4.270   5.209  1.00 20.00     0.005 C 
HETATM    2  C2  UNL     1     -33.993   4.993   6.554  1.00 20.00     0.005 C 
HETATM    3  C3  UNL     1     -35.313   6.108   4.929  1.00 20.00     0.010 C 
HETATM    4  C4  UNL     1     -33.098   6.408   4.117  1.00 20.00     0.011 C 
HETATM    5  C5  UNL     1     -34.215   5.351   4.185  1.00 20.00    -0.014 C 
HETATM    6  C6  UNL     1     -34.419   6.412   6.133  1.00 20.00    -0.009 C 
HETATM    7  C7  UNL     1     -33.200   7.113   5.487  1.00 20.00     0.005 C 
ENDROOT
BRANCH   7   8
HETATM    8  C9  UNL     1     -33.388   8.619   5.349  1.00 20.00     0.122 C 
BRANCH   8   9
HETATM    9  N10 UNL     1     -32.132   9.243   5.095  1.00 20.00    -0.206 NA
HETATM   10  H28 UNL     1     -31.383   8.817   5.659  1.00 20.00     0.153 HD
BRANCH   9  11
HETATM   11  O11 UNL     1     -31.727   8.793   3.762  1.00 20.00    -0.311 OA
HETATM   12  C8  UNL     1     -32.344   9.636   2.799  1.00 20.00     0.229 C 
ENDBRANCH   9  11
ENDBRANCH   8   9
ENDBRANCH   7   8
TORSDOF 3
