REMARK  3 active torsions:
REMARK  status: ('A' for Active; 'I' for Inactive)
REMARK    1  A    between atoms: C3_3  and  C5_5 
REMARK    2  A    between atoms: C6_6  and  C8_8 
REMARK    3  A    between atoms: C8_8  and  C9_9 
ROOT
HETATM    1  C1  UNL     1     -33.669   6.921   4.536  1.00 20.00     0.026 A 
HETATM    2  C2  UNL     1     -33.875   4.717   3.828  1.00 20.00     0.061 A 
HETATM    3  C3  UNL     1     -33.428   5.977   3.496  1.00 20.00    -0.029 A 
HETATM    4  C4  UNL     1     -34.292   6.348   5.622  1.00 20.00    -0.021 A 
HETATM    5  C7  UNL     1     -34.708   6.988   6.889  1.00 20.00     0.056 C 
HETATM    6  S10 UNL     1     -34.583   4.677   5.387  1.00 20.00    -0.106 SA
ENDROOT
BRANCH   3   7
HETATM    7  C5  UNL     1     -32.780   6.281   2.210  1.00 20.00     0.008 C 
HETATM    8  C6  UNL     1     -32.329   7.490   1.840  1.00 20.00    -0.025 C 
BRANCH   8   9
HETATM    9  C8  UNL     1     -31.681   7.758   0.510  1.00 20.00     0.042 C 
BRANCH   9  10
HETATM   10  C9  UNL     1     -32.486   8.725  -0.353  1.00 20.00     0.118 C 
HETATM   11 CL11 UNL     1     -32.667  10.313   0.434  1.00 20.00    -0.130 Cl
ENDBRANCH   9  10
ENDBRANCH   8   9
ENDBRANCH   3   7
TORSDOF 3
