REMARK  2 active torsions:
REMARK  status: ('A' for Active; 'I' for Inactive)
REMARK    1  A    between atoms: C7_7  and  C8_8 
REMARK    2  A    between atoms: C8_8  and  S9_9 
ROOT
HETATM    1  C1  UNL     1     -33.853   4.438   5.052  1.00 20.00     0.005 C 
HETATM    2  C2  UNL     1     -34.386   5.304   6.203  1.00 20.00     0.005 C 
HETATM    3  C3  UNL     1     -35.719   5.703   4.286  1.00 20.00     0.009 C 
HETATM    4  C4  UNL     1     -33.556   6.466   3.618  1.00 20.00     0.010 C 
HETATM    5  C5  UNL     1     -34.370   5.171   3.802  1.00 20.00    -0.014 C 
HETATM    6  C6  UNL     1     -35.101   6.451   5.471  1.00 20.00    -0.009 C 
HETATM    7  C7  UNL     1     -34.100   7.376   4.739  1.00 20.00    -0.001 C 
ENDROOT
BRANCH   7   8
HETATM    8  C8  UNL     1     -33.011   7.989   5.605  1.00 20.00     0.075 C 
BRANCH   8   9
HETATM    9  S9  UNL     1     -32.280   9.428   4.780  1.00 20.00    -0.182 SA
HETATM   10  H23 UNL     1     -31.404   9.722   5.750  1.00 20.00     0.101 HD
ENDBRANCH   8   9
ENDBRANCH   7   8
TORSDOF 2
