REMARK  2 active torsions:
REMARK  status: ('A' for Active; 'I' for Inactive)
REMARK    1  A    between atoms: C3_3  and  C4_4 
REMARK    2  A    between atoms: C3_3  and  S9_9 
ROOT
HETATM    1  C1  UNL     1     -32.946   5.494   3.244  1.00 20.00     0.083 C 
HETATM    2  C3  UNL     1     -32.998   6.312   4.464  1.00 20.00     0.261 C 
HETATM    3  N5  UNL     1     -32.900   4.850   2.279  1.00 20.00    -0.196 NA
ENDROOT
BRANCH   2   4
HETATM    4  C4  UNL     1     -34.217   5.966   5.302  1.00 20.00     0.412 C 
HETATM    5  F6  UNL     1     -34.271   6.717   6.426  1.00 20.00    -0.169 F 
HETATM    6  F7  UNL     1     -35.358   6.205   4.614  1.00 20.00    -0.169 F 
HETATM    7  F8  UNL     1     -34.231   4.667   5.673  1.00 20.00    -0.169 F 
ENDBRANCH   2   4
BRANCH   2   8
HETATM    8  S9  UNL     1     -33.011   8.091   4.053  1.00 20.00    -0.145 SA
HETATM    9  C2  UNL     1     -32.461   8.724   5.653  1.00 20.00     0.091 C 
ENDBRANCH   2   8
TORSDOF 2
