REMARK  2 active torsions:
REMARK  status: ('A' for Active; 'I' for Inactive)
REMARK    1  A    between atoms: C4_4  and  C7_7 
REMARK    2  A    between atoms: C7_7  and  O8_8 
ROOT
HETATM    1  C1  UNL     1     -32.641   8.243   4.855  1.00 20.00     0.008 C 
HETATM    2  C2  UNL     1     -33.148   7.067   5.676  1.00 20.00     0.020 C 
HETATM    3  C3  UNL     1     -33.280   6.401   3.368  1.00 20.00     0.027 C 
HETATM    4  C4  UNL     1     -32.376   7.644   3.467  1.00 20.00     0.011 C 
HETATM    5  C5  UNL     1     -34.056   6.358   4.683  1.00 20.00     0.082 C 
HETATM    6 CL9  UNL     1     -34.446   4.708   5.189  1.00 20.00    -0.125 Cl
ENDROOT
BRANCH   4   7
HETATM    7  C7  UNL     1     -32.616   8.646   2.348  1.00 20.00     0.171 C 
BRANCH   7   8
HETATM    8  O8  UNL     1     -32.340   8.017   1.108  1.00 20.00    -0.396 OA
HETATM    9  C6  UNL     1     -32.545   8.901   0.012  1.00 20.00     0.201 C 
ENDBRANCH   7   8
ENDBRANCH   4   7
TORSDOF 2
