REMARK  4 active torsions:
REMARK  status: ('A' for Active; 'I' for Inactive)
REMARK    1  A    between atoms: C1_1  and  C9_9 
REMARK    2  A    between atoms: C8_8  and  C10_10 
REMARK    3  A    between atoms: C9_9  and  C11_11 
REMARK    4  A    between atoms: C10_10  and  C11_11 
ROOT
HETATM    1  C2  UNL     1     -34.026   4.409   6.022  1.00 20.00     0.005 C 
HETATM    2  C3  UNL     1     -33.731   4.416   4.515  1.00 20.00     0.005 C 
HETATM    3  C4  UNL     1     -35.547   5.883   4.936  1.00 20.00     0.009 C 
HETATM    4  C5  UNL     1     -33.751   6.901   6.118  1.00 20.00     0.009 C 
HETATM    5  C6  UNL     1     -34.760   5.744   6.237  1.00 20.00    -0.014 C 
HETATM    6  C7  UNL     1     -34.298   5.774   4.059  1.00 20.00    -0.010 C 
HETATM    7  C8  UNL     1     -33.387   6.893   4.617  1.00 20.00    -0.010 C 
ENDROOT
BRANCH   7   8
HETATM    8  C10 UNL     1     -33.634   8.243   3.955  1.00 20.00     0.005 C 
BRANCH   8   9
HETATM    9  C11 UNL     1     -33.236   8.218   2.479  1.00 20.00     0.007 C 
BRANCH   9  10
HETATM   10  C9  UNL     1     -33.473   9.560   1.791  1.00 20.00     0.069 C 
BRANCH  10  11
HETATM   11  C1  UNL     1     -33.086   9.579   0.331  1.00 20.00     0.231 C 
HETATM   12  O12 UNL     1     -32.562   8.647  -0.269  1.00 20.00    -0.307 OA
ENDBRANCH  10  11
ENDBRANCH   9  10
ENDBRANCH   8   9
ENDBRANCH   7   8
TORSDOF 4
