REMARK  4 active torsions:
REMARK  status: ('A' for Active; 'I' for Inactive)
REMARK    1  A    between atoms: C6_6  and  C7_7 
REMARK    2  A    between atoms: C6_6  and  O10_10 
REMARK    3  A    between atoms: C7_7  and  C8_8 
REMARK    4  A    between atoms: C7_7  and  O9_9 
ROOT
HETATM    1  C7  UNL     1     -33.201   6.219   4.087  1.00 20.00     0.154 C 
ENDROOT
BRANCH   1   2
HETATM    2  C6  UNL     1     -32.914   7.691   3.723  1.00 20.00     0.146 C 
HETATM    3  C1  UNL     1     -32.369   7.855   2.306  1.00 20.00     0.042 C 
BRANCH   2   4
HETATM    4  O10 UNL     1     -31.970   8.269   4.618  1.00 20.00    -0.388 OA
HETATM    5  C5  UNL     1     -32.098   9.683   4.667  1.00 20.00     0.202 C 
ENDBRANCH   2   4
ENDBRANCH   1   2
BRANCH   1   6
HETATM    6  C8  UNL     1     -34.198   5.965   5.266  1.00 20.00    -0.023 C 
HETATM    7  C2  UNL     1     -33.614   6.604   6.548  1.00 20.00     0.017 C 
HETATM    8  C3  UNL     1     -35.559   6.626   4.984  1.00 20.00     0.017 C 
HETATM    9  C4  UNL     1     -34.421   4.470   5.557  1.00 20.00     0.017 C 
ENDBRANCH   1   6
BRANCH   1  10
HETATM   10  O9  UNL     1     -33.676   5.530   2.926  1.00 20.00    -0.392 OA
HETATM   11  H28 UNL     1     -34.485   5.986   2.653  1.00 20.00     0.210 HD
ENDBRANCH   1  10
TORSDOF 4
