REMARK  3 active torsions:
REMARK  status: ('A' for Active; 'I' for Inactive)
REMARK    1  A    between atoms: C1_1  and  C10_10 
REMARK    2  A    between atoms: C8_8  and  C11_11 
REMARK    3  A    between atoms: C10_10  and  C11_11 
ROOT
HETATM    1  C2  UNL     1     -34.151   5.183   6.418  1.00 20.00     0.005 C 
HETATM    2  C3  UNL     1     -33.586   6.540   6.864  1.00 20.00     0.005 C 
HETATM    3  C4  UNL     1     -35.336   6.924   5.309  1.00 20.00     0.009 C 
HETATM    4  C5  UNL     1     -33.715   5.758   4.016  1.00 20.00     0.009 C 
HETATM    5  C6  UNL     1     -34.811   5.510   5.068  1.00 20.00    -0.014 C 
HETATM    6  C7  UNL     1     -33.959   7.470   5.694  1.00 20.00    -0.010 C 
HETATM    7  C8  UNL     1     -33.085   7.091   4.475  1.00 20.00    -0.010 C 
ENDROOT
BRANCH   7   8
HETATM    8  C11 UNL     1     -33.107   8.150   3.378  1.00 20.00     0.012 C 
BRANCH   8   9
HETATM    9  C10 UNL     1     -32.370   7.674   2.132  1.00 20.00     0.078 C 
BRANCH   9  10
HETATM   10  C1  UNL     1     -32.401   8.701   1.014  1.00 20.00     0.123 C 
HETATM   11  C9  UNL     1     -33.105   9.997   1.324  1.00 20.00     0.091 C 
HETATM   12  O12 UNL     1     -31.888   8.505  -0.086  1.00 20.00    -0.298 OA
ENDBRANCH   9  10
ENDBRANCH   8   9
ENDBRANCH   7   8
TORSDOF 3
