REMARK  4 active torsions:
REMARK  status: ('A' for Active; 'I' for Inactive)
REMARK    1  A    between atoms: C2_2  and  C7_7 
REMARK    2  A    between atoms: C2_2  and  O11_11 
REMARK    3  A    between atoms: C6_6  and  C7_7 
REMARK    4  A    between atoms: C6_6  and  C8_8 
ROOT
HETATM    1  C1  UNL     1     -33.898   8.938   5.633  1.00 20.00     0.074 C 
HETATM    2  C7  UNL     1     -33.738   7.966   4.536  1.00 20.00     0.192 C 
HETATM    3  N9  UNL     1     -34.026   9.705   6.495  1.00 20.00    -0.196 NA
ENDROOT
BRANCH   2   4
HETATM    4  C2  UNL     1     -34.376   6.637   4.913  1.00 20.00     0.276 C 
HETATM    5  O10 UNL     1     -35.319   6.118   4.329  1.00 20.00    -0.264 OA
BRANCH   4   6
HETATM    6  O11 UNL     1     -33.729   6.116   5.999  1.00 20.00    -0.325 OA
HETATM    7  C5  UNL     1     -34.222   4.855   6.464  1.00 20.00     0.213 C 
ENDBRANCH   4   6
ENDBRANCH   2   4
BRANCH   2   8
HETATM    8  C6  UNL     1     -32.254   7.735   4.203  1.00 20.00     0.033 C 
BRANCH   8   9
HETATM    9  C8  UNL     1     -31.972   7.196   2.784  1.00 20.00    -0.021 C 
HETATM   10  C3  UNL     1     -32.498   8.188   1.743  1.00 20.00     0.009 C 
HETATM   11  C4  UNL     1     -32.598   5.821   2.547  1.00 20.00     0.009 C 
ENDBRANCH   8   9
ENDBRANCH   2   8
TORSDOF 4
