REMARK  2 active torsions:
REMARK  status: ('A' for Active; 'I' for Inactive)
REMARK    1  A    between atoms: C2_2  and  C8_8 
REMARK    2  A    between atoms: C2_2  and  C9_9 
ROOT
HETATM    1  C1  UNL     1     -34.000   4.321   4.452  1.00 20.00     0.127 C 
HETATM    2  C3  UNL     1     -34.721   4.572   5.749  1.00 20.00     0.079 C 
HETATM    3  C4  UNL     1     -33.897   5.560   3.599  1.00 20.00     0.090 C 
HETATM    4  C5  UNL     1     -35.384   5.919   5.488  1.00 20.00     0.020 C 
HETATM    5  C8  UNL     1     -34.466   6.644   4.511  1.00 20.00     0.063 C 
HETATM    6  O10 UNL     1     -33.533   3.235   4.133  1.00 20.00    -0.298 OA
ENDROOT
BRANCH   5   7
HETATM    7  C2  UNL     1     -33.375   7.375   5.236  1.00 20.00     0.135 C 
HETATM    8  O11 UNL     1     -33.302   7.371   6.464  1.00 20.00    -0.297 OA
BRANCH   7   9
HETATM    9  C9  UNL     1     -32.377   8.116   4.388  1.00 20.00     0.056 A 
HETATM   10  C6  UNL     1     -32.889   9.120   3.418  1.00 20.00     0.013 A 
HETATM   11  C7  UNL     1     -32.170   9.564   4.656  1.00 20.00     0.013 A 
ENDBRANCH   7   9
ENDBRANCH   5   7
TORSDOF 2
