REMARK  3 active torsions:
REMARK  status: ('A' for Active; 'I' for Inactive)
REMARK    1  A    between atoms: C7_7  and  C9_9 
REMARK    2  A    between atoms: C8_8  and  O11_11 
REMARK    3  A    between atoms: C9_9  and  O11_11 
ROOT
HETATM    1  C1  UNL     1     -34.267   5.277   5.140  1.00 20.00     0.129 C 
HETATM    2  C2  UNL     1     -33.855   5.315   6.588  1.00 20.00     0.081 C 
HETATM    3  C3  UNL     1     -33.876   6.530   4.400  1.00 20.00     0.110 C 
HETATM    4  C4  UNL     1     -33.527   6.789   6.773  1.00 20.00     0.040 C 
HETATM    5  C8  UNL     1     -32.988   7.236   5.418  1.00 20.00     0.128 C 
HETATM    6  O10 UNL     1     -34.845   4.331   4.621  1.00 20.00    -0.298 OA
ENDROOT
BRANCH   5   7
HETATM    7  O11 UNL     1     -33.086   8.642   5.275  1.00 20.00    -0.385 OA
BRANCH   7   8
HETATM    8  C9  UNL     1     -32.284   9.111   4.201  1.00 20.00     0.172 C 
BRANCH   8   9
HETATM    9  C7  UNL     1     -33.018   8.875   2.898  1.00 20.00     0.009 A 
HETATM   10  C5  UNL     1     -32.397   9.291   1.593  1.00 20.00     0.007 A 
HETATM   11  C6  UNL     1     -32.528   7.832   1.932  1.00 20.00     0.007 A 
ENDBRANCH   8   9
ENDBRANCH   7   8
ENDBRANCH   5   7
TORSDOF 3
