REMARK  0 active torsions:
REMARK  status: ('A' for Active; 'I' for Inactive)
ROOT
HETATM    1  C1  UNL     1     -32.816   8.722   5.318  1.00 20.00     0.009 A 
HETATM    2  C2  UNL     1     -32.261   8.974   4.063  1.00 20.00     0.019 A 
HETATM    3  C3  UNL     1     -33.088   6.846   3.223  1.00 20.00     0.028 A 
HETATM    4  C4  UNL     1     -33.488   7.526   5.512  1.00 20.00    -0.050 A 
HETATM    5  C5  UNL     1     -33.619   6.589   4.478  1.00 20.00    -0.032 A 
HETATM    6  C6  UNL     1     -32.398   8.044   3.022  1.00 20.00     0.011 A 
HETATM    7  C7  UNL     1     -34.200   7.070   6.748  1.00 20.00     0.045 C 
HETATM    8  C8  UNL     1     -34.439   5.419   4.935  1.00 20.00     0.119 C 
HETATM    9  C9  UNL     1     -34.341   5.558   6.474  1.00 20.00     0.009 C 
HETATM   10  C10 UNL     1     -35.528   4.946   7.203  1.00 20.00     0.012 C 
HETATM   11 CL11 UNL     1     -33.809   3.859   4.386  1.00 20.00    -0.119 Cl
HETATM   12 BR12 UNL     1     -31.632   8.411   1.332  1.00 20.00    -0.051 Br
ENDROOT
TORSDOF 0
