REMARK  0 active torsions:
REMARK  status: ('A' for Active; 'I' for Inactive)
ROOT
HETATM    1  C1  UNL     1     -33.252   5.174   2.707  1.00 20.00     0.009 A 
HETATM    2  C2  UNL     1     -32.596   6.234   2.080  1.00 20.00     0.024 A 
HETATM    3  C3  UNL     1     -33.374   7.782   3.788  1.00 20.00     0.033 A 
HETATM    4  C4  UNL     1     -33.948   5.432   3.877  1.00 20.00    -0.050 A 
HETATM    5  C5  UNL     1     -34.006   6.723   4.422  1.00 20.00    -0.031 A 
HETATM    6  C6  UNL     1     -32.658   7.529   2.616  1.00 20.00     0.034 A 
HETATM    7  C7  UNL     1     -34.759   4.468   4.689  1.00 20.00     0.045 C 
HETATM    8  C8  UNL     1     -34.875   6.728   5.646  1.00 20.00     0.119 C 
HETATM    9  C9  UNL     1     -34.887   5.222   6.035  1.00 20.00     0.009 C 
HETATM   10  C10 UNL     1     -33.767   4.783   6.991  1.00 20.00     0.012 C 
HETATM   11 CL11 UNL     1     -31.835   8.819   1.824  1.00 20.00    -0.084 Cl
HETATM   12 CL12 UNL     1     -34.318   7.817   6.919  1.00 20.00    -0.119 Cl
ENDROOT
TORSDOF 0
