REMARK  1 active torsions:
REMARK  status: ('A' for Active; 'I' for Inactive)
REMARK    1  A    between atoms: C2_2  and  C3_3 
ROOT
HETATM    1  C1  UNL     1     -33.747   7.340   4.818  1.00 20.00    -0.034 C 
HETATM    2  C2  UNL     1     -32.706   7.918   4.202  1.00 20.00     0.194 C 
HETATM    3  C4  UNL     1     -34.111   7.666   6.244  1.00 20.00     0.038 C 
HETATM    4  C5  UNL     1     -34.600   6.296   4.155  1.00 20.00     0.042 C 
HETATM    5  C6  UNL     1     -34.901   6.531   6.911  1.00 20.00     0.009 C 
HETATM    6  C7  UNL     1     -34.596   4.959   4.932  1.00 20.00    -0.011 C 
HETATM    7  C8  UNL     1     -34.422   5.135   6.473  1.00 20.00    -0.014 C 
HETATM    8  C9  UNL     1     -33.619   3.962   4.303  1.00 20.00     0.010 C 
HETATM    9  C10 UNL     1     -33.006   4.867   7.001  1.00 20.00     0.010 C 
HETATM   10  F13 UNL     1     -31.974   8.816   4.897  1.00 20.00    -0.199 F 
ENDROOT
BRANCH   2  11
HETATM   11  C3  UNL     1     -32.321   7.601   2.753  1.00 20.00     0.239 C 
HETATM   12  O11 UNL     1     -32.883   8.344   1.896  1.00 20.00    -0.642 OA
HETATM   13  O12 UNL     1     -31.505   6.654   2.573  1.00 20.00    -0.642 OA
ENDBRANCH   2  11
TORSDOF 1
