REMARK  0 active torsions:
REMARK  status: ('A' for Active; 'I' for Inactive)
ROOT
HETATM    1  C1  UNL     1     -33.208   8.956   3.750  1.00 20.00     0.009 A 
HETATM    2  C2  UNL     1     -32.703   9.074   2.454  1.00 20.00     0.024 A 
HETATM    3  C3  UNL     1     -32.614   6.654   2.224  1.00 20.00     0.033 A 
HETATM    4  C4  UNL     1     -33.423   7.686   4.259  1.00 20.00    -0.050 A 
HETATM    5  C5  UNL     1     -33.137   6.541   3.503  1.00 20.00    -0.031 A 
HETATM    6  C6  UNL     1     -32.406   7.931   1.697  1.00 20.00     0.034 A 
HETATM    7  C7  UNL     1     -33.906   7.322   5.629  1.00 20.00     0.045 C 
HETATM    8  C8  UNL     1     -33.402   5.304   4.309  1.00 20.00     0.119 C 
HETATM    9  C9  UNL     1     -34.332   5.854   5.418  1.00 20.00     0.009 C 
HETATM   10  C10 UNL     1     -34.270   5.042   6.704  1.00 20.00     0.012 C 
HETATM   11 CL11 UNL     1     -31.787   8.104   0.099  1.00 20.00    -0.084 Cl
HETATM   12 CL12 UNL     1     -34.190   4.016   3.387  1.00 20.00    -0.119 Cl
ENDROOT
TORSDOF 0
