REMARK  0 active torsions:
REMARK  status: ('A' for Active; 'I' for Inactive)
ROOT
HETATM    1  C1  UNL     1     -32.485   8.980   4.262  1.00 20.00     0.009 A 
HETATM    2  C2  UNL     1     -32.092   8.959   2.923  1.00 20.00     0.024 A 
HETATM    3  C3  UNL     1     -32.994   6.716   2.644  1.00 20.00     0.032 A 
HETATM    4  C4  UNL     1     -33.119   7.862   4.778  1.00 20.00    -0.050 A 
HETATM    5  C5  UNL     1     -33.381   6.743   3.975  1.00 20.00    -0.035 A 
HETATM    6  C6  UNL     1     -32.342   7.835   2.120  1.00 20.00     0.034 A 
HETATM    7  C7  UNL     1     -33.645   7.662   6.166  1.00 20.00     0.045 C 
HETATM    8  C8  UNL     1     -34.110   5.688   4.750  1.00 20.00     0.095 C 
HETATM    9  C9  UNL     1     -33.803   6.125   6.201  1.00 20.00     0.005 C 
HETATM   10  C10 UNL     1     -34.761   5.651   7.285  1.00 20.00     0.011 C 
HETATM   11 CL11 UNL     1     -31.848   7.840   0.470  1.00 20.00    -0.084 Cl
HETATM   12 BR12 UNL     1     -35.992   5.779   4.277  1.00 20.00    -0.086 Br
ENDROOT
TORSDOF 0
