REMARK  2 active torsions:
REMARK  status: ('A' for Active; 'I' for Inactive)
REMARK    1  A    between atoms: C6_6  and  N11_11 
REMARK    2  A    between atoms: C10_10  and  N11_11 
ROOT
HETATM    1  C1  UNL     1     -32.554   8.577   0.283  1.00 20.00     0.013 C 
HETATM    2  C2  UNL     1     -32.334   7.940   1.277  1.00 20.00    -0.087 C 
HETATM    3  C10 UNL     1     -32.063   7.160   2.487  1.00 20.00     0.362 C 
ENDROOT
BRANCH   3   4
HETATM    4  N11 UNL     1     -32.752   7.734   3.635  1.00 20.00     0.099 N 
HETATM    5  H28 UNL     1     -32.217   8.531   3.982  1.00 20.00     0.317 HD
BRANCH   4   6
HETATM    6  C6  UNL     1     -32.900   6.754   4.699  1.00 20.00     0.229 C 
HETATM    7  C4  UNL     1     -33.167   7.402   6.058  1.00 20.00     0.036 C 
HETATM    8  C3  UNL     1     -33.833   6.308   6.896  1.00 20.00     0.003 C 
HETATM    9  C5  UNL     1     -34.139   5.152   5.940  1.00 20.00     0.011 C 
HETATM   10  C7  UNL     1     -34.065   5.754   4.525  1.00 20.00    -0.017 C 
HETATM   11  C8  UNL     1     -35.403   6.428   4.162  1.00 20.00     0.017 C 
HETATM   12  C9  UNL     1     -33.752   4.681   3.477  1.00 20.00     0.017 C 
ENDBRANCH   4   6
ENDBRANCH   3   4
TORSDOF 2
