REMARK  0 active torsions:
REMARK  status: ('A' for Active; 'I' for Inactive)
ROOT
HETATM    1  C1  UNL     1     -33.256   5.777   3.355  1.00 20.00     0.086 C 
HETATM    2  C2  UNL     1     -35.119   5.663   5.805  1.00 20.00     0.003 C 
HETATM    3  C3  UNL     1     -34.288   6.444   6.815  1.00 20.00     0.001 C 
HETATM    4  C4  UNL     1     -35.330   6.440   4.503  1.00 20.00     0.042 C 
HETATM    5  C5  UNL     1     -32.970   6.935   6.218  1.00 20.00     0.012 C 
HETATM    6  C6  UNL     1     -34.007   6.938   3.885  1.00 20.00     0.132 C 
HETATM    7  C7  UNL     1     -33.153   7.765   4.916  1.00 20.00    -0.013 C 
HETATM    8  C8  UNL     1     -31.745   8.113   4.371  1.00 20.00     0.018 C 
HETATM    9  C9  UNL     1     -33.828   9.113   5.281  1.00 20.00     0.018 C 
HETATM   10  N10 UNL     1     -32.667   4.867   2.940  1.00 20.00    -0.195 NA
HETATM   11 CL11 UNL     1     -34.413   7.910   2.416  1.00 20.00    -0.102 Cl
ENDROOT
TORSDOF 0
