REMARK  0 active torsions:
REMARK  status: ('A' for Active; 'I' for Inactive)
ROOT
HETATM    1  C1  UNL     1     -32.246   9.019   4.788  1.00 20.00     0.088 C 
HETATM    2  C2  UNL     1     -33.619   7.056   4.534  1.00 20.00    -0.062 C 
HETATM    3  C3  UNL     1     -32.693   7.899   4.047  1.00 20.00     0.097 C 
HETATM    4  C4  UNL     1     -34.201   7.308   5.911  1.00 20.00     0.036 C 
HETATM    5  C5  UNL     1     -34.068   6.079   6.805  1.00 20.00     0.004 C 
HETATM    6  C6  UNL     1     -34.662   4.837   6.148  1.00 20.00     0.001 C 
HETATM    7  C7  UNL     1     -34.051   4.591   4.768  1.00 20.00     0.013 C 
HETATM    8  C8  UNL     1     -34.143   5.808   3.808  1.00 20.00    -0.024 C 
HETATM    9  C9  UNL     1     -33.346   5.447   2.533  1.00 20.00     0.019 C 
HETATM   10  C10 UNL     1     -35.606   6.042   3.374  1.00 20.00     0.019 C 
HETATM   11  N11 UNL     1     -31.874   9.939   5.389  1.00 20.00    -0.192 NA
ENDROOT
TORSDOF 0
