REMARK  3 active torsions:
REMARK  status: ('A' for Active; 'I' for Inactive)
REMARK    1  A    between atoms: C1_1  and  C6_6 
REMARK    2  A    between atoms: C2_2  and  C7_7 
REMARK    3  A    between atoms: C5_5  and  C6_6 
ROOT
HETATM    1  C3  UNL     1     -34.500   6.774   5.826  1.00 20.00     0.124 A 
HETATM    2  C4  UNL     1     -35.004   5.502   5.998  1.00 20.00     0.070 A 
HETATM    3  C5  UNL     1     -33.405   5.765   4.215  1.00 20.00     0.085 A 
HETATM    4  N8  UNL     1     -33.582   6.927   4.804  1.00 20.00    -0.257 NA
HETATM    5  S9  UNL     1     -34.310   4.446   4.838  1.00 20.00    -0.084 SA
ENDROOT
BRANCH   3   6
HETATM    6  C6  UNL     1     -32.476   5.531   3.053  1.00 20.00     0.161 C 
BRANCH   6   7
HETATM    7  C1  UNL     1     -32.379   6.710   2.183  1.00 20.00    -0.099 C 
HETATM    8  C2  UNL     1     -32.302   7.677   1.474  1.00 20.00    -0.091 C 
BRANCH   8   9
HETATM    9  C7  UNL     1     -32.209   8.852   0.612  1.00 20.00     0.208 C 
HETATM   10 CL10 UNL     1     -33.002  10.219   1.419  1.00 20.00    -0.117 Cl
ENDBRANCH   8   9
ENDBRANCH   6   7
ENDBRANCH   3   6
TORSDOF 3
