REMARK  0 active torsions:
REMARK  status: ('A' for Active; 'I' for Inactive)
ROOT
HETATM    1  C1  UNL     1     -33.403   6.724   4.661  1.00 20.00    -0.081 C 
HETATM    2  C2  UNL     1     -33.542   7.743   5.519  1.00 20.00     0.015 C 
HETATM    3  C3  UNL     1     -32.409   6.731   3.530  1.00 20.00     0.034 C 
HETATM    4  C4  UNL     1     -32.887   5.599   2.634  1.00 20.00     0.005 C 
HETATM    5  C5  UNL     1     -33.466   4.585   3.612  1.00 20.00     0.013 C 
HETATM    6  C6  UNL     1     -34.212   5.436   4.661  1.00 20.00    -0.025 C 
HETATM    7  C7  UNL     1     -35.658   5.703   4.213  1.00 20.00     0.019 C 
HETATM    8  C8  UNL     1     -34.216   4.722   6.018  1.00 20.00     0.019 C 
ENDROOT
TORSDOF 0
