REMARK  1 active torsions:
REMARK  status: ('A' for Active; 'I' for Inactive)
REMARK    1  A    between atoms: C1_1  and  C4_4 
ROOT
HETATM    1  C1  UNL     1     -32.846   7.023   2.231  1.00 20.00    -0.079 C 
HETATM    2  C2  UNL     1     -32.792   8.078   1.660  1.00 20.00    -0.106 C 
HETATM    3  C7  UNL     1     -32.727   9.363   0.965  1.00 20.00     0.112 C 
ENDROOT
BRANCH   1   4
HETATM    4  C4  UNL     1     -32.907   5.772   2.905  1.00 20.00     0.070 C 
HETATM    5  C3  UNL     1     -33.815   5.521   3.846  1.00 20.00    -0.017 C 
HETATM    6  C5  UNL     1     -34.136   4.340   4.720  1.00 20.00     0.306 C 
HETATM    7  C6  UNL     1     -34.944   6.300   4.463  1.00 20.00     0.306 C 
HETATM    8  N8  UNL     1     -34.967   5.263   5.506  1.00 20.00     0.091 N 
HETATM    9  H17 UNL     1     -35.894   4.912   5.741  1.00 20.00     0.316 HD
ENDBRANCH   1   4
TORSDOF 1
