REMARK  2 active torsions:
REMARK  status: ('A' for Active; 'I' for Inactive)
REMARK    1  A    between atoms: C6_6  and  N11_11 
REMARK    2  A    between atoms: C10_10  and  N11_11 
ROOT
HETATM    1  C1  UNL     1     -32.790   9.067  -0.030  1.00 20.00     0.013 C 
HETATM    2  C2  UNL     1     -32.562   8.398   0.941  1.00 20.00    -0.087 C 
HETATM    3  C10 UNL     1     -32.279   7.584   2.125  1.00 20.00     0.362 C 
ENDROOT
BRANCH   3   4
HETATM    4  N11 UNL     1     -33.496   6.948   2.615  1.00 20.00     0.099 N 
HETATM    5  H28 UNL     1     -33.693   6.123   2.047  1.00 20.00     0.317 HD
BRANCH   4   6
HETATM    6  C6  UNL     1     -33.353   6.551   4.007  1.00 20.00     0.229 C 
HETATM    7  C4  UNL     1     -34.371   5.487   4.419  1.00 20.00     0.036 C 
HETATM    8  C3  UNL     1     -34.468   5.598   5.942  1.00 20.00     0.003 C 
HETATM    9  C5  UNL     1     -33.693   6.858   6.338  1.00 20.00     0.011 C 
HETATM   10  C7  UNL     1     -33.550   7.680   5.043  1.00 20.00    -0.017 C 
HETATM   11  C8  UNL     1     -32.341   8.619   5.109  1.00 20.00     0.017 C 
HETATM   12  C9  UNL     1     -34.820   8.519   4.802  1.00 20.00     0.017 C 
ENDBRANCH   4   6
ENDBRANCH   3   4
TORSDOF 2
