REMARK  2 active torsions:
REMARK  status: ('A' for Active; 'I' for Inactive)
REMARK    1  A    between atoms: C3_3  and  C9_9 
REMARK    2  A    between atoms: C7_7  and  C9_9 
ROOT
HETATM    1  C4  UNL     1     -33.890   6.899   5.883  1.00 20.00     0.006 C 
HETATM    2  C5  UNL     1     -35.095   5.969   5.927  1.00 20.00     0.020 C 
HETATM    3  C6  UNL     1     -34.794   6.558   3.624  1.00 20.00     0.025 C 
HETATM    4  C7  UNL     1     -33.916   7.498   4.471  1.00 20.00    -0.007 C 
HETATM    5  C8  UNL     1     -35.148   5.376   4.525  1.00 20.00     0.082 C 
HETATM    6 CL12 UNL     1     -33.945   4.066   4.343  1.00 20.00    -0.125 Cl
ENDROOT
BRANCH   4   7
HETATM    7  C9  UNL     1     -32.518   7.681   3.895  1.00 20.00     0.071 C 
BRANCH   7   8
HETATM    8  C3  UNL     1     -32.557   8.263   2.507  1.00 20.00     0.074 A 
HETATM    9  N10 UNL     1     -32.040   7.687   1.444  1.00 20.00    -0.258 NA
HETATM   10  C1  UNL     1     -32.259   8.497   0.347  1.00 20.00     0.124 A 
HETATM   11  C2  UNL     1     -32.937   9.673   0.591  1.00 20.00     0.070 A 
HETATM   12  S11 UNL     1     -33.322   9.779   2.259  1.00 20.00    -0.085 SA
ENDBRANCH   7   8
ENDBRANCH   4   7
TORSDOF 2
