REMARK  0 active torsions:
REMARK  status: ('A' for Active; 'I' for Inactive)
ROOT
HETATM    1  C1  UNL     1     -34.367   6.990   6.752  1.00 20.00     0.035 C 
HETATM    2  C2  UNL     1     -34.098   5.656   6.034  1.00 20.00     0.014 C 
HETATM    3  C3  UNL     1     -34.110   8.038   5.715  1.00 20.00     0.152 A 
HETATM    4  C4  UNL     1     -34.141   7.402   4.372  1.00 20.00     0.158 A 
HETATM    5  C5  UNL     1     -34.428   5.925   4.540  1.00 20.00    -0.019 C 
HETATM    6  C6  UNL     1     -35.911   5.645   4.257  1.00 20.00     0.017 C 
HETATM    7  C7  UNL     1     -33.553   5.080   3.614  1.00 20.00     0.017 C 
HETATM    8  O8  UNL     1     -32.914   7.882   4.943  1.00 20.00    -0.375 OA
ENDROOT
TORSDOF 0
