REMARK  1 active torsions:
REMARK  status: ('A' for Active; 'I' for Inactive)
REMARK    1  A    between atoms: C4_4  and  C9_9 
ROOT
HETATM    1  C1  UNL     1     -33.311   4.970   2.901  1.00 20.00     0.001 C 
HETATM    2  C2  UNL     1     -32.902   6.391   3.290  1.00 20.00     0.007 C 
HETATM    3  C3  UNL     1     -33.990   4.366   4.129  1.00 20.00     0.009 C 
HETATM    4  C4  UNL     1     -33.265   6.540   4.772  1.00 20.00     0.011 C 
HETATM    5  C5  UNL     1     -34.452   5.569   4.971  1.00 20.00    -0.043 C 
HETATM    6  C6  UNL     1     -35.790   6.114   4.440  1.00 20.00     0.015 C 
HETATM    7  C7  UNL     1     -34.627   5.172   6.442  1.00 20.00     0.015 C 
ENDROOT
BRANCH   4   8
HETATM    8  C9  UNL     1     -33.508   7.990   5.169  1.00 20.00     0.083 C 
HETATM    9  C8  UNL     1     -33.344   8.196   6.667  1.00 20.00     0.027 C 
HETATM   10 CL10 UNL     1     -32.366   9.049   4.293  1.00 20.00    -0.125 Cl
ENDBRANCH   4   8
TORSDOF 1
