REMARK  1 active torsions:
REMARK  status: ('A' for Active; 'I' for Inactive)
REMARK    1  A    between atoms: C4_4  and  C9_9 
ROOT
HETATM    1  C1  UNL     1     -33.226   5.196   2.891  1.00 20.00     0.001 C 
HETATM    2  C2  UNL     1     -32.948   6.615   3.388  1.00 20.00     0.007 C 
HETATM    3  C3  UNL     1     -33.874   4.451   4.057  1.00 20.00     0.009 C 
HETATM    4  C4  UNL     1     -33.352   6.627   4.867  1.00 20.00     0.011 C 
HETATM    5  C5  UNL     1     -34.455   5.547   4.968  1.00 20.00    -0.043 C 
HETATM    6  C6  UNL     1     -35.824   6.013   4.441  1.00 20.00     0.015 C 
HETATM    7  C7  UNL     1     -34.624   5.033   6.402  1.00 20.00     0.015 C 
ENDROOT
BRANCH   4   8
HETATM    8  C9  UNL     1     -33.727   8.019   5.357  1.00 20.00     0.083 C 
HETATM    9  C8  UNL     1     -32.777   9.077   4.815  1.00 20.00     0.027 C 
HETATM   10 CL10 UNL     1     -33.703   8.051   7.143  1.00 20.00    -0.125 Cl
ENDBRANCH   4   8
TORSDOF 1
