REMARK  0 active torsions:
REMARK  status: ('A' for Active; 'I' for Inactive)
ROOT
HETATM    1  C1  UNL     1     -32.792   5.773   2.620  1.00 20.00     0.021 C 
HETATM    2  C2  UNL     1     -33.462   5.112   3.575  1.00 20.00     0.001 C 
HETATM    3  C3  UNL     1     -33.029   7.917   3.730  1.00 20.00     0.003 C 
HETATM    4  C4  UNL     1     -32.700   7.214   2.636  1.00 20.00     0.030 C 
HETATM    5  C5  UNL     1     -33.517   7.236   4.994  1.00 20.00     0.033 C 
HETATM    6  C6  UNL     1     -34.156   5.828   4.720  1.00 20.00     0.058 C 
HETATM    7  C7  UNL     1     -34.403   8.189   5.807  1.00 20.00     0.016 C 
HETATM    8  C8  UNL     1     -34.108   4.960   5.985  1.00 20.00     0.037 C 
HETATM    9 CL9  UNL     1     -32.094   8.004   1.228  1.00 20.00    -0.085 Cl
HETATM   10 CL10 UNL     1     -35.891   5.974   4.220  1.00 20.00    -0.115 Cl
ENDROOT
TORSDOF 0
