REMARK  2 active torsions:
REMARK  status: ('A' for Active; 'I' for Inactive)
REMARK    1  A    between atoms: C5_5  and  C10_10 
REMARK    2  A    between atoms: C5_5  and  O11_11 
ROOT
HETATM    1  C1  UNL     1     -34.139   5.399   6.850  1.00 20.00     0.004 C 
HETATM    2  C2  UNL     1     -34.077   4.654   5.515  1.00 20.00     0.012 C 
HETATM    3  C3  UNL     1     -34.020   6.893   6.532  1.00 20.00     0.039 C 
HETATM    4  C4  UNL     1     -34.369   5.713   4.433  1.00 20.00    -0.016 C 
HETATM    5  C5  UNL     1     -33.690   6.975   5.034  1.00 20.00     0.068 C 
HETATM    6  C6  UNL     1     -35.895   5.869   4.266  1.00 20.00     0.018 C 
HETATM    7  C7  UNL     1     -33.774   5.283   3.085  1.00 20.00     0.018 C 
ENDROOT
BRANCH   5   8
HETATM    8  C10 UNL     1     -34.118   8.307   4.426  1.00 20.00     0.012 C 
HETATM    9  C8  UNL     1     -34.089   9.413   5.479  1.00 20.00     0.012 C 
HETATM   10  C9  UNL     1     -33.223   8.670   3.243  1.00 20.00     0.012 C 
ENDBRANCH   5   8
BRANCH   5  11
HETATM   11  O11 UNL     1     -32.266   6.907   4.882  1.00 20.00    -0.389 OA
HETATM   12  H31 UNL     1     -31.997   6.059   5.262  1.00 20.00     0.210 HD
ENDBRANCH   5  11
TORSDOF 2
