REMARK  2 active torsions:
REMARK  status: ('A' for Active; 'I' for Inactive)
REMARK    1  A    between atoms: C5_5  and  C9_9 
REMARK    2  A    between atoms: C5_5  and  O10_10 
ROOT
HETATM    1  C1  UNL     1     -32.939   5.496   2.837  1.00 20.00     0.004 C 
HETATM    2  C2  UNL     1     -32.095   6.683   3.308  1.00 20.00     0.012 C 
HETATM    3  C3  UNL     1     -34.314   5.646   3.491  1.00 20.00     0.038 C 
HETATM    4  C4  UNL     1     -33.091   7.690   3.913  1.00 20.00    -0.017 C 
HETATM    5  C5  UNL     1     -34.159   6.752   4.545  1.00 20.00     0.064 C 
HETATM    6  C6  UNL     1     -33.683   8.577   2.795  1.00 20.00     0.018 C 
HETATM    7  C7  UNL     1     -32.395   8.616   4.920  1.00 20.00     0.018 C 
ENDROOT
BRANCH   5   8
HETATM    8  C9  UNL     1     -33.768   6.141   5.897  1.00 20.00     0.034 C 
HETATM    9  C8  UNL     1     -34.799   5.177   6.388  1.00 20.00     0.008 C 
ENDBRANCH   5   8
BRANCH   5  10
HETATM   10  O10 UNL     1     -35.409   7.411   4.718  1.00 20.00    -0.389 OA
HETATM   11  H28 UNL     1     -36.032   6.731   5.011  1.00 20.00     0.210 HD
ENDBRANCH   5  10
TORSDOF 2
