REMARK  0 active torsions:
REMARK  status: ('A' for Active; 'I' for Inactive)
ROOT
HETATM    1  C1  UNL     1     -32.924   8.158   5.351  1.00 20.00     0.098 C 
HETATM    2  C2  UNL     1     -34.018   6.264   6.452  1.00 20.00     0.160 A 
HETATM    3  C3  UNL     1     -33.609   6.928   5.376  1.00 20.00     0.063 A 
HETATM    4  C4  UNL     1     -34.026   6.100   4.222  1.00 20.00     0.225 A 
HETATM    5  N5  UNL     1     -32.360   9.172   5.330  1.00 20.00    -0.192 NA
HETATM    6  N6  UNL     1     -34.656   5.094   6.140  1.00 20.00    -0.166 NA
HETATM    7  N7  UNL     1     -34.692   4.945   4.884  1.00 20.00    -0.188 NA
ENDROOT
TORSDOF 0
