REMARK  1 active torsions:
REMARK  status: ('A' for Active; 'I' for Inactive)
REMARK    1  A    between atoms: C2_2  and  C5_5 
ROOT
HETATM    1  C1  UNL     1     -33.220   6.184   3.340  1.00 20.00     0.075 A 
HETATM    2  C2  UNL     1     -33.593   6.312   4.619  1.00 20.00     0.039 A 
HETATM    3  C3  UNL     1     -32.571   7.393   2.816  1.00 20.00     0.209 A 
HETATM    4  C4  UNL     1     -33.305   7.612   5.299  1.00 20.00     0.126 A 
HETATM    5  O6  UNL     1     -32.146   7.515   1.679  1.00 20.00    -0.281 OA
HETATM    6  S10 UNL     1     -32.488   8.640   4.044  1.00 20.00    -0.084 SA
ENDROOT
BRANCH   2   7
HETATM    7  C5  UNL     1     -34.276   5.238   5.399  1.00 20.00     0.414 C 
HETATM    8  F7  UNL     1     -34.535   5.642   6.661  1.00 20.00    -0.166 F 
HETATM    9  F8  UNL     1     -35.450   4.892   4.830  1.00 20.00    -0.166 F 
HETATM   10  F9  UNL     1     -33.514   4.125   5.474  1.00 20.00    -0.166 F 
ENDBRANCH   2   7
TORSDOF 1
