REMARK  3 active torsions:
REMARK  status: ('A' for Active; 'I' for Inactive)
REMARK    1  A    between atoms: C6_6  and  C9_9 
REMARK    2  A    between atoms: C6_6  and  O10_10 
REMARK    3  A    between atoms: C8_8  and  C9_9 
ROOT
HETATM    1  C1  UNL     1     -32.776   9.270  -0.400  1.00 20.00     0.012 C 
HETATM    2  C2  UNL     1     -32.515   8.739   0.645  1.00 20.00    -0.117 C 
HETATM    3  C8  UNL     1     -32.192   8.089   1.922  1.00 20.00     0.096 C 
ENDROOT
BRANCH   3   4
HETATM    4  C9  UNL     1     -33.348   8.237   2.895  1.00 20.00     0.050 C 
BRANCH   4   5
HETATM    5  C6  UNL     1     -33.023   7.571   4.232  1.00 20.00     0.068 C 
HETATM    6  C3  UNL     1     -34.197   7.663   5.228  1.00 20.00     0.053 C 
HETATM    7  C5  UNL     1     -34.899   6.316   5.357  1.00 20.00     0.046 C 
HETATM    8  C7  UNL     1     -35.911   6.036   4.255  1.00 20.00     0.021 C 
HETATM    9  S11 UNL     1     -33.517   5.151   5.286  1.00 20.00    -0.162 SA
HETATM   10  C4  UNL     1     -32.602   6.106   4.049  1.00 20.00     0.112 C 
BRANCH   5  11
HETATM   11  O10 UNL     1     -31.928   8.296   4.807  1.00 20.00    -0.389 OA
HETATM   12  H25 UNL     1     -31.727   7.863   5.649  1.00 20.00     0.210 HD
ENDBRANCH   5  11
ENDBRANCH   4   5
ENDBRANCH   3   4
TORSDOF 3
