REMARK  0 active torsions:
REMARK  status: ('A' for Active; 'I' for Inactive)
ROOT
HETATM    1  C1  UNL     1     -33.018   8.945   2.591  1.00 20.00     0.086 C 
HETATM    2  C2  UNL     1     -34.538   7.313   3.673  1.00 20.00     0.056 C 
HETATM    3  C3  UNL     1     -32.911   8.544   5.027  1.00 20.00     0.115 C 
HETATM    4  C4  UNL     1     -34.770   6.587   5.002  1.00 20.00     0.046 C 
HETATM    5  C5  UNL     1     -33.133   7.929   3.648  1.00 20.00     0.135 C 
HETATM    6  C6  UNL     1     -34.500   5.089   4.955  1.00 20.00     0.021 C 
HETATM    7  N7  UNL     1     -32.926   9.747   1.758  1.00 20.00    -0.195 NA
HETATM    8  S8  UNL     1     -33.680   7.403   6.212  1.00 20.00    -0.162 SA
HETATM    9 CL9  UNL     1     -31.879   6.700   3.288  1.00 20.00    -0.102 Cl
ENDROOT
TORSDOF 0
