REMARK  0 active torsions:
REMARK  status: ('A' for Active; 'I' for Inactive)
ROOT
HETATM    1  C1  UNL     1     -31.743   7.298   4.245  1.00 20.00     0.056 C 
HETATM    2  C2  UNL     1     -32.577   6.037   4.139  1.00 20.00     0.094 C 
HETATM    3  C3  UNL     1     -32.765   8.440   4.188  1.00 20.00     0.056 C 
HETATM    4  C4  UNL     1     -33.925   6.455   4.730  1.00 20.00     0.068 C 
HETATM    5  C5  UNL     1     -32.472   9.511   5.241  1.00 20.00     0.045 C 
HETATM    6  C6  UNL     1     -32.839   9.099   2.809  1.00 20.00     0.045 C 
HETATM    7  C7  UNL     1     -35.170   5.752   4.186  1.00 20.00     0.047 C 
HETATM    8  C8  UNL     1     -33.908   6.274   6.260  1.00 20.00     0.047 C 
HETATM    9  O9  UNL     1     -34.057   7.867   4.468  1.00 20.00    -0.369 OA
HETATM   10 BR10 UNL     1     -32.646   5.459   2.274  1.00 20.00    -0.088 Br
ENDROOT
TORSDOF 0
