REMARK  3 active torsions:
REMARK  status: ('A' for Active; 'I' for Inactive)
REMARK    1  A    between atoms: C4_4  and  C7_7 
REMARK    2  A    between atoms: C4_4  and  O9_9 
REMARK    3  A    between atoms: C7_7  and  C8_8 
ROOT
HETATM    1  C1  UNL     1     -33.134   9.215   3.310  1.00 20.00     0.053 C 
HETATM    2  C2  UNL     1     -31.807   7.169   3.497  1.00 20.00     0.112 C 
HETATM    3  C3  UNL     1     -33.352   8.695   1.893  1.00 20.00     0.046 C 
HETATM    4  C4  UNL     1     -32.864   8.008   4.216  1.00 20.00     0.067 C 
HETATM    5  C5  UNL     1     -33.133   9.765   0.837  1.00 20.00     0.021 C 
HETATM    6  S10 UNL     1     -32.150   7.336   1.720  1.00 20.00    -0.162 SA
ENDROOT
BRANCH   4   7
HETATM    7  C7  UNL     1     -34.131   7.208   4.529  1.00 20.00     0.038 C 
BRANCH   7   8
HETATM    8  C8  UNL     1     -33.935   6.320   5.753  1.00 20.00    -0.002 C 
HETATM    9  C6  UNL     1     -35.201   5.544   6.080  1.00 20.00     0.005 C 
ENDBRANCH   7   8
ENDBRANCH   4   7
BRANCH   4  10
HETATM   10  O9  UNL     1     -32.346   8.466   5.465  1.00 20.00    -0.389 OA
HETATM   11  H26 UNL     1     -33.022   9.045   5.848  1.00 20.00     0.210 HD
ENDBRANCH   4  10
TORSDOF 3
