REMARK  1 active torsions:
REMARK  status: ('A' for Active; 'I' for Inactive)
REMARK    1  A    between atoms: C5_5  and  O9_9 
ROOT
HETATM    1  C1  UNL     1     -33.528   6.948   3.305  1.00 20.00     0.022 C 
HETATM    2  C2  UNL     1     -32.708   5.675   3.144  1.00 20.00     0.075 C 
HETATM    3  C3  UNL     1     -34.175   4.712   5.274  1.00 20.00     0.112 C 
HETATM    4  C4  UNL     1     -33.995   7.258   4.756  1.00 20.00    -0.015 C 
HETATM    5  C5  UNL     1     -34.878   6.084   5.319  1.00 20.00     0.069 C 
HETATM    6  C6  UNL     1     -32.760   7.533   5.644  1.00 20.00     0.018 C 
HETATM    7  C7  UNL     1     -34.804   8.579   4.683  1.00 20.00     0.018 C 
HETATM    8  C8  UNL     1     -35.353   6.326   6.765  1.00 20.00     0.047 C 
HETATM    9  S10 UNL     1     -33.651   4.203   3.609  1.00 20.00    -0.166 SA
ENDROOT
BRANCH   5  10
HETATM   10  O9  UNL     1     -36.071   5.992   4.520  1.00 20.00    -0.389 OA
HETATM   11  H26 UNL     1     -36.606   5.297   4.926  1.00 20.00     0.210 HD
ENDBRANCH   5  10
TORSDOF 1
