REMARK  0 active torsions:
REMARK  status: ('A' for Active; 'I' for Inactive)
ROOT
HETATM    1  C1  UNL     1     -33.015   6.116   3.695  1.00 20.00    -0.053 C 
HETATM    2  C2  UNL     1     -33.003   5.119   2.803  1.00 20.00     0.017 C 
HETATM    3  C3  UNL     1     -32.097   7.290   3.669  1.00 20.00     0.073 C 
HETATM    4  C4  UNL     1     -33.987   6.327   4.825  1.00 20.00     0.077 C 
HETATM    5  C5  UNL     1     -33.003   8.385   4.227  1.00 20.00     0.059 C 
HETATM    6  C6  UNL     1     -35.446   6.029   4.474  1.00 20.00     0.051 C 
HETATM    7  C7  UNL     1     -33.569   5.541   6.070  1.00 20.00     0.051 C 
HETATM    8  C8  UNL     1     -32.206   9.443   4.988  1.00 20.00     0.046 C 
HETATM    9  C9  UNL     1     -33.847   9.057   3.137  1.00 20.00     0.046 C 
HETATM   10  O10 UNL     1     -33.888   7.732   5.160  1.00 20.00    -0.366 OA
ENDROOT
TORSDOF 0
