REMARK  2 active torsions:
REMARK  status: ('A' for Active; 'I' for Inactive)
REMARK    1  A    between atoms: C2_2  and  C6_6 
REMARK    2  A    between atoms: C6_6  and  O9_9 
ROOT
HETATM    1  C3  UNL     1     -33.216   7.227   4.196  1.00 20.00     0.058 C 
HETATM    2  C4  UNL     1     -34.008   5.596   5.842  1.00 20.00     0.116 C 
HETATM    3  C5  UNL     1     -33.732   8.214   5.242  1.00 20.00     0.046 C 
HETATM    4  C6  UNL     1     -34.031   5.940   4.351  1.00 20.00     0.089 C 
HETATM    5  C8  UNL     1     -32.742   9.328   5.537  1.00 20.00     0.021 C 
HETATM    6  S10 UNL     1     -34.044   7.193   6.717  1.00 20.00    -0.161 SA
ENDROOT
BRANCH   4   7
HETATM    7  C2  UNL     1     -33.474   4.838   3.506  1.00 20.00    -0.058 C 
HETATM    8  C1  UNL     1     -32.839   5.082   2.350  1.00 20.00     0.017 C 
HETATM    9  C7  UNL     1     -33.666   3.444   4.026  1.00 20.00     0.046 C 
ENDBRANCH   4   7
BRANCH   4  10
HETATM   10  O9  UNL     1     -35.375   6.188   3.935  1.00 20.00    -0.385 OA
HETATM   11  H24 UNL     1     -35.860   5.359   4.067  1.00 20.00     0.211 HD
ENDBRANCH   4  10
TORSDOF 2
