REMARK  1 active torsions:
REMARK  status: ('A' for Active; 'I' for Inactive)
REMARK    1  A    between atoms: C7_7  and  C11_11 
ROOT
HETATM    1  C1  UNL     1     -32.494  10.255   3.871  1.00 20.00     0.030 C 
HETATM    2  C2  UNL     1     -32.478   9.135   2.836  1.00 20.00     0.036 C 
HETATM    3  C3  UNL     1     -31.563   6.708   2.867  1.00 20.00     0.305 C 
HETATM    4  C4  UNL     1     -32.070   9.627   5.196  1.00 20.00     0.235 C 
HETATM    5  C5  UNL     1     -33.034   7.315   5.278  1.00 20.00     0.271 C 
HETATM    6  C6  UNL     1     -31.508   8.125   3.423  1.00 20.00     0.216 C 
HETATM    7  C7  UNL     1     -32.899   5.898   4.711  1.00 20.00     0.251 C 
HETATM    8  C10 UNL     1     -32.750   4.646   2.608  1.00 20.00     0.310 C 
HETATM    9  N12 UNL     1     -32.779   5.968   3.239  1.00 20.00     0.092 N 
HETATM   10  N13 UNL     1     -31.846   8.158   4.891  1.00 20.00    -0.063 N 
HETATM   11  H36 UNL     1     -31.034   7.822   5.428  1.00 20.00     0.280 HD
ENDROOT
BRANCH   7  12
HETATM   12  C11 UNL     1     -34.122   5.091   5.172  1.00 20.00     0.012 C 
HETATM   13  C8  UNL     1     -34.157   5.009   6.693  1.00 20.00     0.012 C 
HETATM   14  C9  UNL     1     -35.402   5.716   4.631  1.00 20.00     0.012 C 
ENDBRANCH   7  12
TORSDOF 1
