REMARK  0 active torsions:
REMARK  status: ('A' for Active; 'I' for Inactive)
ROOT
HETATM    1  C1  UNL     1     -33.712   5.342   3.220  1.00 20.00     0.067 C 
HETATM    2  C2  UNL     1     -34.722   7.467   3.948  1.00 20.00     0.059 C 
HETATM    3  C3  UNL     1     -34.547   5.986   4.250  1.00 20.00     0.129 C 
HETATM    4  C4  UNL     1     -33.569   8.143   4.698  1.00 20.00     0.056 C 
HETATM    5  C5  UNL     1     -33.913   6.011   5.651  1.00 20.00     0.071 C 
HETATM    6  C6  UNL     1     -32.360   8.405   3.796  1.00 20.00     0.045 C 
HETATM    7  C7  UNL     1     -34.011   9.451   5.353  1.00 20.00     0.045 C 
HETATM    8  C8  UNL     1     -34.997   6.078   6.740  1.00 20.00     0.047 C 
HETATM    9  C9  UNL     1     -32.975   4.844   5.967  1.00 20.00     0.047 C 
HETATM   10  N10 UNL     1     -33.055   4.835   2.410  1.00 20.00    -0.197 NA
HETATM   11  O11 UNL     1     -33.152   7.233   5.733  1.00 20.00    -0.369 OA
ENDROOT
TORSDOF 0
