REMARK  1 active torsions:
REMARK  status: ('A' for Active; 'I' for Inactive)
REMARK    1  A    between atoms: C6_6  and  O10_10 
ROOT
HETATM    1  C1  UNL     1     -36.900   6.302   4.026  1.00 20.00     0.015 C 
HETATM    2  C2  UNL     1     -35.795   5.919   4.296  1.00 20.00    -0.077 C 
HETATM    3  C3  UNL     1     -33.869   7.373   6.251  1.00 20.00     0.023 C 
HETATM    4  C4  UNL     1     -32.838   8.013   5.326  1.00 20.00     0.075 C 
HETATM    5  C5  UNL     1     -33.445   5.968   3.567  1.00 20.00     0.126 C 
HETATM    6  C6  UNL     1     -34.431   5.445   4.630  1.00 20.00     0.135 C 
HETATM    7  C7  UNL     1     -34.028   5.836   6.099  1.00 20.00    -0.004 C 
HETATM    8  C8  UNL     1     -32.708   5.142   6.525  1.00 20.00     0.019 C 
HETATM    9  C9  UNL     1     -35.101   5.362   7.113  1.00 20.00     0.019 C 
HETATM   10  S11 UNL     1     -33.232   7.774   3.574  1.00 20.00    -0.165 SA
ENDROOT
BRANCH   6  11
HETATM   11  O10 UNL     1     -34.464   4.017   4.512  1.00 20.00    -0.376 OA
HETATM   12  H25 UNL     1     -34.708   3.829   3.595  1.00 20.00     0.211 HD
ENDBRANCH   6  11
TORSDOF 1
