REMARK  0 active torsions:
REMARK  status: ('A' for Active; 'I' for Inactive)
ROOT
HETATM    1  C1  UNL     1     -32.159   7.506   3.793  1.00 20.00     0.086 C 
HETATM    2  C2  UNL     1     -34.623   6.582   6.601  1.00 20.00     0.013 C 
HETATM    3  C3  UNL     1     -33.408   7.150   5.867  1.00 20.00     0.043 C 
HETATM    4  C4  UNL     1     -34.789   5.085   6.401  1.00 20.00     0.074 C 
HETATM    5  C5  UNL     1     -33.559   5.457   3.941  1.00 20.00     0.081 C 
HETATM    6  C6  UNL     1     -33.418   6.951   4.336  1.00 20.00     0.137 C 
HETATM    7  C7  UNL     1     -33.584   5.189   2.431  1.00 20.00     0.024 C 
HETATM    8  N8  UNL     1     -31.171   7.942   3.368  1.00 20.00    -0.195 NA
HETATM    9  S9  UNL     1     -35.055   4.671   4.658  1.00 20.00    -0.162 SA
HETATM   10 CL10 UNL     1     -34.728   7.959   3.613  1.00 20.00    -0.102 Cl
ENDROOT
TORSDOF 0
