REMARK  2 active torsions:
REMARK  status: ('A' for Active; 'I' for Inactive)
REMARK    1  A    between atoms: C1_1  and  C5_5 
REMARK    2  A    between atoms: C1_1  and  C8_8 
ROOT
HETATM    1  C2  UNL     1     -32.954   8.705  -0.312  1.00 20.00     0.084 C 
HETATM    2  C3  UNL     1     -32.585   9.948   0.481  1.00 20.00     0.085 C 
HETATM    3  C4  UNL     1     -31.833   7.511   1.966  1.00 20.00     0.096 C 
HETATM    4  C5  UNL     1     -33.058   8.161   2.593  1.00 20.00     0.126 C 
HETATM    5  S10 UNL     1     -32.010   7.226   0.176  1.00 20.00    -0.167 SA
HETATM    6  S11 UNL     1     -33.224   9.931   2.187  1.00 20.00    -0.155 SA
ENDROOT
BRANCH   4   7
HETATM    7  C1  UNL     1     -32.960   8.084   4.085  1.00 20.00     0.144 C 
HETATM    8  O9  UNL     1     -31.996   8.568   4.677  1.00 20.00    -0.296 OA
BRANCH   7   9
HETATM    9  C8  UNL     1     -34.085   7.354   4.813  1.00 20.00     0.048 C 
HETATM   10  C6  UNL     1     -34.173   5.914   4.324  1.00 20.00     0.017 C 
HETATM   11  C7  UNL     1     -33.880   7.404   6.325  1.00 20.00     0.017 C 
ENDBRANCH   7   9
ENDBRANCH   4   7
TORSDOF 2
