REMARK  2 active torsions:
REMARK  status: ('A' for Active; 'I' for Inactive)
REMARK    1  A    between atoms: C2_2  and  C3_3 
REMARK    2  A    between atoms: C3_3  and  C7_7 
ROOT
HETATM    1  C4  UNL     1     -31.888   8.912   0.893  1.00 20.00     0.084 C 
HETATM    2  C5  UNL     1     -33.059   9.632   1.543  1.00 20.00     0.085 C 
HETATM    3  C6  UNL     1     -32.222   6.787   2.636  1.00 20.00     0.097 C 
HETATM    4  C7  UNL     1     -33.399   7.506   3.284  1.00 20.00     0.131 C 
HETATM    5  S10 UNL     1     -32.104   7.108   0.850  1.00 20.00    -0.167 SA
HETATM    6  S11 UNL     1     -33.181   9.313   3.328  1.00 20.00    -0.155 SA
ENDROOT
BRANCH   4   7
HETATM    7  C3  UNL     1     -33.532   7.063   4.708  1.00 20.00     0.169 C 
HETATM    8  O9  UNL     1     -32.921   7.650   5.602  1.00 20.00    -0.291 OA
BRANCH   7   9
HETATM    9  C2  UNL     1     -34.414   5.897   5.044  1.00 20.00    -0.024 C 
HETATM   10  C1  UNL     1     -35.092   5.237   4.094  1.00 20.00     0.022 C 
HETATM   11  C8  UNL     1     -34.496   5.512   6.491  1.00 20.00     0.051 C 
ENDBRANCH   7   9
ENDBRANCH   4   7
TORSDOF 2
