REMARK  0 active torsions:
REMARK  status: ('A' for Active; 'I' for Inactive)
ROOT
HETATM    1  C1  UNL     1     -35.042   5.054   4.946  1.00 20.00     0.064 C 
HETATM    2  C2  UNL     1     -32.203   7.653   1.469  1.00 20.00     0.000 C 
HETATM    3  C3  UNL     1     -32.497   6.356   2.215  1.00 20.00     0.003 C 
HETATM    4  C4  UNL     1     -33.020   8.820   2.011  1.00 20.00     0.003 C 
HETATM    5  C5  UNL     1     -32.341   6.525   3.726  1.00 20.00     0.038 C 
HETATM    6  C6  UNL     1     -32.849   8.966   3.520  1.00 20.00     0.038 C 
HETATM    7  C7  UNL     1     -34.646   6.772   6.691  1.00 20.00     0.045 C 
HETATM    8  C8  UNL     1     -34.722   7.430   4.262  1.00 20.00     0.057 C 
HETATM    9  C9  UNL     1     -33.137   6.951   6.616  1.00 20.00     0.170 C 
HETATM   10  C10 UNL     1     -35.256   6.461   5.325  1.00 20.00     0.097 C 
HETATM   11  C11 UNL     1     -33.191   7.678   4.309  1.00 20.00     0.062 C 
HETATM   12  N12 UNL     1     -34.874   3.945   4.647  1.00 20.00    -0.197 NA
HETATM   13  O13 UNL     1     -32.788   7.951   5.664  1.00 20.00    -0.380 OA
ENDROOT
TORSDOF 0
