REMARK  1 active torsions:
REMARK  status: ('A' for Active; 'I' for Inactive)
REMARK    1  A    between atoms: C2_2  and  C3_3 
ROOT
HETATM    1  C1  UNL     1     -32.517   7.669   3.250  1.00 20.00    -0.063 C 
HETATM    2  C2  UNL     1     -32.874   7.504   1.967  1.00 20.00     0.088 C 
HETATM    3  C4  UNL     1     -32.881   6.666   4.313  1.00 20.00     0.044 C 
HETATM    4  C5  UNL     1     -31.741   8.878   3.698  1.00 20.00     0.108 C 
HETATM    5  C6  UNL     1     -33.847   8.755   5.504  1.00 20.00     0.083 C 
HETATM    6  C7  UNL     1     -33.950   7.221   5.294  1.00 20.00    -0.036 C 
HETATM    7  C8  UNL     1     -33.792   6.496   6.646  1.00 20.00     0.016 C 
HETATM    8  C9  UNL     1     -35.361   6.908   4.752  1.00 20.00     0.016 C 
HETATM    9  S12 UNL     1     -32.145   9.396   5.399  1.00 20.00    -0.164 SA
ENDROOT
BRANCH   2  10
HETATM   10  C3  UNL     1     -32.502   8.526   0.889  1.00 20.00     0.198 C 
HETATM   11  O10 UNL     1     -32.965   9.685   1.102  1.00 20.00    -0.644 OA
HETATM   12  O11 UNL     1     -31.794   8.118  -0.074  1.00 20.00    -0.644 OA
ENDBRANCH   2  10
TORSDOF 1
