REMARK  2 active torsions:
REMARK  status: ('A' for Active; 'I' for Inactive)
REMARK    1  A    between atoms: C5_5  and  N9_9 
REMARK    2  A    between atoms: C8_8  and  N9_9 
ROOT
HETATM    1  C1  UNL     1     -32.947   9.358   2.093  1.00 20.00     0.013 C 
HETATM    2  C2  UNL     1     -32.631   9.420   3.250  1.00 20.00    -0.087 C 
HETATM    3  C8  UNL     1     -32.245   9.502   4.661  1.00 20.00     0.362 C 
ENDROOT
BRANCH   3   4
HETATM    4  N9  UNL     1     -32.143   8.170   5.243  1.00 20.00     0.099 N 
HETATM    5  H23 UNL     1     -31.571   8.216   6.086  1.00 20.00     0.317 HD
BRANCH   4   6
HETATM    6  C5  UNL     1     -33.443   7.655   5.580  1.00 20.00     0.232 C 
HETATM    7  C3  UNL     1     -33.361   6.521   6.597  1.00 20.00     0.051 C 
HETATM    8  C6  UNL     1     -34.775   5.964   6.734  1.00 20.00     0.045 C 
HETATM    9  C7  UNL     1     -34.801   4.561   7.315  1.00 20.00     0.021 C 
HETATM   10  S10 UNL     1     -35.446   5.999   5.040  1.00 20.00    -0.162 SA
HETATM   11  C4  UNL     1     -34.155   7.081   4.363  1.00 20.00     0.109 C 
ENDBRANCH   4   6
ENDBRANCH   3   4
TORSDOF 2
