REMARK  1 active torsions:
REMARK  status: ('A' for Active; 'I' for Inactive)
REMARK    1  A    between atoms: C5_5  and  O9_9 
ROOT
HETATM    1  C1  UNL     1     -32.771   7.025   4.360  1.00 20.00     0.098 C 
HETATM    2  C2  UNL     1     -35.080   6.126   4.656  1.00 20.00     0.069 C 
HETATM    3  C3  UNL     1     -33.776   6.767   6.624  1.00 20.00     0.128 C 
HETATM    4  C4  UNL     1     -34.780   4.718   5.173  1.00 20.00     0.047 C 
HETATM    5  C5  UNL     1     -34.008   7.101   5.153  1.00 20.00     0.157 C 
HETATM    6  C6  UNL     1     -33.906   3.887   4.242  1.00 20.00     0.021 C 
HETATM    7  N8  UNL     1     -31.795   6.966   3.734  1.00 20.00    -0.194 NA
HETATM    8  S10 UNL     1     -33.951   4.965   6.776  1.00 20.00    -0.161 SA
ENDROOT
BRANCH   5   9
HETATM    9  O9  UNL     1     -34.534   8.423   5.047  1.00 20.00    -0.369 OA
HETATM   10  C7  UNL     1     -33.613   9.387   5.535  1.00 20.00     0.204 C 
ENDBRANCH   5   9
TORSDOF 1
