REMARK  1 active torsions:
REMARK  status: ('A' for Active; 'I' for Inactive)
REMARK    1  A    between atoms: C4_4  and  S9_9 
ROOT
HETATM    1  C1  UNL     1     -34.157   7.377   6.182  1.00 20.00     0.020 C 
HETATM    2  C2  UNL     1     -33.973   8.758   5.566  1.00 20.00     0.075 C 
HETATM    3  C3  UNL     1     -32.887   7.433   3.408  1.00 20.00     0.089 C 
HETATM    4  C4  UNL     1     -33.159   6.140   4.187  1.00 20.00     0.061 C 
HETATM    5  C5  UNL     1     -34.374   6.217   5.169  1.00 20.00    -0.034 C 
HETATM    6  C6  UNL     1     -35.723   6.418   4.442  1.00 20.00     0.016 C 
HETATM    7  C7  UNL     1     -34.479   4.914   5.999  1.00 20.00     0.016 C 
HETATM    8  S8  UNL     1     -32.507   8.828   4.507  1.00 20.00    -0.168 SA
ENDROOT
BRANCH   4   9
HETATM    9  S9  UNL     1     -33.293   4.783   2.950  1.00 20.00    -0.176 SA
HETATM   10  H23 UNL     1     -32.057   4.949   2.467  1.00 20.00     0.102 HD
ENDBRANCH   4   9
TORSDOF 1
