REMARK  0 active torsions:
REMARK  status: ('A' for Active; 'I' for Inactive)
ROOT
HETATM    1  C1  UNL     1     -32.858   7.351   3.968  1.00 20.00     0.086 C 
HETATM    2  C2  UNL     1     -33.845   6.019   5.841  1.00 20.00     0.056 C 
HETATM    3  C3  UNL     1     -35.260   7.571   4.582  1.00 20.00     0.115 C 
HETATM    4  C4  UNL     1     -34.638   4.978   5.042  1.00 20.00     0.046 C 
HETATM    5  C5  UNL     1     -33.833   7.343   5.070  1.00 20.00     0.135 C 
HETATM    6  C6  UNL     1     -33.786   4.141   4.097  1.00 20.00     0.021 C 
HETATM    7  N7  UNL     1     -32.089   7.357   3.100  1.00 20.00    -0.195 NA
HETATM    8  S8  UNL     1     -35.882   5.929   4.107  1.00 20.00    -0.162 SA
HETATM    9 CL9  UNL     1     -33.342   8.679   6.159  1.00 20.00    -0.102 Cl
ENDROOT
TORSDOF 0
