REMARK  0 active torsions:
REMARK  status: ('A' for Active; 'I' for Inactive)
ROOT
HETATM    1  C1  UNL     1     -32.128   8.800   4.454  1.00 20.00     0.088 C 
HETATM    2  C2  UNL     1     -33.528   6.851   4.250  1.00 20.00    -0.057 C 
HETATM    3  C3  UNL     1     -32.508   7.602   3.803  1.00 20.00     0.097 C 
HETATM    4  C4  UNL     1     -34.305   7.277   5.476  1.00 20.00     0.037 C 
HETATM    5  C5  UNL     1     -34.216   6.241   6.598  1.00 20.00     0.014 C 
HETATM    6  C6  UNL     1     -34.726   4.863   6.188  1.00 20.00     0.075 C 
HETATM    7  C7  UNL     1     -34.013   5.569   3.602  1.00 20.00     0.072 C 
HETATM    8  C8  UNL     1     -33.344   5.174   2.284  1.00 20.00     0.026 C 
HETATM    9  N9  UNL     1     -31.810   9.784   4.981  1.00 20.00    -0.192 NA
HETATM   10  S10 UNL     1     -33.790   4.185   4.784  1.00 20.00    -0.160 SA
ENDROOT
TORSDOF 0
