REMARK  3 active torsions:
REMARK  status: ('A' for Active; 'I' for Inactive)
REMARK    1  A    between atoms: C6_6  and  C9_9 
REMARK    2  A    between atoms: C6_6  and  O10_10 
REMARK    3  A    between atoms: C8_8  and  C9_9 
ROOT
HETATM    1  C1  UNL     1     -32.476   8.685  -0.477  1.00 20.00     0.012 C 
HETATM    2  C2  UNL     1     -32.387   8.242   0.635  1.00 20.00    -0.117 C 
HETATM    3  C8  UNL     1     -32.273   7.701   1.995  1.00 20.00     0.096 C 
ENDROOT
BRANCH   3   4
HETATM    4  C9  UNL     1     -33.646   7.341   2.532  1.00 20.00     0.050 C 
BRANCH   4   5
HETATM    5  C6  UNL     1     -33.544   6.785   3.951  1.00 20.00     0.068 C 
HETATM    6  C3  UNL     1     -34.915   6.371   4.496  1.00 20.00     0.053 C 
HETATM    7  C5  UNL     1     -34.795   6.128   6.002  1.00 20.00     0.046 C 
HETATM    8  C7  UNL     1     -34.401   4.703   6.370  1.00 20.00     0.021 C 
HETATM    9  S11 UNL     1     -33.529   7.305   6.575  1.00 20.00    -0.162 SA
HETATM   10  C4  UNL     1     -32.988   7.827   4.918  1.00 20.00     0.112 C 
BRANCH   5  11
HETATM   11  O10 UNL     1     -32.659   5.667   3.914  1.00 20.00    -0.389 OA
HETATM   12  H25 UNL     1     -31.817   5.995   3.562  1.00 20.00     0.210 HD
ENDBRANCH   5  11
ENDBRANCH   4   5
ENDBRANCH   3   4
TORSDOF 3
