REMARK  6 active torsions:
REMARK  status: ('A' for Active; 'I' for Inactive)
REMARK    1  A    between atoms: C3_3  and  C4_4 
REMARK    2  A    between atoms: C4_4  and  C7_7 
REMARK    3  A    between atoms: C5_5  and  C7_7 
REMARK    4  A    between atoms: C5_5  and  S8_8 
REMARK    5  A    between atoms: C6_6  and  C7_7 
REMARK    6  A    between atoms: C6_6  and  S9_9 
ROOT
HETATM    1  C7  UNL     1     -32.808   7.078   4.346  1.00 20.00     0.004 C 
ENDROOT
BRANCH   1   2
HETATM    2  C4  UNL     1     -33.939   6.021   4.258  1.00 20.00     0.006 C 
BRANCH   2   3
HETATM    3  C3  UNL     1     -34.611   5.634   5.580  1.00 20.00    -0.004 C 
HETATM    4  C1  UNL     1     -33.642   5.090   6.618  1.00 20.00     0.005 C 
ENDBRANCH   2   3
ENDBRANCH   1   2
BRANCH   1   5
HETATM    5  C5  UNL     1     -33.367   8.329   5.062  1.00 20.00     0.076 C 
BRANCH   5   6
HETATM    6  S8  UNL     1     -32.146   9.662   5.265  1.00 20.00    -0.182 SA
HETATM    7  H25 UNL     1     -32.971  10.512   5.889  1.00 20.00     0.101 HD
ENDBRANCH   5   6
ENDBRANCH   1   5
BRANCH   1   8
HETATM    8  C6  UNL     1     -32.128   7.368   2.989  1.00 20.00     0.078 C 
BRANCH   8   9
HETATM    9  S9  UNL     1     -33.218   8.046   1.699  1.00 20.00    -0.173 SA
HETATM   10  C2  UNL     1     -31.976   8.282   0.409  1.00 20.00     0.089 C 
ENDBRANCH   8   9
ENDBRANCH   1   8
TORSDOF 6
