REMARK  1 active torsions:
REMARK  status: ('A' for Active; 'I' for Inactive)
REMARK    1  A    between atoms: C4_4  and  C11_11 
ROOT
HETATM    1  C1  UNL     1     -32.755   8.579   3.242  1.00 20.00     0.008 A 
HETATM    2  C2  UNL     1     -33.219   8.402   4.547  1.00 20.00     0.008 A 
HETATM    3  C3  UNL     1     -33.169   6.237   2.727  1.00 20.00     0.016 A 
HETATM    4  C4  UNL     1     -32.730   7.504   2.338  1.00 20.00    -0.053 A 
HETATM    5  C5  UNL     1     -33.663   7.145   4.920  1.00 20.00    -0.050 A 
HETATM    6  C6  UNL     1     -33.634   6.070   4.022  1.00 20.00    -0.033 A 
HETATM    7  C7  UNL     1     -34.172   6.709   6.259  1.00 20.00     0.041 C 
HETATM    8  C8  UNL     1     -34.873   5.390   5.891  1.00 20.00     0.030 C 
HETATM    9  C12 UNL     1     -34.126   4.815   4.674  1.00 20.00     0.116 C 
HETATM   10 CL13 UNL     1     -32.754   3.804   5.174  1.00 20.00    -0.120 Cl
ENDROOT
BRANCH   4  11
HETATM   11  C11 UNL     1     -32.228   7.718   0.951  1.00 20.00     0.018 A 
HETATM   12  C9  UNL     1     -31.101   8.692   0.723  1.00 20.00     0.010 A 
HETATM   13  C10 UNL     1     -32.486   9.038   0.273  1.00 20.00     0.010 A 
ENDBRANCH   4  11
TORSDOF 1
