REMARK  5 active torsions:
REMARK  status: ('A' for Active; 'I' for Inactive)
REMARK    1  A    between atoms: C5_5  and  C7_7 
REMARK    2  A    between atoms: C5_5  and  S9_9 
REMARK    3  A    between atoms: C6_6  and  C7_7 
REMARK    4  A    between atoms: C6_6  and  S10_10 
REMARK    5  A    between atoms: C7_7  and  C8_8 
ROOT
HETATM    1  C7  UNL     1     -32.960   6.861   4.242  1.00 20.00     0.011 C 
ENDROOT
BRANCH   1   2
HETATM    2  C5  UNL     1     -33.597   8.167   4.786  1.00 20.00     0.077 C 
BRANCH   2   3
HETATM    3  S9  UNL     1     -32.388   9.457   5.233  1.00 20.00    -0.182 SA
HETATM    4  H28 UNL     1     -33.295  10.358   5.631  1.00 20.00     0.101 HD
ENDBRANCH   2   3
ENDBRANCH   1   2
BRANCH   1   5
HETATM    5  C6  UNL     1     -32.077   7.069   2.979  1.00 20.00     0.079 C 
BRANCH   5   6
HETATM    6  S10 UNL     1     -32.905   7.659   1.472  1.00 20.00    -0.173 SA
HETATM    7  C4  UNL     1     -32.836   9.432   1.814  1.00 20.00     0.089 C 
ENDBRANCH   5   6
ENDBRANCH   1   5
BRANCH   1   8
HETATM    8  C8  UNL     1     -34.005   5.672   4.109  1.00 20.00    -0.046 C 
HETATM    9  C1  UNL     1     -34.171   4.919   5.446  1.00 20.00     0.015 C 
HETATM   10  C2  UNL     1     -35.400   6.123   3.638  1.00 20.00     0.015 C 
HETATM   11  C3  UNL     1     -33.482   4.637   3.080  1.00 20.00     0.015 C 
ENDBRANCH   1   8
TORSDOF 5
