REMARK  4 active torsions:
REMARK  status: ('A' for Active; 'I' for Inactive)
REMARK    1  A    between atoms: C1_1  and  C9_9 
REMARK    2  A    between atoms: C2_2  and  C10_10 
REMARK    3  A    between atoms: C9_9  and  N11_11 
REMARK    4  A    between atoms: C10_10  and  S12_12 
ROOT
HETATM    1  C3  UNL     1     -34.356   4.940   6.557  1.00 20.00     0.002 C 
HETATM    2  C4  UNL     1     -34.217   4.321   5.173  1.00 20.00     0.002 C 
HETATM    3  C5  UNL     1     -33.624   6.266   6.749  1.00 20.00     0.030 C 
HETATM    4  C6  UNL     1     -34.609   5.234   4.012  1.00 20.00     0.030 C 
HETATM    5  C7  UNL     1     -34.259   7.416   5.964  1.00 20.00     0.272 C 
HETATM    6  C8  UNL     1     -33.611   6.373   3.790  1.00 20.00     0.272 C 
HETATM    7  N11 UNL     1     -33.834   7.589   4.575  1.00 20.00     0.091 N 
ENDROOT
BRANCH   7   8
HETATM    8  C9  UNL     1     -32.678   8.480   4.470  1.00 20.00     0.299 C 
BRANCH   8   9
HETATM    9  C1  UNL     1     -32.537   9.040   3.087  1.00 20.00    -0.000 C 
HETATM   10  C2  UNL     1     -31.805   8.466   2.120  1.00 20.00    -0.019 C 
BRANCH  10  11
HETATM   11  C10 UNL     1     -31.669   9.025   0.740  1.00 20.00     0.097 C 
BRANCH  11  12
HETATM   12  S12 UNL     1     -33.299   9.157  -0.043  1.00 20.00    -0.178 SA
HETATM   13  H31 UNL     1     -32.861   9.662  -1.204  1.00 20.00     0.101 HD
ENDBRANCH  11  12
ENDBRANCH  10  11
ENDBRANCH   8   9
ENDBRANCH   7   8
TORSDOF 4
