REMARK  6 active torsions:
REMARK  status: ('A' for Active; 'I' for Inactive)
REMARK    1  A    between atoms: C3_3  and  C5_5 
REMARK    2  A    between atoms: C3_3  and  C7_7 
REMARK    3  A    between atoms: C4_4  and  C6_6 
REMARK    4  A    between atoms: C4_4  and  C7_7 
REMARK    5  A    between atoms: C5_5  and  S8_8 
REMARK    6  A    between atoms: C6_6  and  S9_9 
ROOT
HETATM    1  C1  UNL     1     -32.135   9.037   4.762  1.00 20.00     0.010 C 
HETATM    2  C7  UNL     1     -31.954   7.817   3.855  1.00 20.00    -0.017 C 
ENDROOT
BRANCH   2   3
HETATM    3  C3  UNL     1     -31.955   8.218   2.361  1.00 20.00     0.014 C 
BRANCH   3   4
HETATM    4  C5  UNL     1     -32.931   9.337   1.998  1.00 20.00     0.071 C 
BRANCH   4   5
HETATM    5  S8  UNL     1     -32.829   9.717   0.222  1.00 20.00    -0.182 SA
HETATM    6  H25 UNL     1     -33.757  10.684   0.234  1.00 20.00     0.101 HD
ENDBRANCH   4   5
ENDBRANCH   3   4
ENDBRANCH   2   3
BRANCH   2   7
HETATM    7  C4  UNL     1     -32.994   6.715   4.149  1.00 20.00     0.014 C 
BRANCH   7   8
HETATM    8  C6  UNL     1     -34.376   7.278   4.482  1.00 20.00     0.073 C 
BRANCH   8   9
HETATM    9  S9  UNL     1     -35.554   5.932   4.804  1.00 20.00    -0.173 SA
HETATM   10  C2  UNL     1     -35.040   5.534   6.490  1.00 20.00     0.089 C 
ENDBRANCH   8   9
ENDBRANCH   7   8
ENDBRANCH   2   7
TORSDOF 6
