REMARK  2 active torsions:
REMARK  status: ('A' for Active; 'I' for Inactive)
REMARK    1  A    between atoms: C5_5  and  C10_10 
REMARK    2  A    between atoms: C6_6  and  C11_11 
ROOT
HETATM    1  C1  UNL     1     -32.997   8.476   3.726  1.00 20.00     0.008 A 
HETATM    2  C2  UNL     1     -32.605   6.554   2.317  1.00 20.00     0.008 A 
HETATM    3  C3  UNL     1     -33.553   7.648   4.701  1.00 20.00     0.010 A 
HETATM    4  C4  UNL     1     -33.160   5.725   3.292  1.00 20.00     0.010 A 
HETATM    5  C5  UNL     1     -32.523   7.929   2.534  1.00 20.00    -0.054 A 
HETATM    6  C6  UNL     1     -33.634   6.273   4.484  1.00 20.00    -0.027 A 
ENDROOT
BRANCH   5   7
HETATM    7  C10 UNL     1     -31.930   8.814   1.492  1.00 20.00     0.018 A 
HETATM    8  C7  UNL     1     -32.738   9.973   0.969  1.00 20.00     0.010 A 
HETATM    9  C8  UNL     1     -32.494   8.783   0.095  1.00 20.00     0.010 A 
ENDBRANCH   5   7
BRANCH   6  10
HETATM   10  C11 UNL     1     -34.228   5.388   5.526  1.00 20.00     0.178 A 
HETATM   11  C9  UNL     1     -34.106   5.766   6.978  1.00 20.00     0.205 A 
HETATM   12  O12 UNL     1     -35.335   5.921   6.266  1.00 20.00    -0.376 OA
ENDBRANCH   6  10
TORSDOF 2
