REMARK  4 active torsions:
REMARK  status: ('A' for Active; 'I' for Inactive)
REMARK    1  A    between atoms: C3_3  and  C5_5 
REMARK    2  A    between atoms: C3_3  and  C6_6 
REMARK    3  A    between atoms: C5_5  and  S7_7 
REMARK    4  A    between atoms: C6_6  and  S8_8 
ROOT
HETATM    1  C1  UNL     1     -34.119   7.995   4.699  1.00 20.00     0.012 A 
HETATM    2  C2  UNL     1     -32.848   7.571   5.378  1.00 20.00     0.012 A 
HETATM    3  C3  UNL     1     -33.129   7.124   3.962  1.00 20.00    -0.024 A 
ENDROOT
BRANCH   3   4
HETATM    4  C5  UNL     1     -33.489   5.681   3.736  1.00 20.00     0.080 C 
BRANCH   4   5
HETATM    5  S7  UNL     1     -34.314   4.981   5.197  1.00 20.00    -0.181 SA
HETATM    6  H20 UNL     1     -34.488   3.756   4.685  1.00 20.00     0.101 HD
ENDBRANCH   4   5
ENDBRANCH   3   4
BRANCH   3   7
HETATM    7  C6  UNL     1     -32.328   7.749   2.853  1.00 20.00     0.083 C 
BRANCH   7   8
HETATM    8  S8  UNL     1     -33.309   7.864   1.327  1.00 20.00    -0.173 SA
HETATM    9  C4  UNL     1     -32.060   8.634   0.272  1.00 20.00     0.089 C 
ENDBRANCH   7   8
ENDBRANCH   3   7
TORSDOF 4
