REMARK  5 active torsions:
REMARK  status: ('A' for Active; 'I' for Inactive)
REMARK    1  A    between atoms: C5_5  and  C8_8 
REMARK    2  A    between atoms: C5_5  and  N9_9 
REMARK    3  A    between atoms: C6_6  and  C8_8 
REMARK    4  A    between atoms: C6_6  and  S10_10 
REMARK    5  A    between atoms: C7_7  and  C8_8 
ROOT
HETATM    1  C8  UNL     1     -33.841   6.319   4.089  1.00 20.00     0.024 C 
ENDROOT
BRANCH   1   2
HETATM    2  C5  UNL     1     -32.701   7.351   4.236  1.00 20.00     0.239 C 
BRANCH   2   3
HETATM    3  N9  UNL     1     -33.208   8.669   4.686  1.00 20.00    -0.078 N 
HETATM    4  C3  UNL     1     -32.109   9.692   4.844  1.00 20.00     0.269 C 
HETATM    5  C4  UNL     1     -34.319   9.195   3.810  1.00 20.00     0.269 C 
HETATM    6  H29 UNL     1     -33.620   8.547   5.627  1.00 20.00     0.278 HD
ENDBRANCH   2   3
ENDBRANCH   1   2
BRANCH   1   7
HETATM    7  C6  UNL     1     -33.350   4.925   3.621  1.00 20.00     0.077 C 
BRANCH   7   8
HETATM    8  S10 UNL     1     -32.464   4.917   2.029  1.00 20.00    -0.182 SA
HETATM    9  H30 UNL     1     -32.234   3.598   2.009  1.00 20.00     0.101 HD
ENDBRANCH   7   8
ENDBRANCH   1   7
BRANCH   1  10
HETATM   10  C7  UNL     1     -34.707   6.173   5.389  1.00 20.00    -0.016 C 
HETATM   11  C1  UNL     1     -33.899   5.632   6.577  1.00 20.00     0.010 C 
HETATM   12  C2  UNL     1     -35.921   5.255   5.180  1.00 20.00     0.010 C 
ENDBRANCH   1  10
TORSDOF 5
