REMARK  5 active torsions:
REMARK  status: ('A' for Active; 'I' for Inactive)
REMARK    1  A    between atoms: C1_1  and  C5_5 
REMARK    2  A    between atoms: C2_2  and  C6_6 
REMARK    3  A    between atoms: C5_5  and  O8_8 
REMARK    4  A    between atoms: C6_6  and  S9_9 
REMARK    5  A    between atoms: C7_7  and  O8_8 
ROOT
HETATM    1  C1  UNL     1     -32.028   7.733   3.705  1.00 20.00    -0.004 C 
HETATM    2  C2  UNL     1     -32.441   7.771   2.429  1.00 20.00    -0.019 C 
ENDROOT
BRANCH   1   3
HETATM    3  C5  UNL     1     -32.839   7.164   4.823  1.00 20.00     0.195 C 
BRANCH   3   4
HETATM    4  O8  UNL     1     -34.071   6.690   4.298  1.00 20.00    -0.383 OA
BRANCH   4   5
HETATM    5  C7  UNL     1     -34.684   5.750   5.170  1.00 20.00     0.113 C 
HETATM    6  C3  UNL     1     -34.026   4.391   4.985  1.00 20.00     0.039 C 
HETATM    7  C4  UNL     1     -34.565   6.246   6.604  1.00 20.00     0.039 C 
ENDBRANCH   4   5
ENDBRANCH   3   4
ENDBRANCH   1   3
BRANCH   2   8
HETATM    8  C6  UNL     1     -31.624   8.333   1.309  1.00 20.00     0.097 C 
BRANCH   8   9
HETATM    9  S9  UNL     1     -32.514   9.694   0.509  1.00 20.00    -0.178 SA
HETATM   10  H23 UNL     1     -31.570   9.968  -0.402  1.00 20.00     0.101 HD
ENDBRANCH   8   9
ENDBRANCH   2   8
TORSDOF 5
