REMARK  1 active torsions:
REMARK  status: ('A' for Active; 'I' for Inactive)
REMARK    1  A    between atoms: C5_5  and  C12_12 
ROOT
HETATM    1  C1  UNL     1     -32.532   6.221   1.726  1.00 20.00     0.008 A 
HETATM    2  C2  UNL     1     -33.012   5.072   2.363  1.00 20.00     0.009 A 
HETATM    3  C3  UNL     1     -33.153   7.598   3.632  1.00 20.00     0.023 A 
HETATM    4  C4  UNL     1     -33.619   6.445   4.235  1.00 20.00     0.017 A 
HETATM    5  C5  UNL     1     -32.603   7.475   2.356  1.00 20.00    -0.053 A 
HETATM    6  C6  UNL     1     -33.559   5.196   3.630  1.00 20.00    -0.044 A 
HETATM    7  C7  UNL     1     -34.232   6.286   5.544  1.00 20.00     0.160 A 
HETATM    8  C8  UNL     1     -34.126   4.109   4.485  1.00 20.00     0.047 A 
HETATM    9  C9  UNL     1     -34.578   4.833   5.765  1.00 20.00     0.088 A 
HETATM   10  O13 UNL     1     -34.426   7.200   6.326  1.00 20.00    -0.292 OA
ENDROOT
BRANCH   5  11
HETATM   11  C12 UNL     1     -32.084   8.684   1.654  1.00 20.00     0.018 A 
HETATM   12  C10 UNL     1     -32.999   9.866   1.459  1.00 20.00     0.010 A 
HETATM   13  C11 UNL     1     -32.615   9.021   0.285  1.00 20.00     0.010 A 
ENDBRANCH   5  11
TORSDOF 1
