REMARK  4 active torsions:
REMARK  status: ('A' for Active; 'I' for Inactive)
REMARK    1  A    between atoms: C4_4  and  O8_8 
REMARK    2  A    between atoms: C5_5  and  C6_6 
REMARK    3  A    between atoms: C5_5  and  O8_8 
REMARK    4  A    between atoms: C6_6  and  S9_9 
ROOT
HETATM    1  C1  UNL     1     -33.906   5.700   4.153  1.00 20.00     0.060 C 
HETATM    2  C2  UNL     1     -35.014   5.354   5.122  1.00 20.00     0.170 C 
HETATM    3  C3  UNL     1     -33.892   7.227   5.933  1.00 20.00     0.199 C 
HETATM    4  C4  UNL     1     -33.700   7.168   4.432  1.00 20.00     0.147 C 
HETATM    5  O7  UNL     1     -34.837   6.201   6.268  1.00 20.00    -0.389 OA
ENDROOT
BRANCH   4   6
HETATM    6  O8  UNL     1     -32.417   7.601   4.038  1.00 20.00    -0.383 OA
BRANCH   6   7
HETATM    7  C5  UNL     1     -32.355   7.838   2.639  1.00 20.00     0.178 C 
BRANCH   7   8
HETATM    8  C6  UNL     1     -33.033   9.156   2.302  1.00 20.00     0.097 C 
BRANCH   8   9
HETATM    9  S9  UNL     1     -32.969   9.499   0.517  1.00 20.00    -0.180 SA
HETATM   10  H21 UNL     1     -33.621  10.668   0.577  1.00 20.00     0.101 HD
ENDBRANCH   8   9
ENDBRANCH   7   8
ENDBRANCH   6   7
ENDBRANCH   4   6
TORSDOF 4
