REMARK  3 active torsions:
REMARK  status: ('A' for Active; 'I' for Inactive)
REMARK    1  A    between atoms: C4_4  and  C7_7 
REMARK    2  A    between atoms: C4_4  and  C9_9 
REMARK    3  A    between atoms: C8_8  and  C9_9 
ROOT
HETATM    1  C1  UNL     1     -35.708   5.022   5.749  1.00 20.00     0.002 C 
HETATM    2  C2  UNL     1     -34.404   4.508   5.109  1.00 20.00     0.011 C 
HETATM    3  C3  UNL     1     -35.867   5.969   4.543  1.00 20.00     0.011 C 
HETATM    4  C4  UNL     1     -34.336   5.834   4.296  1.00 20.00    -0.025 C 
ENDROOT
BRANCH   4   5
HETATM    5  C7  UNL     1     -33.957   5.646   2.831  1.00 20.00     0.124 C 
HETATM    6 CL10 UNL     1     -32.356   4.895   2.704  1.00 20.00    -0.130 Cl
ENDBRANCH   4   5
BRANCH   4   7
HETATM    7  C9  UNL     1     -33.496   6.931   4.954  1.00 20.00    -0.010 C 
HETATM    8  C6  UNL     1     -33.498   6.742   6.473  1.00 20.00     0.011 C 
BRANCH   7   9
HETATM    9  C8  UNL     1     -33.998   8.343   4.606  1.00 20.00     0.000 C 
HETATM   10  C5  UNL     1     -33.177   9.455   5.245  1.00 20.00     0.005 C 
ENDBRANCH   7   9
ENDBRANCH   4   7
TORSDOF 3
