REMARK  5 active torsions:
REMARK  status: ('A' for Active; 'I' for Inactive)
REMARK    1  A    between atoms: C1_1  and  C7_7 
REMARK    2  A    between atoms: C1_1  and  C11_11 
REMARK    3  A    between atoms: C7_7  and  C10_10 
REMARK    4  A    between atoms: C8_8  and  C10_10 
REMARK    5  A    between atoms: C9_9  and  C10_10 
ROOT
HETATM    1  C1  UNL     1     -34.260   6.852   4.617  1.00 20.00     0.134 C 
HETATM    2  O12 UNL     1     -35.244   6.427   4.008  1.00 20.00    -0.297 OA
ENDROOT
BRANCH   1   3
HETATM    3  C7  UNL     1     -33.367   7.932   4.008  1.00 20.00     0.083 C 
BRANCH   3   4
HETATM    4  C10 UNL     1     -33.346   7.918   2.465  1.00 20.00    -0.008 C 
BRANCH   4   5
HETATM    5  C8  UNL     1     -32.474   6.755   1.942  1.00 20.00     0.000 C 
HETATM    6  C2  UNL     1     -32.889   5.368   2.415  1.00 20.00     0.005 C 
ENDBRANCH   4   5
BRANCH   4   7
HETATM    7  C9  UNL     1     -32.926   9.302   1.922  1.00 20.00     0.000 C 
HETATM    8  C3  UNL     1     -32.929   9.390   0.403  1.00 20.00     0.005 C 
ENDBRANCH   4   7
ENDBRANCH   3   4
ENDBRANCH   1   3
BRANCH   1   9
HETATM    9  C11 UNL     1     -33.885   6.306   6.011  1.00 20.00     0.009 C 
HETATM   10  C4  UNL     1     -33.179   7.411   6.806  1.00 20.00     0.022 C 
HETATM   11  C5  UNL     1     -35.164   5.893   6.762  1.00 20.00     0.022 C 
HETATM   12  C6  UNL     1     -32.978   5.075   5.885  1.00 20.00     0.022 C 
ENDBRANCH   1   9
TORSDOF 5
