REMARK  4 active torsions:
REMARK  status: ('A' for Active; 'I' for Inactive)
REMARK    1  A    between atoms: C5_5  and  C8_8 
REMARK    2  A    between atoms: C6_6  and  C8_8 
REMARK    3  A    between atoms: C7_7  and  C8_8 
REMARK    4  A    between atoms: C7_7  and  S10_10 
ROOT
HETATM    1  C1  UNL     1     -32.558   8.501   4.047  1.00 20.00     0.074 C 
HETATM    2  C7  UNL     1     -32.901   7.491   3.026  1.00 20.00     0.157 C 
HETATM    3  N9  UNL     1     -32.296   9.296   4.850  1.00 20.00    -0.196 NA
ENDROOT
BRANCH   2   4
HETATM    4  C8  UNL     1     -32.956   6.058   3.639  1.00 20.00     0.012 C 
BRANCH   4   5
HETATM    5  C5  UNL     1     -32.743   4.943   2.579  1.00 20.00     0.002 C 
HETATM    6  C2  UNL     1     -32.715   3.538   3.169  1.00 20.00     0.005 C 
ENDBRANCH   4   5
BRANCH   4   7
HETATM    7  C6  UNL     1     -34.249   5.789   4.451  1.00 20.00     0.002 C 
HETATM    8  C3  UNL     1     -34.494   6.773   5.588  1.00 20.00     0.005 C 
ENDBRANCH   4   7
ENDBRANCH   2   4
BRANCH   2   9
HETATM    9  S10 UNL     1     -31.788   7.644   1.579  1.00 20.00    -0.154 SA
HETATM   10  C4  UNL     1     -32.615   9.035   0.779  1.00 20.00     0.091 C 
ENDBRANCH   2   9
TORSDOF 4
