REMARK  6 active torsions:
REMARK  status: ('A' for Active; 'I' for Inactive)
REMARK    1  A    between atoms: C5_5  and  C7_7 
REMARK    2  A    between atoms: C6_6  and  C11_11 
REMARK    3  A    between atoms: C7_7  and  C8_8 
REMARK    4  A    between atoms: C8_8  and  C11_11 
REMARK    5  A    between atoms: C9_9  and  C11_11 
REMARK    6  A    between atoms: C10_10  and  C11_11 
ROOT
HETATM    1  C11 UNL     1     -33.626   6.376   3.575  1.00 20.00    -0.025 C 
ENDROOT
BRANCH   1   2
HETATM    2  C6  UNL     1     -32.828   7.098   4.725  1.00 20.00     0.006 C 
HETATM    3  C2  UNL     1     -33.349   8.465   5.160  1.00 20.00     0.006 C 
ENDBRANCH   1   2
BRANCH   1   4
HETATM    4  C8  UNL     1     -33.581   7.309   2.313  1.00 20.00     0.011 C 
BRANCH   4   5
HETATM    5  C7  UNL     1     -32.185   7.616   1.744  1.00 20.00     0.000 C 
BRANCH   5   6
HETATM    6  C5  UNL     1     -32.285   8.487   0.489  1.00 20.00    -0.005 C 
HETATM    7  C1  UNL     1     -32.941   9.825   0.790  1.00 20.00     0.005 C 
ENDBRANCH   5   6
ENDBRANCH   4   5
ENDBRANCH   1   4
BRANCH   1   8
HETATM    8  C9  UNL     1     -35.085   6.175   4.102  1.00 20.00     0.124 C 
HETATM    9 CL12 UNL     1     -35.249   5.741   5.826  1.00 20.00    -0.130 Cl
ENDBRANCH   1   8
BRANCH   1  10
HETATM   10  C10 UNL     1     -32.952   4.972   3.251  1.00 20.00    -0.013 C 
HETATM   11  C3  UNL     1     -32.864   4.030   4.465  1.00 20.00     0.010 C 
HETATM   12  C4  UNL     1     -33.583   4.181   2.095  1.00 20.00     0.010 C 
ENDBRANCH   1  10
TORSDOF 6
