REMARK  4 active torsions:
REMARK  status: ('A' for Active; 'I' for Inactive)
REMARK    1  A    between atoms: C5_5  and  C6_6 
REMARK    2  A    between atoms: C6_6  and  C9_9 
REMARK    3  A    between atoms: C7_7  and  C9_9 
REMARK    4  A    between atoms: C8_8  and  C9_9 
ROOT
HETATM    1  C4  UNL     1     -35.738   6.726   3.401  1.00 20.00     0.016 C 
HETATM    2  C9  UNL     1     -34.610   6.417   4.428  1.00 20.00    -0.029 C 
ENDROOT
BRANCH   2   3
HETATM    3  C6  UNL     1     -33.934   7.800   4.726  1.00 20.00     0.010 C 
BRANCH   3   4
HETATM    4  C5  UNL     1     -33.240   8.521   3.567  1.00 20.00    -0.004 C 
HETATM    5  C1  UNL     1     -32.566   9.802   4.044  1.00 20.00     0.005 C 
ENDBRANCH   3   4
ENDBRANCH   2   3
BRANCH   2   6
HETATM    6  C7  UNL     1     -35.340   5.873   5.695  1.00 20.00     0.124 C 
HETATM    7 CL10 UNL     1     -34.291   5.407   7.056  1.00 20.00    -0.130 Cl
ENDBRANCH   2   6
BRANCH   2   8
HETATM    8  C8  UNL     1     -33.595   5.369   3.830  1.00 20.00    -0.014 C 
HETATM    9  C2  UNL     1     -33.418   5.473   2.306  1.00 20.00     0.010 C 
HETATM   10  C3  UNL     1     -33.929   3.907   4.171  1.00 20.00     0.010 C 
ENDBRANCH   2   8
TORSDOF 4
