REMARK  4 active torsions:
REMARK  status: ('A' for Active; 'I' for Inactive)
REMARK    1  A    between atoms: C2_2  and  C6_6 
REMARK    2  A    between atoms: C2_2  and  C7_7 
REMARK    3  A    between atoms: C7_7  and  C8_8 
REMARK    4  A    between atoms: C8_8  and  C9_9 
ROOT
HETATM    1  C7  UNL     1     -32.230   7.471   4.043  1.00 20.00     0.039 C 
ENDROOT
BRANCH   1   2
HETATM    2  C2  UNL     1     -32.525   6.849   2.691  1.00 20.00    -0.089 C 
HETATM    3  C1  UNL     1     -32.391   5.526   2.500  1.00 20.00     0.014 C 
BRANCH   2   4
HETATM    4  C6  UNL     1     -32.978   7.750   1.565  1.00 20.00     0.029 C 
HETATM    5  C3  UNL     1     -31.826   8.297   0.734  1.00 20.00     0.010 C 
ENDBRANCH   2   4
ENDBRANCH   1   2
BRANCH   1   6
HETATM    6  C8  UNL     1     -33.423   7.480   5.031  1.00 20.00     0.003 C 
HETATM    7  C4  UNL     1     -34.583   8.335   4.497  1.00 20.00     0.011 C 
BRANCH   6   8
HETATM    8  C9  UNL     1     -33.915   6.059   5.412  1.00 20.00     0.082 C 
HETATM    9  C5  UNL     1     -34.586   6.001   6.782  1.00 20.00     0.027 C 
HETATM   10 CL10 UNL     1     -35.027   5.363   4.192  1.00 20.00    -0.125 Cl
ENDBRANCH   6   8
ENDBRANCH   1   6
TORSDOF 4
