REMARK  2 active torsions:
REMARK  status: ('A' for Active; 'I' for Inactive)
REMARK    1  A    between atoms: C4_4  and  C7_7 
REMARK    2  A    between atoms: C4_4  and  C8_8 
ROOT
HETATM    1  C1  UNL     1     -34.263   8.056   4.860  1.00 20.00     0.039 C 
HETATM    2  C2  UNL     1     -33.277   9.134   5.265  1.00 20.00     0.168 C 
HETATM    3  C3  UNL     1     -32.148   7.552   3.976  1.00 20.00     0.178 C 
HETATM    4  C4  UNL     1     -33.367   6.858   4.578  1.00 20.00    -0.001 C 
HETATM    5  O9  UNL     1     -32.026   8.822   4.637  1.00 20.00    -0.390 OA
ENDROOT
BRANCH   4   6
HETATM    6  C7  UNL     1     -32.993   6.130   5.880  1.00 20.00     0.126 C 
HETATM    7 CL10 UNL     1     -34.390   6.071   6.968  1.00 20.00    -0.130 Cl
ENDBRANCH   4   6
BRANCH   4   8
HETATM    8  C8  UNL     1     -34.005   5.866   3.606  1.00 20.00    -0.011 C 
HETATM    9  C5  UNL     1     -33.052   4.709   3.334  1.00 20.00     0.010 C 
HETATM   10  C6  UNL     1     -35.330   5.363   4.163  1.00 20.00     0.010 C 
ENDBRANCH   4   8
TORSDOF 2
