REMARK  6 active torsions:
REMARK  status: ('A' for Active; 'I' for Inactive)
REMARK    1  A    between atoms: C4_4  and  C7_7 
REMARK    2  A    between atoms: C5_5  and  C9_9 
REMARK    3  A    between atoms: C6_6  and  C9_9 
REMARK    4  A    between atoms: C7_7  and  C10_10 
REMARK    5  A    between atoms: C8_8  and  C10_10 
REMARK    6  A    between atoms: C9_9  and  C10_10 
ROOT
HETATM    1  C10 UNL     1     -33.275   7.128   4.183  1.00 20.00     0.003 C 
ENDROOT
BRANCH   1   2
HETATM    2  C7  UNL     1     -32.643   8.045   3.096  1.00 20.00     0.005 C 
BRANCH   2   3
HETATM    3  C4  UNL     1     -33.644   8.665   2.116  1.00 20.00    -0.004 C 
HETATM    4  C1  UNL     1     -32.945   9.559   1.102  1.00 20.00     0.005 C 
ENDBRANCH   2   3
ENDBRANCH   1   2
BRANCH   1   5
HETATM    5  C8  UNL     1     -34.210   7.907   5.135  1.00 20.00     0.119 C 
HETATM    6 CL11 UNL     1     -34.519   7.057   6.668  1.00 20.00    -0.130 Cl
ENDBRANCH   1   5
BRANCH   1   7
HETATM    7  C9  UNL     1     -33.970   5.864   3.544  1.00 20.00    -0.010 C 
BRANCH   7   8
HETATM    8  C5  UNL     1     -33.221   5.315   2.303  1.00 20.00     0.000 C 
HETATM    9  C2  UNL     1     -33.890   4.129   1.621  1.00 20.00     0.005 C 
ENDBRANCH   7   8
BRANCH   7  10
HETATM   10  C6  UNL     1     -34.223   4.758   4.603  1.00 20.00     0.000 C 
HETATM   11  C3  UNL     1     -32.965   4.174   5.234  1.00 20.00     0.005 C 
ENDBRANCH   7  10
ENDBRANCH   1   7
TORSDOF 6
