REMARK  4 active torsions:
REMARK  status: ('A' for Active; 'I' for Inactive)
REMARK    1  A    between atoms: C1_1  and  C9_9 
REMARK    2  A    between atoms: C1_1  and  C10_10 
REMARK    3  A    between atoms: C7_7  and  C9_9 
REMARK    4  A    between atoms: C8_8  and  C9_9 
ROOT
HETATM    1  C1  UNL     1     -32.775   7.253   4.323  1.00 20.00     0.138 C 
HETATM    2  O11 UNL     1     -31.733   7.909   4.416  1.00 20.00    -0.297 OA
ENDROOT
BRANCH   1   3
HETATM    3  C9  UNL     1     -33.042   6.415   3.065  1.00 20.00     0.055 C 
BRANCH   3   4
HETATM    4  C7  UNL     1     -32.371   7.122   1.872  1.00 20.00     0.007 C 
HETATM    5  C2  UNL     1     -32.874   8.542   1.655  1.00 20.00     0.006 C 
ENDBRANCH   3   4
BRANCH   3   6
HETATM    6  C8  UNL     1     -32.512   4.980   3.245  1.00 20.00     0.007 C 
HETATM    7  C3  UNL     1     -32.756   4.095   2.030  1.00 20.00     0.006 C 
ENDBRANCH   3   6
ENDBRANCH   1   3
BRANCH   1   8
HETATM    8  C10 UNL     1     -33.835   7.265   5.450  1.00 20.00     0.010 C 
HETATM    9  C4  UNL     1     -35.032   6.382   5.077  1.00 20.00     0.022 C 
HETATM   10  C5  UNL     1     -33.207   6.781   6.763  1.00 20.00     0.022 C 
HETATM   11  C6  UNL     1     -34.342   8.705   5.656  1.00 20.00     0.022 C 
ENDBRANCH   1   8
TORSDOF 4
