REMARK  3 active torsions:
REMARK  status: ('A' for Active; 'I' for Inactive)
REMARK    1  A    between atoms: C4_4  and  C10_10 
REMARK    2  A    between atoms: C8_8  and  C10_10 
REMARK    3  A    between atoms: C9_9  and  C10_10 
ROOT
HETATM    1  C1  UNL     1     -32.675   7.718   3.099  1.00 20.00     0.006 C 
HETATM    2  C2  UNL     1     -32.864   9.236   3.068  1.00 20.00     0.020 C 
HETATM    3  C3  UNL     1     -33.840   8.488   5.101  1.00 20.00     0.025 C 
HETATM    4  C4  UNL     1     -33.209   7.246   4.461  1.00 20.00    -0.009 C 
HETATM    5  C5  UNL     1     -33.049   9.654   4.521  1.00 20.00     0.082 C 
HETATM    6 CL11 UNL     1     -31.471   9.830   5.337  1.00 20.00    -0.125 Cl
ENDROOT
BRANCH   4   7
HETATM    7  C10 UNL     1     -34.185   6.085   4.349  1.00 20.00    -0.011 C 
BRANCH   7   8
HETATM    8  C8  UNL     1     -35.081   5.974   5.601  1.00 20.00     0.000 C 
HETATM    9  C6  UNL     1     -34.311   5.723   6.890  1.00 20.00     0.005 C 
ENDBRANCH   7   8
BRANCH   7  10
HETATM   10  C9  UNL     1     -33.450   4.745   4.136  1.00 20.00     0.000 C 
HETATM   11  C7  UNL     1     -32.577   4.712   2.889  1.00 20.00     0.005 C 
ENDBRANCH   7  10
ENDBRANCH   4   7
TORSDOF 3
