REMARK  2 active torsions:
REMARK  status: ('A' for Active; 'I' for Inactive)
REMARK    1  A    between atoms: C3_3  and  C8_8 
REMARK    2  A    between atoms: C8_8  and  C9_9 
ROOT
HETATM    1  C1  UNL     1     -32.304   8.377   4.152  1.00 20.00     0.302 C 
HETATM    2  C2  UNL     1     -33.411   6.695   5.546  1.00 20.00     0.244 C 
HETATM    3  C3  UNL     1     -32.379   7.243   3.133  1.00 20.00     0.150 C 
HETATM    4  C4  UNL     1     -34.386   6.689   4.353  1.00 20.00     0.150 C 
HETATM    5  C5  UNL     1     -34.107   6.654   6.904  1.00 20.00     0.045 C 
HETATM    6  C6  UNL     1     -35.331   5.491   4.346  1.00 20.00     0.042 C 
HETATM    7  N10 UNL     1     -32.568   7.903   5.511  1.00 20.00     0.092 N 
HETATM    8  O11 UNL     1     -33.682   6.654   3.101  1.00 20.00    -0.377 OA
HETATM    9  H30 UNL     1     -31.670   7.708   5.981  1.00 20.00     0.316 HD
ENDROOT
BRANCH   3  10
HETATM   10  C8  UNL     1     -32.065   7.737   1.727  1.00 20.00     0.033 C 
BRANCH  10  11
HETATM   11  C9  UNL     1     -33.072   8.787   1.273  1.00 20.00    -0.002 C 
HETATM   12  C7  UNL     1     -32.744   9.300  -0.120  1.00 20.00     0.005 C 
ENDBRANCH  10  11
ENDBRANCH   3  10
TORSDOF 2
