REMARK  2 active torsions:
REMARK  status: ('A' for Active; 'I' for Inactive)
REMARK    1  A    between atoms: C5_5  and  C7_7 
REMARK    2  A    between atoms: C7_7  and  N8_8 
ROOT
HETATM    1  C1  UNL     1     -34.157   5.659   4.930  1.00 20.00     0.332 C 
HETATM    2  N8  UNL     1     -33.718   6.679   5.320  1.00 20.00    -0.245 NA
HETATM    3  O9  UNL     1     -34.595   4.639   4.541  1.00 20.00    -0.260 OA
ENDROOT
BRANCH   2   4
HETATM    4  C7  UNL     1     -34.032   7.833   4.489  1.00 20.00     0.190 C 
BRANCH   4   5
HETATM    5  C5  UNL     1     -32.719   8.448   3.997  1.00 20.00     0.075 C 
HETATM    6  C3  UNL     1     -31.697   7.379   3.609  1.00 20.00     0.041 C 
HETATM    7  C2  UNL     1     -32.014   7.133   2.154  1.00 20.00     0.029 C 
HETATM    8  C4  UNL     1     -32.395   8.517   1.679  1.00 20.00     0.169 C 
HETATM    9  O10 UNL     1     -33.005   9.186   2.792  1.00 20.00    -0.379 OA
HETATM   10  C6  UNL     1     -32.166   9.413   5.041  1.00 20.00     0.048 C 
ENDBRANCH   4   5
ENDBRANCH   2   4
TORSDOF 2
