REMARK  1 active torsions:
REMARK  status: ('A' for Active; 'I' for Inactive)
REMARK    1  A    between atoms: C4_4  and  C6_6 
ROOT
HETATM    1  C1  UNL     1     -34.672   6.765   6.762  1.00 20.00     0.029 C 
HETATM    2  C2  UNL     1     -34.021   7.412   5.564  1.00 20.00     0.041 C 
HETATM    3  C3  UNL     1     -34.290   5.314   6.579  1.00 20.00     0.169 C 
HETATM    4  C4  UNL     1     -34.182   6.346   4.480  1.00 20.00     0.070 C 
HETATM    5  C5  UNL     1     -35.502   6.496   3.720  1.00 20.00     0.047 C 
HETATM    6  O7  UNL     1     -34.213   5.078   5.166  1.00 20.00    -0.379 OA
ENDROOT
BRANCH   4   7
HETATM    7  C6  UNL     1     -33.009   6.344   3.504  1.00 20.00     0.152 C 
HETATM    8 CL8  UNL     1     -33.239   5.087   2.276  1.00 20.00    -0.127 Cl
ENDBRANCH   4   7
TORSDOF 1
