REMARK  3 active torsions:
REMARK  status: ('A' for Active; 'I' for Inactive)
REMARK    1  A    between atoms: C6_6  and  C10_10 
REMARK    2  A    between atoms: C6_6  and  C11_11 
REMARK    3  A    between atoms: C9_9  and  N12_12 
ROOT
HETATM    1  C1  UNL     1     -32.908   9.557  -0.169  1.00 20.00     0.013 C 
HETATM    2  C2  UNL     1     -32.983   9.701   1.020  1.00 20.00    -0.087 C 
HETATM    3  C9  UNL     1     -33.077   9.883   2.471  1.00 20.00     0.364 C 
ENDROOT
BRANCH   3   4
HETATM    4  N12 UNL     1     -32.903   8.613   3.160  1.00 20.00     0.100 N 
HETATM    5  C4  UNL     1     -32.524   8.783   4.563  1.00 20.00     0.274 C 
HETATM    6  C3  UNL     1     -32.913   7.463   5.232  1.00 20.00     0.041 C 
HETATM    7  C6  UNL     1     -33.779   6.716   4.199  1.00 20.00    -0.013 C 
HETATM    8  C5  UNL     1     -34.131   7.816   3.188  1.00 20.00     0.283 C 
BRANCH   7   9
HETATM    9  C10 UNL     1     -35.036   6.114   4.831  1.00 20.00     0.007 C 
HETATM   10  C7  UNL     1     -34.687   5.139   5.901  1.00 20.00     0.006 C 
ENDBRANCH   7   9
BRANCH   7  11
HETATM   11  C11 UNL     1     -32.961   5.594   3.533  1.00 20.00     0.007 C 
HETATM   12  C8  UNL     1     -31.762   6.134   2.827  1.00 20.00     0.006 C 
ENDBRANCH   7  11
ENDBRANCH   3   4
TORSDOF 3
