REMARK  2 active torsions:
REMARK  status: ('A' for Active; 'I' for Inactive)
REMARK    1  A    between atoms: C1_1  and  C6_6 
REMARK    2  A    between atoms: C1_1  and  C9_9 
ROOT
HETATM    1  C2  UNL     1     -33.237   5.060   6.384  1.00 20.00     0.005 C 
HETATM    2  C3  UNL     1     -33.518   6.555   6.594  1.00 20.00     0.006 C 
HETATM    3  C4  UNL     1     -33.716   5.280   3.937  1.00 20.00     0.017 C 
HETATM    4  C5  UNL     1     -35.420   5.572   5.582  1.00 20.00     0.010 C 
HETATM    5  C6  UNL     1     -34.014   6.780   4.105  1.00 20.00     0.061 C 
HETATM    6  C7  UNL     1     -34.219   4.680   5.264  1.00 20.00    -0.013 C 
HETATM    7  C8  UNL     1     -34.593   6.860   5.534  1.00 20.00    -0.003 C 
ENDROOT
BRANCH   5   8
HETATM    8  C1  UNL     1     -32.816   7.650   3.892  1.00 20.00     0.145 C 
HETATM    9  O10 UNL     1     -32.398   8.372   4.795  1.00 20.00    -0.296 OA
BRANCH   8  10
HETATM   10  C9  UNL     1     -32.186   7.573   2.520  1.00 20.00     0.193 C 
HETATM   11 CL11 UNL     1     -33.350   8.032   1.269  1.00 20.00    -0.123 Cl
ENDBRANCH   8  10
ENDBRANCH   5   8
TORSDOF 2
