REMARK  3 active torsions:
REMARK  status: ('A' for Active; 'I' for Inactive)
REMARK    1  A    between atoms: C1_1  and  C3_3 
REMARK    2  A    between atoms: C2_2  and  C8_8 
REMARK    3  A    between atoms: C8_8  and  C10_10 
ROOT
HETATM    1  C4  UNL     1     -31.805   9.100   0.401  1.00 20.00     0.002 C 
HETATM    2  C5  UNL     1     -32.962   9.891   1.013  1.00 20.00     0.002 C 
HETATM    3  C6  UNL     1     -31.767   7.761   1.138  1.00 20.00     0.022 C 
HETATM    4  C7  UNL     1     -33.569   8.993   2.091  1.00 20.00     0.022 C 
HETATM    5  C8  UNL     1     -32.443   8.031   2.488  1.00 20.00     0.024 C 
ENDROOT
BRANCH   5   6
HETATM    6  C2  UNL     1     -32.983   6.750   3.122  1.00 20.00    -0.085 C 
HETATM    7  C1  UNL     1     -33.407   5.743   3.621  1.00 20.00     0.005 C 
BRANCH   7   8
HETATM    8  C3  UNL     1     -33.952   4.451   4.260  1.00 20.00     0.258 C 
HETATM    9  O11 UNL     1     -33.349   3.383   3.949  1.00 20.00    -0.637 OA
HETATM   10  O12 UNL     1     -34.947   4.592   5.030  1.00 20.00    -0.637 OA
ENDBRANCH   7   8
ENDBRANCH   5   6
BRANCH   5  11
HETATM   11  C10 UNL     1     -31.502   8.680   3.426  1.00 20.00     0.018 C 
HETATM   12  C9  UNL     1     -32.167   9.034   4.716  1.00 20.00     0.007 C 
ENDBRANCH   5  11
TORSDOF 3
