REMARK  3 active torsions:
REMARK  status: ('A' for Active; 'I' for Inactive)
REMARK    1  A    between atoms: C1_1  and  C10_10 
REMARK    2  A    between atoms: C5_5  and  C10_10 
REMARK    3  A    between atoms: C10_10  and  O11_11 
ROOT
HETATM    1  C9  UNL     1     -34.213   4.721   4.158  1.00 20.00     0.051 C 
HETATM    2  C10 UNL     1     -34.853   5.976   4.706  1.00 20.00     0.079 C 
ENDROOT
BRANCH   2   3
HETATM    3  C1  UNL     1     -34.349   7.239   4.028  1.00 20.00     0.013 C 
HETATM    4  C2  UNL     1     -33.103   7.754   3.994  1.00 20.00    -0.088 C 
HETATM    5  C6  UNL     1     -32.833   9.036   3.250  1.00 20.00     0.042 C 
HETATM    6  C7  UNL     1     -31.897   7.172   4.674  1.00 20.00     0.042 C 
ENDBRANCH   2   3
BRANCH   2   7
HETATM    7  C5  UNL     1     -34.593   6.078   6.219  1.00 20.00    -0.010 A 
HETATM    8  C3  UNL     1     -33.710   5.031   6.858  1.00 20.00     0.013 A 
HETATM    9  C4  UNL     1     -35.190   5.017   7.113  1.00 20.00     0.013 A 
HETATM   10  C8  UNL     1     -34.515   7.484   6.747  1.00 20.00     0.018 C 
ENDBRANCH   2   7
BRANCH   2  11
HETATM   11  O11 UNL     1     -36.272   5.878   4.548  1.00 20.00    -0.385 OA
HETATM   12  H29 UNL     1     -36.538   5.061   4.996  1.00 20.00     0.211 HD
ENDBRANCH   2  11
TORSDOF 3
