REMARK  3 active torsions:
REMARK  status: ('A' for Active; 'I' for Inactive)
REMARK    1  A    between atoms: C4_4  and  C9_9 
REMARK    2  A    between atoms: C8_8  and  C9_9 
REMARK    3  A    between atoms: C9_9  and  O11_11 
ROOT
HETATM    1  C1  UNL     1     -32.756   6.198   2.702  1.00 20.00     0.066 C 
HETATM    2  C6  UNL     1     -32.273   4.543   4.431  1.00 20.00     0.028 C 
HETATM    3  C8  UNL     1     -33.389   5.258   3.656  1.00 20.00     0.123 C 
HETATM    4  N10 UNL     1     -32.265   6.936   1.953  1.00 20.00    -0.197 NA
ENDROOT
BRANCH   3   5
HETATM    5  C9  UNL     1     -34.418   5.979   4.580  1.00 20.00     0.077 C 
HETATM    6  C7  UNL     1     -35.529   6.617   3.768  1.00 20.00     0.048 C 
BRANCH   5   7
HETATM    7  C4  UNL     1     -33.747   7.066   5.439  1.00 20.00    -0.012 A 
HETATM    8  C2  UNL     1     -33.147   6.654   6.763  1.00 20.00     0.013 A 
HETATM    9  C3  UNL     1     -34.416   7.457   6.737  1.00 20.00     0.013 A 
HETATM   10  C5  UNL     1     -33.049   8.142   4.654  1.00 20.00     0.018 C 
ENDBRANCH   5   7
BRANCH   5  11
HETATM   11  O11 UNL     1     -35.005   5.017   5.463  1.00 20.00    -0.388 OA
HETATM   12  H26 UNL     1     -35.417   4.348   4.897  1.00 20.00     0.210 HD
ENDBRANCH   5  11
ENDBRANCH   3   5
TORSDOF 3
