REMARK  1 active torsions:
REMARK  status: ('A' for Active; 'I' for Inactive)
REMARK    1  A    between atoms: C3_3  and  C8_8 
ROOT
HETATM    1  C1  UNL     1     -33.615   5.418   3.106  1.00 20.00     0.017 A 
HETATM    2  C2  UNL     1     -34.100   4.853   4.321  1.00 20.00     0.032 A 
HETATM    3  C3  UNL     1     -33.022   6.645   3.307  1.00 20.00    -0.012 A 
HETATM    4  C4  UNL     1     -33.860   5.670   5.404  1.00 20.00     0.075 A 
HETATM    5  S10 UNL     1     -33.053   7.111   4.954  1.00 20.00    -0.082 SA
HETATM    6 CL11 UNL     1     -34.271   5.389   7.043  1.00 20.00    -0.076 Cl
ENDROOT
BRANCH   3   7
HETATM    7  C8  UNL     1     -32.387   7.563   2.284  1.00 20.00     0.027 C 
HETATM    8  C5  UNL     1     -33.007   8.977   2.230  1.00 20.00     0.011 C 
HETATM    9  C6  UNL     1     -32.902   9.449   0.776  1.00 20.00     0.021 C 
HETATM   10  C9  UNL     1     -32.065   8.389   0.074  1.00 20.00     0.083 C 
HETATM   11  C7  UNL     1     -32.422   7.111   0.817  1.00 20.00     0.030 C 
HETATM   12 CL12 UNL     1     -32.419   8.285  -1.657  1.00 20.00    -0.125 Cl
ENDBRANCH   3   7
TORSDOF 1
