REMARK  1 active torsions:
REMARK  status: ('A' for Active; 'I' for Inactive)
REMARK    1  A    between atoms: C4_4  and  C5_5 
ROOT
HETATM    1  C1  UNL     1     -34.423   4.791   5.057  1.00 20.00     0.013 A 
HETATM    2  C2  UNL     1     -35.303   5.559   4.113  1.00 20.00     0.013 A 
HETATM    3  C4  UNL     1     -33.834   5.899   4.215  1.00 20.00    -0.011 A 
HETATM    4  C6  UNL     1     -32.965   5.476   3.058  1.00 20.00     0.018 C 
ENDROOT
BRANCH   3   5
HETATM    5  C5  UNL     1     -33.390   7.214   4.869  1.00 20.00     0.086 A 
HETATM    6  C3  UNL     1     -32.170   7.955   4.395  1.00 20.00     0.207 A 
HETATM    7  O8  UNL     1     -33.496   8.361   4.023  1.00 20.00    -0.375 OA
HETATM    8  C7  UNL     1     -33.876   7.451   6.262  1.00 20.00     0.049 C 
ENDBRANCH   3   5
TORSDOF 1
