REMARK  1 active torsions:
REMARK  status: ('A' for Active; 'I' for Inactive)
REMARK    1  A    between atoms: C3_3  and  C8_8 
ROOT
HETATM    1  C1  UNL     1     -34.598   6.475   5.759  1.00 20.00     0.089 C 
HETATM    2  C2  UNL     1     -33.935   7.439   4.952  1.00 20.00     0.113 C 
HETATM    3  C3  UNL     1     -33.329   7.145   3.792  1.00 20.00     0.030 C 
HETATM    4  N10 UNL     1     -35.141   5.694   6.423  1.00 20.00    -0.192 NA
HETATM    5 CL11 UNL     1     -33.347   5.499   3.230  1.00 20.00    -0.087 Cl
ENDROOT
BRANCH   3   6
HETATM    6  C8  UNL     1     -32.595   8.108   2.862  1.00 20.00    -0.005 C 
HETATM    7  C6  UNL     1     -32.682   7.658   1.394  1.00 20.00     0.015 C 
HETATM    8  C4  UNL     1     -32.711   8.958   0.603  1.00 20.00     0.001 C 
HETATM    9  C5  UNL     1     -33.591   9.854   1.456  1.00 20.00     0.001 C 
HETATM   10  C7  UNL     1     -33.195   9.528   2.895  1.00 20.00     0.015 C 
HETATM   11  C9  UNL     1     -31.151   8.174   3.290  1.00 20.00     0.021 C 
ENDBRANCH   3   6
TORSDOF 1
