REMARK  2 active torsions:
REMARK  status: ('A' for Active; 'I' for Inactive)
REMARK    1  A    between atoms: C1_1  and  C4_4 
REMARK    2  A    between atoms: C1_1  and  C6_6 
ROOT
HETATM    1  C2  UNL     1     -35.718   5.974   4.690  1.00 20.00     0.018 A 
HETATM    2  C3  UNL     1     -34.880   5.749   5.912  1.00 20.00     0.018 A 
HETATM    3  C4  UNL     1     -34.237   5.696   4.542  1.00 20.00     0.018 A 
HETATM    4  C5  UNL     1     -33.843   4.337   4.021  1.00 20.00     0.023 C 
ENDROOT
BRANCH   3   5
HETATM    5  C1  UNL     1     -33.373   6.840   4.161  1.00 20.00     0.148 C 
HETATM    6  O7  UNL     1     -32.711   6.807   3.125  1.00 20.00    -0.296 OA
BRANCH   5   7
HETATM    7  C6  UNL     1     -33.373   8.009   5.119  1.00 20.00     0.193 C 
HETATM    8 CL8  UNL     1     -32.290   9.287   4.546  1.00 20.00    -0.123 Cl
ENDBRANCH   5   7
ENDBRANCH   3   5
TORSDOF 2
