REMARK  3 active torsions:
REMARK  status: ('A' for Active; 'I' for Inactive)
REMARK    1  A    between atoms: C3_3  and  C6_6 
REMARK    2  A    between atoms: C6_6  and  C7_7 
REMARK    3  A    between atoms: C6_6  and  O8_8 
ROOT
HETATM    1  C5  UNL     1     -35.850   6.474   3.603  1.00 20.00     0.056 C 
HETATM    2  C6  UNL     1     -34.755   5.798   4.405  1.00 20.00     0.158 C 
ENDROOT
BRANCH   2   3
HETATM    3  C3  UNL     1     -34.344   6.631   5.587  1.00 20.00    -0.004 A 
HETATM    4  C1  UNL     1     -33.839   5.915   6.817  1.00 20.00     0.013 A 
HETATM    5  C2  UNL     1     -35.194   6.562   6.833  1.00 20.00     0.013 A 
HETATM    6  C4  UNL     1     -33.718   7.952   5.233  1.00 20.00     0.018 C 
ENDBRANCH   2   3
BRANCH   2   7
HETATM    7  C7  UNL     1     -33.564   5.474   3.494  1.00 20.00     0.418 C 
HETATM    8  F9  UNL     1     -32.618   4.786   4.171  1.00 20.00    -0.168 F 
HETATM    9  F10 UNL     1     -32.979   6.587   2.998  1.00 20.00    -0.168 F 
HETATM   10  F11 UNL     1     -33.948   4.712   2.446  1.00 20.00    -0.168 F 
ENDBRANCH   2   7
BRANCH   2  11
HETATM   11  O8  UNL     1     -35.285   4.546   4.872  1.00 20.00    -0.380 OA
HETATM   12  H22 UNL     1     -36.044   4.771   5.426  1.00 20.00     0.211 HD
ENDBRANCH   2  11
TORSDOF 3
