REMARK  1 active torsions:
REMARK  status: ('A' for Active; 'I' for Inactive)
REMARK    1  A    between atoms: C6_6  and  O8_8 
ROOT
HETATM    1  C1  UNL     1     -32.892   8.831   3.076  1.00 20.00     0.002 C 
HETATM    2  C2  UNL     1     -33.737   9.069   4.353  1.00 20.00     0.010 C 
HETATM    3  C3  UNL     1     -32.344   7.541   3.739  1.00 20.00     0.010 C 
HETATM    4  C4  UNL     1     -33.449   7.137   6.073  1.00 20.00     0.041 C 
HETATM    5  C5  UNL     1     -34.710   6.665   4.382  1.00 20.00     0.041 C 
HETATM    6  C6  UNL     1     -34.902   6.604   5.924  1.00 20.00     0.119 C 
HETATM    7  C7  UNL     1     -33.549   7.596   4.644  1.00 20.00    -0.036 C 
ENDROOT
BRANCH   6   8
HETATM    8  O8  UNL     1     -35.148   5.300   6.478  1.00 20.00    -0.396 OA
HETATM    9  H20 UNL     1     -36.081   5.113   6.307  1.00 20.00     0.210 HD
ENDBRANCH   6   8
TORSDOF 1
