REMARK  0 active torsions:
REMARK  status: ('A' for Active; 'I' for Inactive)
ROOT
HETATM    1  C1  UNL     1     -32.318   7.458   1.889  1.00 20.00     0.128 C 
HETATM    2  C2  UNL     1     -33.703   7.784   2.471  1.00 20.00     0.088 C 
HETATM    3  C3  UNL     1     -32.111   6.298   2.876  1.00 20.00     0.088 C 
HETATM    4  C4  UNL     1     -34.765   7.033   6.574  1.00 20.00     0.000 C 
HETATM    5  C5  UNL     1     -34.140   5.639   6.540  1.00 20.00     0.000 C 
HETATM    6  C6  UNL     1     -34.007   8.130   5.809  1.00 20.00     0.001 C 
HETATM    7  C7  UNL     1     -34.129   4.944   5.171  1.00 20.00     0.001 C 
HETATM    8  C8  UNL     1     -32.859   7.663   4.918  1.00 20.00     0.010 C 
HETATM    9  C9  UNL     1     -34.422   5.826   3.961  1.00 20.00     0.010 C 
HETATM   10  C10 UNL     1     -33.329   6.866   3.689  1.00 20.00    -0.027 C 
HETATM   11  O11 UNL     1     -31.644   7.937   1.003  1.00 20.00    -0.298 OA
ENDROOT
TORSDOF 0
