REMARK  3 active torsions:
REMARK  status: ('A' for Active; 'I' for Inactive)
REMARK    1  A    between atoms: C4_4  and  C7_7 
REMARK    2  A    between atoms: C6_6  and  C7_7 
REMARK    3  A    between atoms: C6_6  and  O9_9 
ROOT
HETATM    1  C1  UNL     1     -33.404   5.893   3.396  1.00 20.00     0.066 C 
HETATM    2  C7  UNL     1     -33.609   6.720   4.596  1.00 20.00     0.120 C 
HETATM    3  N8  UNL     1     -33.236   5.244   2.449  1.00 20.00    -0.197 NA
ENDROOT
BRANCH   2   4
HETATM    4  C4  UNL     1     -34.645   5.987   5.403  1.00 20.00     0.005 A 
HETATM    5  C2  UNL     1     -34.236   4.879   6.334  1.00 20.00     0.006 A 
HETATM    6  C3  UNL     1     -34.726   6.187   6.891  1.00 20.00     0.006 A 
ENDBRANCH   2   4
BRANCH   2   7
HETATM    7  C6  UNL     1     -34.028   8.146   4.248  1.00 20.00     0.186 C 
BRANCH   7   8
HETATM    8  O9  UNL     1     -32.904   8.932   3.868  1.00 20.00    -0.395 OA
HETATM    9  C5  UNL     1     -32.545   8.705   2.512  1.00 20.00     0.201 C 
ENDBRANCH   7   8
ENDBRANCH   2   7
TORSDOF 3
