REMARK  4 active torsions:
REMARK  status: ('A' for Active; 'I' for Inactive)
REMARK    1  A    between atoms: C2_2  and  C6_6 
REMARK    2  A    between atoms: C6_6  and  O10_10 
REMARK    3  A    between atoms: C7_7  and  C8_8 
REMARK    4  A    between atoms: C8_8  and  O10_10 
ROOT
HETATM    1  C5  UNL     1     -33.643   7.865   6.716  1.00 20.00     0.040 C 
HETATM    2  C8  UNL     1     -33.696   7.099   5.398  1.00 20.00     0.120 C 
ENDROOT
BRANCH   2   3
HETATM    3  C7  UNL     1     -34.910   6.152   5.286  1.00 20.00     0.006 C 
HETATM    4  C3  UNL     1     -34.890   5.047   6.344  1.00 20.00     0.012 C 
HETATM    5  C4  UNL     1     -34.981   5.520   3.890  1.00 20.00     0.012 C 
ENDBRANCH   2   3
BRANCH   2   6
HETATM    6  O10 UNL     1     -33.764   8.055   4.338  1.00 20.00    -0.383 OA
BRANCH   6   7
HETATM    7  C6  UNL     1     -32.484   8.590   4.045  1.00 20.00     0.202 C 
BRANCH   7   8
HETATM    8  C2  UNL     1     -31.724   7.606   3.181  1.00 20.00     0.169 A 
HETATM    9  C1  UNL     1     -31.985   7.505   1.704  1.00 20.00     0.202 A 
HETATM   10  O9  UNL     1     -32.526   6.553   2.634  1.00 20.00    -0.379 OA
ENDBRANCH   7   8
ENDBRANCH   6   7
ENDBRANCH   2   6
TORSDOF 4
