REMARK  4 active torsions:
REMARK  status: ('A' for Active; 'I' for Inactive)
REMARK    1  A    between atoms: C2_2  and  C7_7 
REMARK    2  A    between atoms: C7_7  and  O11_11 
REMARK    3  A    between atoms: C8_8  and  C9_9 
REMARK    4  A    between atoms: C9_9  and  O11_11 
ROOT
HETATM    1  O11 UNL     1     -32.860   7.156   4.930  1.00 20.00    -0.383 OA
ENDROOT
BRANCH   1   2
HETATM    2  C7  UNL     1     -33.817   6.366   5.617  1.00 20.00     0.208 C 
BRANCH   2   3
HETATM    3  C2  UNL     1     -34.546   5.494   4.617  1.00 20.00     0.100 A 
HETATM    4  C1  UNL     1     -33.764   4.512   3.777  1.00 20.00     0.208 A 
HETATM    5  O10 UNL     1     -34.506   4.095   4.933  1.00 20.00    -0.373 OA
HETATM    6  C3  UNL     1     -35.882   5.966   4.143  1.00 20.00     0.050 C 
ENDBRANCH   2   3
ENDBRANCH   1   2
BRANCH   1   7
HETATM    7  C9  UNL     1     -33.472   8.289   4.311  1.00 20.00     0.120 C 
HETATM    8  C6  UNL     1     -33.678   9.354   5.383  1.00 20.00     0.040 C 
BRANCH   7   9
HETATM    9  C8  UNL     1     -32.577   8.757   3.144  1.00 20.00     0.006 C 
HETATM   10  C4  UNL     1     -33.185   9.930   2.373  1.00 20.00     0.012 C 
HETATM   11  C5  UNL     1     -32.298   7.601   2.174  1.00 20.00     0.012 C 
ENDBRANCH   7   9
ENDBRANCH   1   7
TORSDOF 4
