REMARK  3 active torsions:
REMARK  status: ('A' for Active; 'I' for Inactive)
REMARK    1  A    between atoms: C5_5  and  C7_7 
REMARK    2  A    between atoms: C5_5  and  O9_9 
REMARK    3  A    between atoms: C6_6  and  C7_7 
ROOT
HETATM    1  C1  UNL     1     -33.367   5.568   3.323  1.00 20.00     0.088 C 
HETATM    2  C7  UNL     1     -34.047   6.384   4.355  1.00 20.00     0.149 C 
HETATM    3  N8  UNL     1     -32.831   4.932   2.514  1.00 20.00    -0.195 NA
HETATM    4 CL10 UNL     1     -35.816   6.126   4.119  1.00 20.00    -0.100 Cl
ENDROOT
BRANCH   2   5
HETATM    5  C5  UNL     1     -33.733   7.875   4.108  1.00 20.00     0.208 C 
BRANCH   5   6
HETATM    6  O9  UNL     1     -32.442   8.220   4.605  1.00 20.00    -0.393 OA
HETATM    7  C4  UNL     1     -31.422   7.874   3.680  1.00 20.00     0.201 C 
ENDBRANCH   5   6
ENDBRANCH   2   5
BRANCH   2   8
HETATM    8  C6  UNL     1     -33.597   5.928   5.783  1.00 20.00     0.017 C 
HETATM    9  C2  UNL     1     -34.210   6.756   6.922  1.00 20.00     0.012 C 
HETATM   10  C3  UNL     1     -33.858   4.438   6.069  1.00 20.00     0.012 C 
ENDBRANCH   2   8
TORSDOF 3
