REMARK  0 active torsions:
REMARK  status: ('A' for Active; 'I' for Inactive)
ROOT
HETATM    1  C1  UNL     1     -32.739   7.969   4.353  1.00 20.00     0.005 C 
HETATM    2  C2  UNL     1     -33.244   7.471   5.609  1.00 20.00     0.041 C 
HETATM    3  C3  UNL     1     -32.720   7.204   3.247  1.00 20.00    -0.081 C 
HETATM    4  C4  UNL     1     -33.918   6.316   5.673  1.00 20.00     0.128 C 
HETATM    5  C5  UNL     1     -33.252   5.787   3.269  1.00 20.00     0.078 C 
HETATM    6  C6  UNL     1     -34.172   5.473   4.462  1.00 20.00     0.235 C 
HETATM    7  C7  UNL     1     -32.154   7.690   1.947  1.00 20.00     0.043 C 
HETATM    8  F8  UNL     1     -34.383   5.897   6.870  1.00 20.00    -0.208 F 
HETATM    9  F9  UNL     1     -35.462   5.657   4.055  1.00 20.00    -0.242 F 
ENDROOT
TORSDOF 0
