REMARK  3 active torsions:
REMARK  status: ('A' for Active; 'I' for Inactive)
REMARK    1  A    between atoms: C3_3  and  C6_6 
REMARK    2  A    between atoms: C5_5  and  C6_6 
REMARK    3  A    between atoms: C5_5  and  O7_7 
ROOT
HETATM    1  C6  UNL     1     -34.167   6.294   4.096  1.00 20.00     0.110 C 
HETATM    2 CL8  UNL     1     -33.649   4.799   3.233  1.00 20.00    -0.122 Cl
ENDROOT
BRANCH   1   3
HETATM    3  C3  UNL     1     -34.770   5.941   5.412  1.00 20.00     0.006 A 
HETATM    4  C1  UNL     1     -33.934   5.286   6.476  1.00 20.00     0.006 A 
HETATM    5  C2  UNL     1     -34.389   6.708   6.648  1.00 20.00     0.006 A 
ENDBRANCH   1   3
BRANCH   1   6
HETATM    6  C5  UNL     1     -32.956   7.232   4.232  1.00 20.00     0.187 C 
BRANCH   6   7
HETATM    7  O7  UNL     1     -33.378   8.573   4.451  1.00 20.00    -0.394 OA
HETATM    8  C4  UNL     1     -32.270   9.442   4.640  1.00 20.00     0.201 C 
ENDBRANCH   6   7
ENDBRANCH   1   6
TORSDOF 3
