REMARK  3 active torsions:
REMARK  status: ('A' for Active; 'I' for Inactive)
REMARK    1  A    between atoms: C3_3  and  C6_6 
REMARK    2  A    between atoms: C5_5  and  C6_6 
REMARK    3  A    between atoms: C5_5  and  O7_7 
ROOT
HETATM    1  C6  UNL     1     -34.234   6.070   4.060  1.00 20.00     0.110 C 
HETATM    2 CL8  UNL     1     -33.777   4.343   3.816  1.00 20.00    -0.122 Cl
ENDROOT
BRANCH   1   3
HETATM    3  C3  UNL     1     -33.011   6.911   4.192  1.00 20.00     0.006 A 
HETATM    4  C1  UNL     1     -32.201   7.266   2.976  1.00 20.00     0.006 A 
HETATM    5  C2  UNL     1     -33.006   8.324   3.678  1.00 20.00     0.006 A 
ENDBRANCH   1   3
BRANCH   1   6
HETATM    6  C5  UNL     1     -35.151   6.160   5.291  1.00 20.00     0.187 C 
BRANCH   6   7
HETATM    7  O7  UNL     1     -34.386   6.210   6.489  1.00 20.00    -0.394 OA
HETATM    8  C4  UNL     1     -33.994   4.912   6.911  1.00 20.00     0.201 C 
ENDBRANCH   6   7
ENDBRANCH   1   6
TORSDOF 3
