REMARK  2 active torsions:
REMARK  status: ('A' for Active; 'I' for Inactive)
REMARK    1  A    between atoms: C1_1  and  C5_5 
REMARK    2  A    between atoms: C1_1  and  C8_8 
ROOT
HETATM    1  C2  UNL     1     -34.005   7.065   5.022  1.00 20.00     0.017 C 
HETATM    2  C3  UNL     1     -33.578   5.545   3.157  1.00 20.00     0.017 C 
HETATM    3  C4  UNL     1     -34.117   4.482   5.501  1.00 20.00     0.010 A 
HETATM    4  C5  UNL     1     -32.959   6.707   3.952  1.00 20.00     0.057 C 
HETATM    5  C6  UNL     1     -34.790   5.805   5.244  1.00 20.00    -0.009 A 
HETATM    6  C7  UNL     1     -34.528   4.878   4.107  1.00 20.00    -0.009 A 
ENDROOT
BRANCH   4   7
HETATM    7  C1  UNL     1     -32.638   7.875   3.075  1.00 20.00     0.144 C 
HETATM    8  O9  UNL     1     -32.690   9.022   3.515  1.00 20.00    -0.296 OA
BRANCH   7   9
HETATM    9  C8  UNL     1     -32.257   7.541   1.651  1.00 20.00     0.193 C 
HETATM   10 CL10 UNL     1     -33.390   8.282   0.511  1.00 20.00    -0.123 Cl
ENDBRANCH   7   9
ENDBRANCH   4   7
TORSDOF 2
