REMARK  3 active torsions:
REMARK  status: ('A' for Active; 'I' for Inactive)
REMARK    1  A    between atoms: C3_3  and  C7_7 
REMARK    2  A    between atoms: C3_3  and  C8_8 
REMARK    3  A    between atoms: C6_6  and  C8_8 
ROOT
HETATM    1  C1  UNL     1     -32.681   9.391   0.501  1.00 20.00     0.012 C 
HETATM    2  C2  UNL     1     -32.394   8.524   1.281  1.00 20.00    -0.110 C 
HETATM    3  C7  UNL     1     -32.037   7.462   2.228  1.00 20.00     0.171 C 
ENDROOT
BRANCH   3   4
HETATM    4  C3  UNL     1     -32.873   7.504   3.494  1.00 20.00     0.138 C 
HETATM    5  O9  UNL     1     -32.906   8.488   4.232  1.00 20.00    -0.297 OA
BRANCH   4   6
HETATM    6  C8  UNL     1     -33.669   6.246   3.793  1.00 20.00     0.083 C 
BRANCH   6   7
HETATM    7  C6  UNL     1     -34.454   6.316   5.065  1.00 20.00    -0.007 A 
HETATM    8  C4  UNL     1     -34.929   5.055   5.733  1.00 20.00     0.005 A 
HETATM    9  C5  UNL     1     -33.835   5.873   6.362  1.00 20.00     0.005 A 
ENDBRANCH   6   7
ENDBRANCH   4   6
ENDBRANCH   3   4
TORSDOF 3
