REMARK  1 active torsions:
REMARK  status: ('A' for Active; 'I' for Inactive)
REMARK    1  A    between atoms: C3_3  and  C7_7 
ROOT
HETATM    1  C1  UNL     1     -32.968   9.311   2.374  1.00 20.00     0.087 C 
HETATM    2  C2  UNL     1     -32.861   8.170   3.214  1.00 20.00     0.090 C 
HETATM    3  C3  UNL     1     -33.700   7.973   4.240  1.00 20.00    -0.011 C 
HETATM    4  N8  UNL     1     -33.052  10.241   1.685  1.00 20.00    -0.192 NA
ENDROOT
BRANCH   3   5
HETATM    5  C7  UNL     1     -33.630   6.808   5.138  1.00 20.00     0.009 C 
HETATM    6  C5  UNL     1     -34.830   6.629   6.102  1.00 20.00     0.008 C 
HETATM    7  C4  UNL     1     -34.693   5.109   5.872  1.00 20.00     0.001 C 
HETATM    8  C6  UNL     1     -34.044   5.451   4.514  1.00 20.00     0.008 C 
ENDBRANCH   3   5
TORSDOF 1
