REMARK  3 active torsions:
REMARK  status: ('A' for Active; 'I' for Inactive)
REMARK    1  A    between atoms: C5_5  and  C8_8 
REMARK    2  A    between atoms: C7_7  and  C8_8 
REMARK    3  A    between atoms: C8_8  and  O9_9 
ROOT
HETATM    1  C1  UNL     1     -32.277   8.302   1.491  1.00 20.00     0.012 C 
HETATM    2  C2  UNL     1     -32.393   7.952   2.634  1.00 20.00    -0.115 C 
HETATM    3  C7  UNL     1     -32.532   7.523   4.035  1.00 20.00     0.125 C 
ENDROOT
BRANCH   3   4
HETATM    4  C8  UNL     1     -33.885   6.843   4.300  1.00 20.00     0.137 C 
BRANCH   4   5
HETATM    5  C5  UNL     1     -33.990   6.340   5.713  1.00 20.00    -0.017 A 
HETATM    6  C3  UNL     1     -34.611   7.251   6.746  1.00 20.00     0.012 A 
HETATM    7  C4  UNL     1     -33.131   6.999   6.766  1.00 20.00     0.012 A 
HETATM    8  C6  UNL     1     -34.244   4.862   5.834  1.00 20.00     0.018 C 
ENDBRANCH   4   5
BRANCH   4   9
HETATM    9  O9  UNL     1     -34.013   5.741   3.394  1.00 20.00    -0.394 OA
HETATM   10  H21 UNL     1     -33.939   6.114   2.505  1.00 20.00     0.210 HD
ENDBRANCH   4   9
ENDBRANCH   3   4
TORSDOF 3
