REMARK  3 active torsions:
REMARK  status: ('A' for Active; 'I' for Inactive)
REMARK    1  A    between atoms: C1_1  and  C7_7 
REMARK    2  A    between atoms: C2_2  and  C3_3 
REMARK    3  A    between atoms: C3_3  and  C10_10 
ROOT
HETATM    1  C1  UNL     1     -32.410   7.332   3.660  1.00 20.00    -0.012 C 
HETATM    2  C3  UNL     1     -33.296   6.608   4.367  1.00 20.00    -0.020 C 
ENDROOT
BRANCH   2   3
HETATM    3  C2  UNL     1     -33.203   6.812   5.842  1.00 20.00     0.265 C 
HETATM    4  O11 UNL     1     -33.921   6.246   6.657  1.00 20.00    -0.302 OA
ENDBRANCH   2   3
BRANCH   2   5
HETATM    5  C10 UNL     1     -34.327   5.651   3.798  1.00 20.00     0.013 C 
HETATM    6  C8  UNL     1     -35.760   6.099   4.097  1.00 20.00     0.015 C 
HETATM    7  C9  UNL     1     -34.092   4.209   4.253  1.00 20.00     0.015 C 
ENDBRANCH   2   5
BRANCH   1   8
HETATM    8  C7  UNL     1     -32.337   7.274   2.189  1.00 20.00     0.009 C 
HETATM    9  C5  UNL     1     -33.524   7.922   1.431  1.00 20.00     0.008 C 
HETATM   10  C4  UNL     1     -32.495   8.416   0.394  1.00 20.00     0.001 C 
HETATM   11  C6  UNL     1     -31.441   8.346   1.518  1.00 20.00     0.008 C 
ENDBRANCH   1   8
TORSDOF 3
