REMARK  5 active torsions:
REMARK  status: ('A' for Active; 'I' for Inactive)
REMARK    1  A    between atoms: C1_1  and  C7_7 
REMARK    2  A    between atoms: C1_1  and  C9_9 
REMARK    3  A    between atoms: C4_4  and  C9_9 
REMARK    4  A    between atoms: C8_8  and  C9_9 
REMARK    5  A    between atoms: C8_8  and  O11_11 
ROOT
HETATM    1  C9  UNL     1     -32.242   7.816   2.807  1.00 20.00     0.083 C 
ENDROOT
BRANCH   1   2
HETATM    2  C1  UNL     1     -32.715   7.978   4.255  1.00 20.00     0.133 C 
HETATM    3  O10 UNL     1     -32.458   8.989   4.911  1.00 20.00    -0.297 OA
BRANCH   2   4
HETATM    4  C7  UNL     1     -33.490   6.813   4.853  1.00 20.00     0.074 C 
HETATM    5  C5  UNL     1     -33.939   7.086   6.278  1.00 20.00     0.013 C 
ENDBRANCH   2   4
ENDBRANCH   1   2
BRANCH   1   6
HETATM    6  C4  UNL     1     -33.240   8.387   1.831  1.00 20.00    -0.001 A 
HETATM    7  C2  UNL     1     -33.221   9.853   1.497  1.00 20.00     0.006 A 
HETATM    8  C3  UNL     1     -32.792   8.843   0.470  1.00 20.00     0.006 A 
ENDBRANCH   1   6
BRANCH   1   9
HETATM    9  C8  UNL     1     -31.977   6.339   2.505  1.00 20.00     0.179 C 
BRANCH   9  10
HETATM   10  O11 UNL     1     -33.208   5.681   2.228  1.00 20.00    -0.395 OA
HETATM   11  C6  UNL     1     -33.004   4.316   1.892  1.00 20.00     0.201 C 
ENDBRANCH   9  10
ENDBRANCH   1   9
TORSDOF 5
