REMARK  3 active torsions:
REMARK  status: ('A' for Active; 'I' for Inactive)
REMARK    1  A    between atoms: C3_3  and  C7_7 
REMARK    2  A    between atoms: C6_6  and  C7_7 
REMARK    3  A    between atoms: C7_7  and  O8_8 
ROOT
HETATM    1  C7  UNL     1     -34.499   5.872   4.224  1.00 20.00     0.126 C 
ENDROOT
BRANCH   1   2
HETATM    2  C3  UNL     1     -34.085   7.066   5.040  1.00 20.00    -0.018 A 
HETATM    3  C1  UNL     1     -33.096   6.848   6.161  1.00 20.00     0.012 A 
HETATM    4  C2  UNL     1     -34.536   7.130   6.481  1.00 20.00     0.012 A 
HETATM    5  C4  UNL     1     -34.005   8.354   4.268  1.00 20.00     0.018 C 
ENDBRANCH   1   2
BRANCH   1   6
HETATM    6  C6  UNL     1     -33.295   5.186   3.560  1.00 20.00     0.028 C 
HETATM    7  C5  UNL     1     -32.570   6.088   2.570  1.00 20.00     0.007 C 
ENDBRANCH   1   6
BRANCH   1   8
HETATM    8  O8  UNL     1     -35.155   4.919   5.067  1.00 20.00    -0.395 OA
HETATM    9  H22 UNL     1     -34.510   4.670   5.745  1.00 20.00     0.210 HD
ENDBRANCH   1   8
TORSDOF 3
