REMARK  3 active torsions:
REMARK  status: ('A' for Active; 'I' for Inactive)
REMARK    1  A    between atoms: C1_1  and  C7_7 
REMARK    2  A    between atoms: C2_2  and  C3_3 
REMARK    3  A    between atoms: C3_3  and  C9_9 
ROOT
HETATM    1  C1  UNL     1     -33.147   8.103   3.776  1.00 20.00    -0.012 C 
HETATM    2  C3  UNL     1     -33.777   7.204   4.554  1.00 20.00    -0.024 C 
ENDROOT
BRANCH   1   3
HETATM    3  C7  UNL     1     -33.261   8.242   2.314  1.00 20.00     0.009 C 
HETATM    4  C5  UNL     1     -32.822   9.611   1.732  1.00 20.00     0.008 C 
HETATM    5  C4  UNL     1     -32.235   8.831   0.538  1.00 20.00     0.001 C 
HETATM    6  C6  UNL     1     -32.104   7.623   1.488  1.00 20.00     0.008 C 
ENDBRANCH   1   3
BRANCH   2   7
HETATM    7  C2  UNL     1     -33.480   7.269   6.010  1.00 20.00     0.265 C 
HETATM    8  O10 UNL     1     -33.983   6.510   6.830  1.00 20.00    -0.302 OA
ENDBRANCH   2   7
BRANCH   2   9
HETATM    9  C9  UNL     1     -34.714   6.134   4.065  1.00 20.00     0.037 C 
HETATM   10  C8  UNL     1     -33.984   4.840   3.735  1.00 20.00     0.010 C 
ENDBRANCH   2   9
TORSDOF 3
