REMARK  4 active torsions:
REMARK  status: ('A' for Active; 'I' for Inactive)
REMARK    1  A    between atoms: C1_1  and  C4_4 
REMARK    2  A    between atoms: C1_1  and  C9_9 
REMARK    3  A    between atoms: C9_9  and  C10_10 
REMARK    4  A    between atoms: C10_10  and  C11_11 
ROOT
HETATM    1  C1  UNL     1     -33.126   6.068   3.858  1.00 20.00     0.135 C 
HETATM    2  O12 UNL     1     -32.718   4.919   3.752  1.00 20.00    -0.297 OA
ENDROOT
BRANCH   1   3
HETATM    3  C4  UNL     1     -34.302   6.364   4.729  1.00 20.00     0.017 A 
HETATM    4  C2  UNL     1     -34.072   7.323   5.873  1.00 20.00     0.018 A 
HETATM    5  C3  UNL     1     -34.234   5.860   6.151  1.00 20.00     0.018 A 
HETATM    6  C5  UNL     1     -35.649   6.387   4.062  1.00 20.00     0.023 C 
ENDBRANCH   1   3
BRANCH   1   7
HETATM    7  C9  UNL     1     -32.521   7.269   3.159  1.00 20.00     0.080 C 
BRANCH   7   8
HETATM    8  C10 UNL     1     -33.136   7.497   1.776  1.00 20.00     0.015 C 
BRANCH   8   9
HETATM    9  C11 UNL     1     -32.530   8.665   0.954  1.00 20.00    -0.051 C 
HETATM   10  C6  UNL     1     -32.783   9.976   1.725  1.00 20.00     0.014 C 
HETATM   11  C7  UNL     1     -33.194   8.776  -0.428  1.00 20.00     0.014 C 
HETATM   12  C8  UNL     1     -31.013   8.491   0.774  1.00 20.00     0.014 C 
ENDBRANCH   8   9
ENDBRANCH   7   8
ENDBRANCH   1   7
TORSDOF 4
