REMARK  4 active torsions:
REMARK  status: ('A' for Active; 'I' for Inactive)
REMARK    1  A    between atoms: C2_2  and  C8_8 
REMARK    2  A    between atoms: C3_3  and  C8_8 
REMARK    3  A    between atoms: C3_3  and  C9_9 
REMARK    4  A    between atoms: C6_6  and  C9_9 
ROOT
HETATM    1  C1  UNL     1     -32.572   8.675   0.813  1.00 20.00    -0.111 C 
HETATM    2  C2  UNL     1     -32.267   8.006   1.763  1.00 20.00    -0.100 C 
HETATM    3  C7  UNL     1     -32.945   9.490  -0.343  1.00 20.00     0.112 C 
ENDROOT
BRANCH   2   4
HETATM    4  C8  UNL     1     -31.889   7.192   2.923  1.00 20.00     0.172 C 
BRANCH   4   5
HETATM    5  C3  UNL     1     -32.924   6.132   3.254  1.00 20.00     0.138 C 
HETATM    6  O10 UNL     1     -32.904   5.009   2.751  1.00 20.00    -0.297 OA
BRANCH   5   7
HETATM    7  C9  UNL     1     -33.990   6.549   4.251  1.00 20.00     0.083 C 
BRANCH   7   8
HETATM    8  C6  UNL     1     -33.642   6.239   5.673  1.00 20.00    -0.007 A 
HETATM    9  C4  UNL     1     -34.720   6.170   6.719  1.00 20.00     0.005 A 
HETATM   10  C5  UNL     1     -34.023   4.915   6.274  1.00 20.00     0.005 A 
ENDBRANCH   7   8
ENDBRANCH   5   7
ENDBRANCH   4   5
ENDBRANCH   2   4
TORSDOF 4
