REMARK  2 active torsions:
REMARK  status: ('A' for Active; 'I' for Inactive)
REMARK    1  A    between atoms: C6_6  and  C8_8 
REMARK    2  A    between atoms: C7_7  and  C9_9 
ROOT
HETATM    1  C4  UNL     1     -33.466   4.614   3.567  1.00 20.00     0.034 C 
HETATM    2  C5  UNL     1     -32.539   4.968   2.423  1.00 20.00     0.168 C 
HETATM    3  C7  UNL     1     -34.429   5.783   3.553  1.00 20.00     0.031 C 
HETATM    4  C8  UNL     1     -33.511   6.952   3.200  1.00 20.00     0.130 C 
HETATM    5  O10 UNL     1     -32.478   6.400   2.359  1.00 20.00    -0.385 OA
ENDROOT
BRANCH   4   6
HETATM    6  C6  UNL     1     -32.831   7.603   4.399  1.00 20.00     0.015 C 
HETATM    7  C2  UNL     1     -33.638   8.698   5.145  1.00 20.00     0.007 C 
HETATM    8  C1  UNL     1     -32.301   9.442   5.344  1.00 20.00     0.001 C 
HETATM    9  C3  UNL     1     -31.785   8.706   4.091  1.00 20.00     0.007 C 
ENDBRANCH   4   6
BRANCH   3  10
HETATM   10  C9  UNL     1     -35.259   5.917   4.817  1.00 20.00     0.121 C 
HETATM   11 CL11 UNL     1     -34.271   5.560   6.248  1.00 20.00    -0.130 Cl
ENDBRANCH   3  10
TORSDOF 2
