REMARK  3 active torsions:
REMARK  status: ('A' for Active; 'I' for Inactive)
REMARK    1  A    between atoms: C1_1  and  C6_6 
REMARK    2  A    between atoms: C2_2  and  C8_8 
REMARK    3  A    between atoms: C2_2  and  C9_9 
ROOT
HETATM    1  C1  UNL     1     -33.680   8.121   4.368  1.00 20.00    -0.018 C 
HETATM    2  C2  UNL     1     -32.957   8.349   3.255  1.00 20.00    -0.070 C 
ENDROOT
BRANCH   1   3
HETATM    3  C6  UNL     1     -33.579   6.872   5.143  1.00 20.00     0.008 C 
HETATM    4  C4  UNL     1     -34.089   6.945   6.605  1.00 20.00     0.008 C 
HETATM    5  C3  UNL     1     -34.639   5.517   6.405  1.00 20.00     0.001 C 
HETATM    6  C5  UNL     1     -34.704   5.836   4.897  1.00 20.00     0.008 C 
ENDBRANCH   1   3
BRANCH   2   7
HETATM    7  C8  UNL     1     -31.993   7.288   2.760  1.00 20.00     0.030 C 
HETATM    8  C7  UNL     1     -32.646   6.313   1.790  1.00 20.00     0.010 C 
ENDBRANCH   2   7
BRANCH   2   9
HETATM    9  C9  UNL     1     -33.032   9.616   2.443  1.00 20.00     0.148 C 
HETATM   10 CL10 UNL     1     -32.687   9.279   0.730  1.00 20.00    -0.126 Cl
ENDBRANCH   2   9
TORSDOF 3
