REMARK  2 active torsions:
REMARK  status: ('A' for Active; 'I' for Inactive)
REMARK    1  A    between atoms: C7_7  and  C9_9 
REMARK    2  A    between atoms: C9_9  and  O11_11 
ROOT
HETATM    1  C1  UNL     1     -32.413   8.857   0.781  1.00 20.00     0.010 A 
HETATM    2  C2  UNL     1     -31.549   8.932   3.257  1.00 20.00     0.012 C 
HETATM    3  C3  UNL     1     -32.573   6.861   2.475  1.00 20.00     0.012 C 
HETATM    4  C5  UNL     1     -32.575   9.278   2.215  1.00 20.00    -0.010 A 
HETATM    5  C6  UNL     1     -33.204   8.006   1.735  1.00 20.00    -0.010 A 
HETATM    6  C7  UNL     1     -31.931   7.510   3.718  1.00 20.00     0.021 C 
ENDROOT
BRANCH   6   7
HETATM    7  C9  UNL     1     -32.889   7.545   4.881  1.00 20.00     0.065 A 
HETATM    8  C4  UNL     1     -34.364   7.604   4.617  1.00 20.00     0.045 A 
HETATM    9  C8  UNL     1     -33.746   6.345   5.167  1.00 20.00     0.019 A 
HETATM   10  C10 UNL     1     -34.034   5.921   6.567  1.00 20.00     0.013 C 
BRANCH   7  11
HETATM   11  O11 UNL     1     -32.402   8.310   5.989  1.00 20.00    -0.389 OA
HETATM   12  H27 UNL     1     -31.446   8.163   6.019  1.00 20.00     0.210 HD
ENDBRANCH   7  11
ENDBRANCH   6   7
TORSDOF 2
