REMARK  5 active torsions:
REMARK  status: ('A' for Active; 'I' for Inactive)
REMARK    1  A    between atoms: C2_2  and  C8_8 
REMARK    2  A    between atoms: C2_2  and  C9_9 
REMARK    3  A    between atoms: C3_3  and  C8_8 
REMARK    4  A    between atoms: C3_3  and  C10_10 
REMARK    5  A    between atoms: C6_6  and  C10_10 
ROOT
HETATM    1  C3  UNL     1     -33.494   8.168   4.742  1.00 20.00     0.131 C 
HETATM    2  O11 UNL     1     -32.481   8.785   5.071  1.00 20.00    -0.298 OA
ENDROOT
BRANCH   1   3
HETATM    3  C8  UNL     1     -33.933   8.030   3.288  1.00 20.00     0.111 C 
BRANCH   3   4
HETATM    4  C2  UNL     1     -32.852   7.427   2.429  1.00 20.00    -0.083 C 
HETATM    5  C1  UNL     1     -32.347   8.096   1.381  1.00 20.00     0.014 C 
BRANCH   4   6
HETATM    6  C9  UNL     1     -32.360   6.043   2.784  1.00 20.00     0.029 C 
HETATM    7  C7  UNL     1     -33.150   4.943   2.089  1.00 20.00     0.010 C 
ENDBRANCH   4   6
ENDBRANCH   3   4
ENDBRANCH   1   3
BRANCH   1   8
HETATM    8  C10 UNL     1     -34.368   7.456   5.758  1.00 20.00     0.083 C 
BRANCH   8   9
HETATM    9  C6  UNL     1     -33.965   6.038   6.013  1.00 20.00    -0.008 A 
HETATM   10  C4  UNL     1     -34.940   5.071   6.624  1.00 20.00     0.005 A 
HETATM   11  C5  UNL     1     -34.541   4.926   5.182  1.00 20.00     0.005 A 
ENDBRANCH   8   9
ENDBRANCH   1   8
TORSDOF 5
