REMARK  5 active torsions:
REMARK  status: ('A' for Active; 'I' for Inactive)
REMARK    1  A    between atoms: C3_3  and  C9_9 
REMARK    2  A    between atoms: C7_7  and  C10_10 
REMARK    3  A    between atoms: C8_8  and  C10_10 
REMARK    4  A    between atoms: C9_9  and  C10_10 
REMARK    5  A    between atoms: C9_9  and  O11_11 
ROOT
HETATM    1  C9  UNL     1     -33.694   7.057   5.485  1.00 20.00     0.130 C 
ENDROOT
BRANCH   1   2
HETATM    2  C3  UNL     1     -34.426   5.719   5.468  1.00 20.00    -0.018 A 
HETATM    3  C1  UNL     1     -34.811   5.139   4.127  1.00 20.00     0.012 A 
HETATM    4  C2  UNL     1     -35.871   5.708   5.025  1.00 20.00     0.012 A 
HETATM    5  C4  UNL     1     -34.015   4.767   6.557  1.00 20.00     0.018 C 
ENDBRANCH   1   2
BRANCH   1   6
HETATM    6  C10 UNL     1     -33.519   7.696   4.082  1.00 20.00     0.014 C 
BRANCH   6   7
HETATM    7  C7  UNL     1     -32.385   7.052   3.253  1.00 20.00     0.002 C 
HETATM    8  C5  UNL     1     -32.215   7.617   1.850  1.00 20.00     0.005 C 
ENDBRANCH   6   7
BRANCH   6   9
HETATM    9  C8  UNL     1     -33.373   9.233   4.219  1.00 20.00     0.002 C 
HETATM   10  C6  UNL     1     -32.122   9.677   4.966  1.00 20.00     0.005 C 
ENDBRANCH   6   9
ENDBRANCH   1   6
BRANCH   1  11
HETATM   11  O11 UNL     1     -34.453   7.954   6.302  1.00 20.00    -0.394 OA
HETATM   12  H31 UNL     1     -35.326   8.024   5.888  1.00 20.00     0.210 HD
ENDBRANCH   1  11
TORSDOF 5
