REMARK  6 active torsions:
REMARK  status: ('A' for Active; 'I' for Inactive)
REMARK    1  A    between atoms: C1_1  and  C6_6 
REMARK    2  A    between atoms: C1_1  and  C7_7 
REMARK    3  A    between atoms: C6_6  and  C8_8 
REMARK    4  A    between atoms: C7_7  and  C10_10 
REMARK    5  A    between atoms: C8_8  and  C9_9 
REMARK    6  A    between atoms: C9_9  and  C11_11 
ROOT
HETATM    1  C1  UNL     1     -33.593   7.438   4.384  1.00 20.00     0.127 C 
HETATM    2  O12 UNL     1     -33.806   8.561   4.835  1.00 20.00    -0.298 OA
ENDROOT
BRANCH   1   3
HETATM    3  C6  UNL     1     -32.243   7.038   3.809  1.00 20.00     0.078 C 
BRANCH   3   4
HETATM    4  C8  UNL     1     -31.870   7.847   2.568  1.00 20.00     0.008 C 
BRANCH   4   5
HETATM    5  C9  UNL     1     -32.921   7.688   1.466  1.00 20.00     0.004 C 
BRANCH   5   6
HETATM    6  C11 UNL     1     -32.611   8.505   0.198  1.00 20.00    -0.023 C 
HETATM    7  C4  UNL     1     -32.539   9.994   0.545  1.00 20.00     0.009 C 
HETATM    8  C5  UNL     1     -31.308   8.068  -0.474  1.00 20.00     0.009 C 
ENDBRANCH   5   6
ENDBRANCH   4   5
ENDBRANCH   3   4
ENDBRANCH   1   3
BRANCH   1   9
HETATM    9  C7  UNL     1     -34.648   6.339   4.404  1.00 20.00     0.082 C 
BRANCH   9  10
HETATM   10  C10 UNL     1     -34.605   5.461   5.664  1.00 20.00    -0.016 C 
HETATM   11  C2  UNL     1     -34.832   6.319   6.909  1.00 20.00     0.010 C 
HETATM   12  C3  UNL     1     -33.271   4.720   5.783  1.00 20.00     0.010 C 
ENDBRANCH   9  10
ENDBRANCH   1   9
TORSDOF 6
