REMARK  3 active torsions:
REMARK  status: ('A' for Active; 'I' for Inactive)
REMARK    1  A    between atoms: C5_5  and  C8_8 
REMARK    2  A    between atoms: C6_6  and  C8_8 
REMARK    3  A    between atoms: C8_8  and  O9_9 
ROOT
HETATM    1  C8  UNL     1     -34.611   5.510   4.398  1.00 20.00     0.130 C 
ENDROOT
BRANCH   1   2
HETATM    2  C5  UNL     1     -33.323   5.146   3.663  1.00 20.00     0.015 A 
HETATM    3  C1  UNL     1     -33.381   4.555   2.281  1.00 20.00     0.007 A 
HETATM    4  C2  UNL     1     -32.873   5.956   2.479  1.00 20.00     0.007 A 
ENDBRANCH   1   2
BRANCH   1   5
HETATM    5  C6  UNL     1     -34.371   6.448   5.549  1.00 20.00    -0.018 A 
HETATM    6  C3  UNL     1     -34.466   7.933   5.284  1.00 20.00     0.012 A 
HETATM    7  C4  UNL     1     -33.124   7.300   5.520  1.00 20.00     0.012 A 
HETATM    8  C7  UNL     1     -34.846   5.938   6.882  1.00 20.00     0.018 C 
ENDBRANCH   1   5
BRANCH   1   9
HETATM    9  O9  UNL     1     -35.220   4.306   4.874  1.00 20.00    -0.394 OA
HETATM   10  H23 UNL     1     -36.030   4.574   5.333  1.00 20.00     0.210 HD
ENDBRANCH   1   9
TORSDOF 3
