REMARK  2 active torsions:
REMARK  status: ('A' for Active; 'I' for Inactive)
REMARK    1  A    between atoms: C1_1  and  C3_3 
REMARK       I    between atoms: C3_3  and  N7_7 
REMARK    2  A    between atoms: N7_7  and  O9_9 
ROOT
HETATM    1  C3  UNL     1     -33.112   7.584   4.254  1.00 20.00     0.266 C 
HETATM    2  C5  UNL     1     -34.186   7.151   6.465  1.00 20.00     0.189 C 
HETATM    3  N7  UNL     1     -34.087   6.994   5.025  1.00 20.00    -0.228 N 
HETATM    4  O8  UNL     1     -32.228   8.304   4.718  1.00 20.00    -0.266 OA
ENDROOT
BRANCH   1   5
HETATM    5  C1  UNL     1     -33.175   7.312   2.787  1.00 20.00     0.072 C 
HETATM    6  C2  UNL     1     -32.264   7.846   1.961  1.00 20.00    -0.025 C 
HETATM    7  C4  UNL     1     -32.261   7.619   0.484  1.00 20.00     0.036 C 
ENDBRANCH   1   5
BRANCH   3   8
HETATM    8  O9  UNL     1     -35.104   6.169   4.508  1.00 20.00    -0.281 OA
HETATM    9  C6  UNL     1     -34.648   4.819   4.511  1.00 20.00     0.238 C 
ENDBRANCH   3   8
TORSDOF 2
