REMARK  2 active torsions:
REMARK  status: ('A' for Active; 'I' for Inactive)
REMARK    1  A    between atoms: C6_6  and  C8_8 
REMARK    2  A    between atoms: C7_7  and  C9_9 
ROOT
HETATM    1  C4  UNL     1     -31.838   8.909   3.625  1.00 20.00     0.034 C 
HETATM    2  C5  UNL     1     -32.180   9.367   5.025  1.00 20.00     0.168 C 
HETATM    3  C7  UNL     1     -32.315   7.472   3.649  1.00 20.00     0.031 C 
HETATM    4  C8  UNL     1     -33.589   7.587   4.483  1.00 20.00     0.130 C 
HETATM    5  O10 UNL     1     -33.388   8.687   5.391  1.00 20.00    -0.385 OA
ENDROOT
BRANCH   4   6
HETATM    6  C6  UNL     1     -33.855   6.327   5.291  1.00 20.00     0.015 C 
HETATM    7  C2  UNL     1     -34.610   5.183   4.566  1.00 20.00     0.007 C 
HETATM    8  C1  UNL     1     -35.319   4.901   5.907  1.00 20.00     0.001 C 
HETATM    9  C3  UNL     1     -35.050   6.374   6.277  1.00 20.00     0.007 C 
ENDBRANCH   4   6
BRANCH   3  10
HETATM   10  C9  UNL     1     -32.535   6.880   2.268  1.00 20.00     0.121 C 
HETATM   11 CL11 UNL     1     -32.513   5.107   2.345  1.00 20.00    -0.130 Cl
ENDBRANCH   3  10
TORSDOF 2
