REMARK  1 active torsions:
REMARK  status: ('A' for Active; 'I' for Inactive)
REMARK    1  A    between atoms: C8_8  and  C9_9 
ROOT
HETATM    1  C1  UNL     1     -34.375   5.856   6.070  1.00 20.00     0.074 C 
HETATM    2  C2  UNL     1     -34.003   7.123   6.281  1.00 20.00     0.139 C 
HETATM    3  C3  UNL     1     -34.138   5.283   4.727  1.00 20.00     0.153 C 
HETATM    4  C4  UNL     1     -33.383   6.146   3.749  1.00 20.00     0.116 C 
HETATM    5  C9  UNL     1     -33.746   7.607   3.997  1.00 20.00     0.139 C 
HETATM    6  O10 UNL     1     -34.484   4.135   4.467  1.00 20.00    -0.293 OA
HETATM    7  O11 UNL     1     -33.496   7.997   5.355  1.00 20.00    -0.357 OA
ENDROOT
BRANCH   5   8
HETATM    8  C8  UNL     1     -32.919   8.503   3.100  1.00 20.00     0.015 C 
HETATM    9  C6  UNL     1     -33.321  10.000   3.051  1.00 20.00     0.007 C 
HETATM   10  C5  UNL     1     -32.958   9.972   1.551  1.00 20.00     0.001 C 
HETATM   11  C7  UNL     1     -33.242   8.456   1.584  1.00 20.00     0.007 C 
ENDBRANCH   5   8
TORSDOF 1
