REMARK  1 active torsions:
REMARK  status: ('A' for Active; 'I' for Inactive)
REMARK    1  A    between atoms: C3_3  and  C8_8 
ROOT
HETATM    1  C1  UNL     1     -31.956   8.206   4.220  1.00 20.00     0.111 C 
HETATM    2  C2  UNL     1     -32.727   7.811   2.963  1.00 20.00     0.227 C 
HETATM    3  C3  UNL     1     -33.715   6.246   4.463  1.00 20.00     0.205 C 
HETATM    4  C4  UNL     1     -31.875   7.982   1.710  1.00 20.00     0.043 C 
HETATM    5  C5  UNL     1     -35.222   6.516   4.424  1.00 20.00     0.062 C 
HETATM    6  N9  UNL     1     -33.137   6.403   3.114  1.00 20.00     0.108 N 
HETATM    7  S10 UNL     1     -32.907   7.463   5.563  1.00 20.00    -0.126 SA
HETATM    8  H27 UNL     1     -33.810   6.148   2.393  1.00 20.00     0.318 HD
ENDROOT
BRANCH   3   9
HETATM    9  C8  UNL     1     -33.443   4.832   4.985  1.00 20.00     0.026 C 
HETATM   10  C6  UNL     1     -33.972   4.678   6.409  1.00 20.00     0.013 C 
HETATM   11  C7  UNL     1     -34.070   3.792   4.062  1.00 20.00     0.013 C 
ENDBRANCH   3   9
TORSDOF 1
