REMARK  4 active torsions:
REMARK  status: ('A' for Active; 'I' for Inactive)
REMARK    1  A    between atoms: C5_5  and  C6_6 
REMARK    2  A    between atoms: C5_5  and  C8_8 
REMARK    3  A    between atoms: C6_6  and  C7_7 
REMARK    4  A    between atoms: C6_6  and  N9_9 
ROOT
HETATM    1  C6  UNL     1     -33.926   6.175   4.783  1.00 20.00     0.285 C 
ENDROOT
BRANCH   1   2
HETATM    2  C5  UNL     1     -33.961   7.698   4.524  1.00 20.00     0.049 C 
BRANCH   2   3
HETATM    3  C8  UNL     1     -32.798   8.332   3.705  1.00 20.00    -0.049 C 
HETATM    4  C1  UNL     1     -32.129   9.477   4.485  1.00 20.00     0.014 C 
HETATM    5  C2  UNL     1     -31.742   7.232   3.462  1.00 20.00     0.014 C 
HETATM    6  C3  UNL     1     -33.257   8.856   2.336  1.00 20.00     0.014 C 
ENDBRANCH   2   3
ENDBRANCH   1   2
BRANCH   1   7
HETATM    7  C7  UNL     1     -34.907   5.794   5.893  1.00 20.00     0.386 C 
HETATM    8  F10 UNL     1     -34.557   4.608   6.450  1.00 20.00    -0.212 F 
HETATM    9  F11 UNL     1     -34.859   6.720   6.884  1.00 20.00    -0.212 F 
ENDBRANCH   1   7
BRANCH   1  10
HETATM   10  N9  UNL     1     -34.268   5.416   3.582  1.00 20.00     0.089 N 
HETATM   11  C4  UNL     1     -33.808   4.040   3.693  1.00 20.00     0.307 C 
HETATM   12  H28 UNL     1     -33.828   5.856   2.776  1.00 20.00     0.316 HD
ENDBRANCH   1  10
TORSDOF 4
