REMARK  4 active torsions:
REMARK  status: ('A' for Active; 'I' for Inactive)
REMARK    1  A    between atoms: C5_5  and  C8_8 
REMARK    2  A    between atoms: C6_6  and  C8_8 
REMARK    3  A    between atoms: C7_7  and  C8_8 
REMARK    4  A    between atoms: C8_8  and  N9_9 
ROOT
HETATM    1  C8  UNL     1     -33.465   6.926   4.690  1.00 20.00     0.217 C 
ENDROOT
BRANCH   1   2
HETATM    2  C5  UNL     1     -32.123   6.934   3.899  1.00 20.00     0.043 C 
HETATM    3  C1  UNL     1     -32.219   7.282   2.417  1.00 20.00     0.008 C 
ENDBRANCH   1   2
BRANCH   1   4
HETATM    4  C6  UNL     1     -34.501   5.892   4.122  1.00 20.00     0.021 C 
HETATM    5  C2  UNL     1     -35.852   5.887   4.851  1.00 20.00     0.012 C 
HETATM    6  C3  UNL     1     -33.971   4.447   4.082  1.00 20.00     0.012 C 
ENDBRANCH   1   4
BRANCH   1   7
HETATM    7  C7  UNL     1     -33.148   6.691   6.181  1.00 20.00     0.391 C 
HETATM    8  F10 UNL     1     -34.093   7.284   6.959  1.00 20.00    -0.212 F 
HETATM    9  F11 UNL     1     -33.197   5.368   6.478  1.00 20.00    -0.212 F 
ENDBRANCH   1   7
BRANCH   1  10
HETATM   10  N9  UNL     1     -34.063   8.272   4.613  1.00 20.00     0.094 N 
HETATM   11  C4  UNL     1     -33.166   9.254   5.190  1.00 20.00     0.307 C 
HETATM   12  H28 UNL     1     -34.939   8.259   5.123  1.00 20.00     0.316 HD
ENDBRANCH   1  10
TORSDOF 4
