REMARK  1 active torsions:
REMARK  status: ('A' for Active; 'I' for Inactive)
REMARK    1  A    between atoms: C5_5  and  C6_6 
ROOT
HETATM    1  C3  UNL     1     -34.155   4.710   6.218  1.00 20.00     0.282 C 
HETATM    2  C4  UNL     1     -33.729   3.914   4.995  1.00 20.00     0.106 C 
HETATM    3  C6  UNL     1     -34.894   6.247   4.559  1.00 20.00     0.208 C 
HETATM    4  C8  UNL     1     -36.160   6.464   3.731  1.00 20.00     0.062 C 
HETATM    5  N9  UNL     1     -35.262   5.580   5.817  1.00 20.00     0.104 N 
HETATM    6  S10 UNL     1     -33.761   5.127   3.658  1.00 20.00    -0.126 SA
HETATM    7  H25 UNL     1     -36.079   4.990   5.653  1.00 20.00     0.318 HD
ENDROOT
BRANCH   3   8
HETATM    8  C5  UNL     1     -34.187   7.581   4.821  1.00 20.00     0.001 A 
HETATM    9  C1  UNL     1     -32.684   7.568   4.976  1.00 20.00     0.013 A 
HETATM   10  C2  UNL     1     -33.301   8.139   3.731  1.00 20.00     0.013 A 
HETATM   11  C7  UNL     1     -34.973   8.553   5.656  1.00 20.00     0.019 C 
ENDBRANCH   3   8
TORSDOF 1
