REMARK  3 active torsions:
REMARK  status: ('A' for Active; 'I' for Inactive)
REMARK    1  A    between atoms: C3_3  and  N7_7 
REMARK    2  A    between atoms: C4_4  and  C5_5 
REMARK    3  A    between atoms: C4_4  and  N7_7 
ROOT
HETATM    1  C1  UNL     1     -34.889   6.006   5.458  1.00 20.00     0.089 C 
HETATM    2  C3  UNL     1     -34.629   5.878   4.025  1.00 20.00     0.395 C 
HETATM    3  N6  UNL     1     -35.099   6.108   6.595  1.00 20.00    -0.195 NA
ENDROOT
BRANCH   2   4
HETATM    4  N7  UNL     1     -33.215   6.104   3.730  1.00 20.00     0.099 N 
HETATM    5  C2  UNL     1     -32.866   5.529   2.431  1.00 20.00     0.311 C 
BRANCH   4   6
HETATM    6  C4  UNL     1     -32.910   7.534   3.754  1.00 20.00     0.304 C 
BRANCH   6   7
HETATM    7  C5  UNL     1     -32.822   8.060   5.171  1.00 20.00     0.252 C 
HETATM    8  F8  UNL     1     -32.526   9.387   5.134  1.00 20.00    -0.254 F 
ENDBRANCH   6   7
ENDBRANCH   4   6
ENDBRANCH   2   4
TORSDOF 3
