REMARK  1 active torsions:
REMARK  status: ('A' for Active; 'I' for Inactive)
REMARK    1  A    between atoms: C4_4  and  C7_7 
ROOT
HETATM    1  C1  UNL     1     -34.560   4.527   5.272  1.00 20.00     0.040 C 
HETATM    2  C2  UNL     1     -34.608   5.357   3.990  1.00 20.00     0.272 C 
HETATM    3  C3  UNL     1     -34.839   5.341   6.528  1.00 20.00     0.078 C 
HETATM    4  C4  UNL     1     -33.775   7.437   5.030  1.00 20.00     0.201 C 
HETATM    5  C5  UNL     1     -35.085   8.228   4.891  1.00 20.00     0.061 C 
HETATM    6  N8  UNL     1     -33.615   6.430   3.970  1.00 20.00     0.102 N 
HETATM    7  S9  UNL     1     -33.655   6.705   6.713  1.00 20.00    -0.128 SA
HETATM    8  H24 UNL     1     -32.684   6.017   4.034  1.00 20.00     0.317 HD
ENDROOT
BRANCH   4   9
HETATM    9  C7  UNL     1     -32.599   8.420   4.894  1.00 20.00     0.048 C 
HETATM   10  C6  UNL     1     -32.616   9.107   3.572  1.00 20.00     0.009 C 
ENDBRANCH   4   9
TORSDOF 1
