REMARK  2 active torsions:
REMARK  status: ('A' for Active; 'I' for Inactive)
REMARK    1  A    between atoms: C3_3  and  C7_7 
REMARK    2  A    between atoms: C3_3  and  C8_8 
ROOT
HETATM    1  C1  UNL     1     -35.351   6.391   4.673  1.00 20.00     0.286 C 
HETATM    2  C2  UNL     1     -34.516   5.769   5.791  1.00 20.00     0.074 C 
HETATM    3  C3  UNL     1     -33.257   7.303   4.021  1.00 20.00     0.205 C 
HETATM    4  C4  UNL     1     -34.206   4.294   5.565  1.00 20.00     0.023 C 
HETATM    5  N9  UNL     1     -34.483   6.657   3.516  1.00 20.00     0.104 N 
HETATM    6  S10 UNL     1     -32.986   6.742   5.743  1.00 20.00    -0.122 SA
HETATM    7  H27 UNL     1     -34.269   5.794   3.027  1.00 20.00     0.318 HD
ENDROOT
BRANCH   3   8
HETATM    8  C7  UNL     1     -32.057   6.895   3.161  1.00 20.00     0.048 C 
HETATM    9  C5  UNL     1     -32.229   7.326   1.743  1.00 20.00     0.009 C 
ENDBRANCH   3   8
BRANCH   3  10
HETATM   10  C8  UNL     1     -33.426   8.825   4.005  1.00 20.00     0.048 C 
HETATM   11  C6  UNL     1     -32.218   9.519   4.542  1.00 20.00     0.009 C 
ENDBRANCH   3  10
TORSDOF 2
