REMARK  2 active torsions:
REMARK  status: ('A' for Active; 'I' for Inactive)
REMARK    1  A    between atoms: C5_5  and  C8_8 
REMARK    2  A    between atoms: C5_5  and  O9_9 
ROOT
HETATM    1  C1  UNL     1     -34.179   6.023   6.983  1.00 20.00     0.004 C 
HETATM    2  C2  UNL     1     -33.807   5.067   5.847  1.00 20.00     0.012 C 
HETATM    3  C3  UNL     1     -34.360   7.405   6.355  1.00 20.00     0.044 C 
HETATM    4  C4  UNL     1     -34.144   5.815   4.544  1.00 20.00    -0.011 C 
HETATM    5  C5  UNL     1     -33.819   7.289   4.922  1.00 20.00     0.123 C 
HETATM    6  C6  UNL     1     -35.638   5.619   4.198  1.00 20.00     0.018 C 
HETATM    7  C7  UNL     1     -33.320   5.273   3.368  1.00 20.00     0.018 C 
ENDROOT
BRANCH   5   8
HETATM    8  C8  UNL     1     -32.329   7.654   4.889  1.00 20.00     0.388 C 
HETATM    9  F10 UNL     1     -32.185   8.934   5.292  1.00 20.00    -0.211 F 
HETATM   10  F11 UNL     1     -31.890   7.577   3.616  1.00 20.00    -0.211 F 
ENDBRANCH   5   8
BRANCH   5  11
HETATM   11  O9  UNL     1     -34.504   8.215   4.087  1.00 20.00    -0.383 OA
HETATM   12  H25 UNL     1     -34.330   9.091   4.458  1.00 20.00     0.210 HD
ENDBRANCH   5  11
TORSDOF 2
