REMARK  4 active torsions:
REMARK  status: ('A' for Active; 'I' for Inactive)
REMARK    1  A    between atoms: C5_5  and  C6_6 
REMARK    2  A    between atoms: C6_6  and  C9_9 
REMARK    3  A    between atoms: C7_7  and  C8_8 
REMARK    4  A    between atoms: C7_7  and  N10_10 
ROOT
HETATM    1  C1  UNL     1     -32.365   8.752   5.399  1.00 20.00     0.028 C 
HETATM    2  C2  UNL     1     -31.692   8.448   4.064  1.00 20.00     0.008 C 
HETATM    3  C3  UNL     1     -33.122   7.547   5.935  1.00 20.00     0.235 C 
HETATM    4  C4  UNL     1     -33.458   6.707   3.596  1.00 20.00     0.239 C 
HETATM    5  C5  UNL     1     -32.702   7.916   3.041  1.00 20.00     0.012 C 
HETATM    6  N10 UNL     1     -34.119   7.082   4.902  1.00 20.00    -0.069 N 
HETATM    7  H30 UNL     1     -34.752   7.871   4.709  1.00 20.00     0.280 HD
ENDROOT
BRANCH   6   8
HETATM    8  C7  UNL     1     -34.982   5.967   5.427  1.00 20.00     0.266 C 
BRANCH   8   9
HETATM    9  C8  UNL     1     -34.209   4.669   5.357  1.00 20.00     0.249 C 
HETATM   10  F11 UNL     1     -33.903   4.402   4.059  1.00 20.00    -0.254 F 
ENDBRANCH   8   9
ENDBRANCH   6   8
BRANCH   5  11
HETATM   11  C6  UNL     1     -32.002   7.552   1.734  1.00 20.00     0.021 C 
BRANCH  11  12
HETATM   12  C9  UNL     1     -31.366   8.748   1.039  1.00 20.00     0.115 C 
HETATM   13 CL12 UNL     1     -32.558  10.009   0.652  1.00 20.00    -0.130 Cl
ENDBRANCH  11  12
ENDBRANCH   5  11
TORSDOF 4
