REMARK  3 active torsions:
REMARK  status: ('A' for Active; 'I' for Inactive)
REMARK    1  A    between atoms: C2_2  and  C8_8 
REMARK    2  A    between atoms: C6_6  and  N9_9 
REMARK    3  A    between atoms: C8_8  and  N9_9 
ROOT
HETATM    1  N9  UNL     1     -32.343   7.138   3.840  1.00 20.00     0.094 N 
HETATM    2  H25 UNL     1     -31.644   6.392   3.843  1.00 20.00     0.316 HD
ENDROOT
BRANCH   1   3
HETATM    3  C6  UNL     1     -33.646   6.583   4.161  1.00 20.00     0.246 C 
HETATM    4  C3  UNL     1     -33.867   6.352   5.640  1.00 20.00     0.064 C 
HETATM    5  C4  UNL     1     -35.015   5.365   5.621  1.00 20.00     0.170 C 
HETATM    6  O10 UNL     1     -34.850   4.565   4.440  1.00 20.00    -0.389 OA
HETATM    7  C5  UNL     1     -33.863   5.188   3.602  1.00 20.00     0.203 C 
ENDBRANCH   1   3
BRANCH   1   8
HETATM    8  C8  UNL     1     -32.349   7.776   2.528  1.00 20.00     0.303 C 
BRANCH   8   9
HETATM    9  C2  UNL     1     -32.976   9.137   2.628  1.00 20.00    -0.066 C 
HETATM   10  C1  UNL     1     -33.422   9.620   3.798  1.00 20.00     0.015 C 
HETATM   11  C7  UNL     1     -33.117   9.920   1.353  1.00 20.00     0.044 C 
ENDBRANCH   8   9
ENDBRANCH   1   8
TORSDOF 3
