REMARK  2 active torsions:
REMARK  status: ('A' for Active; 'I' for Inactive)
REMARK    1  A    between atoms: C5_5  and  C6_6 
REMARK    2  A    between atoms: C5_5  and  N7_7 
ROOT
HETATM    1  C1  UNL     1     -32.811   6.071   2.542  1.00 20.00     0.052 C 
HETATM    2  C2  UNL     1     -33.423   6.157   3.940  1.00 20.00     0.274 C 
HETATM    3  C3  UNL     1     -32.687   8.307   3.423  1.00 20.00     0.292 C 
HETATM    4  C4  UNL     1     -32.108   7.411   2.341  1.00 20.00     0.112 C 
HETATM    5  N7  UNL     1     -32.823   7.357   4.529  1.00 20.00     0.092 N 
HETATM    6 CL9  UNL     1     -32.359   8.075   0.718  1.00 20.00    -0.123 Cl
ENDROOT
BRANCH   5   7
HETATM    7  C5  UNL     1     -33.611   7.891   5.629  1.00 20.00     0.303 C 
BRANCH   7   8
HETATM    8  C6  UNL     1     -33.785   6.870   6.734  1.00 20.00     0.252 C 
HETATM    9  F8  UNL     1     -34.432   5.783   6.234  1.00 20.00    -0.254 F 
ENDBRANCH   7   8
ENDBRANCH   5   7
TORSDOF 2
