REMARK  1 active torsions:
REMARK  status: ('A' for Active; 'I' for Inactive)
REMARK    1  A    between atoms: C7_7  and  N8_8 
ROOT
HETATM    1  C1  UNL     1     -32.149   7.250   3.170  1.00 20.00     0.048 C 
HETATM    2  C2  UNL     1     -33.163   6.200   3.606  1.00 20.00     0.274 C 
HETATM    3  C3  UNL     1     -33.748   8.116   4.780  1.00 20.00     0.288 C 
HETATM    4  C4  UNL     1     -32.556   8.513   3.922  1.00 20.00     0.087 C 
HETATM    5  N8  UNL     1     -33.562   6.671   4.933  1.00 20.00     0.093 N 
HETATM    6 BR9  UNL     1     -33.032   9.945   2.701  1.00 20.00    -0.089 Br
ENDROOT
BRANCH   5   7
HETATM    7  C7  UNL     1     -34.760   6.004   5.421  1.00 20.00     0.215 C 
HETATM    8  C5  UNL     1     -34.377   4.648   5.996  1.00 20.00     0.042 C 
HETATM    9  C6  UNL     1     -35.751   5.870   4.274  1.00 20.00     0.042 C 
ENDBRANCH   5   7
TORSDOF 1
