REMARK  2 active torsions:
REMARK  status: ('A' for Active; 'I' for Inactive)
REMARK    1  A    between atoms: C4_4  and  C10_10 
REMARK    2  A    between atoms: C10_10  and  C11_11 
ROOT
HETATM    1  C1  UNL     1     -33.294   6.153   3.044  1.00 20.00     0.007 C 
HETATM    2  C2  UNL     1     -33.631   4.999   3.990  1.00 20.00     0.009 C 
HETATM    3  C3  UNL     1     -33.773   6.992   5.286  1.00 20.00     0.015 C 
HETATM    4  C4  UNL     1     -33.485   7.445   3.851  1.00 20.00     0.005 C 
HETATM    5  C5  UNL     1     -34.450   5.622   5.130  1.00 20.00    -0.047 C 
HETATM    6  C6  UNL     1     -34.347   4.797   6.414  1.00 20.00     0.015 C 
HETATM    7  C7  UNL     1     -35.930   5.763   4.737  1.00 20.00     0.015 C 
ENDROOT
BRANCH   4   8
HETATM    8  C10 UNL     1     -32.291   8.384   3.762  1.00 20.00     0.089 C 
HETATM    9 CL12 UNL     1     -32.249   9.417   5.228  1.00 20.00    -0.124 Cl
BRANCH   8  10
HETATM   10  C11 UNL     1     -32.263   9.217   2.455  1.00 20.00    -0.004 C 
HETATM   11  C8  UNL     1     -32.156   8.376   1.179  1.00 20.00     0.011 C 
HETATM   12  C9  UNL     1     -33.467  10.161   2.353  1.00 20.00     0.011 C 
ENDBRANCH   8  10
ENDBRANCH   4   8
TORSDOF 2
