REMARK  0 active torsions:
REMARK  status: ('A' for Active; 'I' for Inactive)
ROOT
HETATM    1  C1  UNL     1     -34.095   5.842   5.678  1.00 20.00     0.064 C 
HETATM    2  C2  UNL     1     -32.968   5.609   3.477  1.00 20.00     0.020 C 
HETATM    3  C3  UNL     1     -32.493   6.744   2.576  1.00 20.00     0.010 C 
HETATM    4  C4  UNL     1     -34.155   7.692   4.009  1.00 20.00     0.027 C 
HETATM    5  C5  UNL     1     -34.169   6.173   4.248  1.00 20.00     0.093 C 
HETATM    6  C6  UNL     1     -32.790   8.018   3.376  1.00 20.00    -0.046 C 
HETATM    7  C7  UNL     1     -31.722   8.268   4.455  1.00 20.00     0.015 C 
HETATM    8  C8  UNL     1     -32.872   9.245   2.463  1.00 20.00     0.015 C 
HETATM    9  N9  UNL     1     -34.036   5.581   6.807  1.00 20.00    -0.197 NA
ENDROOT
TORSDOF 0
