REMARK  2 active torsions:
REMARK  status: ('A' for Active; 'I' for Inactive)
REMARK    1  A    between atoms: C3_3  and  C8_8 
REMARK    2  A    between atoms: C3_3  and  C9_9 
ROOT
HETATM    1  C1  UNL     1     -32.754   8.619  -0.037  1.00 20.00     0.012 C 
HETATM    2  C2  UNL     1     -32.529   8.453   1.131  1.00 20.00    -0.110 C 
HETATM    3  C9  UNL     1     -32.250   8.257   2.558  1.00 20.00     0.172 C 
ENDROOT
BRANCH   3   4
HETATM    4  C3  UNL     1     -32.663   6.883   3.047  1.00 20.00     0.151 C 
HETATM    5  O10 UNL     1     -32.183   5.839   2.607  1.00 20.00    -0.296 OA
BRANCH   4   6
HETATM    6  C8  UNL     1     -33.707   6.855   4.118  1.00 20.00     0.117 C 
HETATM    7  C6  UNL     1     -33.205   7.576   5.365  1.00 20.00     0.023 C 
HETATM    8  C4  UNL     1     -34.227   7.579   6.500  1.00 20.00     0.002 C 
HETATM    9  C5  UNL     1     -34.612   6.173   6.953  1.00 20.00     0.010 C 
HETATM   10  C7  UNL     1     -35.227   5.334   5.841  1.00 20.00     0.075 C 
HETATM   11  S11 UNL     1     -34.082   5.108   4.451  1.00 20.00    -0.157 SA
ENDBRANCH   4   6
ENDBRANCH   3   4
TORSDOF 2
