REMARK  1 active torsions:
REMARK  status: ('A' for Active; 'I' for Inactive)
REMARK    1  A    between atoms: C5_5  and  O9_9 
ROOT
HETATM    1  C1  UNL     1     -35.050   6.435   4.342  1.00 20.00     0.012 C 
HETATM    2  C2  UNL     1     -33.963   7.449   4.023  1.00 20.00     0.038 C 
HETATM    3  C3  UNL     1     -33.176   6.193   5.918  1.00 20.00     0.046 C 
HETATM    4  C4  UNL     1     -34.381   5.433   5.306  1.00 20.00    -0.045 C 
HETATM    5  C5  UNL     1     -33.224   7.618   5.348  1.00 20.00     0.055 C 
HETATM    6  C6  UNL     1     -33.889   4.198   4.535  1.00 20.00     0.015 C 
HETATM    7  C7  UNL     1     -35.366   4.981   6.391  1.00 20.00     0.015 C 
HETATM    8  C8  UNL     1     -33.922   8.592   6.297  1.00 20.00     0.045 C 
ENDROOT
BRANCH   5   9
HETATM    9  O9  UNL     1     -31.902   8.087   5.117  1.00 20.00    -0.390 OA
HETATM   10  H25 UNL     1     -31.485   8.174   5.988  1.00 20.00     0.210 HD
ENDBRANCH   5   9
TORSDOF 1
