REMARK  2 active torsions:
REMARK  status: ('A' for Active; 'I' for Inactive)
REMARK    1  A    between atoms: C5_5  and  C6_6 
REMARK    2  A    between atoms: C5_5  and  N7_7 
ROOT
HETATM    1  C1  UNL     1     -32.408   6.332   2.460  1.00 20.00     0.048 C 
HETATM    2  C2  UNL     1     -33.466   5.452   3.113  1.00 20.00     0.273 C 
HETATM    3  C3  UNL     1     -33.331   7.329   4.473  1.00 20.00     0.288 C 
HETATM    4  C4  UNL     1     -32.345   7.576   3.340  1.00 20.00     0.087 C 
HETATM    5  N7  UNL     1     -33.407   5.867   4.515  1.00 20.00     0.091 N 
HETATM    6 BR9  UNL     1     -32.820   9.175   2.348  1.00 20.00    -0.089 Br
ENDROOT
BRANCH   5   7
HETATM    7  C5  UNL     1     -34.549   5.391   5.282  1.00 20.00     0.303 C 
BRANCH   7   8
HETATM    8  C6  UNL     1     -34.453   5.805   6.735  1.00 20.00     0.252 C 
HETATM    9  F8  UNL     1     -34.402   7.162   6.807  1.00 20.00    -0.254 F 
ENDBRANCH   7   8
ENDBRANCH   5   7
TORSDOF 2
