REMARK  3 active torsions:
REMARK  status: ('A' for Active; 'I' for Inactive)
REMARK    1  A    between atoms: C2_2  and  C8_8 
REMARK    2  A    between atoms: C6_6  and  C8_8 
REMARK    3  A    between atoms: C8_8  and  N9_9 
ROOT
HETATM    1  C8  UNL     1     -32.296   7.319   3.759  1.00 20.00     0.255 C 
ENDROOT
BRANCH   1   2
HETATM    2  C2  UNL     1     -32.562   8.005   2.448  1.00 20.00    -0.001 C 
HETATM    3  C1  UNL     1     -31.683   8.059   1.441  1.00 20.00     0.009 C 
ENDBRANCH   1   2
BRANCH   1   4
HETATM    4  C6  UNL     1     -33.580   6.822   4.400  1.00 20.00     0.084 C 
HETATM    5  C4  UNL     1     -34.287   5.761   3.563  1.00 20.00     0.018 C 
HETATM    6  C3  UNL     1     -35.217   5.017   4.509  1.00 20.00     0.011 C 
HETATM    7  C5  UNL     1     -34.374   4.604   5.704  1.00 20.00     0.074 C 
HETATM    8  S10 UNL     1     -33.257   6.003   5.997  1.00 20.00    -0.162 SA
ENDBRANCH   1   4
BRANCH   1   9
HETATM    9  N9  UNL     1     -31.618   8.259   4.620  1.00 20.00     0.088 N 
HETATM   10  C7  UNL     1     -32.426   9.455   4.846  1.00 20.00     0.307 C 
HETATM   11  H25 UNL     1     -31.420   7.822   5.525  1.00 20.00     0.316 HD
ENDBRANCH   1   9
TORSDOF 3
