REMARK  0 active torsions:
REMARK  status: ('A' for Active; 'I' for Inactive)
ROOT
HETATM    1  C1  UNL     1     -32.302   7.744   2.033  1.00 20.00     0.064 C 
HETATM    2  C2  UNL     1     -32.350   8.141   4.492  1.00 20.00     0.020 C 
HETATM    3  C3  UNL     1     -33.609   7.781   5.279  1.00 20.00     0.010 C 
HETATM    4  C4  UNL     1     -33.422   6.141   3.564  1.00 20.00     0.027 C 
HETATM    5  C5  UNL     1     -32.249   7.111   3.357  1.00 20.00     0.093 C 
HETATM    6  C6  UNL     1     -33.805   6.278   5.046  1.00 20.00    -0.046 C 
HETATM    7  C7  UNL     1     -32.874   5.444   5.942  1.00 20.00     0.015 C 
HETATM    8  C8  UNL     1     -35.254   5.855   5.296  1.00 20.00     0.015 C 
HETATM    9  N9  UNL     1     -32.344   8.245   0.987  1.00 20.00    -0.197 NA
ENDROOT
TORSDOF 0
