REMARK  0 active torsions:
REMARK  status: ('A' for Active; 'I' for Inactive)
ROOT
HETATM    1  C1  UNL     1     -32.405   6.892   3.427  1.00 20.00     0.016 C 
HETATM    2  C2  UNL     1     -33.239   5.613   3.416  1.00 20.00     0.010 C 
HETATM    3  C3  UNL     1     -33.685   6.952   5.427  1.00 20.00     0.024 C 
HETATM    4  C4  UNL     1     -33.224   7.837   4.282  1.00 20.00     0.058 C 
HETATM    5  C5  UNL     1     -34.021   5.602   4.754  1.00 20.00    -0.047 C 
HETATM    6  C6  UNL     1     -33.584   4.431   5.641  1.00 20.00     0.015 C 
HETATM    7  C7  UNL     1     -35.530   5.493   4.487  1.00 20.00     0.015 C 
HETATM    8 BR8  UNL     1     -32.166   9.326   4.909  1.00 20.00    -0.091 Br
ENDROOT
TORSDOF 0
