REMARK  1 active torsions:
REMARK  status: ('A' for Active; 'I' for Inactive)
REMARK    1  A    between atoms: C4_4  and  S8_8 
ROOT
HETATM    1  C1  UNL     1     -32.615   6.787   3.342  1.00 20.00     0.015 C 
HETATM    2  C2  UNL     1     -33.732   5.745   3.338  1.00 20.00     0.010 C 
HETATM    3  C3  UNL     1     -33.882   7.206   5.310  1.00 20.00     0.023 C 
HETATM    4  C4  UNL     1     -33.205   7.932   4.151  1.00 20.00     0.045 C 
HETATM    5  C5  UNL     1     -34.513   5.952   4.659  1.00 20.00    -0.047 C 
HETATM    6  C6  UNL     1     -36.002   6.188   4.365  1.00 20.00     0.015 C 
HETATM    7  C7  UNL     1     -34.373   4.736   5.582  1.00 20.00     0.015 C 
ENDROOT
BRANCH   4   8
HETATM    8  S8  UNL     1     -31.945   9.108   4.708  1.00 20.00    -0.177 SA
HETATM    9  H22 UNL     1     -32.798   9.920   5.345  1.00 20.00     0.102 HD
ENDBRANCH   4   8
TORSDOF 1
