REMARK  2 active torsions:
REMARK  status: ('A' for Active; 'I' for Inactive)
REMARK    1  A    between atoms: C6_6  and  C7_7 
REMARK    2  A    between atoms: C6_6  and  N9_9 
ROOT
HETATM    1  C1  UNL     1     -33.091   5.810   3.169  1.00 20.00     0.095 C 
HETATM    2  C2  UNL     1     -32.139   8.995   4.317  1.00 20.00     0.033 C 
HETATM    3  C3  UNL     1     -32.743   8.264   3.126  1.00 20.00     0.053 C 
HETATM    4  C4  UNL     1     -33.020   8.576   5.477  1.00 20.00     0.274 C 
HETATM    5  C5  UNL     1     -33.533   7.093   3.727  1.00 20.00     0.328 C 
HETATM    6  N8  UNL     1     -32.741   4.795   2.727  1.00 20.00    -0.195 NA
HETATM    7  N9  UNL     1     -33.265   7.166   5.172  1.00 20.00     0.108 N 
ENDROOT
BRANCH   7   8
HETATM    8  C6  UNL     1     -34.341   6.611   5.984  1.00 20.00     0.305 C 
BRANCH   8   9
HETATM    9  C7  UNL     1     -34.295   5.099   6.010  1.00 20.00     0.252 C 
HETATM   10  F10 UNL     1     -34.434   4.630   4.740  1.00 20.00    -0.254 F 
ENDBRANCH   8   9
ENDBRANCH   7   8
TORSDOF 2
