REMARK  1 active torsions:
REMARK  status: ('A' for Active; 'I' for Inactive)
REMARK    1  A    between atoms: C3_3  and  C8_8 
ROOT
HETATM    1  C1  UNL     1     -32.270   7.651   1.955  1.00 20.00     0.021 C 
HETATM    2  C2  UNL     1     -32.502   7.912   3.104  1.00 20.00    -0.037 C 
HETATM    3  C3  UNL     1     -32.780   8.227   4.485  1.00 20.00     0.235 C 
HETATM    4  O10 UNL     1     -32.153   9.117   5.045  1.00 20.00    -0.280 OA
ENDROOT
BRANCH   3   5
HETATM    5  C8  UNL     1     -33.851   7.412   5.151  1.00 20.00     0.129 C 
HETATM    6  C6  UNL     1     -33.257   6.669   6.354  1.00 20.00     0.047 C 
HETATM    7  C4  UNL     1     -34.157   5.530   6.823  1.00 20.00     0.006 C 
HETATM    8  C5  UNL     1     -34.543   4.643   5.647  1.00 20.00     0.026 C 
HETATM    9  C7  UNL     1     -35.119   5.474   4.509  1.00 20.00     0.169 C 
HETATM   10  O11 UNL     1     -34.217   6.504   4.108  1.00 20.00    -0.372 OA
HETATM   11  C9  UNL     1     -35.007   8.339   5.525  1.00 20.00     0.055 C 
ENDBRANCH   3   5
TORSDOF 1
