REMARK  3 active torsions:
REMARK  status: ('A' for Active; 'I' for Inactive)
REMARK    1  A    between atoms: C4_4  and  C5_5 
REMARK    2  A    between atoms: C6_6  and  C7_7 
REMARK    3  A    between atoms: C6_6  and  N8_8 
ROOT
HETATM    1  C1  UNL     1     -32.328   6.592   2.250  1.00 20.00     0.035 C 
HETATM    2  C2  UNL     1     -33.413   6.104   3.187  1.00 20.00     0.235 C 
HETATM    3  C3  UNL     1     -32.109   7.888   4.248  1.00 20.00     0.240 C 
HETATM    4  C4  UNL     1     -32.041   8.010   2.729  1.00 20.00     0.027 C 
HETATM    5  N8  UNL     1     -33.041   6.719   4.518  1.00 20.00    -0.068 N 
HETATM    6  H24 UNL     1     -32.493   6.011   5.030  1.00 20.00     0.280 HD
ENDROOT
BRANCH   5   7
HETATM    7  C6  UNL     1     -34.219   7.057   5.376  1.00 20.00     0.266 C 
BRANCH   7   8
HETATM    8  C7  UNL     1     -34.993   5.793   5.673  1.00 20.00     0.249 C 
HETATM    9  F9  UNL     1     -34.172   4.903   6.292  1.00 20.00    -0.254 F 
ENDBRANCH   7   8
ENDBRANCH   5   7
BRANCH   4  10
HETATM   10  C5  UNL     1     -33.050   9.023   2.190  1.00 20.00     0.121 C 
HETATM   11 CL10 UNL     1     -32.639   9.479   0.525  1.00 20.00    -0.130 Cl
ENDBRANCH   4  10
TORSDOF 3
