REMARK  0 active torsions:
REMARK  status: ('A' for Active; 'I' for Inactive)
ROOT
HETATM    1  C1  UNL     1     -32.494   7.030   3.868  1.00 20.00     0.021 C 
HETATM    2  C2  UNL     1     -33.472   5.858   3.926  1.00 20.00     0.010 C 
HETATM    3  C3  UNL     1     -33.950   7.509   5.682  1.00 20.00     0.029 C 
HETATM    4  C4  UNL     1     -33.283   8.173   4.485  1.00 20.00     0.083 C 
HETATM    5  C5  UNL     1     -34.381   6.121   5.154  1.00 20.00    -0.046 C 
HETATM    6  C6  UNL     1     -34.184   5.048   6.230  1.00 20.00     0.015 C 
HETATM    7  C7  UNL     1     -35.857   6.140   4.728  1.00 20.00     0.015 C 
HETATM    8 CL8  UNL     1     -32.245   9.526   4.956  1.00 20.00    -0.125 Cl
ENDROOT
TORSDOF 0
