REMARK  1 active torsions:
REMARK  status: ('A' for Active; 'I' for Inactive)
REMARK    1  A    between atoms: C5_5  and  O11_11 
ROOT
HETATM    1  C1  UNL     1     -32.947   9.100   2.659  1.00 20.00     0.098 C 
HETATM    2  C2  UNL     1     -32.212   6.890   3.532  1.00 20.00     0.054 C 
HETATM    3  C3  UNL     1     -33.314   5.837   3.617  1.00 20.00     0.013 C 
HETATM    4  C4  UNL     1     -34.314   7.882   4.345  1.00 20.00     0.062 C 
HETATM    5  C5  UNL     1     -32.898   8.231   3.844  1.00 20.00     0.148 C 
HETATM    6  C6  UNL     1     -34.283   6.378   4.676  1.00 20.00    -0.044 C 
HETATM    7  C7  UNL     1     -35.669   5.742   4.540  1.00 20.00     0.015 C 
HETATM    8  C8  UNL     1     -33.758   6.130   6.100  1.00 20.00     0.015 C 
HETATM    9  N10 UNL     1     -32.986   9.785   1.724  1.00 20.00    -0.194 NA
ENDROOT
BRANCH   5  10
HETATM   10  O11 UNL     1     -32.164   8.885   4.875  1.00 20.00    -0.370 OA
HETATM   11  C9  UNL     1     -32.767  10.118   5.243  1.00 20.00     0.204 C 
ENDBRANCH   5  10
TORSDOF 1
