REMARK  0 active torsions:
REMARK  status: ('A' for Active; 'I' for Inactive)
ROOT
HETATM    1  C1  UNL     1     -32.137   8.383   1.622  1.00 20.00     0.088 C 
HETATM    2  C2  UNL     1     -33.068   7.055   3.402  1.00 20.00    -0.069 C 
HETATM    3  C3  UNL     1     -32.567   8.214   2.964  1.00 20.00     0.096 C 
HETATM    4  C4  UNL     1     -33.234   5.825   2.556  1.00 20.00     0.036 C 
HETATM    5  C5  UNL     1     -33.567   6.812   4.801  1.00 20.00     0.043 C 
HETATM    6  C6  UNL     1     -33.660   4.758   3.563  1.00 20.00     0.013 C 
HETATM    7  C7  UNL     1     -34.404   5.528   4.668  1.00 20.00    -0.044 C 
HETATM    8  C8  UNL     1     -35.851   5.845   4.246  1.00 20.00     0.015 C 
HETATM    9  C9  UNL     1     -34.430   4.737   5.979  1.00 20.00     0.015 C 
HETATM   10  N10 UNL     1     -31.784   8.526   0.526  1.00 20.00    -0.192 NA
ENDROOT
TORSDOF 0
