REMARK  2 active torsions:
REMARK  status: ('A' for Active; 'I' for Inactive)
REMARK    1  A    between atoms: C1_1  and  C5_5 
REMARK    2  A    between atoms: C1_1  and  C11_11 
ROOT
HETATM    1  C2  UNL     1     -31.081   8.384   2.793  1.00 20.00     0.013 C 
HETATM    2  C3  UNL     1     -31.152   8.761   1.316  1.00 20.00     0.009 C 
HETATM    3  C4  UNL     1     -33.038   7.352   1.725  1.00 20.00     0.021 C 
HETATM    4  C5  UNL     1     -32.200   7.361   3.011  1.00 20.00     0.056 C 
HETATM    5  C6  UNL     1     -32.634   8.618   0.949  1.00 20.00    -0.047 C 
HETATM    6  C7  UNL     1     -32.822   8.437  -0.559  1.00 20.00     0.015 C 
HETATM    7  C8  UNL     1     -33.446   9.839   1.412  1.00 20.00     0.015 C 
ENDROOT
BRANCH   4   8
HETATM    8  C1  UNL     1     -33.030   7.706   4.211  1.00 20.00     0.134 C 
HETATM    9  O12 UNL     1     -32.762   8.691   4.898  1.00 20.00    -0.297 OA
BRANCH   8  10
HETATM   10  C11 UNL     1     -34.184   6.765   4.545  1.00 20.00     0.047 C 
HETATM   11  C9  UNL     1     -33.853   5.352   4.080  1.00 20.00     0.017 C 
HETATM   12  C10 UNL     1     -34.492   6.787   6.040  1.00 20.00     0.017 C 
ENDBRANCH   8  10
ENDBRANCH   4   8
TORSDOF 2
