REMARK  1 active torsions:
REMARK  status: ('A' for Active; 'I' for Inactive)
REMARK    1  A    between atoms: C4_4  and  C8_8 
ROOT
HETATM    1  C1  UNL     1     -33.057   8.268   5.394  1.00 20.00     0.006 C 
HETATM    2  C2  UNL     1     -34.241   7.521   5.998  1.00 20.00     0.009 C 
HETATM    3  C3  UNL     1     -33.360   6.349   4.027  1.00 20.00     0.014 C 
HETATM    4  C4  UNL     1     -33.076   7.847   3.930  1.00 20.00     0.000 C 
HETATM    5  C5  UNL     1     -34.382   6.215   5.178  1.00 20.00    -0.047 C 
HETATM    6  C6  UNL     1     -34.067   4.986   6.038  1.00 20.00     0.015 C 
HETATM    7  C7  UNL     1     -35.808   6.086   4.623  1.00 20.00     0.015 C 
ENDROOT
BRANCH   4   8
HETATM    8  C8  UNL     1     -31.783   8.165   3.200  1.00 20.00     0.119 C 
HETATM    9 CL9  UNL     1     -31.882   7.636   1.508  1.00 20.00    -0.130 Cl
ENDBRANCH   4   8
TORSDOF 1
