REMARK  3 active torsions:
REMARK  status: ('A' for Active; 'I' for Inactive)
REMARK    1  A    between atoms: C5_5  and  C8_8 
REMARK    2  A    between atoms: C6_6  and  C9_9 
REMARK    3  A    between atoms: C8_8  and  C10_10 
ROOT
HETATM    1  C1  UNL     1     -34.121   5.860   3.856  1.00 20.00     0.131 C 
HETATM    2  C2  UNL     1     -33.365   5.234   2.704  1.00 20.00     0.079 C 
HETATM    3  C3  UNL     1     -32.744   6.310   1.825  1.00 20.00     0.012 C 
HETATM    4  C4  UNL     1     -32.731   7.932   3.754  1.00 20.00     0.017 C 
HETATM    5  C5  UNL     1     -33.349   6.882   4.683  1.00 20.00     0.058 C 
HETATM    6  C6  UNL     1     -31.888   7.287   2.643  1.00 20.00    -0.014 C 
HETATM    7  O11 UNL     1     -35.256   5.485   4.147  1.00 20.00    -0.298 OA
ENDROOT
BRANCH   5   8
HETATM    8  C8  UNL     1     -34.237   7.546   5.731  1.00 20.00     0.043 C 
BRANCH   8   9
HETATM    9  C10 UNL     1     -34.447   6.645   6.933  1.00 20.00     0.223 C 
HETATM   10  F12 UNL     1     -35.039   5.490   6.530  1.00 20.00    -0.255 F 
ENDBRANCH   8   9
ENDBRANCH   5   8
BRANCH   6  11
HETATM   11  C9  UNL     1     -31.282   8.358   1.737  1.00 20.00     0.000 C 
HETATM   12  C7  UNL     1     -32.338   9.170   1.061  1.00 20.00     0.005 C 
ENDBRANCH   6  11
TORSDOF 3
