REMARK  4 active torsions:
REMARK  status: ('A' for Active; 'I' for Inactive)
REMARK    1  A    between atoms: C2_2  and  C8_8 
REMARK    2  A    between atoms: C6_6  and  C9_9 
REMARK    3  A    between atoms: C8_8  and  C9_9 
REMARK    4  A    between atoms: C9_9  and  O10_10 
ROOT
HETATM    1  C1  UNL     1     -32.576   8.099   0.815  1.00 20.00    -0.111 C 
HETATM    2  C2  UNL     1     -32.263   7.605   1.864  1.00 20.00    -0.104 C 
HETATM    3  C7  UNL     1     -32.958   8.700  -0.461  1.00 20.00     0.112 C 
ENDROOT
BRANCH   2   4
HETATM    4  C8  UNL     1     -31.877   7.000   3.150  1.00 20.00     0.126 C 
BRANCH   4   5
HETATM    5  C9  UNL     1     -32.914   5.977   3.617  1.00 20.00     0.143 C 
BRANCH   5   6
HETATM    6  C6  UNL     1     -34.134   6.665   4.219  1.00 20.00     0.077 C 
HETATM    7  C4  UNL     1     -35.225   5.683   4.640  1.00 20.00     0.018 C 
HETATM    8  C3  UNL     1     -34.864   5.166   6.026  1.00 20.00     0.011 C 
HETATM    9  C5  UNL     1     -34.543   6.385   6.872  1.00 20.00     0.074 C 
HETATM   10  S11 UNL     1     -33.667   7.521   5.760  1.00 20.00    -0.162 SA
ENDBRANCH   5   6
BRANCH   5  11
HETATM   11  O10 UNL     1     -33.337   5.205   2.494  1.00 20.00    -0.394 OA
HETATM   12  H25 UNL     1     -33.736   5.828   1.868  1.00 20.00     0.210 HD
ENDBRANCH   5  11
ENDBRANCH   4   5
ENDBRANCH   2   4
TORSDOF 4
