REMARK  2 active torsions:
REMARK  status: ('A' for Active; 'I' for Inactive)
REMARK    1  A    between atoms: C1_1  and  C5_5 
REMARK    2  A    between atoms: C6_6  and  C10_10 
ROOT
HETATM    1  C2  UNL     1     -33.171   7.519   4.598  1.00 20.00     0.016 C 
HETATM    2  C3  UNL     1     -32.697   8.350   3.406  1.00 20.00     0.005 C 
HETATM    3  C4  UNL     1     -32.762   6.280   1.947  1.00 20.00     0.009 C 
HETATM    4  C5  UNL     1     -33.990   6.316   4.139  1.00 20.00     0.090 C 
HETATM    5  C6  UNL     1     -31.935   7.503   2.378  1.00 20.00    -0.014 C 
HETATM    6  C7  UNL     1     -33.238   5.426   3.137  1.00 20.00    -0.004 C 
HETATM    7  C8  UNL     1     -32.067   4.648   3.752  1.00 20.00     0.011 C 
ENDROOT
BRANCH   4   8
HETATM    8  C1  UNL     1     -34.423   5.520   5.357  1.00 20.00     0.177 C 
HETATM    9  O11 UNL     1     -34.538   6.186   6.423  1.00 20.00    -0.648 OA
HETATM   10  O12 UNL     1     -34.614   4.290   5.145  1.00 20.00    -0.648 OA
ENDBRANCH   4   8
BRANCH   5  11
HETATM   11  C10 UNL     1     -31.556   8.349   1.163  1.00 20.00     0.000 C 
HETATM   12  C9  UNL     1     -32.763   8.874   0.459  1.00 20.00     0.005 C 
ENDBRANCH   5  11
TORSDOF 2
