REMARK  3 active torsions:
REMARK  status: ('A' for Active; 'I' for Inactive)
REMARK    1  A    between atoms: C3_3  and  C7_7 
REMARK    2  A    between atoms: C6_6  and  C8_8 
REMARK    3  A    between atoms: C7_7  and  C8_8 
ROOT
HETATM    1  C1  UNL     1     -32.905   9.977   0.416  1.00 20.00     0.012 C 
HETATM    2  C2  UNL     1     -32.643   8.944   0.968  1.00 20.00    -0.117 C 
HETATM    3  C6  UNL     1     -32.315   7.677   1.640  1.00 20.00     0.098 C 
ENDROOT
BRANCH   3   4
HETATM    4  C8  UNL     1     -33.215   7.368   2.856  1.00 20.00     0.006 C 
HETATM    5  C5  UNL     1     -33.181   8.534   3.858  1.00 20.00     0.011 C 
BRANCH   4   6
HETATM    6  C7  UNL     1     -32.886   6.030   3.560  1.00 20.00     0.087 C 
HETATM    7  C4  UNL     1     -32.551   4.898   2.586  1.00 20.00     0.021 C 
BRANCH   6   8
HETATM    8  C3  UNL     1     -34.073   5.484   4.383  1.00 20.00     0.177 C 
HETATM    9  O9  UNL     1     -34.157   4.226   4.471  1.00 20.00    -0.648 OA
HETATM   10  O10 UNL     1     -34.823   6.374   4.876  1.00 20.00    -0.648 OA
ENDBRANCH   6   8
ENDBRANCH   4   6
ENDBRANCH   3   4
TORSDOF 3
