REMARK  3 active torsions:
REMARK  status: ('A' for Active; 'I' for Inactive)
REMARK    1  A    between atoms: C2_2  and  C9_9 
REMARK    2  A    between atoms: C3_3  and  C6_6 
REMARK    3  A    between atoms: C7_7  and  C9_9 
ROOT
HETATM    1  C4  UNL     1     -33.158   8.400   6.230  1.00 20.00     0.016 C 
HETATM    2  C5  UNL     1     -32.681   9.287   5.063  1.00 20.00     0.007 C 
HETATM    3  C6  UNL     1     -34.126   7.719   5.235  1.00 20.00     0.091 C 
HETATM    4  C7  UNL     1     -33.166   8.178   4.095  1.00 20.00     0.004 C 
ENDROOT
BRANCH   4   5
HETATM    5  C9  UNL     1     -32.079   7.224   3.618  1.00 20.00     0.038 C 
BRANCH   5   6
HETATM    6  C2  UNL     1     -32.529   6.357   2.467  1.00 20.00    -0.093 C 
HETATM    7  C1  UNL     1     -32.516   5.018   2.552  1.00 20.00     0.014 C 
HETATM    8  C8  UNL     1     -32.957   7.057   1.209  1.00 20.00     0.042 C 
ENDBRANCH   5   6
ENDBRANCH   4   5
BRANCH   3   9
HETATM    9  C3  UNL     1     -34.311   6.254   5.405  1.00 20.00     0.177 C 
HETATM   10  O10 UNL     1     -34.365   5.853   6.601  1.00 20.00    -0.648 OA
HETATM   11  O11 UNL     1     -34.391   5.601   4.327  1.00 20.00    -0.648 OA
ENDBRANCH   3   9
TORSDOF 3
