REMARK  3 active torsions:
REMARK  status: ('A' for Active; 'I' for Inactive)
REMARK    1  A    between atoms: C6_6  and  C7_7 
REMARK    2  A    between atoms: C6_6  and  C8_8 
REMARK    3  A    between atoms: C7_7  and  N9_9 
ROOT
HETATM    1  C1  UNL     1     -33.455   4.271   5.513  1.00 20.00     0.029 C 
HETATM    2  C2  UNL     1     -34.308   5.171   6.399  1.00 20.00     0.023 C 
HETATM    3  C3  UNL     1     -34.030   4.172   4.109  1.00 20.00     0.235 C 
HETATM    4  C4  UNL     1     -34.994   6.494   4.339  1.00 20.00     0.254 C 
HETATM    5  C5  UNL     1     -34.534   6.555   5.795  1.00 20.00     0.108 C 
HETATM    6  N9  UNL     1     -34.186   5.539   3.492  1.00 20.00    -0.070 N 
HETATM    7 CL11 UNL     1     -33.076   7.576   5.981  1.00 20.00    -0.123 Cl
HETATM    8  H27 UNL     1     -34.791   5.369   2.616  1.00 20.00     0.279 HD
ENDROOT
BRANCH   6   9
HETATM    9  C7  UNL     1     -32.901   6.099   2.946  1.00 20.00     0.237 C 
BRANCH   9  10
HETATM   10  C6  UNL     1     -33.223   7.172   1.916  1.00 20.00     0.059 C 
BRANCH  10  11
HETATM   11  C8  UNL     1     -31.957   7.805   1.366  1.00 20.00     0.223 C 
HETATM   12  F10 UNL     1     -32.292   8.750   0.449  1.00 20.00    -0.255 F 
ENDBRANCH  10  11
ENDBRANCH   9  10
ENDBRANCH   6   9
TORSDOF 3
