REMARK  4 active torsions:
REMARK  status: ('A' for Active; 'I' for Inactive)
REMARK    1  A    between atoms: C4_4  and  C6_6 
REMARK    2  A    between atoms: C5_5  and  C8_8 
REMARK    3  A    between atoms: C6_6  and  C9_9 
REMARK    4  A    between atoms: C9_9  and  O10_10 
ROOT
HETATM    1  C3  UNL     1     -33.023   5.757   2.960  1.00 20.00     0.019 A 
HETATM    2  C5  UNL     1     -33.306   7.029   2.213  1.00 20.00     0.011 A 
HETATM    3  C6  UNL     1     -33.337   7.023   3.741  1.00 20.00    -0.010 A 
ENDROOT
BRANCH   3   4
HETATM    4  C4  UNL     1     -34.687   7.173   4.460  1.00 20.00    -0.004 A 
HETATM    5  C1  UNL     1     -35.798   6.169   4.318  1.00 20.00     0.006 A 
HETATM    6  C2  UNL     1     -35.081   6.317   5.632  1.00 20.00     0.006 A 
ENDBRANCH   3   4
BRANCH   3   7
HETATM    7  C9  UNL     1     -32.190   7.654   4.493  1.00 20.00     0.177 C 
BRANCH   7   8
HETATM    8  O10 UNL     1     -32.653   8.824   5.153  1.00 20.00    -0.395 OA
HETATM    9  C7  UNL     1     -32.735   9.928   4.262  1.00 20.00     0.201 C 
ENDBRANCH   7   8
ENDBRANCH   3   7
BRANCH   2  10
HETATM   10  C8  UNL     1     -32.230   7.698   1.428  1.00 20.00     0.120 C 
HETATM   11 CL11 UNL     1     -32.834   9.179   0.635  1.00 20.00    -0.130 Cl
ENDBRANCH   2  10
TORSDOF 4
