REMARK  1 active torsions:
REMARK  status: ('A' for Active; 'I' for Inactive)
REMARK    1  A    between atoms: C5_5  and  C7_7 
ROOT
HETATM    1  C1  UNL     1     -32.943   7.424   5.684  1.00 20.00     0.020 C 
HETATM    2  C2  UNL     1     -31.690   7.142   3.432  1.00 20.00     0.017 A 
HETATM    3  C3  UNL     1     -34.354   7.250   6.210  1.00 20.00     0.075 C 
HETATM    4  C4  UNL     1     -33.811   5.771   4.028  1.00 20.00     0.083 C 
HETATM    5  C5  UNL     1     -32.839   8.071   3.163  1.00 20.00     0.005 A 
HETATM    6  C6  UNL     1     -32.964   6.999   4.238  1.00 20.00    -0.026 A 
HETATM    7  S8  UNL     1     -34.894   5.681   5.492  1.00 20.00    -0.168 SA
ENDROOT
BRANCH   5   8
HETATM    8  C7  UNL     1     -33.555   8.003   1.858  1.00 20.00     0.090 C 
HETATM    9 BR9  UNL     1     -32.574   8.990   0.490  1.00 20.00    -0.096 Br
ENDBRANCH   5   8
TORSDOF 1
