REMARK  3 active torsions:
REMARK  status: ('A' for Active; 'I' for Inactive)
REMARK    1  A    between atoms: C4_4  and  C9_9 
REMARK    2  A    between atoms: C5_5  and  C6_6 
REMARK    3  A    between atoms: C9_9  and  O10_10 
ROOT
HETATM    1  C3  UNL     1     -34.090   8.415   4.391  1.00 20.00     0.018 A 
HETATM    2  C4  UNL     1     -32.777   7.817   3.975  1.00 20.00     0.019 A 
HETATM    3  C6  UNL     1     -33.698   7.044   4.918  1.00 20.00    -0.031 A 
HETATM    4  C8  UNL     1     -33.257   6.978   6.360  1.00 20.00     0.016 C 
ENDROOT
BRANCH   3   5
HETATM    5  C5  UNL     1     -34.464   5.794   4.462  1.00 20.00    -0.036 A 
HETATM    6  C1  UNL     1     -33.741   4.676   3.747  1.00 20.00     0.011 A 
HETATM    7  C2  UNL     1     -34.235   4.469   5.150  1.00 20.00     0.011 A 
HETATM    8  C7  UNL     1     -35.874   6.081   4.010  1.00 20.00     0.016 C 
ENDBRANCH   3   5
BRANCH   2   9
HETATM    9  C9  UNL     1     -32.560   7.396   2.562  1.00 20.00     0.169 C 
BRANCH   9  10
HETATM   10  O10 UNL     1     -32.258   8.535   1.756  1.00 20.00    -0.400 OA
HETATM   11  H26 UNL     1     -32.127   8.205   0.854  1.00 20.00     0.209 HD
ENDBRANCH   9  10
ENDBRANCH   2   9
TORSDOF 3
