REMARK  2 active torsions:
REMARK  status: ('A' for Active; 'I' for Inactive)
REMARK    1  A    between atoms: C6_6  and  C10_10 
REMARK    2  A    between atoms: C7_7  and  C9_9 
ROOT
HETATM    1  C1  UNL     1     -32.321   9.125   4.991  1.00 20.00     0.001 C 
HETATM    2  C2  UNL     1     -32.928   7.933   5.735  1.00 20.00     0.013 C 
HETATM    3  C3  UNL     1     -31.510   8.671   3.779  1.00 20.00     0.010 C 
HETATM    4  C4  UNL     1     -32.944   6.603   3.584  1.00 20.00     0.023 C 
HETATM    5  C5  UNL     1     -31.902   7.626   1.440  1.00 20.00     0.016 A 
HETATM    6  C6  UNL     1     -33.771   7.052   4.799  1.00 20.00     0.094 C 
HETATM    7  C7  UNL     1     -33.156   8.407   1.727  1.00 20.00     0.009 A 
HETATM    8  C8  UNL     1     -32.356   7.805   2.872  1.00 20.00    -0.035 A 
ENDROOT
BRANCH   6   9
HETATM    9  C10 UNL     1     -34.326   5.844   5.550  1.00 20.00     0.391 C 
HETATM   10  F11 UNL     1     -35.091   5.105   4.732  1.00 20.00    -0.171 F 
HETATM   11  F12 UNL     1     -33.319   5.084   6.007  1.00 20.00    -0.171 F 
HETATM   12  F13 UNL     1     -35.070   6.251   6.590  1.00 20.00    -0.171 F 
ENDBRANCH   6   9
BRANCH   7  13
HETATM   13  C9  UNL     1     -33.208   9.870   1.452  1.00 20.00     0.120 C 
HETATM   14 CL14 UNL     1     -33.484  10.193  -0.282  1.00 20.00    -0.130 Cl
ENDBRANCH   7  13
TORSDOF 2
