REMARK  3 active torsions:
REMARK  status: ('A' for Active; 'I' for Inactive)
REMARK    1  A    between atoms: C4_4  and  C6_6 
REMARK    2  A    between atoms: C5_5  and  C8_8 
REMARK    3  A    between atoms: C6_6  and  C9_9 
ROOT
HETATM    1  C3  UNL     1     -31.805   7.713   4.274  1.00 20.00     0.017 A 
HETATM    2  C5  UNL     1     -32.508   8.249   3.060  1.00 20.00     0.009 A 
HETATM    3  C6  UNL     1     -33.188   7.191   3.918  1.00 20.00    -0.032 A 
ENDROOT
BRANCH   3   4
HETATM    4  C4  UNL     1     -33.366   5.744   3.438  1.00 20.00    -0.006 A 
HETATM    5  C1  UNL     1     -32.854   4.562   4.213  1.00 20.00     0.006 A 
HETATM    6  C2  UNL     1     -34.334   4.789   4.080  1.00 20.00     0.006 A 
ENDBRANCH   3   4
BRANCH   3   7
HETATM    7  C9  UNL     1     -34.331   7.676   4.777  1.00 20.00     0.006 C 
HETATM    8  C7  UNL     1     -34.157   7.304   6.220  1.00 20.00     0.006 C 
ENDBRANCH   3   7
BRANCH   2   9
HETATM    9  C8  UNL     1     -31.986   7.946   1.697  1.00 20.00     0.120 C 
HETATM   10 CL10 UNL     1     -32.609   9.108   0.493  1.00 20.00    -0.130 Cl
ENDBRANCH   2   9
TORSDOF 3
