REMARK  1 active torsions:
REMARK  status: ('A' for Active; 'I' for Inactive)
REMARK    1  A    between atoms: C5_5  and  C10_10 
ROOT
HETATM    1  C1  UNL     1     -32.261   5.876   3.338  1.00 20.00     0.036 C 
HETATM    2  C2  UNL     1     -31.381   8.306   3.466  1.00 20.00     0.016 A 
HETATM    3  C3  UNL     1     -33.022   7.338   5.224  1.00 20.00     0.047 C 
HETATM    4  C4  UNL     1     -33.576   5.120   3.463  1.00 20.00     0.169 C 
HETATM    5  C5  UNL     1     -32.757   8.435   2.873  1.00 20.00     0.009 A 
HETATM    6  C6  UNL     1     -32.444   7.291   3.826  1.00 20.00    -0.031 A 
HETATM    7  C7  UNL     1     -34.296   6.474   5.331  1.00 20.00     0.054 C 
HETATM    8  C8  UNL     1     -34.640   6.275   6.814  1.00 20.00     0.045 C 
HETATM    9  C9  UNL     1     -35.503   7.127   4.642  1.00 20.00     0.045 C 
HETATM   10  O11 UNL     1     -34.057   5.155   4.807  1.00 20.00    -0.381 OA
ENDROOT
BRANCH   5  11
HETATM   11  C10 UNL     1     -32.967   8.236   1.412  1.00 20.00     0.120 C 
HETATM   12 CL12 UNL     1     -32.526   9.699   0.489  1.00 20.00    -0.130 Cl
ENDBRANCH   5  11
TORSDOF 1
