REMARK  1 active torsions:
REMARK  status: ('A' for Active; 'I' for Inactive)
REMARK    1  A    between atoms: C6_6  and  C8_8 
ROOT
HETATM    1  C1  UNL     1     -34.213   5.470   5.357  1.00 20.00     0.027 C 
HETATM    2  C2  UNL     1     -34.325   6.477   4.213  1.00 20.00     0.014 C 
HETATM    3  C3  UNL     1     -31.967   7.399   3.625  1.00 20.00     0.018 A 
HETATM    4  C4  UNL     1     -34.180   6.185   6.702  1.00 20.00     0.167 C 
HETATM    5  C5  UNL     1     -33.247   8.151   5.758  1.00 20.00     0.177 C 
HETATM    6  C6  UNL     1     -32.937   8.473   3.212  1.00 20.00     0.011 A 
HETATM    7  C7  UNL     1     -33.276   7.553   4.372  1.00 20.00    -0.014 A 
HETATM    8  O9  UNL     1     -33.102   7.121   6.741  1.00 20.00    -0.390 OA
ENDROOT
BRANCH   6   9
HETATM    9  C8  UNL     1     -33.631   8.394   1.895  1.00 20.00     0.120 C 
HETATM   10 CL10 UNL     1     -32.574   8.961   0.572  1.00 20.00    -0.130 Cl
ENDBRANCH   6   9
TORSDOF 1
