REMARK  1 active torsions:
REMARK  status: ('A' for Active; 'I' for Inactive)
REMARK    1  A    between atoms: C5_5  and  C10_10 
ROOT
HETATM    1  C1  UNL     1     -33.553   5.672   7.030  1.00 20.00     0.002 C 
HETATM    2  C2  UNL     1     -33.096   7.009   6.459  1.00 20.00     0.011 C 
HETATM    3  C3  UNL     1     -34.909   5.456   6.376  1.00 20.00     0.010 C 
HETATM    4  C4  UNL     1     -34.067   8.499   4.577  1.00 20.00     0.017 A 
HETATM    5  C5  UNL     1     -32.924   7.755   3.957  1.00 20.00     0.009 A 
HETATM    6  C6  UNL     1     -33.732   7.101   5.078  1.00 20.00    -0.028 A 
HETATM    7  C7  UNL     1     -34.702   5.917   4.906  1.00 20.00    -0.040 C 
HETATM    8  C8  UNL     1     -34.068   4.766   4.103  1.00 20.00     0.015 C 
HETATM    9  C9  UNL     1     -36.065   6.270   4.305  1.00 20.00     0.015 C 
ENDROOT
BRANCH   5  10
HETATM   10  C10 UNL     1     -33.000   7.397   2.514  1.00 20.00     0.120 C 
HETATM   11 CL11 UNL     1     -32.589   8.791   1.477  1.00 20.00    -0.130 Cl
ENDBRANCH   5  10
TORSDOF 1
