REMARK  1 active torsions:
REMARK  status: ('A' for Active; 'I' for Inactive)
REMARK    1  A    between atoms: C6_6  and  C8_8 
ROOT
HETATM    1  C1  UNL     1     -34.165   4.911   5.065  1.00 20.00     0.011 C 
HETATM    2  C2  UNL     1     -34.327   5.914   3.922  1.00 20.00     0.011 C 
HETATM    3  C3  UNL     1     -32.103   7.259   3.781  1.00 20.00     0.017 A 
HETATM    4  C4  UNL     1     -34.651   5.450   6.405  1.00 20.00     0.074 C 
HETATM    5  C5  UNL     1     -34.003   7.937   5.424  1.00 20.00     0.083 C 
HETATM    6  C6  UNL     1     -33.117   8.059   3.012  1.00 20.00     0.009 A 
HETATM    7  C7  UNL     1     -33.563   7.196   4.185  1.00 20.00    -0.027 A 
HETATM    8  S9  UNL     1     -33.723   6.931   6.903  1.00 20.00    -0.168 SA
ENDROOT
BRANCH   6   9
HETATM    9  C8  UNL     1     -33.420   7.723   1.592  1.00 20.00     0.120 C 
HETATM   10 CL10 UNL     1     -32.185   8.392   0.491  1.00 20.00    -0.130 Cl
ENDBRANCH   6   9
TORSDOF 1
