REMARK  3 active torsions:
REMARK  status: ('A' for Active; 'I' for Inactive)
REMARK    1  A    between atoms: C2_2  and  C6_6 
REMARK    2  A    between atoms: C3_3  and  C7_7 
REMARK    3  A    between atoms: C6_6  and  O8_8 
ROOT
HETATM    1  C1  UNL     1     -35.438   5.390   6.278  1.00 20.00     0.017 A 
HETATM    2  C2  UNL     1     -34.658   6.656   6.067  1.00 20.00     0.018 A 
HETATM    3  C3  UNL     1     -34.985   5.764   4.877  1.00 20.00    -0.038 A 
HETATM    4  C4  UNL     1     -36.026   6.264   3.909  1.00 20.00     0.015 C 
ENDROOT
BRANCH   2   5
HETATM    5  C6  UNL     1     -33.280   6.790   6.617  1.00 20.00     0.169 C 
BRANCH   5   6
HETATM    6  O8  UNL     1     -32.578   7.821   5.922  1.00 20.00    -0.400 OA
HETATM    7  H22 UNL     1     -31.694   7.865   6.317  1.00 20.00     0.209 HD
ENDBRANCH   5   6
ENDBRANCH   2   5
BRANCH   3   8
HETATM    8  C7  UNL     1     -33.904   4.933   4.237  1.00 20.00     0.005 C 
HETATM    9  C5  UNL     1     -33.553   5.412   2.858  1.00 20.00     0.006 C 
ENDBRANCH   3   8
TORSDOF 3
