REMARK  3 active torsions:
REMARK  status: ('A' for Active; 'I' for Inactive)
REMARK    1  A    between atoms: C2_2  and  C6_6 
REMARK    2  A    between atoms: C3_3  and  C7_7 
REMARK    3  A    between atoms: C3_3  and  C8_8 
ROOT
HETATM    1  C1  UNL     1     -34.684   7.131   4.455  1.00 20.00     0.016 A 
HETATM    2  C2  UNL     1     -33.248   7.016   4.892  1.00 20.00     0.009 A 
HETATM    3  C3  UNL     1     -33.962   5.809   4.305  1.00 20.00    -0.036 A 
ENDROOT
BRANCH   3   4
HETATM    4  C7  UNL     1     -33.630   5.339   2.913  1.00 20.00     0.005 C 
HETATM    5  C4  UNL     1     -32.917   4.018   2.909  1.00 20.00     0.006 C 
ENDBRANCH   3   4
BRANCH   3   6
HETATM    6  C8  UNL     1     -34.325   4.697   5.254  1.00 20.00     0.005 C 
HETATM    7  C5  UNL     1     -34.077   5.065   6.688  1.00 20.00     0.006 C 
ENDBRANCH   3   6
BRANCH   2   8
HETATM    8  C6  UNL     1     -32.178   7.752   4.161  1.00 20.00     0.120 C 
HETATM    9 CL9  UNL     1     -32.119   9.467   4.657  1.00 20.00    -0.130 Cl
ENDBRANCH   2   8
TORSDOF 3
