REMARK  2 active torsions:
REMARK  status: ('A' for Active; 'I' for Inactive)
REMARK    1  A    between atoms: C1_1  and  C11_11 
REMARK    2  A    between atoms: C5_5  and  C11_11 
ROOT
HETATM    1  C2  UNL     1     -32.594   8.500   3.687  1.00 20.00     0.006 C 
HETATM    2  C3  UNL     1     -31.680   8.688   2.475  1.00 20.00     0.009 C 
HETATM    3  C4  UNL     1     -32.578   6.590   1.352  1.00 20.00     0.013 C 
HETATM    4  C5  UNL     1     -33.356   7.160   3.704  1.00 20.00    -0.001 C 
HETATM    5  C6  UNL     1     -32.653   6.110   2.819  1.00 20.00    -0.013 C 
HETATM    6  C7  UNL     1     -32.247   8.096   1.173  1.00 20.00    -0.047 C 
HETATM    7  C8  UNL     1     -33.320   4.733   2.866  1.00 20.00     0.010 C 
HETATM    8  C9  UNL     1     -33.510   8.870   0.742  1.00 20.00     0.015 C 
HETATM    9  C10 UNL     1     -31.200   8.259   0.053  1.00 20.00     0.015 C 
ENDROOT
BRANCH   4  10
HETATM   10  C11 UNL     1     -33.557   6.704   5.152  1.00 20.00     0.118 C 
BRANCH  10  11
HETATM   11  C1  UNL     1     -34.739   5.764   5.368  1.00 20.00     0.172 C 
HETATM   12  O12 UNL     1     -35.737   5.910   4.611  1.00 20.00    -0.648 OA
HETATM   13  O13 UNL     1     -34.559   4.935   6.307  1.00 20.00    -0.648 OA
ENDBRANCH  10  11
ENDBRANCH   4  10
TORSDOF 2
