REMARK  3 active torsions:
REMARK  status: ('A' for Active; 'I' for Inactive)
REMARK    1  A    between atoms: C2_2  and  C6_6 
REMARK    2  A    between atoms: C3_3  and  C7_7 
REMARK    3  A    between atoms: C7_7  and  C8_8 
ROOT
HETATM    1  C1  UNL     1     -32.343   7.137   3.001  1.00 20.00     0.016 A 
HETATM    2  C2  UNL     1     -33.340   8.152   2.521  1.00 20.00     0.008 A 
HETATM    3  C3  UNL     1     -33.046   8.025   4.014  1.00 20.00    -0.039 A 
HETATM    4  C4  UNL     1     -32.233   9.082   4.714  1.00 20.00     0.015 C 
ENDROOT
BRANCH   3   5
HETATM    5  C7  UNL     1     -34.113   7.403   4.876  1.00 20.00     0.009 C 
BRANCH   5   6
HETATM    6  C8  UNL     1     -33.517   6.588   6.029  1.00 20.00    -0.004 C 
HETATM    7  C5  UNL     1     -34.594   5.986   6.917  1.00 20.00     0.005 C 
ENDBRANCH   5   6
ENDBRANCH   3   5
BRANCH   2   8
HETATM    8  C6  UNL     1     -32.893   9.318   1.708  1.00 20.00     0.120 C 
HETATM    9 CL9  UNL     1     -32.641   8.859   0.001  1.00 20.00    -0.130 Cl
ENDBRANCH   2   8
TORSDOF 3
