REMARK  1 active torsions:
REMARK  status: ('A' for Active; 'I' for Inactive)
REMARK    1  A    between atoms: C1_1  and  C5_5 
ROOT
HETATM    1  C2  UNL     1     -33.520   5.886   2.971  1.00 20.00     0.013 C 
HETATM    2  C3  UNL     1     -32.312   6.491   2.253  1.00 20.00     0.009 C 
HETATM    3  C4  UNL     1     -33.336   8.664   3.119  1.00 20.00     0.013 C 
HETATM    4  C5  UNL     1     -33.705   6.453   4.375  1.00 20.00     0.059 C 
HETATM    5  C6  UNL     1     -33.986   7.967   4.333  1.00 20.00    -0.007 C 
HETATM    6  C7  UNL     1     -32.061   7.989   2.564  1.00 20.00    -0.047 C 
HETATM    7  C9  UNL     1     -33.599   8.640   5.655  1.00 20.00     0.011 C 
HETATM    8  C10 UNL     1     -30.885   8.134   3.551  1.00 20.00     0.015 C 
HETATM    9  C11 UNL     1     -31.651   8.712   1.263  1.00 20.00     0.015 C 
ENDROOT
BRANCH   4  10
HETATM   10  C1  UNL     1     -34.849   5.745   5.040  1.00 20.00     0.127 C 
HETATM   11  C8  UNL     1     -34.533   4.978   6.295  1.00 20.00     0.091 C 
HETATM   12  O12 UNL     1     -35.990   5.791   4.582  1.00 20.00    -0.298 OA
ENDBRANCH   4  10
TORSDOF 1
