REMARK  3 active torsions:
REMARK  status: ('A' for Active; 'I' for Inactive)
REMARK    1  A    between atoms: C2_2  and  C7_7 
REMARK    2  A    between atoms: C3_3  and  C9_9 
REMARK    3  A    between atoms: C8_8  and  C9_9 
ROOT
HETATM    1  C1  UNL     1     -33.587   4.424   3.676  1.00 20.00     0.016 A 
HETATM    2  C2  UNL     1     -33.531   5.718   2.915  1.00 20.00     0.009 A 
HETATM    3  C3  UNL     1     -34.218   5.669   4.279  1.00 20.00    -0.036 A 
HETATM    4  C4  UNL     1     -35.721   5.759   4.295  1.00 20.00     0.016 C 
ENDROOT
BRANCH   3   5
HETATM    5  C9  UNL     1     -33.554   6.289   5.479  1.00 20.00    -0.010 C 
HETATM    6  C6  UNL     1     -34.069   5.644   6.778  1.00 20.00     0.011 C 
BRANCH   5   7
HETATM    7  C8  UNL     1     -33.763   7.820   5.573  1.00 20.00     0.000 C 
HETATM    8  C5  UNL     1     -33.115   8.440   6.802  1.00 20.00     0.005 C 
ENDBRANCH   5   7
ENDBRANCH   3   5
BRANCH   2   9
HETATM    9  C7  UNL     1     -32.226   6.404   2.695  1.00 20.00     0.120 C 
HETATM   10 CL10 UNL     1     -32.437   7.909   1.758  1.00 20.00    -0.130 Cl
ENDBRANCH   2   9
TORSDOF 3
