REMARK  2 active torsions:
REMARK  status: ('A' for Active; 'I' for Inactive)
REMARK    1  A    between atoms: C5_5  and  C6_6 
REMARK    2  A    between atoms: C7_7  and  C8_8 
ROOT
HETATM    1  C4  UNL     1     -32.128   9.064   4.332  1.00 20.00     0.011 A 
HETATM    2  C6  UNL     1     -33.253   8.105   4.075  1.00 20.00    -0.005 A 
HETATM    3  C7  UNL     1     -32.323   8.480   2.958  1.00 20.00     0.004 A 
ENDROOT
BRANCH   2   4
HETATM    4  C5  UNL     1     -33.295   6.707   4.672  1.00 20.00    -0.010 C 
HETATM    5  C2  UNL     1     -34.499   5.825   4.254  1.00 20.00     0.005 C 
HETATM    6  C1  UNL     1     -35.210   6.277   5.544  1.00 20.00     0.001 C 
HETATM    7  C3  UNL     1     -33.821   6.604   6.126  1.00 20.00     0.005 C 
ENDBRANCH   2   4
BRANCH   3   8
HETATM    8  C8  UNL     1     -32.809   9.337   1.841  1.00 20.00     0.119 C 
HETATM    9 CL9  UNL     1     -32.410   8.622   0.254  1.00 20.00    -0.130 Cl
ENDBRANCH   3   8
TORSDOF 2
