REMARK  3 active torsions:
REMARK  status: ('A' for Active; 'I' for Inactive)
REMARK    1  A    between atoms: C1_1  and  C5_5 
REMARK    2  A    between atoms: C5_5  and  C7_7 
REMARK    3  A    between atoms: C6_6  and  C7_7 
ROOT
HETATM    1  C5  UNL     1     -33.232   6.963   5.445  1.00 20.00     0.274 C 
HETATM    2  F10 UNL     1     -33.642   7.321   6.697  1.00 20.00    -0.238 F 
ENDROOT
BRANCH   1   3
HETATM    3  C1  UNL     1     -34.199   5.850   5.038  1.00 20.00     0.208 C 
HETATM    4  O8  UNL     1     -34.327   5.690   3.791  1.00 20.00    -0.646 OA
HETATM    5  O9  UNL     1     -34.738   5.221   5.991  1.00 20.00    -0.646 OA
ENDBRANCH   1   3
BRANCH   1   6
HETATM    6  C7  UNL     1     -33.276   8.211   4.548  1.00 20.00     0.029 C 
HETATM    7  C4  UNL     1     -32.796   9.426   5.354  1.00 20.00     0.014 C 
BRANCH   6   8
HETATM    8  C6  UNL     1     -32.505   8.017   3.210  1.00 20.00    -0.016 C 
HETATM    9  C2  UNL     1     -32.974   9.002   2.134  1.00 20.00     0.010 C 
HETATM   10  C3  UNL     1     -30.982   8.098   3.351  1.00 20.00     0.010 C 
ENDBRANCH   6   8
ENDBRANCH   1   6
TORSDOF 3
