REMARK  2 active torsions:
REMARK  status: ('A' for Active; 'I' for Inactive)
REMARK    1  A    between atoms: C2_2  and  C6_6 
REMARK    2  A    between atoms: C7_7  and  C10_10 
ROOT
HETATM    1  C1  UNL     1     -33.487   6.170   3.536  1.00 20.00     0.022 A 
HETATM    2  C2  UNL     1     -32.984   7.497   3.664  1.00 20.00    -0.040 A 
HETATM    3  C3  UNL     1     -33.992   5.692   4.725  1.00 20.00    -0.020 A 
HETATM    4  C4  UNL     1     -33.124   7.982   4.946  1.00 20.00    -0.014 A 
HETATM    5  C8  UNL     1     -34.598   4.371   5.003  1.00 20.00     0.056 C 
HETATM    6  C9  UNL     1     -32.732   9.303   5.487  1.00 20.00     0.057 C 
HETATM    7  S11 UNL     1     -33.858   6.840   5.989  1.00 20.00    -0.100 SA
ENDROOT
BRANCH   2   8
HETATM    8  C6  UNL     1     -32.371   8.272   2.520  1.00 20.00     0.025 A 
HETATM    9  C5  UNL     1     -31.542   7.558   1.475  1.00 20.00     0.016 A 
HETATM   10  C7  UNL     1     -32.899   8.085   1.113  1.00 20.00     0.004 A 
BRANCH  10  11
HETATM   11  C10 UNL     1     -33.029   9.257   0.202  1.00 20.00     0.090 C 
HETATM   12 BR12 UNL     1     -32.776   8.711  -1.654  1.00 20.00    -0.096 Br
ENDBRANCH  10  11
ENDBRANCH   2   8
TORSDOF 2
