REMARK  1 active torsions:
REMARK  status: ('A' for Active; 'I' for Inactive)
REMARK    1  A    between atoms: C6_6  and  C8_8 
ROOT
HETATM    1  C1  UNL     1     -33.667   7.882   5.869  1.00 20.00     0.036 C 
HETATM    2  C2  UNL     1     -34.252   6.315   3.993  1.00 20.00     0.036 C 
HETATM    3  C3  UNL     1     -32.064   7.714   3.823  1.00 20.00     0.016 A 
HETATM    4  C4  UNL     1     -33.481   6.648   6.745  1.00 20.00     0.168 C 
HETATM    5  C5  UNL     1     -34.038   5.173   4.983  1.00 20.00     0.168 C 
HETATM    6  C6  UNL     1     -33.176   8.655   3.446  1.00 20.00     0.009 A 
HETATM    7  C7  UNL     1     -33.442   7.519   4.418  1.00 20.00    -0.032 A 
HETATM    8  O9  UNL     1     -34.349   5.597   6.313  1.00 20.00    -0.391 OA
ENDROOT
BRANCH   6   9
HETATM    9  C8  UNL     1     -33.713   8.666   2.056  1.00 20.00     0.120 C 
HETATM   10 CL10 UNL     1     -32.661   9.608   0.964  1.00 20.00    -0.130 Cl
ENDBRANCH   6   9
TORSDOF 1
