REMARK  1 active torsions:
REMARK  status: ('A' for Active; 'I' for Inactive)
REMARK    1  A    between atoms: C5_5  and  C7_7 
ROOT
HETATM    1  C1  UNL     1     -34.476   4.719   5.392  1.00 20.00     0.038 C 
HETATM    2  C2  UNL     1     -34.846   6.278   3.342  1.00 20.00     0.018 A 
HETATM    3  C3  UNL     1     -34.089   5.061   6.820  1.00 20.00     0.168 C 
HETATM    4  C4  UNL     1     -34.100   7.081   5.715  1.00 20.00     0.177 C 
HETATM    5  C5  UNL     1     -33.368   6.017   3.408  1.00 20.00     0.007 A 
HETATM    6  C6  UNL     1     -34.195   6.002   4.679  1.00 20.00    -0.012 A 
HETATM    7  O8  UNL     1     -34.426   6.449   6.968  1.00 20.00    -0.390 OA
ENDROOT
BRANCH   5   8
HETATM    8  C7  UNL     1     -32.409   7.115   3.096  1.00 20.00     0.090 C 
HETATM    9 BR9  UNL     1     -32.185   7.295   1.166  1.00 20.00    -0.096 Br
ENDBRANCH   5   8
TORSDOF 1
