REMARK  1 active torsions:
REMARK  status: ('A' for Active; 'I' for Inactive)
REMARK    1  A    between atoms: C4_4  and  C9_9 
ROOT
HETATM    1  C1  UNL     1     -32.287   7.316   2.447  1.00 20.00     0.131 C 
HETATM    2  C2  UNL     1     -32.851   5.887   2.548  1.00 20.00     0.084 C 
HETATM    3  C3  UNL     1     -32.533   7.583   3.951  1.00 20.00     0.056 C 
HETATM    4  C4  UNL     1     -32.749   6.035   4.092  1.00 20.00     0.011 C 
HETATM    5  C5  UNL     1     -33.680   8.535   4.238  1.00 20.00     0.018 C 
HETATM    6  O10 UNL     1     -31.832   7.976   1.537  1.00 20.00    -0.298 OA
ENDROOT
BRANCH   4   7
HETATM    7  C9  UNL     1     -33.942   5.526   4.880  1.00 20.00    -0.047 C 
HETATM    8  C6  UNL     1     -33.771   5.862   6.375  1.00 20.00     0.015 C 
HETATM    9  C7  UNL     1     -34.066   3.997   4.725  1.00 20.00     0.015 C 
HETATM   10  C8  UNL     1     -35.237   6.185   4.367  1.00 20.00     0.015 C 
ENDBRANCH   4   7
TORSDOF 1
