REMARK  2 active torsions:
REMARK  status: ('A' for Active; 'I' for Inactive)
REMARK    1  A    between atoms: C3_3  and  C7_7 
REMARK    2  A    between atoms: C4_4  and  O8_8 
ROOT
HETATM    1  C1  UNL     1     -34.438   7.119   5.886  1.00 20.00     0.037 C 
HETATM    2  C2  UNL     1     -34.092   8.167   4.802  1.00 20.00    -0.010 C 
HETATM    3  C3  UNL     1     -34.244   7.026   3.746  1.00 20.00     0.018 C 
HETATM    4  C4  UNL     1     -35.141   6.291   4.787  1.00 20.00     0.122 C 
HETATM    5  C5  UNL     1     -32.764   8.881   4.955  1.00 20.00     0.010 C 
ENDROOT
BRANCH   3   6
HETATM    6  C7  UNL     1     -32.992   6.291   3.288  1.00 20.00     0.003 C 
HETATM    7  C6  UNL     1     -33.322   5.089   2.462  1.00 20.00     0.005 C 
ENDBRANCH   3   6
BRANCH   4   8
HETATM    8  O8  UNL     1     -34.998   4.863   4.874  1.00 20.00    -0.395 OA
HETATM    9  H22 UNL     1     -35.376   4.612   5.727  1.00 20.00     0.210 HD
ENDBRANCH   4   8
TORSDOF 2
