REMARK  1 active torsions:
REMARK  status: ('A' for Active; 'I' for Inactive)
REMARK    1  A    between atoms: C5_5  and  C10_10 
ROOT
HETATM    1  C1  UNL     1     -33.614   7.746   2.201  1.00 20.00     0.017 A 
HETATM    2  C2  UNL     1     -33.150   5.922   4.021  1.00 20.00     0.020 C 
HETATM    3  C3  UNL     1     -32.467   8.337   4.465  1.00 20.00     0.083 C 
HETATM    4  C4  UNL     1     -34.007   6.890   6.222  1.00 20.00     0.082 C 
HETATM    5  C5  UNL     1     -32.181   7.310   2.084  1.00 20.00     0.009 A 
HETATM    6  C6  UNL     1     -32.869   7.301   3.446  1.00 20.00    -0.026 A 
HETATM    7  C7  UNL     1     -34.280   5.889   5.079  1.00 20.00    -0.038 C 
HETATM    8  C8  UNL     1     -35.654   6.149   4.429  1.00 20.00     0.015 C 
HETATM    9  C9  UNL     1     -34.319   4.470   5.689  1.00 20.00     0.015 C 
HETATM   10  S11 UNL     1     -33.793   8.607   5.664  1.00 20.00    -0.168 SA
ENDROOT
BRANCH   5  11
HETATM   11  C10 UNL     1     -31.127   8.294   1.707  1.00 20.00     0.120 C 
HETATM   12 CL12 UNL     1     -31.099   8.567  -0.057  1.00 20.00    -0.130 Cl
ENDBRANCH   5  11
TORSDOF 1
