REMARK  1 active torsions:
REMARK  status: ('A' for Active; 'I' for Inactive)
REMARK    1  A    between atoms: C5_5  and  C10_10 
ROOT
HETATM    1  C1  UNL     1     -33.858   7.295   6.409  1.00 20.00     0.002 C 
HETATM    2  C2  UNL     1     -32.834   7.998   5.527  1.00 20.00     0.011 C 
HETATM    3  C3  UNL     1     -33.998   5.925   5.762  1.00 20.00     0.010 C 
HETATM    4  C4  UNL     1     -31.770   7.335   3.262  1.00 20.00     0.017 A 
HETATM    5  C5  UNL     1     -32.848   8.320   2.929  1.00 20.00     0.005 A 
HETATM    6  C6  UNL     1     -33.013   7.398   4.138  1.00 20.00    -0.029 A 
HETATM    7  C7  UNL     1     -34.004   6.222   4.236  1.00 20.00    -0.040 C 
HETATM    8  C8  UNL     1     -33.588   4.953   3.487  1.00 20.00     0.015 C 
HETATM    9  C9  UNL     1     -35.425   6.631   3.810  1.00 20.00     0.015 C 
ENDROOT
BRANCH   5  10
HETATM   10  C10 UNL     1     -33.568   8.185   1.635  1.00 20.00     0.090 C 
HETATM   11 BR11 UNL     1     -32.527   8.979   0.186  1.00 20.00    -0.096 Br
ENDBRANCH   5  10
TORSDOF 1
