REMARK  2 active torsions:
REMARK  status: ('A' for Active; 'I' for Inactive)
REMARK    1  A    between atoms: C2_2  and  C6_6 
REMARK    2  A    between atoms: C3_3  and  C7_7 
ROOT
HETATM    1  C1  UNL     1     -33.186   6.085   3.434  1.00 20.00     0.011 A 
HETATM    2  C2  UNL     1     -33.109   7.538   3.821  1.00 20.00     0.004 A 
HETATM    3  C3  UNL     1     -34.119   6.631   4.483  1.00 20.00    -0.006 A 
ENDROOT
BRANCH   3   4
HETATM    4  C7  UNL     1     -33.994   6.193   5.901  1.00 20.00    -0.018 C 
HETATM    5  C4  UNL     1     -34.634   7.204   6.872  1.00 20.00     0.010 C 
HETATM    6  C5  UNL     1     -34.620   4.805   6.131  1.00 20.00     0.010 C 
ENDBRANCH   3   4
BRANCH   2   7
HETATM    7  C6  UNL     1     -31.913   8.062   4.540  1.00 20.00     0.119 C 
HETATM    8 CL8  UNL     1     -32.279   9.602   5.367  1.00 20.00    -0.130 Cl
ENDBRANCH   2   7
TORSDOF 2
