REMARK  2 active torsions:
REMARK  status: ('A' for Active; 'I' for Inactive)
REMARK    1  A    between atoms: C6_6  and  C8_8 
REMARK    2  A    between atoms: C8_8  and  O9_9 
ROOT
HETATM    1  C1  UNL     1     -33.793   5.245   6.656  1.00 20.00     0.011 C 
HETATM    2  C2  UNL     1     -34.063   6.748   6.596  1.00 20.00     0.011 C 
HETATM    3  C3  UNL     1     -33.411   8.791   5.154  1.00 20.00     0.018 A 
HETATM    4  C4  UNL     1     -34.622   4.455   5.648  1.00 20.00     0.074 C 
HETATM    5  C5  UNL     1     -34.592   6.748   4.118  1.00 20.00     0.083 C 
HETATM    6  C6  UNL     1     -32.314   7.779   4.974  1.00 20.00     0.019 A 
HETATM    7  C7  UNL     1     -33.743   7.314   5.227  1.00 20.00    -0.026 A 
HETATM    8  S10 UNL     1     -34.281   4.971   3.938  1.00 20.00    -0.168 SA
ENDROOT
BRANCH   6   9
HETATM    9  C8  UNL     1     -31.631   7.642   3.657  1.00 20.00     0.169 C 
BRANCH   9  10
HETATM   10  O9  UNL     1     -32.586   7.744   2.601  1.00 20.00    -0.400 OA
HETATM   11  H24 UNL     1     -32.091   7.649   1.774  1.00 20.00     0.209 HD
ENDBRANCH   9  10
ENDBRANCH   6   9
TORSDOF 2
