REMARK  3 active torsions:
REMARK  status: ('A' for Active; 'I' for Inactive)
REMARK    1  A    between atoms: C1_1  and  C6_6 
REMARK    2  A    between atoms: C6_6  and  C7_7 
REMARK    3  A    between atoms: C7_7  and  C8_8 
ROOT
HETATM    1  C2  UNL     1     -33.609   5.047   3.568  1.00 20.00     0.014 C 
HETATM    2  C7  UNL     1     -33.897   6.321   4.385  1.00 20.00     0.034 C 
ENDROOT
BRANCH   2   3
HETATM    3  C6  UNL     1     -32.717   7.301   4.222  1.00 20.00     0.275 C 
HETATM    4  F11 UNL     1     -32.212   7.189   2.962  1.00 20.00    -0.237 F 
BRANCH   3   5
HETATM    5  C1  UNL     1     -33.024   8.791   4.430  1.00 20.00     0.208 C 
HETATM    6  O9  UNL     1     -33.929   9.271   3.691  1.00 20.00    -0.646 OA
HETATM    7  O10 UNL     1     -32.314   9.369   5.301  1.00 20.00    -0.646 OA
ENDBRANCH   3   5
ENDBRANCH   2   3
BRANCH   2   8
HETATM    8  C8  UNL     1     -34.267   6.026   5.889  1.00 20.00    -0.045 C 
HETATM    9  C3  UNL     1     -35.480   5.071   5.969  1.00 20.00     0.015 C 
HETATM   10  C4  UNL     1     -33.090   5.318   6.597  1.00 20.00     0.015 C 
HETATM   11  C5  UNL     1     -34.609   7.299   6.685  1.00 20.00     0.015 C 
ENDBRANCH   2   8
TORSDOF 3
