REMARK  2 active torsions:
REMARK  status: ('A' for Active; 'I' for Inactive)
REMARK    1  A    between atoms: C4_4  and  C6_6 
REMARK    2  A    between atoms: C7_7  and  C8_8 
ROOT
HETATM    1  C1  UNL     1     -34.527   4.805   5.686  1.00 20.00     0.034 A 
HETATM    2  C2  UNL     1     -34.736   5.573   6.808  1.00 20.00     0.142 A 
HETATM    3  C3  UNL     1     -33.947   6.922   5.289  1.00 20.00     0.148 A 
HETATM    4  C4  UNL     1     -34.015   5.682   4.700  1.00 20.00    -0.029 A 
HETATM    5  O9  UNL     1     -34.385   6.865   6.575  1.00 20.00    -0.334 OA
ENDROOT
BRANCH   4   6
HETATM    6  C6  UNL     1     -33.612   5.322   3.259  1.00 20.00     0.026 A 
HETATM    7  C5  UNL     1     -32.229   4.759   3.016  1.00 20.00     0.016 A 
HETATM    8  C7  UNL     1     -32.562   6.136   2.526  1.00 20.00     0.005 A 
BRANCH   8   9
HETATM    9  C8  UNL     1     -31.902   7.326   3.135  1.00 20.00     0.090 C 
HETATM   10 BR10 UNL     1     -32.916   8.945   2.737  1.00 20.00    -0.096 Br
ENDBRANCH   8   9
ENDBRANCH   4   6
TORSDOF 2
