REMARK  0 active torsions:
REMARK  status: ('A' for Active; 'I' for Inactive)
ROOT
HETATM    1  C1  UNL     1     -35.094   5.900   6.194  1.00 20.00     0.006 C 
HETATM    2  C2  UNL     1     -33.580   6.062   5.974  1.00 20.00     0.038 C 
HETATM    3  C3  UNL     1     -35.241   5.756   4.670  1.00 20.00     0.038 C 
HETATM    4  C4  UNL     1     -31.630   8.014   4.070  1.00 20.00     0.046 C 
HETATM    5  C5  UNL     1     -33.003   5.984   3.409  1.00 20.00     0.058 C 
HETATM    6  C6  UNL     1     -32.889   8.768   4.497  1.00 20.00     0.170 C 
HETATM    7  C7  UNL     1     -31.919   6.984   2.982  1.00 20.00     0.087 C 
HETATM    8  C8  UNL     1     -33.903   6.541   4.520  1.00 20.00     0.062 C 
HETATM    9  O9  UNL     1     -34.067   7.972   4.361  1.00 20.00    -0.380 OA
HETATM   10 CL10 UNL     1     -32.413   7.821   1.470  1.00 20.00    -0.125 Cl
ENDROOT
TORSDOF 0
