REMARK  2 active torsions:
REMARK  status: ('A' for Active; 'I' for Inactive)
REMARK    1  A    between atoms: C4_4  and  C9_9 
REMARK    2  A    between atoms: C5_5  and  C6_6 
ROOT
HETATM    1  C3  UNL     1     -31.844   7.147   3.106  1.00 20.00     0.017 A 
HETATM    2  C4  UNL     1     -33.015   7.974   2.657  1.00 20.00     0.009 A 
HETATM    3  C6  UNL     1     -32.738   7.798   4.149  1.00 20.00    -0.032 A 
HETATM    4  C8  UNL     1     -32.146   8.953   4.919  1.00 20.00     0.016 C 
ENDROOT
BRANCH   3   5
HETATM    5  C5  UNL     1     -33.696   6.939   4.990  1.00 20.00    -0.036 A 
HETATM    6  C1  UNL     1     -35.103   6.674   4.508  1.00 20.00     0.011 A 
HETATM    7  C2  UNL     1     -34.096   5.561   4.518  1.00 20.00     0.011 A 
HETATM    8  C7  UNL     1     -33.516   7.114   6.478  1.00 20.00     0.016 C 
ENDBRANCH   3   5
BRANCH   2   9
HETATM    9  C9  UNL     1     -32.799   9.262   1.939  1.00 20.00     0.120 C 
HETATM   10 CL10 UNL     1     -32.422   8.987   0.216  1.00 20.00    -0.130 Cl
ENDBRANCH   2   9
TORSDOF 2
