REMARK  3 active torsions:
REMARK  status: ('A' for Active; 'I' for Inactive)
REMARK    1  A    between atoms: C2_2  and  C6_6 
REMARK    2  A    between atoms: C3_3  and  C7_7 
REMARK    3  A    between atoms: C6_6  and  O8_8 
ROOT
HETATM    1  C1  UNL     1     -32.869   7.599   5.177  1.00 20.00     0.017 A 
HETATM    2  C2  UNL     1     -34.170   7.495   4.435  1.00 20.00     0.018 A 
HETATM    3  C3  UNL     1     -32.908   7.936   3.695  1.00 20.00    -0.038 A 
HETATM    4  C4  UNL     1     -32.229   6.995   2.736  1.00 20.00     0.015 C 
ENDROOT
BRANCH   2   5
HETATM    5  C6  UNL     1     -34.807   6.165   4.218  1.00 20.00     0.169 C 
BRANCH   5   6
HETATM    6  O8  UNL     1     -35.489   5.754   5.403  1.00 20.00    -0.400 OA
HETATM    7  H22 UNL     1     -35.882   4.890   5.207  1.00 20.00     0.209 HD
ENDBRANCH   5   6
ENDBRANCH   2   5
BRANCH   3   8
HETATM    8  C7  UNL     1     -32.814   9.386   3.300  1.00 20.00     0.005 C 
HETATM    9  C5  UNL     1     -32.865   9.580   1.812  1.00 20.00     0.006 C 
ENDBRANCH   3   8
TORSDOF 3
