REMARK  1 active torsions:
REMARK  status: ('A' for Active; 'I' for Inactive)
REMARK    1  A    between atoms: C4_4  and  C8_8 
ROOT
HETATM    1  C1  UNL     1     -34.232   6.194   5.020  1.00 20.00     0.136 C 
HETATM    2  C2  UNL     1     -33.641   7.040   6.163  1.00 20.00     0.084 C 
HETATM    3  C3  UNL     1     -32.670   7.655   5.118  1.00 20.00     0.004 C 
HETATM    4  C4  UNL     1     -33.545   7.080   3.933  1.00 20.00     0.020 C 
HETATM    5  C5  UNL     1     -32.455   9.155   5.222  1.00 20.00     0.011 C 
HETATM    6  C6  UNL     1     -34.521   8.032   3.246  1.00 20.00     0.024 C 
HETATM    7  O9  UNL     1     -34.956   5.222   4.987  1.00 20.00    -0.297 OA
ENDROOT
BRANCH   4   8
HETATM    8  C8  UNL     1     -32.730   6.284   2.916  1.00 20.00     0.013 C 
HETATM    9  C7  UNL     1     -32.094   7.175   1.899  1.00 20.00     0.006 C 
ENDBRANCH   4   8
TORSDOF 1
