REMARK  2 active torsions:
REMARK  status: ('A' for Active; 'I' for Inactive)
REMARK    1  A    between atoms: C4_4  and  C6_6 
REMARK    2  A    between atoms: C5_5  and  C8_8 
ROOT
HETATM    1  C3  UNL     1     -32.523   7.490   2.922  1.00 20.00     0.016 A 
HETATM    2  C5  UNL     1     -33.561   8.505   2.536  1.00 20.00     0.009 A 
HETATM    3  C6  UNL     1     -33.331   8.178   4.011  1.00 20.00    -0.035 A 
HETATM    4  C7  UNL     1     -32.593   9.177   4.870  1.00 20.00     0.016 C 
ENDROOT
BRANCH   3   5
HETATM    5  C4  UNL     1     -34.410   7.402   4.781  1.00 20.00    -0.006 A 
HETATM    6  C1  UNL     1     -34.397   5.903   4.907  1.00 20.00     0.006 A 
HETATM    7  C2  UNL     1     -34.153   6.762   6.117  1.00 20.00     0.006 A 
ENDBRANCH   3   5
BRANCH   2   8
HETATM    8  C8  UNL     1     -33.157   9.801   1.921  1.00 20.00     0.120 C 
HETATM    9 CL9  UNL     1     -32.799   9.608   0.183  1.00 20.00    -0.130 Cl
ENDBRANCH   2   8
TORSDOF 2
