REMARK  1 active torsions:
REMARK  status: ('A' for Active; 'I' for Inactive)
REMARK    1  A    between atoms: C5_5  and  C10_10 
ROOT
HETATM    1  C1  UNL     1     -33.695   7.142   6.622  1.00 20.00     0.036 C 
HETATM    2  C2  UNL     1     -35.277   5.159   6.168  1.00 20.00     0.016 A 
HETATM    3  C3  UNL     1     -34.542   6.778   4.288  1.00 20.00     0.047 C 
HETATM    4  C4  UNL     1     -32.492   7.847   6.016  1.00 20.00     0.169 C 
HETATM    5  C5  UNL     1     -33.905   4.675   5.790  1.00 20.00     0.009 A 
HETATM    6  C6  UNL     1     -34.261   6.148   5.635  1.00 20.00    -0.031 A 
HETATM    7  C7  UNL     1     -33.329   7.577   3.767  1.00 20.00     0.054 C 
HETATM    8  C8  UNL     1     -32.204   6.669   3.253  1.00 20.00     0.045 C 
HETATM    9  C9  UNL     1     -33.787   8.474   2.607  1.00 20.00     0.045 C 
HETATM   10  O11 UNL     1     -32.840   8.474   4.780  1.00 20.00    -0.381 OA
ENDROOT
BRANCH   5  11
HETATM   11  C10 UNL     1     -33.760   3.724   4.652  1.00 20.00     0.120 C 
HETATM   12 CL12 UNL     1     -34.133   2.052   5.155  1.00 20.00    -0.130 Cl
ENDBRANCH   5  11
TORSDOF 1
