REMARK  1 active torsions:
REMARK  status: ('A' for Active; 'I' for Inactive)
REMARK    1  A    between atoms: C1_1  and  C5_5 
ROOT
HETATM    1  C2  UNL     1     -32.883   6.781   2.584  1.00 20.00     0.013 C 
HETATM    2  C3  UNL     1     -33.634   5.511   2.992  1.00 20.00     0.009 C 
HETATM    3  C4  UNL     1     -33.656   6.725   5.227  1.00 20.00     0.013 C 
HETATM    4  C5  UNL     1     -33.614   8.045   3.027  1.00 20.00     0.051 C 
HETATM    5  C6  UNL     1     -33.777   8.115   4.565  1.00 20.00    -0.007 C 
HETATM    6  C7  UNL     1     -34.274   5.575   4.403  1.00 20.00    -0.047 C 
HETATM    7  C8  UNL     1     -32.813   9.080   5.266  1.00 20.00     0.011 C 
HETATM    8  C9  UNL     1     -34.020   4.244   5.137  1.00 20.00     0.015 C 
HETATM    9  C10 UNL     1     -35.802   5.756   4.290  1.00 20.00     0.015 C 
ENDROOT
BRANCH   4  10
HETATM   10  C1  UNL     1     -32.940   9.249   2.439  1.00 20.00     0.236 C 
HETATM   11  O11 UNL     1     -31.908   9.191   1.779  1.00 20.00    -0.306 OA
ENDBRANCH   4  10
TORSDOF 1
