REMARK  1 active torsions:
REMARK  status: ('A' for Active; 'I' for Inactive)
REMARK    1  A    between atoms: C6_6  and  C8_8 
ROOT
HETATM    1  C1  UNL     1     -33.701   5.466   3.571  1.00 20.00     0.036 C 
HETATM    2  C2  UNL     1     -33.219   7.067   5.449  1.00 20.00     0.036 C 
HETATM    3  C3  UNL     1     -34.175   8.000   3.212  1.00 20.00     0.016 A 
HETATM    4  C4  UNL     1     -34.792   4.874   4.460  1.00 20.00     0.168 C 
HETATM    5  C5  UNL     1     -34.342   6.385   6.222  1.00 20.00     0.168 C 
HETATM    6  C6  UNL     1     -32.689   7.836   3.033  1.00 20.00     0.005 A 
HETATM    7  C7  UNL     1     -33.447   6.905   3.962  1.00 20.00    -0.032 A 
HETATM    8  O9  UNL     1     -34.445   5.010   5.840  1.00 20.00    -0.391 OA
ENDROOT
BRANCH   6   9
HETATM    9  C8  UNL     1     -32.134   7.387   1.725  1.00 20.00     0.090 C 
HETATM   10 BR10 UNL     1     -32.094   8.870   0.456  1.00 20.00    -0.096 Br
ENDBRANCH   6   9
TORSDOF 1
