REMARK  2 active torsions:
REMARK  status: ('A' for Active; 'I' for Inactive)
REMARK    1  A    between atoms: C3_3  and  C9_9 
REMARK    2  A    between atoms: C4_4  and  C10_10 
ROOT
HETATM    1  C1  UNL     1     -33.696   4.957   3.996  1.00 20.00     0.131 C 
HETATM    2  C2  UNL     1     -32.710   5.556   2.977  1.00 20.00     0.084 C 
HETATM    3  C3  UNL     1     -34.233   6.356   4.385  1.00 20.00     0.060 C 
HETATM    4  C4  UNL     1     -33.499   6.888   3.105  1.00 20.00     0.011 C 
HETATM    5  O11 UNL     1     -33.949   3.828   4.356  1.00 20.00    -0.298 OA
ENDROOT
BRANCH   4   6
HETATM    6  C10 UNL     1     -32.654   8.145   3.207  1.00 20.00    -0.047 C 
HETATM    7  C6  UNL     1     -33.554   9.368   3.470  1.00 20.00     0.015 C 
HETATM    8  C7  UNL     1     -31.879   8.370   1.894  1.00 20.00     0.015 C 
HETATM    9  C8  UNL     1     -31.645   8.011   4.365  1.00 20.00     0.015 C 
ENDBRANCH   4   6
BRANCH   3  10
HETATM   10  C9  UNL     1     -33.797   6.834   5.759  1.00 20.00     0.008 C 
HETATM   11  C5  UNL     1     -34.400   6.012   6.856  1.00 20.00     0.006 C 
ENDBRANCH   3  10
TORSDOF 2
