REMARK  2 active torsions:
REMARK  status: ('A' for Active; 'I' for Inactive)
REMARK    1  A    between atoms: C4_4  and  C7_7 
REMARK    2  A    between atoms: C6_6  and  C10_10 
ROOT
HETATM    1  C1  UNL     1     -34.898   6.163   6.088  1.00 20.00     0.015 A 
HETATM    2  C2  UNL     1     -34.705   4.912   5.544  1.00 20.00     0.051 A 
HETATM    3  C3  UNL     1     -34.150   7.165   5.405  1.00 20.00    -0.048 A 
HETATM    4  C4  UNL     1     -33.413   6.641   4.364  1.00 20.00    -0.003 A 
HETATM    5  C8  UNL     1     -34.172   8.598   5.784  1.00 20.00     0.049 C 
HETATM    6  S11 UNL     1     -33.626   4.949   4.215  1.00 20.00    -0.105 SA
ENDROOT
BRANCH   4   7
HETATM    7  C7  UNL     1     -32.491   7.469   3.425  1.00 20.00    -0.005 A 
HETATM    8  C5  UNL     1     -32.329   6.953   2.003  1.00 20.00     0.021 A 
HETATM    9  C6  UNL     1     -33.189   8.157   2.251  1.00 20.00     0.010 A 
HETATM   10  C9  UNL     1     -31.307   8.111   4.090  1.00 20.00     0.021 C 
BRANCH   9  11
HETATM   11  C10 UNL     1     -32.773   9.496   1.745  1.00 20.00     0.091 C 
HETATM   12 BR12 UNL     1     -33.154   9.652  -0.163  1.00 20.00    -0.096 Br
ENDBRANCH   9  11
ENDBRANCH   4   7
TORSDOF 2
