REMARK  3 active torsions:
REMARK  status: ('A' for Active; 'I' for Inactive)
REMARK    1  A    between atoms: C2_2  and  C7_7 
REMARK    2  A    between atoms: C3_3  and  C9_9 
REMARK    3  A    between atoms: C8_8  and  C9_9 
ROOT
HETATM    1  C1  UNL     1     -33.927   4.855   3.635  1.00 20.00     0.016 A 
HETATM    2  C2  UNL     1     -33.836   6.037   2.712  1.00 20.00     0.009 A 
HETATM    3  C3  UNL     1     -34.401   6.216   4.121  1.00 20.00    -0.036 A 
HETATM    4  C4  UNL     1     -35.885   6.442   4.243  1.00 20.00     0.016 C 
ENDROOT
BRANCH   3   5
HETATM    5  C9  UNL     1     -33.585   6.915   5.176  1.00 20.00    -0.010 C 
HETATM    6  C6  UNL     1     -33.651   8.440   4.987  1.00 20.00     0.011 C 
BRANCH   5   7
HETATM    7  C8  UNL     1     -34.028   6.568   6.618  1.00 20.00     0.000 C 
HETATM    8  C5  UNL     1     -33.897   5.087   6.946  1.00 20.00     0.005 C 
ENDBRANCH   5   7
ENDBRANCH   3   5
BRANCH   2   9
HETATM    9  C7  UNL     1     -32.506   6.571   2.305  1.00 20.00     0.120 C 
HETATM   10 CL10 UNL     1     -32.679   7.963   1.201  1.00 20.00    -0.130 Cl
ENDBRANCH   2   9
TORSDOF 3
