REMARK  1 active torsions:
REMARK  status: ('A' for Active; 'I' for Inactive)
REMARK    1  A    between atoms: C6_6  and  C8_8 
ROOT
HETATM    1  C1  UNL     1     -34.308   7.214   5.988  1.00 20.00     0.011 C 
HETATM    2  C2  UNL     1     -32.850   7.298   5.540  1.00 20.00     0.011 C 
HETATM    3  C3  UNL     1     -31.497   7.757   3.385  1.00 20.00     0.017 A 
HETATM    4  C4  UNL     1     -34.964   5.887   5.620  1.00 20.00     0.074 C 
HETATM    5  C5  UNL     1     -33.189   5.816   3.512  1.00 20.00     0.083 C 
HETATM    6  C6  UNL     1     -32.834   8.416   3.194  1.00 20.00     0.009 A 
HETATM    7  C7  UNL     1     -32.724   7.151   4.036  1.00 20.00    -0.027 A 
HETATM    8  S9  UNL     1     -34.963   5.607   3.822  1.00 20.00    -0.168 SA
ENDROOT
BRANCH   6   9
HETATM    9  C8  UNL     1     -33.465   8.447   1.844  1.00 20.00     0.120 C 
HETATM   10 CL10 UNL     1     -32.773   9.749   0.837  1.00 20.00    -0.130 Cl
ENDBRANCH   6   9
TORSDOF 1
