REMARK  1 active torsions:
REMARK  status: ('A' for Active; 'I' for Inactive)
REMARK    1  A    between atoms: C5_5  and  C10_10 
ROOT
HETATM    1  C1  UNL     1     -33.206   5.589   2.942  1.00 20.00     0.011 C 
HETATM    2  C2  UNL     1     -33.662   4.681   4.086  1.00 20.00     0.009 C 
HETATM    3  C3  UNL     1     -31.698   7.684   3.366  1.00 20.00     0.016 A 
HETATM    4  C4  UNL     1     -33.583   6.907   4.996  1.00 20.00     0.018 C 
HETATM    5  C5  UNL     1     -32.983   8.220   2.805  1.00 20.00     0.005 A 
HETATM    6  C6  UNL     1     -32.988   6.928   3.603  1.00 20.00    -0.035 A 
HETATM    7  C7  UNL     1     -34.430   5.616   5.039  1.00 20.00    -0.047 C 
HETATM    8  C8  UNL     1     -35.856   5.881   4.529  1.00 20.00     0.015 C 
HETATM    9  C9  UNL     1     -34.498   5.034   6.452  1.00 20.00     0.015 C 
ENDROOT
BRANCH   5  10
HETATM   10  C10 UNL     1     -33.196   8.243   1.330  1.00 20.00     0.090 C 
HETATM   11 BR11 UNL     1     -32.326   9.801   0.540  1.00 20.00    -0.096 Br
ENDBRANCH   5  10
TORSDOF 1
