REMARK  2 active torsions:
REMARK  status: ('A' for Active; 'I' for Inactive)
REMARK    1  A    between atoms: C4_4  and  C8_8 
REMARK    2  A    between atoms: C8_8  and  O9_9 
ROOT
HETATM    1  C1  UNL     1     -32.526   7.491   5.871  1.00 20.00     0.018 A 
HETATM    2  C2  UNL     1     -32.159   7.163   3.319  1.00 20.00     0.025 C 
HETATM    3  C3  UNL     1     -32.739   9.429   4.158  1.00 20.00     0.084 C 
HETATM    4  C4  UNL     1     -33.909   7.402   5.288  1.00 20.00     0.019 A 
HETATM    5  C5  UNL     1     -32.731   7.751   2.034  1.00 20.00     0.044 C 
HETATM    6  C6  UNL     1     -32.764   7.952   4.451  1.00 20.00    -0.025 A 
HETATM    7  C7  UNL     1     -31.909   7.399   0.807  1.00 20.00     0.021 C 
HETATM    8  S10 UNL     1     -32.740   9.545   2.339  1.00 20.00    -0.164 SA
ENDROOT
BRANCH   4   9
HETATM    9  C8  UNL     1     -34.532   6.073   5.035  1.00 20.00     0.169 C 
BRANCH   9  10
HETATM   10  O9  UNL     1     -35.048   5.538   6.254  1.00 20.00    -0.400 OA
HETATM   11  H24 UNL     1     -35.438   4.679   6.033  1.00 20.00     0.209 HD
ENDBRANCH   9  10
ENDBRANCH   4   9
TORSDOF 2
