REMARK  2 active torsions:
REMARK  status: ('A' for Active; 'I' for Inactive)
REMARK    1  A    between atoms: C2_2  and  C6_6 
REMARK    2  A    between atoms: C7_7  and  C10_10 
ROOT
HETATM    1  C1  UNL     1     -32.779   9.198   2.525  1.00 20.00     0.022 A 
HETATM    2  C2  UNL     1     -32.728   7.946   3.204  1.00 20.00    -0.040 A 
HETATM    3  C3  UNL     1     -32.583   9.058   1.168  1.00 20.00    -0.020 A 
HETATM    4  C4  UNL     1     -32.496   6.898   2.341  1.00 20.00    -0.014 A 
HETATM    5  C8  UNL     1     -32.563  10.109   0.128  1.00 20.00     0.056 C 
HETATM    6  C9  UNL     1     -32.374   5.454   2.645  1.00 20.00     0.057 C 
HETATM    7  S11 UNL     1     -32.340   7.424   0.719  1.00 20.00    -0.100 SA
ENDROOT
BRANCH   2   8
HETATM    8  C6  UNL     1     -32.909   7.799   4.697  1.00 20.00     0.025 A 
HETATM    9  C5  UNL     1     -33.678   8.842   5.478  1.00 20.00     0.016 A 
HETATM   10  C7  UNL     1     -34.277   7.483   5.266  1.00 20.00     0.008 A 
BRANCH  10  11
HETATM   11  C10 UNL     1     -34.410   6.536   6.408  1.00 20.00     0.119 C 
HETATM   12 CL12 UNL     1     -34.602   4.855   5.836  1.00 20.00    -0.130 Cl
ENDBRANCH  10  11
ENDBRANCH   2   8
TORSDOF 2
