REMARK  1 active torsions:
REMARK  status: ('A' for Active; 'I' for Inactive)
REMARK    1  A    between atoms: C5_5  and  C9_9 
ROOT
HETATM    1  C1  UNL     1     -32.613   8.892   3.730  1.00 20.00     0.036 C 
HETATM    2  C2  UNL     1     -31.212   6.860   2.902  1.00 20.00     0.016 A 
HETATM    3  C3  UNL     1     -33.671   6.612   3.727  1.00 20.00     0.041 C 
HETATM    4  C4  UNL     1     -32.698   8.845   5.253  1.00 20.00     0.169 C 
HETATM    5  C5  UNL     1     -32.111   7.228   1.752  1.00 20.00     0.009 A 
HETATM    6  C6  UNL     1     -33.686   6.691   5.256  1.00 20.00     0.118 C 
HETATM    7  C7  UNL     1     -32.563   7.485   3.179  1.00 20.00    -0.031 A 
HETATM    8  C8  UNL     1     -34.863   5.917   5.834  1.00 20.00     0.039 C 
HETATM    9  O10 UNL     1     -33.816   8.058   5.671  1.00 20.00    -0.386 OA
ENDROOT
BRANCH   5  10
HETATM   10  C9  UNL     1     -31.729   8.326   0.821  1.00 20.00     0.120 C 
HETATM   11 CL11 UNL     1     -33.148   8.940  -0.072  1.00 20.00    -0.130 Cl
ENDBRANCH   5  10
TORSDOF 1
