REMARK  2 active torsions:
REMARK  status: ('A' for Active; 'I' for Inactive)
REMARK    1  A    between atoms: C5_5  and  C6_6 
REMARK    2  A    between atoms: C7_7  and  C8_8 
ROOT
HETATM    1  C4  UNL     1     -32.452   8.685   4.672  1.00 20.00     0.011 A 
HETATM    2  C6  UNL     1     -32.817   7.388   4.009  1.00 20.00    -0.005 A 
HETATM    3  C7  UNL     1     -32.918   8.674   3.239  1.00 20.00     0.000 A 
ENDROOT
BRANCH   2   4
HETATM    4  C5  UNL     1     -34.033   6.578   4.408  1.00 20.00    -0.010 C 
HETATM    5  C2  UNL     1     -34.057   6.029   5.858  1.00 20.00     0.005 C 
HETATM    6  C1  UNL     1     -34.735   4.765   5.289  1.00 20.00     0.001 C 
HETATM    7  C3  UNL     1     -34.067   5.100   3.940  1.00 20.00     0.005 C 
ENDBRANCH   2   4
BRANCH   3   8
HETATM    8  C8  UNL     1     -31.957   8.957   2.137  1.00 20.00     0.090 C 
HETATM    9 BR9  UNL     1     -32.914   9.445   0.506  1.00 20.00    -0.096 Br
ENDBRANCH   3   8
TORSDOF 2
