REMARK  3 active torsions:
REMARK  status: ('A' for Active; 'I' for Inactive)
REMARK    1  A    between atoms: C4_4  and  C6_6 
REMARK    2  A    between atoms: C5_5  and  C8_8 
REMARK    3  A    between atoms: C6_6  and  C9_9 
ROOT
HETATM    1  C3  UNL     1     -32.637   7.632   5.160  1.00 20.00     0.017 A 
HETATM    2  C5  UNL     1     -33.385   8.346   4.071  1.00 20.00     0.009 A 
HETATM    3  C6  UNL     1     -33.382   6.823   4.111  1.00 20.00    -0.032 A 
ENDROOT
BRANCH   3   4
HETATM    4  C4  UNL     1     -34.676   6.083   4.483  1.00 20.00    -0.006 A 
HETATM    5  C1  UNL     1     -34.701   4.922   5.439  1.00 20.00     0.006 A 
HETATM    6  C2  UNL     1     -35.337   6.228   5.826  1.00 20.00     0.006 A 
ENDBRANCH   3   4
BRANCH   3   7
HETATM    7  C9  UNL     1     -32.536   6.072   3.111  1.00 20.00     0.006 C 
HETATM    8  C7  UNL     1     -33.367   5.309   2.123  1.00 20.00     0.006 C 
ENDBRANCH   3   7
BRANCH   2   9
HETATM    9  C8  UNL     1     -32.650   9.132   3.040  1.00 20.00     0.120 C 
HETATM   10 CL10 UNL     1     -33.650   9.377   1.581  1.00 20.00    -0.130 Cl
ENDBRANCH   2   9
TORSDOF 3
