REMARK  2 active torsions:
REMARK  status: ('A' for Active; 'I' for Inactive)
REMARK    1  A    between atoms: C7_7  and  C10_10 
REMARK    2  A    between atoms: C7_7  and  C11_11 
ROOT
HETATM    1  C1  UNL     1     -33.067   7.378   4.517  1.00 20.00     0.140 C 
HETATM    2  C2  UNL     1     -34.063   5.426   6.683  1.00 20.00     0.001 C 
HETATM    3  C3  UNL     1     -34.541   6.869   6.606  1.00 20.00     0.013 C 
HETATM    4  C4  UNL     1     -34.658   4.785   5.436  1.00 20.00     0.007 C 
HETATM    5  C5  UNL     1     -34.472   7.207   5.125  1.00 20.00     0.061 C 
HETATM    6  C6  UNL     1     -34.586   5.864   4.349  1.00 20.00     0.013 C 
HETATM    7  C7  UNL     1     -33.257   6.173   3.554  1.00 20.00     0.025 C 
HETATM    8  O12 UNL     1     -32.162   8.161   4.717  1.00 20.00    -0.297 OA
ENDROOT
BRANCH   7   9
HETATM    9  C10 UNL     1     -33.510   6.604   2.107  1.00 20.00     0.013 C 
HETATM   10  C8  UNL     1     -32.374   7.408   1.567  1.00 20.00     0.006 C 
ENDBRANCH   7   9
BRANCH   7  11
HETATM   11  C11 UNL     1     -32.143   5.135   3.627  1.00 20.00     0.013 C 
HETATM   12  C9  UNL     1     -32.378   4.002   2.681  1.00 20.00     0.006 C 
ENDBRANCH   7  11
TORSDOF 2
