REMARK  2 active torsions:
REMARK  status: ('A' for Active; 'I' for Inactive)
REMARK    1  A    between atoms: C6_6  and  C7_7 
REMARK    2  A    between atoms: C8_8  and  C9_9 
ROOT
HETATM    1  C1  UNL     1     -34.564   6.814   6.172  1.00 20.00     0.031 C 
HETATM    2  C2  UNL     1     -34.592   5.425   4.081  1.00 20.00     0.031 C 
HETATM    3  C4  UNL     1     -33.963   5.607   6.882  1.00 20.00     0.168 C 
HETATM    4  C5  UNL     1     -33.990   4.295   4.909  1.00 20.00     0.168 C 
HETATM    5  C6  UNL     1     -34.269   6.806   4.667  1.00 20.00    -0.006 C 
HETATM    6  O10 UNL     1     -34.399   4.392   6.272  1.00 20.00    -0.391 OA
ENDROOT
BRANCH   5   7
HETATM    7  C7  UNL     1     -32.824   7.217   4.374  1.00 20.00    -0.005 A 
HETATM    8  C3  UNL     1     -32.464   8.670   4.298  1.00 20.00     0.011 A 
HETATM    9  C8  UNL     1     -32.418   7.818   3.057  1.00 20.00     0.004 A 
BRANCH   9  10
HETATM   10  C9  UNL     1     -33.380   8.056   1.945  1.00 20.00     0.119 C 
HETATM   11 CL11 UNL     1     -32.870   9.436   0.933  1.00 20.00    -0.130 Cl
ENDBRANCH   9  10
ENDBRANCH   5   7
TORSDOF 2
