REMARK  1 active torsions:
REMARK  status: ('A' for Active; 'I' for Inactive)
REMARK    1  A    between atoms: C4_4  and  C10_10 
ROOT
HETATM    1  C1  UNL     1     -32.978   5.663   2.625  1.00 20.00     0.006 C 
HETATM    2  C2  UNL     1     -33.524   4.821   3.777  1.00 20.00     0.009 C 
HETATM    3  C3  UNL     1     -33.459   6.843   5.284  1.00 20.00     0.013 C 
HETATM    4  C4  UNL     1     -32.122   6.838   3.122  1.00 20.00    -0.001 C 
HETATM    5  C5  UNL     1     -32.907   7.707   4.133  1.00 20.00    -0.013 C 
HETATM    6  C6  UNL     1     -34.312   5.644   4.814  1.00 20.00    -0.047 C 
HETATM    7  C7  UNL     1     -32.051   8.836   4.719  1.00 20.00     0.010 C 
HETATM    8  C8  UNL     1     -34.626   4.749   6.029  1.00 20.00     0.015 C 
HETATM    9  C9  UNL     1     -35.652   6.126   4.225  1.00 20.00     0.015 C 
ENDROOT
BRANCH   4  10
HETATM   10  C10 UNL     1     -31.623   7.644   1.918  1.00 20.00     0.090 C 
HETATM   11 BR11 UNL     1     -33.143   8.278   0.898  1.00 20.00    -0.096 Br
ENDBRANCH   4  10
TORSDOF 1
