REMARK  2 active torsions:
REMARK  status: ('A' for Active; 'I' for Inactive)
REMARK    1  A    between atoms: C5_5  and  C8_8 
REMARK    2  A    between atoms: C9_9  and  C10_10 
ROOT
HETATM    1  C1  UNL     1     -33.397   5.918   3.230  1.00 20.00     0.009 A 
HETATM    2  C2  UNL     1     -32.383   7.868   4.234  1.00 20.00     0.009 A 
HETATM    3  C3  UNL     1     -33.928   5.557   4.468  1.00 20.00     0.019 A 
HETATM    4  C4  UNL     1     -32.914   7.506   5.472  1.00 20.00     0.019 A 
HETATM    5  C5  UNL     1     -32.625   7.074   3.113  1.00 20.00    -0.053 A 
HETATM    6  C6  UNL     1     -33.686   6.351   5.589  1.00 20.00     0.011 A 
HETATM    7 BR12 UNL     1     -34.406   5.861   7.267  1.00 20.00    -0.051 Br
ENDROOT
BRANCH   5   8
HETATM    8  C8  UNL     1     -32.050   7.465   1.772  1.00 20.00     0.024 A 
HETATM    9  C7  UNL     1     -31.823   8.924   1.436  1.00 20.00     0.016 A 
HETATM   10  C9  UNL     1     -32.921   8.167   0.751  1.00 20.00     0.008 A 
BRANCH  10  11
HETATM   11  C10 UNL     1     -32.806   7.820  -0.693  1.00 20.00     0.119 C 
HETATM   12 CL11 UNL     1     -33.234   9.210  -1.728  1.00 20.00    -0.130 Cl
ENDBRANCH  10  11
ENDBRANCH   5   8
TORSDOF 2
