REMARK  1 active torsions:
REMARK  status: ('A' for Active; 'I' for Inactive)
REMARK    1  A    between atoms: C5_5  and  C7_7 
ROOT
HETATM    1  C1  UNL     1     -35.004   5.006   4.456  1.00 20.00     0.002 C 
HETATM    2  C2  UNL     1     -33.695   5.728   4.095  1.00 20.00     0.010 C 
HETATM    3  C3  UNL     1     -35.606   6.377   4.808  1.00 20.00     0.010 C 
HETATM    4  C4  UNL     1     -33.567   7.278   6.248  1.00 20.00     0.016 A 
HETATM    5  C5  UNL     1     -33.705   8.218   5.075  1.00 20.00     0.005 A 
HETATM    6  C6  UNL     1     -34.198   6.811   4.972  1.00 20.00    -0.036 A 
ENDROOT
BRANCH   5   7
HETATM    7  C7  UNL     1     -32.494   8.664   4.332  1.00 20.00     0.090 C 
HETATM    8 BR8  UNL     1     -32.978   9.273   2.542  1.00 20.00    -0.096 Br
ENDBRANCH   5   7
TORSDOF 1
