REMARK  3 active torsions:
REMARK  status: ('A' for Active; 'I' for Inactive)
REMARK    1  A    between atoms: C4_4  and  C6_6 
REMARK    2  A    between atoms: C5_5  and  C8_8 
REMARK    3  A    between atoms: C6_6  and  C9_9 
ROOT
HETATM    1  C3  UNL     1     -32.462   6.035   3.160  1.00 20.00     0.017 A 
HETATM    2  C5  UNL     1     -33.037   7.182   2.380  1.00 20.00     0.009 A 
HETATM    3  C6  UNL     1     -32.959   7.265   3.903  1.00 20.00    -0.032 A 
ENDROOT
BRANCH   3   4
HETATM    4  C4  UNL     1     -34.258   7.201   4.722  1.00 20.00    -0.006 A 
HETATM    5  C1  UNL     1     -35.161   5.999   4.718  1.00 20.00     0.006 A 
HETATM    6  C2  UNL     1     -34.396   6.360   5.960  1.00 20.00     0.006 A 
ENDBRANCH   3   4
BRANCH   3   7
HETATM    7  C9  UNL     1     -31.906   8.147   4.530  1.00 20.00     0.006 C 
HETATM    8  C7  UNL     1     -32.500   9.329   5.236  1.00 20.00     0.006 C 
ENDBRANCH   3   7
BRANCH   2   9
HETATM    9  C8  UNL     1     -32.169   7.993   1.479  1.00 20.00     0.120 C 
HETATM   10 CL10 UNL     1     -32.908   9.578   1.123  1.00 20.00    -0.130 Cl
ENDBRANCH   2   9
TORSDOF 3
