REMARK  1 active torsions:
REMARK  status: ('A' for Active; 'I' for Inactive)
REMARK    1  A    between atoms: C5_5  and  C10_10 
ROOT
HETATM    1  C1  UNL     1     -34.160   4.700   5.247  1.00 20.00     0.019 C 
HETATM    2  C2  UNL     1     -31.898   7.463   3.946  1.00 20.00     0.017 A 
HETATM    3  C3  UNL     1     -35.053   5.182   6.390  1.00 20.00     0.075 C 
HETATM    4  C4  UNL     1     -33.098   7.091   6.154  1.00 20.00     0.084 C 
HETATM    5  C5  UNL     1     -33.118   8.324   3.875  1.00 20.00     0.006 A 
HETATM    6  C6  UNL     1     -33.176   6.985   4.635  1.00 20.00    -0.020 A 
HETATM    7  C7  UNL     1     -33.943   5.728   4.090  1.00 20.00    -0.038 C 
HETATM    8  C8  UNL     1     -35.326   6.095   3.509  1.00 20.00     0.015 C 
HETATM    9  C9  UNL     1     -33.150   4.974   3.000  1.00 20.00     0.015 C 
HETATM   10  S11 UNL     1     -34.703   6.876   6.938  1.00 20.00    -0.168 SA
ENDROOT
BRANCH   5  11
HETATM   11  C10 UNL     1     -33.691   8.623   2.535  1.00 20.00     0.090 C 
HETATM   12 BR12 UNL     1     -32.716  10.086   1.683  1.00 20.00    -0.096 Br
ENDBRANCH   5  11
TORSDOF 1
