REMARK  2 active torsions:
REMARK  status: ('A' for Active; 'I' for Inactive)
REMARK    1  A    between atoms: C4_4  and  C9_9 
REMARK    2  A    between atoms: C5_5  and  C6_6 
ROOT
HETATM    1  C3  UNL     1     -32.360   7.321   4.692  1.00 20.00     0.017 A 
HETATM    2  C4  UNL     1     -33.445   8.207   4.150  1.00 20.00     0.009 A 
HETATM    3  C6  UNL     1     -33.814   6.978   4.970  1.00 20.00    -0.032 A 
HETATM    4  C8  UNL     1     -34.314   7.247   6.369  1.00 20.00     0.016 C 
ENDROOT
BRANCH   3   5
HETATM    5  C5  UNL     1     -34.449   5.734   4.331  1.00 20.00    -0.036 A 
HETATM    6  C1  UNL     1     -33.633   4.844   3.424  1.00 20.00     0.011 A 
HETATM    7  C2  UNL     1     -34.039   4.353   4.784  1.00 20.00     0.011 A 
HETATM    8  C7  UNL     1     -35.902   5.918   3.966  1.00 20.00     0.016 C 
ENDBRANCH   3   5
BRANCH   2   9
HETATM    9  C9  UNL     1     -33.687   8.281   2.681  1.00 20.00     0.120 C 
HETATM   10 CL10 UNL     1     -32.516   9.370   1.887  1.00 20.00    -0.130 Cl
ENDBRANCH   2   9
TORSDOF 2
