REMARK  1 active torsions:
REMARK  status: ('A' for Active; 'I' for Inactive)
REMARK    1  A    between atoms: C6_6  and  C11_11 
ROOT
HETATM    1  C1  UNL     1     -33.666   4.880   3.400  1.00 20.00     0.002 C 
HETATM    2  C2  UNL     1     -32.438   5.767   3.576  1.00 20.00     0.010 C 
HETATM    3  C3  UNL     1     -34.344   4.600   4.743  1.00 20.00     0.009 C 
HETATM    4  C4  UNL     1     -31.813   8.192   4.210  1.00 20.00     0.016 A 
HETATM    5  C5  UNL     1     -33.466   6.805   5.641  1.00 20.00     0.018 C 
HETATM    6  C6  UNL     1     -33.152   8.317   3.539  1.00 20.00     0.005 A 
HETATM    7  C7  UNL     1     -32.800   7.045   4.299  1.00 20.00    -0.035 A 
HETATM    8  C8  UNL     1     -34.705   5.884   5.528  1.00 20.00    -0.047 C 
HETATM    9  C9  UNL     1     -35.872   6.624   4.847  1.00 20.00     0.015 C 
HETATM   10  C10 UNL     1     -35.160   5.489   6.946  1.00 20.00     0.015 C 
ENDROOT
BRANCH   6  11
HETATM   11  C11 UNL     1     -33.245   8.374   2.053  1.00 20.00     0.090 C 
HETATM   12 BR12 UNL     1     -32.882  10.182   1.415  1.00 20.00    -0.096 Br
ENDBRANCH   6  11
TORSDOF 1
