REMARK  2 active torsions:
REMARK  status: ('A' for Active; 'I' for Inactive)
REMARK    1  A    between atoms: C3_3  and  C6_6 
REMARK    2  A    between atoms: C7_7  and  C9_9 
ROOT
HETATM    1  C1  UNL     1     -32.031   7.166   3.071  1.00 20.00     0.016 A 
HETATM    2  C2  UNL     1     -32.061   7.683   1.743  1.00 20.00     0.015 A 
HETATM    3  C3  UNL     1     -32.704   7.978   3.957  1.00 20.00    -0.013 A 
HETATM    4  C4  UNL     1     -32.757   8.870   1.666  1.00 20.00    -0.021 A 
HETATM    5  C8  UNL     1     -33.015   9.709   0.476  1.00 20.00     0.056 C 
HETATM    6  S10 UNL     1     -33.369   9.356   3.189  1.00 20.00    -0.099 SA
ENDROOT
BRANCH   3   7
HETATM    7  C6  UNL     1     -32.847   7.685   5.461  1.00 20.00     0.031 A 
HETATM    8  C5  UNL     1     -34.009   8.303   6.208  1.00 20.00     0.016 A 
HETATM    9  C7  UNL     1     -33.985   6.822   5.973  1.00 20.00     0.005 A 
BRANCH   9  10
HETATM   10  C9  UNL     1     -34.986   6.194   5.064  1.00 20.00     0.090 C 
HETATM   11 BR11 UNL     1     -34.336   4.470   4.422  1.00 20.00    -0.096 Br
ENDBRANCH   9  10
ENDBRANCH   3   7
TORSDOF 2
