REMARK  1 active torsions:
REMARK  status: ('A' for Active; 'I' for Inactive)
REMARK    1  A    between atoms: C4_4  and  C8_8 
ROOT
HETATM    1  C1  UNL     1     -32.217   6.745   2.945  1.00 20.00     0.017 A 
HETATM    2  C2  UNL     1     -34.397   6.094   4.204  1.00 20.00     0.025 C 
HETATM    3  C3  UNL     1     -33.233   8.199   4.846  1.00 20.00     0.084 C 
HETATM    4  C4  UNL     1     -33.335   7.523   2.310  1.00 20.00     0.009 A 
HETATM    5  C5  UNL     1     -34.074   5.758   5.655  1.00 20.00     0.044 C 
HETATM    6  C6  UNL     1     -33.414   7.153   3.780  1.00 20.00    -0.026 A 
HETATM    7  C7  UNL     1     -35.222   5.069   6.371  1.00 20.00     0.021 C 
HETATM    8  S9  UNL     1     -33.694   7.372   6.404  1.00 20.00    -0.164 SA
ENDROOT
BRANCH   4   9
HETATM    9  C8  UNL     1     -33.104   8.923   1.856  1.00 20.00     0.120 C 
HETATM   10 CL10 UNL     1     -32.268   8.961   0.278  1.00 20.00    -0.130 Cl
ENDBRANCH   4   9
TORSDOF 1
