REMARK  2 active torsions:
REMARK  status: ('A' for Active; 'I' for Inactive)
REMARK    1  A    between atoms: C5_5  and  C6_6 
REMARK    2  A    between atoms: C7_7  and  C8_8 
ROOT
HETATM    1  C4  UNL     1     -32.411   8.519   4.666  1.00 20.00     0.011 A 
HETATM    2  C6  UNL     1     -32.776   7.225   3.999  1.00 20.00    -0.005 A 
HETATM    3  C7  UNL     1     -32.876   8.513   3.234  1.00 20.00     0.004 A 
ENDROOT
BRANCH   2   4
HETATM    4  C5  UNL     1     -33.992   6.414   4.395  1.00 20.00    -0.010 C 
HETATM    5  C2  UNL     1     -34.018   5.860   5.844  1.00 20.00     0.005 C 
HETATM    6  C1  UNL     1     -34.695   4.598   5.271  1.00 20.00     0.001 C 
HETATM    7  C3  UNL     1     -34.026   4.937   3.923  1.00 20.00     0.005 C 
ENDBRANCH   2   4
BRANCH   3   8
HETATM    8  C8  UNL     1     -31.914   8.799   2.133  1.00 20.00     0.119 C 
HETATM    9 CL9  UNL     1     -32.765   9.285   0.640  1.00 20.00    -0.130 Cl
ENDBRANCH   3   8
TORSDOF 2
