REMARK  2 active torsions:
REMARK  status: ('A' for Active; 'I' for Inactive)
REMARK    1  A    between atoms: C5_5  and  C6_6 
REMARK    2  A    between atoms: C7_7  and  C8_8 
ROOT
HETATM    1  C1  UNL     1     -34.294   4.919   4.118  1.00 20.00     0.033 C 
HETATM    2  C3  UNL     1     -34.140   4.323   5.503  1.00 20.00     0.168 C 
HETATM    3  C4  UNL     1     -35.055   6.456   5.720  1.00 20.00     0.172 C 
HETATM    4  C5  UNL     1     -34.322   6.409   4.389  1.00 20.00     0.016 C 
HETATM    5  O9  UNL     1     -34.717   5.254   6.428  1.00 20.00    -0.391 OA
ENDROOT
BRANCH   4   6
HETATM    6  C6  UNL     1     -32.917   6.999   4.496  1.00 20.00    -0.003 A 
HETATM    7  C2  UNL     1     -32.689   8.463   4.237  1.00 20.00     0.011 A 
HETATM    8  C7  UNL     1     -32.131   7.438   3.284  1.00 20.00     0.000 A 
BRANCH   8   9
HETATM    9  C8  UNL     1     -32.667   7.329   1.898  1.00 20.00     0.090 C 
HETATM   10 BR10 UNL     1     -31.928   8.739   0.768  1.00 20.00    -0.096 Br
ENDBRANCH   8   9
ENDBRANCH   4   6
TORSDOF 2
