REMARK  1 active torsions:
REMARK  status: ('A' for Active; 'I' for Inactive)
REMARK    1  A    between atoms: C5_5  and  C10_10 
ROOT
HETATM    1  C1  UNL     1     -35.065   6.015   4.869  1.00 20.00     0.019 C 
HETATM    2  C2  UNL     1     -32.247   8.479   3.625  1.00 20.00     0.018 A 
HETATM    3  C3  UNL     1     -34.469   4.626   4.670  1.00 20.00     0.075 C 
HETATM    4  C4  UNL     1     -32.288   5.918   3.638  1.00 20.00     0.084 C 
HETATM    5  C5  UNL     1     -33.351   8.121   2.672  1.00 20.00     0.010 A 
HETATM    6  C6  UNL     1     -33.052   7.210   3.869  1.00 20.00    -0.020 A 
HETATM    7  C7  UNL     1     -34.043   7.167   5.075  1.00 20.00    -0.038 C 
HETATM    8  C8  UNL     1     -33.261   6.976   6.395  1.00 20.00     0.015 C 
HETATM    9  C9  UNL     1     -34.880   8.460   5.251  1.00 20.00     0.015 C 
HETATM   10  S11 UNL     1     -33.406   4.568   3.205  1.00 20.00    -0.168 SA
ENDROOT
BRANCH   5  11
HETATM   11  C10 UNL     1     -33.028   7.760   1.261  1.00 20.00     0.120 C 
HETATM   12 CL12 UNL     1     -32.754   9.218   0.269  1.00 20.00    -0.130 Cl
ENDBRANCH   5  11
TORSDOF 1
