REMARK  3 active torsions:
REMARK  status: ('A' for Active; 'I' for Inactive)
REMARK    1  A    between atoms: C2_2  and  C10_10 
REMARK    2  A    between atoms: C3_3  and  C9_9 
REMARK    3  A    between atoms: C4_4  and  O11_11 
ROOT
HETATM    1  C1  UNL     1     -33.344   7.018   5.881  1.00 20.00     0.038 C 
HETATM    2  C2  UNL     1     -32.863   7.240   4.428  1.00 20.00     0.002 C 
HETATM    3  C3  UNL     1     -33.966   6.244   3.966  1.00 20.00     0.019 C 
HETATM    4  C4  UNL     1     -34.682   6.489   5.325  1.00 20.00     0.123 C 
ENDROOT
BRANCH   2   5
HETATM    5  C10 UNL     1     -32.997   8.661   3.899  1.00 20.00    -0.047 C 
HETATM    6  C6  UNL     1     -32.695   8.696   2.387  1.00 20.00     0.015 C 
HETATM    7  C7  UNL     1     -32.006   9.593   4.624  1.00 20.00     0.015 C 
HETATM    8  C8  UNL     1     -34.430   9.182   4.132  1.00 20.00     0.015 C 
ENDBRANCH   2   5
BRANCH   3   9
HETATM    9  C9  UNL     1     -33.477   4.831   3.680  1.00 20.00     0.003 C 
HETATM   10  C5  UNL     1     -32.621   4.769   2.453  1.00 20.00     0.005 C 
ENDBRANCH   3   9
BRANCH   4  11
HETATM   11  O11 UNL     1     -35.229   5.337   5.990  1.00 20.00    -0.395 OA
HETATM   12  H31 UNL     1     -35.367   5.608   6.906  1.00 20.00     0.210 HD
ENDBRANCH   4  11
TORSDOF 3
