REMARK  2 active torsions:
REMARK  status: ('A' for Active; 'I' for Inactive)
REMARK    1  A    between atoms: C2_2  and  C7_7 
REMARK    2  A    between atoms: C3_3  and  C8_8 
ROOT
HETATM    1  C1  UNL     1     -33.666   4.751   4.011  1.00 20.00     0.016 A 
HETATM    2  C2  UNL     1     -33.531   5.905   3.059  1.00 20.00     0.009 A 
HETATM    3  C3  UNL     1     -34.287   6.090   4.374  1.00 20.00    -0.036 A 
HETATM    4  C4  UNL     1     -35.785   6.216   4.294  1.00 20.00     0.016 C 
ENDROOT
BRANCH   3   5
HETATM    5  C8  UNL     1     -33.665   6.879   5.495  1.00 20.00    -0.014 C 
HETATM    6  C5  UNL     1     -33.819   8.389   5.268  1.00 20.00     0.010 C 
HETATM    7  C6  UNL     1     -34.271   6.494   6.852  1.00 20.00     0.010 C 
ENDBRANCH   3   5
BRANCH   2   8
HETATM    8  C7  UNL     1     -32.196   6.517   2.804  1.00 20.00     0.120 C 
HETATM    9 CL9  UNL     1     -32.312   7.857   1.630  1.00 20.00    -0.130 Cl
ENDBRANCH   2   8
TORSDOF 2
