REMARK  1 active torsions:
REMARK  status: ('A' for Active; 'I' for Inactive)
REMARK    1  A    between atoms: C4_4  and  C10_10 
ROOT
HETATM    1  C1  UNL     1     -32.931   5.672   2.901  1.00 20.00     0.007 C 
HETATM    2  C2  UNL     1     -33.271   5.018   4.241  1.00 20.00     0.009 C 
HETATM    3  C3  UNL     1     -33.752   7.267   5.326  1.00 20.00     0.013 C 
HETATM    4  C4  UNL     1     -32.853   7.211   2.949  1.00 20.00     0.003 C 
HETATM    5  C5  UNL     1     -32.606   7.709   4.387  1.00 20.00    -0.013 C 
HETATM    6  C6  UNL     1     -34.271   5.824   5.089  1.00 20.00    -0.047 C 
HETATM    7  C7  UNL     1     -32.435   9.228   4.482  1.00 20.00     0.010 C 
HETATM    8  C8  UNL     1     -35.648   5.862   4.394  1.00 20.00     0.015 C 
HETATM    9  C9  UNL     1     -34.456   5.118   6.446  1.00 20.00     0.015 C 
ENDROOT
BRANCH   4  10
HETATM   10  C10 UNL     1     -31.808   7.702   1.943  1.00 20.00     0.119 C 
HETATM   11 CL11 UNL     1     -32.252   7.185   0.309  1.00 20.00    -0.130 Cl
ENDBRANCH   4  10
TORSDOF 1
