REMARK  3 active torsions:
REMARK  status: ('A' for Active; 'I' for Inactive)
REMARK    1  A    between atoms: C1_1  and  C9_9 
REMARK    2  A    between atoms: C5_5  and  C8_8 
REMARK    3  A    between atoms: C6_6  and  C9_9 
ROOT
HETATM    1  C2  UNL     1     -31.836   9.350   3.254  1.00 20.00     0.005 C 
HETATM    2  C3  UNL     1     -32.221   8.406   4.398  1.00 20.00     0.008 C 
HETATM    3  C4  UNL     1     -33.313   7.653   2.395  1.00 20.00     0.012 C 
HETATM    4  C5  UNL     1     -32.835   9.077   2.125  1.00 20.00    -0.014 C 
HETATM    5  C6  UNL     1     -33.453   7.638   3.914  1.00 20.00     0.030 C 
ENDROOT
BRANCH   5   6
HETATM    6  C9  UNL     1     -33.552   6.237   4.492  1.00 20.00     0.274 C 
HETATM    7  F12 UNL     1     -34.386   5.515   3.695  1.00 20.00    -0.238 F 
BRANCH   6   8
HETATM    8  C1  UNL     1     -34.126   6.135   5.902  1.00 20.00     0.208 C 
HETATM    9  O10 UNL     1     -34.837   5.121   6.147  1.00 20.00    -0.646 OA
HETATM   10  O11 UNL     1     -33.826   7.103   6.657  1.00 20.00    -0.646 OA
ENDBRANCH   6   8
ENDBRANCH   5   6
BRANCH   4  11
HETATM   11  C8  UNL     1     -32.237   9.255   0.739  1.00 20.00     0.000 C 
HETATM   12  C7  UNL     1     -33.229   8.960  -0.341  1.00 20.00     0.005 C 
ENDBRANCH   4  11
TORSDOF 3
