REMARK  3 active torsions:
REMARK  status: ('A' for Active; 'I' for Inactive)
REMARK    1  A    between atoms: C4_4  and  C5_5 
REMARK    2  A    between atoms: C6_6  and  C7_7 
REMARK    3  A    between atoms: C7_7  and  O8_8 
ROOT
HETATM    1  C3  UNL     1     -33.101   4.767   2.814  1.00 20.00     0.012 A 
HETATM    2  C5  UNL     1     -33.535   6.206   2.921  1.00 20.00    -0.004 A 
HETATM    3  C6  UNL     1     -33.698   5.279   4.098  1.00 20.00     0.014 A 
ENDROOT
BRANCH   2   4
HETATM    4  C4  UNL     1     -32.546   7.361   2.924  1.00 20.00    -0.010 A 
HETATM    5  C1  UNL     1     -32.972   8.793   3.093  1.00 20.00     0.005 A 
HETATM    6  C2  UNL     1     -32.180   8.112   4.174  1.00 20.00     0.005 A 
ENDBRANCH   2   4
BRANCH   3   7
HETATM    7  C7  UNL     1     -35.055   4.836   4.524  1.00 20.00     0.169 C 
BRANCH   7   8
HETATM    8  O8  UNL     1     -35.589   5.753   5.479  1.00 20.00    -0.400 OA
HETATM    9  H20 UNL     1     -36.466   5.418   5.719  1.00 20.00     0.209 HD
ENDBRANCH   7   8
ENDBRANCH   3   7
TORSDOF 3
