REMARK  0 active torsions:
REMARK  status: ('A' for Active; 'I' for Inactive)
ROOT
HETATM    1  C1  UNL     1     -34.460   4.891   6.136  1.00 20.00     0.006 C 
HETATM    2  C2  UNL     1     -33.192   5.743   5.957  1.00 20.00     0.038 C 
HETATM    3  C3  UNL     1     -35.232   5.984   5.378  1.00 20.00     0.038 C 
HETATM    4  C4  UNL     1     -31.589   7.170   3.427  1.00 20.00     0.042 C 
HETATM    5  C5  UNL     1     -33.736   7.928   4.593  1.00 20.00     0.053 C 
HETATM    6  C6  UNL     1     -32.296   5.909   2.929  1.00 20.00     0.170 C 
HETATM    7  C7  UNL     1     -32.555   8.317   3.699  1.00 20.00     0.062 C 
HETATM    8  C8  UNL     1     -33.883   6.408   4.722  1.00 20.00     0.062 C 
HETATM    9  O9  UNL     1     -33.619   5.778   3.445  1.00 20.00    -0.380 OA
HETATM   10 BR10 UNL     1     -33.223   9.012   1.983  1.00 20.00    -0.091 Br
ENDROOT
TORSDOF 0
