REMARK  3 active torsions:
REMARK  status: ('A' for Active; 'I' for Inactive)
REMARK    1  A    between atoms: C3_3  and  O10_10 
REMARK    2  A    between atoms: C4_4  and  C8_8 
REMARK    3  A    between atoms: C4_4  and  C9_9 
ROOT
HETATM    1  C1  UNL     1     -34.609   6.304   6.981  1.00 20.00     0.037 C 
HETATM    2  C2  UNL     1     -33.383   7.185   6.636  1.00 20.00    -0.005 C 
HETATM    3  C3  UNL     1     -35.089   6.450   5.521  1.00 20.00     0.127 C 
HETATM    4  C4  UNL     1     -33.623   6.824   5.124  1.00 20.00    -0.012 C 
HETATM    5  C5  UNL     1     -33.503   8.635   7.088  1.00 20.00     0.011 C 
ENDROOT
BRANCH   4   6
HETATM    6  C8  UNL     1     -33.543   7.967   4.115  1.00 20.00     0.008 C 
HETATM    7  C6  UNL     1     -32.200   8.622   4.127  1.00 20.00     0.006 C 
ENDBRANCH   4   6
BRANCH   4   8
HETATM    8  C9  UNL     1     -32.755   5.645   4.664  1.00 20.00     0.008 C 
HETATM    9  C7  UNL     1     -32.996   5.318   3.230  1.00 20.00     0.006 C 
ENDBRANCH   4   8
BRANCH   3  10
HETATM   10  O10 UNL     1     -35.644   5.268   4.918  1.00 20.00    -0.395 OA
HETATM   11  H28 UNL     1     -36.404   5.026   5.463  1.00 20.00     0.210 HD
ENDBRANCH   3  10
TORSDOF 3
