REMARK  2 active torsions:
REMARK  status: ('A' for Active; 'I' for Inactive)
REMARK    1  A    between atoms: C5_5  and  C8_8 
REMARK    2  A    between atoms: C9_9  and  C10_10 
ROOT
HETATM    1  C1  UNL     1     -33.517   5.706   3.407  1.00 20.00     0.009 A 
HETATM    2  C2  UNL     1     -32.536   7.604   4.536  1.00 20.00     0.009 A 
HETATM    3  C3  UNL     1     -34.427   5.554   4.453  1.00 20.00     0.024 A 
HETATM    4  C4  UNL     1     -33.446   7.451   5.582  1.00 20.00     0.024 A 
HETATM    5  C5  UNL     1     -32.572   6.731   3.448  1.00 20.00    -0.053 A 
HETATM    6  C6  UNL     1     -34.391   6.427   5.541  1.00 20.00     0.034 A 
HETATM    7 CL11 UNL     1     -35.514   6.239   6.832  1.00 20.00    -0.084 Cl
ENDROOT
BRANCH   5   8
HETATM    8  C8  UNL     1     -31.600   6.894   2.330  1.00 20.00     0.024 A 
HETATM    9  C7  UNL     1     -31.081   8.273   2.006  1.00 20.00     0.016 A 
HETATM   10  C9  UNL     1     -32.000   7.582   1.043  1.00 20.00     0.008 A 
BRANCH  10  11
HETATM   11  C10 UNL     1     -33.371   8.116   0.806  1.00 20.00     0.119 C 
HETATM   12 CL12 UNL     1     -33.339   9.501  -0.320  1.00 20.00    -0.130 Cl
ENDBRANCH  10  11
ENDBRANCH   5   8
TORSDOF 2
