REMARK  1 active torsions:
REMARK  status: ('A' for Active; 'I' for Inactive)
REMARK    1  A    between atoms: C4_4  and  C10_10 
ROOT
HETATM    1  C1  UNL     1     -32.392   6.247   2.754  1.00 20.00     0.007 C 
HETATM    2  C2  UNL     1     -33.898   5.986   2.756  1.00 20.00     0.009 C 
HETATM    3  C3  UNL     1     -34.151   7.540   4.746  1.00 20.00     0.013 C 
HETATM    4  C4  UNL     1     -32.021   7.625   3.327  1.00 20.00     0.003 C 
HETATM    5  C5  UNL     1     -32.633   7.798   4.737  1.00 20.00    -0.013 C 
HETATM    6  C6  UNL     1     -34.552   6.173   4.143  1.00 20.00    -0.047 C 
HETATM    7  C7  UNL     1     -32.324   9.164   5.355  1.00 20.00     0.010 C 
HETATM    8  C8  UNL     1     -36.084   6.128   3.983  1.00 20.00     0.015 C 
HETATM    9  C9  UNL     1     -34.145   5.025   5.089  1.00 20.00     0.015 C 
ENDROOT
BRANCH   4  10
HETATM   10  C10 UNL     1     -32.395   8.742   2.345  1.00 20.00     0.119 C 
HETATM   11 CL11 UNL     1     -31.523   8.522   0.821  1.00 20.00    -0.130 Cl
ENDBRANCH   4  10
TORSDOF 1
