REMARK  1 active torsions:
REMARK  status: ('A' for Active; 'I' for Inactive)
REMARK    1  A    between atoms: C5_5  and  C10_10 
ROOT
HETATM    1  C1  UNL     1     -31.325   7.214   3.060  1.00 20.00     0.017 A 
HETATM    2  C2  UNL     1     -33.636   6.014   3.270  1.00 20.00     0.020 C 
HETATM    3  C3  UNL     1     -33.462   8.512   3.745  1.00 20.00     0.083 C 
HETATM    4  C4  UNL     1     -33.430   6.578   5.764  1.00 20.00     0.082 C 
HETATM    5  C5  UNL     1     -32.092   7.442   1.788  1.00 20.00     0.005 A 
HETATM    6  C6  UNL     1     -32.841   7.301   3.110  1.00 20.00    -0.026 A 
HETATM    7  C7  UNL     1     -34.197   5.772   4.696  1.00 20.00    -0.038 C 
HETATM    8  C8  UNL     1     -35.707   6.093   4.738  1.00 20.00     0.015 C 
HETATM    9  C9  UNL     1     -34.045   4.272   5.036  1.00 20.00     0.015 C 
HETATM   10  S11 UNL     1     -33.470   8.389   5.554  1.00 20.00    -0.168 SA
ENDROOT
BRANCH   5  11
HETATM   11  C10 UNL     1     -31.964   8.733   1.055  1.00 20.00     0.090 C 
HETATM   12 BR12 UNL     1     -33.459   8.969  -0.177  1.00 20.00    -0.096 Br
ENDBRANCH   5  11
TORSDOF 1
