REMARK  0 active torsions:
REMARK  status: ('A' for Active; 'I' for Inactive)
ROOT
HETATM    1  C1  UNL     1     -32.443   8.577   4.688  1.00 20.00     0.068 C 
HETATM    2  C2  UNL     1     -34.611   6.113   4.973  1.00 20.00     0.010 A 
HETATM    3  C3  UNL     1     -34.780   4.727   5.000  1.00 20.00     0.019 A 
HETATM    4  C4  UNL     1     -33.358   4.470   3.043  1.00 20.00     0.026 A 
HETATM    5  C5  UNL     1     -33.820   6.661   3.975  1.00 20.00    -0.034 A 
HETATM    6  C6  UNL     1     -33.205   5.846   3.016  1.00 20.00    -0.049 A 
HETATM    7  C7  UNL     1     -34.158   3.911   4.042  1.00 20.00     0.011 A 
HETATM    8  C8  UNL     1     -32.380   6.660   2.071  1.00 20.00     0.041 C 
HETATM    9  C9  UNL     1     -32.960   8.065   2.304  1.00 20.00     0.028 C 
HETATM   10  C10 UNL     1     -33.477   8.107   3.758  1.00 20.00     0.126 C 
HETATM   11  N11 UNL     1     -31.626   8.948   5.424  1.00 20.00    -0.197 NA
HETATM   12 BR12 UNL     1     -34.398   2.036   4.112  1.00 20.00    -0.051 Br
ENDROOT
TORSDOF 0
