REMARK  0 active torsions:
REMARK  status: ('A' for Active; 'I' for Inactive)
ROOT
HETATM    1  C1  UNL     1     -35.408   5.348   6.030  1.00 20.00     0.007 C 
HETATM    2  C2  UNL     1     -35.104   5.445   4.528  1.00 20.00     0.027 C 
HETATM    3  C3  UNL     1     -33.550   6.938   6.549  1.00 20.00     0.027 C 
HETATM    4  C4  UNL     1     -33.129   4.755   5.652  1.00 20.00     0.032 C 
HETATM    5  C5  UNL     1     -34.016   5.473   6.674  1.00 20.00    -0.011 C 
HETATM    6  C6  UNL     1     -33.171   7.048   5.061  1.00 20.00     0.106 C 
HETATM    7  C7  UNL     1     -33.578   5.665   4.504  1.00 20.00     0.054 C 
HETATM    8 CL8  UNL     1     -33.945   8.426   4.257  1.00 20.00    -0.123 Cl
HETATM    9 CL9  UNL     1     -32.848   5.287   2.953  1.00 20.00    -0.118 Cl
ENDROOT
TORSDOF 0
