REMARK  1 active torsions:
REMARK  status: ('A' for Active; 'I' for Inactive)
REMARK       I    between atoms: C1_1  and  N5_5 
REMARK    1  A    between atoms: C4_4  and  N5_5 
ROOT
HETATM    1  C1  UNL     1     -33.035   7.617   5.034  1.00 20.00     0.314 C 
HETATM    2  N5  UNL     1     -33.282   6.871   3.883  1.00 20.00    -0.343 N 
HETATM    3  O6  UNL     1     -33.384   7.256   6.156  1.00 20.00    -0.254 OA
HETATM    4 CL7  UNL     1     -32.185   9.103   4.695  1.00 20.00    -0.020 Cl
HETATM    5  H13 UNL     1     -32.958   7.243   2.987  1.00 20.00     0.164 HD
ENDROOT
BRANCH   2   6
HETATM    6  C4  UNL     1     -33.958   5.623   3.888  1.00 20.00     0.085 A 
HETATM    7  C2  UNL     1     -33.780   4.645   5.016  1.00 20.00     0.027 A 
HETATM    8  C3  UNL     1     -35.091   5.353   4.838  1.00 20.00     0.027 A 
ENDBRANCH   2   6
TORSDOF 1
