REMARK  1 active torsions:
REMARK  status: ('A' for Active; 'I' for Inactive)
REMARK    1  A    between atoms: C1_1  and  C5_5 
ROOT
HETATM    1  C1  UNL     1     -33.957   6.912   4.931  1.00 20.00    -0.089 C 
HETATM    2  C2  UNL     1     -33.293   7.911   4.877  1.00 20.00    -0.023 C 
HETATM    3 BR6  UNL     1     -32.243   9.492   4.790  1.00 20.00     0.010 Br
ENDROOT
BRANCH   1   4
HETATM    4  C5  UNL     1     -34.749   5.720   4.996  1.00 20.00     0.066 A 
HETATM    5  C3  UNL     1     -34.287   4.588   5.874  1.00 20.00     0.018 A 
HETATM    6  C4  UNL     1     -34.211   4.456   4.382  1.00 20.00     0.018 A 
ENDBRANCH   1   4
TORSDOF 1
