REMARK  1 active torsions:
REMARK  status: ('A' for Active; 'I' for Inactive)
REMARK    1  A    between atoms: C2_2  and  C3_3 
ROOT
HETATM    1  C1  UNL     1     -35.849   6.016   4.131  1.00 20.00     0.060 C 
HETATM    2  C2  UNL     1     -34.410   5.863   4.614  1.00 20.00     0.206 C 
HETATM    3 CL7  UNL     1     -34.315   4.470   5.738  1.00 20.00    -0.092 Cl
HETATM    4 CL8  UNL     1     -33.354   5.524   3.205  1.00 20.00    -0.092 Cl
ENDROOT
BRANCH   2   5
HETATM    5  C3  UNL     1     -33.922   7.119   5.321  1.00 20.00     0.422 C 
HETATM    6  F4  UNL     1     -34.684   7.403   6.402  1.00 20.00    -0.168 F 
HETATM    7  F5  UNL     1     -32.649   6.977   5.756  1.00 20.00    -0.168 F 
HETATM    8  F6  UNL     1     -33.954   8.198   4.508  1.00 20.00    -0.168 F 
ENDBRANCH   2   5
TORSDOF 1
