REMARK  2 active torsions:
REMARK  status: ('A' for Active; 'I' for Inactive)
REMARK    1  A    between atoms: C1_1  and  C3_3 
REMARK    2  A    between atoms: C2_2  and  C5_5 
ROOT
HETATM    1  C1  UNL     1     -32.738   6.469   3.127  1.00 20.00     0.005 C 
HETATM    2  C2  UNL     1     -32.218   7.622   2.685  1.00 20.00     0.068 C 
ENDROOT
BRANCH   1   3
HETATM    3  C3  UNL     1     -33.729   6.412   4.180  1.00 20.00    -0.004 C 
HETATM    4  C4  UNL     1     -34.256   5.265   4.630  1.00 20.00    -0.031 C 
HETATM    5  C6  UNL     1     -33.883   3.918   4.102  1.00 20.00     0.036 C 
ENDBRANCH   1   3
BRANCH   2   6
HETATM    6  C5  UNL     1     -32.646   8.930   3.268  1.00 20.00     0.241 C 
HETATM    7  O7  UNL     1     -32.487   9.163   4.464  1.00 20.00    -0.275 OA
HETATM    8 CL8  UNL     1     -33.367  10.060   2.141  1.00 20.00    -0.039 Cl
ENDBRANCH   2   6
TORSDOF 2
