REMARK  0 active torsions:
REMARK  status: ('A' for Active; 'I' for Inactive)
ROOT
HETATM    1  C1  UNL     1     -34.822   8.261   4.859  1.00 20.00     0.005 C 
HETATM    2  C2  UNL     1     -33.590   6.986   6.688  1.00 20.00     0.005 C 
HETATM    3  C3  UNL     1     -32.416   7.511   4.490  1.00 20.00     0.005 C 
HETATM    4  C4  UNL     1     -35.784   7.084   4.765  1.00 20.00     0.006 C 
HETATM    5  C5  UNL     1     -33.465   5.509   6.337  1.00 20.00     0.006 C 
HETATM    6  C6  UNL     1     -32.926   6.616   3.368  1.00 20.00     0.006 C 
HETATM    7  C7  UNL     1     -33.467   7.961   5.511  1.00 20.00    -0.014 C 
HETATM    8  C8  UNL     1     -35.233   5.767   4.330  1.00 20.00    -0.006 A 
HETATM    9  C9  UNL     1     -34.183   5.017   5.126  1.00 20.00    -0.006 A 
HETATM   10  C10 UNL     1     -33.864   5.513   3.729  1.00 20.00    -0.006 A 
ENDROOT
TORSDOF 0
