REMARK  3 active torsions:
REMARK  status: ('A' for Active; 'I' for Inactive)
REMARK    1  A    between atoms: C3_3  and  C5_5 
REMARK    2  A    between atoms: C4_4  and  C5_5 
REMARK    3  A    between atoms: C5_5  and  O6_6 
ROOT
HETATM    1  C5  UNL     1     -33.332   6.752   4.978  1.00 20.00     0.132 C 
ENDROOT
BRANCH   1   2
HETATM    2  C3  UNL     1     -33.386   8.081   4.309  1.00 20.00     0.015 A 
HETATM    3  C1  UNL     1     -32.289   9.086   4.530  1.00 20.00     0.007 A 
HETATM    4  C2  UNL     1     -32.428   8.407   3.196  1.00 20.00     0.007 A 
ENDBRANCH   1   2
BRANCH   1   5
HETATM    5  C4  UNL     1     -34.720   6.127   5.089  1.00 20.00     0.117 C 
HETATM    6 BR7  UNL     1     -34.762   4.794   6.515  1.00 20.00    -0.094 Br
ENDBRANCH   1   5
BRANCH   1   7
HETATM    7  O6  UNL     1     -32.804   6.907   6.299  1.00 20.00    -0.394 OA
HETATM    8  H16 UNL     1     -33.406   7.508   6.762  1.00 20.00     0.210 HD
ENDBRANCH   1   7
TORSDOF 3
