REMARK  0 active torsions:
REMARK  status: ('A' for Active; 'I' for Inactive)
ROOT
HETATM    1  C1  UNL     1     -32.810   8.027   5.110  1.00 20.00     0.198 C 
HETATM    2  C2  UNL     1     -31.861   7.680   3.984  1.00 20.00     0.085 C 
HETATM    3  C3  UNL     1     -32.592   7.538   2.654  1.00 20.00     0.008 C 
HETATM    4  C4  UNL     1     -32.809   6.097   2.192  1.00 20.00     0.000 C 
HETATM    5  C5  UNL     1     -33.236   5.076   3.243  1.00 20.00     0.000 C 
HETATM    6  C6  UNL     1     -34.603   5.291   3.885  1.00 20.00     0.006 C 
HETATM    7  C7  UNL     1     -34.832   6.541   4.736  1.00 20.00     0.087 C 
HETATM    8  C8  UNL     1     -33.708   6.949   5.683  1.00 20.00     0.302 C 
HETATM    9  O9  UNL     1     -32.864   9.180   5.544  1.00 20.00    -0.291 OA
HETATM   10  F10 UNL     1     -34.301   7.436   6.817  1.00 20.00    -0.198 F 
HETATM   11  F11 UNL     1     -33.004   5.864   6.093  1.00 20.00    -0.198 F 
ENDROOT
TORSDOF 0
