REMARK  3 active torsions:
REMARK  status: ('A' for Active; 'I' for Inactive)
REMARK    1  A    between atoms: C3_3  and  C8_8 
REMARK    2  A    between atoms: C6_6  and  C7_7 
REMARK    3  A    between atoms: C7_7  and  C8_8 
ROOT
HETATM    1  C5  UNL     1     -33.356   4.818   3.012  1.00 20.00     0.010 C 
HETATM    2  C8  UNL     1     -33.871   5.630   4.200  1.00 20.00    -0.014 C 
ENDROOT
BRANCH   2   3
HETATM    3  C3  UNL     1     -33.012   6.885   4.379  1.00 20.00    -0.011 A 
HETATM    4  C1  UNL     1     -32.497   7.628   3.177  1.00 20.00     0.005 A 
HETATM    5  C2  UNL     1     -33.569   8.239   4.036  1.00 20.00     0.005 A 
ENDBRANCH   2   3
BRANCH   2   6
HETATM    6  C7  UNL     1     -33.884   4.817   5.508  1.00 20.00     0.004 C 
BRANCH   6   7
HETATM    7  C6  UNL     1     -34.905   5.322   6.530  1.00 20.00    -0.004 C 
HETATM    8  C4  UNL     1     -34.583   6.740   6.980  1.00 20.00     0.005 C 
ENDBRANCH   6   7
ENDBRANCH   2   6
TORSDOF 3
