REMARK  0 active torsions:
REMARK  status: ('A' for Active; 'I' for Inactive)
ROOT
HETATM    1  C1  UNL     1     -33.362   6.767   4.082  1.00 20.00     0.078 C 
HETATM    2  C2  UNL     1     -33.798   8.187   5.968  1.00 20.00     0.152 C 
HETATM    3  C3  UNL     1     -33.079   7.900   4.721  1.00 20.00     0.134 C 
HETATM    4  C4  UNL     1     -34.414   5.936   6.209  1.00 20.00     0.213 C 
HETATM    5  C5  UNL     1     -34.335   5.801   4.683  1.00 20.00     0.217 C 
HETATM    6  N6  UNL     1     -34.465   7.337   6.669  1.00 20.00    -0.294 NA
HETATM    7  F7  UNL     1     -32.270   8.855   4.235  1.00 20.00    -0.205 F 
HETATM    8  F8  UNL     1     -35.579   6.029   4.173  1.00 20.00    -0.219 F 
HETATM    9 CL9  UNL     1     -33.871   4.129   4.261  1.00 20.00    -0.076 Cl
ENDROOT
TORSDOF 0
