REMARK  0 active torsions:
REMARK  status: ('A' for Active; 'I' for Inactive)
ROOT
HETATM    1  C1  UNL     1     -33.895   7.164   5.046  1.00 20.00     0.078 C 
HETATM    2  C2  UNL     1     -32.548   7.370   3.070  1.00 20.00     0.152 C 
HETATM    3  C3  UNL     1     -32.969   7.859   4.388  1.00 20.00     0.134 C 
HETATM    4  C4  UNL     1     -33.404   5.232   3.514  1.00 20.00     0.213 C 
HETATM    5  C5  UNL     1     -34.414   5.886   4.465  1.00 20.00     0.217 C 
HETATM    6  N6  UNL     1     -32.759   6.192   2.597  1.00 20.00    -0.294 NA
HETATM    7  F7  UNL     1     -32.489   9.045   4.795  1.00 20.00    -0.205 F 
HETATM    8  F8  UNL     1     -35.558   6.134   3.766  1.00 20.00    -0.219 F 
HETATM    9 CL9  UNL     1     -34.815   4.742   5.777  1.00 20.00    -0.076 Cl
ENDROOT
TORSDOF 0
