REMARK  0 active torsions:
REMARK  status: ('A' for Active; 'I' for Inactive)
ROOT
HETATM    1  C1  UNL     1     -33.826   5.671   3.273  1.00 20.00     0.008 C 
HETATM    2  C2  UNL     1     -34.188   4.803   4.475  1.00 20.00     0.030 C 
HETATM    3  C3  UNL     1     -32.738   6.703   3.530  1.00 20.00     0.081 C 
HETATM    4  C4  UNL     1     -34.968   5.568   5.543  1.00 20.00     0.270 C 
HETATM    5  C5  UNL     1     -32.969   6.969   6.068  1.00 20.00     0.348 C 
HETATM    6  C6  UNL     1     -32.981   7.640   4.702  1.00 20.00     0.269 C 
HETATM    7  N7  UNL     1     -34.191   6.322   6.515  1.00 20.00     0.089 N 
HETATM    8  F8  UNL     1     -34.134   8.330   4.520  1.00 20.00    -0.204 F 
HETATM    9  F9  UNL     1     -31.984   8.572   4.691  1.00 20.00    -0.204 F 
HETATM   10  H20 UNL     1     -34.811   7.025   6.995  1.00 20.00     0.316 HD
ENDROOT
TORSDOF 0
