REMARK  1 active torsions:
REMARK  status: ('A' for Active; 'I' for Inactive)
REMARK    1  A    between atoms: C5_5  and  C7_7 
ROOT
HETATM    1  C1  UNL     1     -32.556   7.971   3.180  1.00 20.00     0.019 C 
HETATM    2  C2  UNL     1     -35.643   6.811   4.059  1.00 20.00     0.292 C 
HETATM    3  C3  UNL     1     -34.680   5.910   5.677  1.00 20.00     0.292 C 
HETATM    4  C4  UNL     1     -32.503   8.974   4.320  1.00 20.00     0.075 C 
HETATM    5  C5  UNL     1     -32.950   6.629   3.797  1.00 20.00     0.037 C 
HETATM    6  C6  UNL     1     -34.199   6.935   4.623  1.00 20.00     0.066 C 
HETATM    7  N8  UNL     1     -35.736   5.495   4.727  1.00 20.00     0.086 N 
HETATM    8  S10 UNL     1     -33.952   8.626   5.362  1.00 20.00    -0.155 SA
HETATM    9  H22 UNL     1     -36.639   5.292   5.152  1.00 20.00     0.316 HD
ENDROOT
BRANCH   5  10
HETATM   10  C7  UNL     1     -33.141   5.552   2.740  1.00 20.00     0.228 C 
HETATM   11  F9  UNL     1     -33.465   4.393   3.365  1.00 20.00    -0.255 F 
ENDBRANCH   5  10
TORSDOF 1
