REMARK  0 active torsions:
REMARK  status: ('A' for Active; 'I' for Inactive)
ROOT
HETATM    1  C1  UNL     1     -32.955   7.652   5.867  1.00 20.00     0.047 C 
HETATM    2  C2  UNL     1     -33.504   6.455   5.626  1.00 20.00    -0.014 C 
HETATM    3  C3  UNL     1     -32.602   8.527   4.718  1.00 20.00     0.149 C 
HETATM    4  C4  UNL     1     -32.951   8.066   3.312  1.00 20.00     0.084 C 
HETATM    5  C5  UNL     1     -32.938   6.545   3.185  1.00 20.00     0.021 C 
HETATM    6  C6  UNL     1     -34.168   4.471   4.139  1.00 20.00     0.014 A 
HETATM    7  C7  UNL     1     -35.207   5.539   3.959  1.00 20.00     0.014 A 
HETATM    8  C8  UNL     1     -33.779   5.925   4.276  1.00 20.00    -0.022 A 
HETATM    9  O9  UNL     1     -32.091   9.626   4.925  1.00 20.00    -0.293 OA
ENDROOT
TORSDOF 0
