REMARK  3 active torsions:
REMARK  status: ('A' for Active; 'I' for Inactive)
REMARK    1  A    between atoms: C5_5  and  C8_8 
REMARK    2  A    between atoms: C6_6  and  C7_7 
REMARK    3  A    between atoms: C6_6  and  C8_8 
ROOT
HETATM    1  C4  UNL     1     -35.399   6.398   4.293  1.00 20.00     0.032 C 
HETATM    2  C8  UNL     1     -34.101   5.962   4.998  1.00 20.00     0.033 C 
HETATM    3 CL9  UNL     1     -34.520   5.828   6.754  1.00 20.00    -0.120 Cl
ENDROOT
BRANCH   2   4
HETATM    4  C5  UNL     1     -33.662   4.561   4.516  1.00 20.00     0.021 C 
HETATM    5  C1  UNL     1     -33.382   4.448   3.021  1.00 20.00     0.007 C 
ENDBRANCH   2   4
BRANCH   2   6
HETATM    6  C6  UNL     1     -33.031   7.068   4.795  1.00 20.00     0.029 C 
BRANCH   6   7
HETATM    7  C7  UNL     1     -33.425   8.550   5.007  1.00 20.00    -0.021 C 
HETATM    8  C2  UNL     1     -33.910   8.737   6.451  1.00 20.00     0.009 C 
HETATM    9  C3  UNL     1     -32.304   9.549   4.726  1.00 20.00     0.009 C 
ENDBRANCH   6   7
ENDBRANCH   2   6
TORSDOF 3
