REMARK  1 active torsions:
REMARK  status: ('A' for Active; 'I' for Inactive)
REMARK    1  A    between atoms: C2_2  and  C4_4 
ROOT
HETATM    1  C1  UNL     1     -33.001   7.936   5.121  1.00 20.00    -0.102 C 
HETATM    2  C2  UNL     1     -33.662   6.947   4.952  1.00 20.00     0.008 C 
HETATM    3  C3  UNL     1     -32.197   9.139   5.326  1.00 20.00     0.112 C 
ENDROOT
BRANCH   2   4
HETATM    4  C4  UNL     1     -34.460   5.752   4.748  1.00 20.00     0.459 C 
HETATM    5  F5  UNL     1     -33.821   4.879   3.938  1.00 20.00    -0.159 F 
HETATM    6  F6  UNL     1     -35.647   6.058   4.179  1.00 20.00    -0.159 F 
HETATM    7  F7  UNL     1     -34.706   5.131   5.922  1.00 20.00    -0.159 F 
ENDBRANCH   2   4
TORSDOF 1
