REMARK  3 active torsions:
REMARK  status: ('A' for Active; 'I' for Inactive)
REMARK    1  A    between atoms: C1_1  and  C3_3 
REMARK    2  A    between atoms: C2_2  and  C9_9 
REMARK    3  A    between atoms: C3_3  and  O11_11 
ROOT
HETATM    1  C1  UNL     1     -33.136   7.883   5.237  1.00 20.00     0.085 C 
HETATM    2  C2  UNL     1     -34.034   6.901   5.468  1.00 20.00    -0.070 C 
HETATM    3  C4  UNL     1     -34.606   6.652   6.848  1.00 20.00     0.044 C 
ENDROOT
BRANCH   2   4
HETATM    4  C9  UNL     1     -34.557   5.970   4.340  1.00 20.00    -0.028 C 
HETATM    5  C5  UNL     1     -35.581   4.965   4.913  1.00 20.00     0.019 C 
HETATM    6  C6  UNL     1     -33.451   5.131   3.654  1.00 20.00     0.019 C 
HETATM    7  C7  UNL     1     -35.234   6.813   3.240  1.00 20.00     0.019 C 
ENDBRANCH   2   4
BRANCH   1   8
HETATM    8  C3  UNL     1     -32.529   8.193   3.918  1.00 20.00     0.282 C 
HETATM    9  O10 UNL     1     -31.499   7.712   3.475  1.00 20.00    -0.260 OA
BRANCH   8  10
HETATM   10  O11 UNL     1     -33.345   9.087   3.296  1.00 20.00    -0.323 OA
HETATM   11  C8  UNL     1     -32.930   9.491   1.987  1.00 20.00     0.213 C 
ENDBRANCH   8  10
ENDBRANCH   1   8
TORSDOF 3
