REMARK  1 active torsions:
REMARK  status: ('A' for Active; 'I' for Inactive)
REMARK    1  A    between atoms: C5_5  and  C6_6 
ROOT
HETATM    1  C1  UNL     1     -34.081   5.556   5.728  1.00 20.00     0.011 C 
HETATM    2  C2  UNL     1     -34.666   6.893   6.198  1.00 20.00     0.011 C 
HETATM    3  C3  UNL     1     -34.380   5.228   4.267  1.00 20.00     0.075 C 
HETATM    4  C4  UNL     1     -33.879   8.146   5.832  1.00 20.00     0.075 C 
HETATM    5  C5  UNL     1     -32.418   7.209   3.682  1.00 20.00     0.122 C 
HETATM    6  S7  UNL     1     -33.086   5.638   3.049  1.00 20.00    -0.152 SA
HETATM    7  S8  UNL     1     -33.708   8.437   4.048  1.00 20.00    -0.152 SA
ENDROOT
BRANCH   5   8
HETATM    8  C6  UNL     1     -31.485   7.793   2.622  1.00 20.00     0.140 C 
HETATM    9 CL9  UNL     1     -32.375   8.073   1.115  1.00 20.00    -0.128 Cl
ENDBRANCH   5   8
TORSDOF 1
