REMARK  1 active torsions:
REMARK  status: ('A' for Active; 'I' for Inactive)
REMARK    1  A    between atoms: C1_1  and  C4_4 
ROOT
HETATM    1  C2  UNL     1     -34.741   5.461   6.657  1.00 20.00     0.173 C 
HETATM    2  C3  UNL     1     -34.611   5.286   4.338  1.00 20.00     0.173 C 
HETATM    3  C4  UNL     1     -33.243   7.221   5.438  1.00 20.00     0.060 A 
HETATM    4  C5  UNL     1     -34.524   6.839   6.137  1.00 20.00     0.027 A 
HETATM    5  C6  UNL     1     -34.442   6.728   4.666  1.00 20.00     0.027 A 
HETATM    6  O8  UNL     1     -34.459   4.558   5.571  1.00 20.00    -0.390 OA
ENDROOT
BRANCH   3   7
HETATM    7  C1  UNL     1     -32.874   8.639   5.350  1.00 20.00     0.236 C 
HETATM    8  O7  UNL     1     -32.161   9.098   4.464  1.00 20.00    -0.306 OA
ENDBRANCH   3   7
TORSDOF 1
