REMARK  1 active torsions:
REMARK  status: ('A' for Active; 'I' for Inactive)
REMARK    1  A    between atoms: C1_1  and  C3_3 
ROOT
HETATM    1  C1  UNL     1     -33.885   6.258   6.424  1.00 20.00     0.072 C 
HETATM    2  C2  UNL     1     -34.466   5.121   6.041  1.00 20.00     0.189 C 
HETATM    3  F4  UNL     1     -34.502   4.748   4.749  1.00 20.00    -0.220 F 
ENDROOT
BRANCH   1   4
HETATM    4  C3  UNL     1     -33.228   7.220   5.495  1.00 20.00     0.378 C 
HETATM    5  F5  UNL     1     -33.306   6.828   4.196  1.00 20.00    -0.210 F 
HETATM    6  F6  UNL     1     -33.829   8.438   5.562  1.00 20.00    -0.210 F 
ENDBRANCH   1   4
TORSDOF 1
