REMARK  2 active torsions:
REMARK  status: ('A' for Active; 'I' for Inactive)
REMARK    1  A    between atoms: C2_2  and  C9_9 
REMARK    2  A    between atoms: C3_3  and  C10_10 
ROOT
HETATM    1  C1  UNL     1     -33.395   7.814   5.931  1.00 20.00     0.079 A 
HETATM    2  C2  UNL     1     -33.528   6.729   5.091  1.00 20.00     0.046 A 
HETATM    3  C3  UNL     1     -32.685   8.155   3.655  1.00 20.00     0.079 A 
HETATM    4  N11 UNL     1     -33.122   6.923   3.785  1.00 20.00    -0.249 NA
HETATM    5  S12 UNL     1     -32.732   9.136   5.062  1.00 20.00    -0.084 SA
ENDROOT
BRANCH   3   6
HETATM    6  C10 UNL     1     -32.141   8.707   2.273  1.00 20.00     0.045 C 
HETATM    7  C7  UNL     1     -32.319   7.838   0.991  1.00 20.00     0.011 C 
HETATM    8  C4  UNL     1     -32.472   9.153   0.203  1.00 20.00     0.002 C 
HETATM    9  C8  UNL     1     -32.968   9.790   1.516  1.00 20.00     0.011 C 
ENDBRANCH   3   6
BRANCH   2  10
HETATM   10  C9  UNL     1     -34.093   5.387   5.569  1.00 20.00     0.038 A 
HETATM   11  C5  UNL     1     -33.541   4.110   4.972  1.00 20.00     0.011 A 
HETATM   12  C6  UNL     1     -34.921   4.561   4.608  1.00 20.00     0.011 A 
ENDBRANCH   2  10
TORSDOF 2
