REMARK  1 active torsions:
REMARK  status: ('A' for Active; 'I' for Inactive)
REMARK    1  A    between atoms: C7_7  and  N8_8 
ROOT
HETATM    1  C1  UNL     1     -32.611   8.608   4.778  1.00 20.00     0.065 C 
HETATM    2  C2  UNL     1     -34.110   8.307   4.908  1.00 20.00     0.275 C 
HETATM    3  C3  UNL     1     -34.016   6.146   3.808  1.00 20.00     0.306 C 
HETATM    4  C4  UNL     1     -31.918   7.694   3.822  1.00 20.00     0.154 A 
HETATM    5  C5  UNL     1     -32.612   6.437   3.377  1.00 20.00     0.179 A 
HETATM    6  N8  UNL     1     -34.430   6.876   5.015  1.00 20.00     0.090 N 
HETATM    7  O9  UNL     1     -32.502   7.593   2.523  1.00 20.00    -0.374 OA
ENDROOT
BRANCH   6   8
HETATM    8  C7  UNL     1     -33.900   6.269   6.234  1.00 20.00     0.268 C 
HETATM    9  C6  UNL     1     -34.243   4.820   6.307  1.00 20.00     0.037 C 
ENDBRANCH   6   8
TORSDOF 1
