REMARK  2 active torsions:
REMARK  status: ('A' for Active; 'I' for Inactive)
REMARK    1  A    between atoms: C1_1  and  C3_3 
REMARK    2  A    between atoms: C3_3  and  C4_4 
ROOT
HETATM    1  C3  UNL     1     -34.320   5.764   4.493  1.00 20.00     0.319 C 
HETATM    2  F7  UNL     1     -34.525   4.423   4.308  1.00 20.00    -0.209 F 
HETATM    3 CL12 UNL     1     -35.842   6.582   4.015  1.00 20.00    -0.067 Cl
ENDROOT
BRANCH   1   4
HETATM    4  C1  UNL     1     -33.180   6.244   3.624  1.00 20.00     0.143 C 
HETATM    5  C2  UNL     1     -32.724   7.505   3.596  1.00 20.00     0.289 C 
HETATM    6  F5  UNL     1     -31.699   7.847   2.788  1.00 20.00    -0.171 F 
HETATM    7  F6  UNL     1     -33.284   8.455   4.377  1.00 20.00    -0.171 F 
HETATM    8 CL11 UNL     1     -32.420   5.064   2.594  1.00 20.00    -0.078 Cl
ENDBRANCH   1   4
BRANCH   1   9
HETATM    9  C4  UNL     1     -34.078   5.948   5.984  1.00 20.00     0.443 C 
HETATM   10  F8  UNL     1     -33.892   7.255   6.281  1.00 20.00    -0.166 F 
HETATM   11  F9  UNL     1     -32.993   5.278   6.423  1.00 20.00    -0.166 F 
HETATM   12  F10 UNL     1     -35.143   5.524   6.701  1.00 20.00    -0.166 F 
ENDBRANCH   1   9
TORSDOF 2
