REMARK  0 active torsions:
REMARK  status: ('A' for Active; 'I' for Inactive)
ROOT
HETATM    1  C1  UNL     1     -33.158   5.257   3.232  1.00 20.00     0.184 A 
HETATM    2  C2  UNL     1     -32.934   6.617   3.520  1.00 20.00     0.175 A 
HETATM    3  C3  UNL     1     -33.585   6.827   4.711  1.00 20.00     0.162 A 
HETATM    4  C4  UNL     1     -34.927   5.323   6.223  1.00 20.00     0.181 C 
HETATM    5  N5  UNL     1     -33.894   4.647   4.165  1.00 20.00    -0.181 NA
HETATM    6  N6  UNL     1     -34.137   5.628   5.051  1.00 20.00    -0.260 N 
HETATM    7  F7  UNL     1     -32.247   7.498   2.800  1.00 20.00    -0.201 F 
HETATM    8 CL8  UNL     1     -33.767   8.201   5.685  1.00 20.00    -0.059 Cl
ENDROOT
TORSDOF 0
