REMARK  0 active torsions:
REMARK  status: ('A' for Active; 'I' for Inactive)
ROOT
HETATM    1  C1  UNL     1     -32.561   7.026   3.651  1.00 20.00     0.016 C 
HETATM    2  C2  UNL     1     -33.119   8.200   4.447  1.00 20.00     0.016 C 
HETATM    3  C3  UNL     1     -33.739   6.056   3.710  1.00 20.00     0.122 C 
HETATM    4  C4  UNL     1     -33.892   7.488   5.562  1.00 20.00     0.122 C 
HETATM    5  C5  UNL     1     -32.136   7.376   2.233  1.00 20.00     0.013 C 
HETATM    6  C6  UNL     1     -32.076   9.210   4.898  1.00 20.00     0.013 C 
HETATM    7  C7  UNL     1     -33.342   4.599   3.547  1.00 20.00     0.040 C 
HETATM    8  C8  UNL     1     -33.098   7.161   6.821  1.00 20.00     0.040 C 
HETATM    9  O9  UNL     1     -34.346   6.239   5.001  1.00 20.00    -0.381 OA
ENDROOT
TORSDOF 0
