REMARK  1 active torsions:
REMARK  status: ('A' for Active; 'I' for Inactive)
REMARK    1  A    between atoms: C4_4  and  C10_10 
ROOT
HETATM    1  C1  UNL     1     -32.692   6.960   3.052  1.00 20.00     0.016 C 
HETATM    2  C2  UNL     1     -33.705   7.745   3.877  1.00 20.00     0.017 C 
HETATM    3  C3  UNL     1     -33.576   5.841   2.504  1.00 20.00     0.122 C 
HETATM    4  C4  UNL     1     -34.552   6.625   4.490  1.00 20.00     0.129 C 
HETATM    5  C5  UNL     1     -32.003   7.773   1.967  1.00 20.00     0.013 C 
HETATM    6  C6  UNL     1     -33.091   8.730   4.860  1.00 20.00     0.013 C 
HETATM    7  C7  UNL     1     -32.815   4.578   2.144  1.00 20.00     0.040 C 
HETATM    8  O11 UNL     1     -34.529   5.540   3.539  1.00 20.00    -0.380 OA
ENDROOT
BRANCH   4   9
HETATM    9  C10 UNL     1     -34.065   6.073   5.824  1.00 20.00     0.007 C 
HETATM   10  C8  UNL     1     -34.447   7.011   6.968  1.00 20.00     0.012 C 
HETATM   11  C9  UNL     1     -34.631   4.674   6.069  1.00 20.00     0.012 C 
ENDBRANCH   4   9
TORSDOF 1
