REMARK  1 active torsions:
REMARK  status: ('A' for Active; 'I' for Inactive)
REMARK    1  A    between atoms: C4_4  and  C10_10 
ROOT
HETATM    1  C1  UNL     1     -34.097   4.432   4.771  1.00 20.00     0.016 C 
HETATM    2  C2  UNL     1     -33.943   5.360   3.560  1.00 20.00     0.017 C 
HETATM    3  C3  UNL     1     -34.935   5.326   5.688  1.00 20.00     0.122 C 
HETATM    4  C4  UNL     1     -33.898   6.768   4.175  1.00 20.00     0.129 C 
HETATM    5  C5  UNL     1     -32.776   3.968   5.386  1.00 20.00     0.013 C 
HETATM    6  C6  UNL     1     -32.843   5.014   2.569  1.00 20.00     0.013 C 
HETATM    7  C7  UNL     1     -34.945   4.972   7.164  1.00 20.00     0.040 C 
HETATM    8  O11 UNL     1     -34.413   6.652   5.516  1.00 20.00    -0.380 OA
ENDROOT
BRANCH   4   9
HETATM    9  C10 UNL     1     -32.541   7.450   4.246  1.00 20.00     0.007 C 
HETATM   10  C8  UNL     1     -32.151   8.027   2.884  1.00 20.00     0.012 C 
HETATM   11  C9  UNL     1     -32.541   8.549   5.309  1.00 20.00     0.012 C 
ENDBRANCH   4   9
TORSDOF 1
