REMARK  1 active torsions:
REMARK  status: ('A' for Active; 'I' for Inactive)
REMARK    1  A    between atoms: CA_4  and  C_5 
ROOT
HETATM    1  C1  UNK A   1     -33.956   5.938   5.498  1.00 20.00     0.013 A 
HETATM    2  C2  UNK A   1     -34.646   5.075   6.502  1.00 20.00     0.066 C 
ATOM      3  N   VAL A   1     -33.606   5.514   4.321  1.00 20.00    -0.255 NA
ATOM      4  CA  VAL A   1     -33.015   6.600   3.734  1.00 20.00     0.096 A 
ATOM      5  CB  VAL A   1     -32.983   7.695   4.504  1.00 20.00    -0.047 A 
ATOM      6  CG1 VAL A   1     -32.442   9.054   4.246  1.00 20.00     0.046 C 
ATOM      7  CG2 VAL A   1     -33.627   7.374   5.815  1.00 20.00     0.090 A 
ENDROOT
BRANCH   4   8
ATOM      8  C   VAL A   1     -32.487   6.504   2.378  1.00 20.00     0.290 C 
ATOM      9  O   VAL A   1     -31.950   7.448   1.804  1.00 20.00    -0.300 OA
ENDBRANCH   4   8
TORSDOF 1
