REMARK  2 active torsions:
REMARK  status: ('A' for Active; 'I' for Inactive)
REMARK    1  A    between atoms: C2_2  and  C9_9 
REMARK    2  A    between atoms: C3_3  and  C6_6 
ROOT
HETATM    1  C1  UNL     1     -33.531   5.559   3.586  1.00 20.00     0.079 A 
HETATM    2  C2  UNL     1     -33.860   6.577   4.457  1.00 20.00     0.045 A 
HETATM    3  C3  UNL     1     -32.789   7.762   2.954  1.00 20.00     0.079 A 
HETATM    4  N10 UNL     1     -33.435   7.841   4.096  1.00 20.00    -0.249 NA
HETATM    5  S11 UNL     1     -32.656   6.200   2.257  1.00 20.00    -0.084 SA
ENDROOT
BRANCH   2   6
HETATM    6  C9  UNL     1     -34.634   6.419   5.752  1.00 20.00     0.030 C 
HETATM    7  C7  UNL     1     -34.262   7.503   6.766  1.00 20.00     0.016 C 
HETATM    8  C8  UNL     1     -34.448   5.023   6.353  1.00 20.00     0.016 C 
ENDBRANCH   2   6
BRANCH   3   9
HETATM    9  C6  UNL     1     -32.185   9.004   2.278  1.00 20.00     0.045 A 
HETATM   10  C4  UNL     1     -33.069   9.841   1.382  1.00 20.00     0.012 A 
HETATM   11  C5  UNL     1     -31.994   8.991   0.779  1.00 20.00     0.012 A 
ENDBRANCH   3   9
TORSDOF 2
