REMARK  0 active torsions:
REMARK  status: ('A' for Active; 'I' for Inactive)
ROOT
HETATM    1  C1  UNL     1     -33.007   7.610   4.230  1.00 20.00     0.094 A 
HETATM    2  C2  UNL     1     -32.838   6.992   2.977  1.00 20.00     0.073 A 
HETATM    3  C3  UNL     1     -33.616   6.654   5.005  1.00 20.00     0.225 A 
HETATM    4  C4  UNL     1     -32.230   7.554   1.757  1.00 20.00     0.074 C 
HETATM    5  C5  UNL     1     -34.365   4.303   4.573  1.00 20.00     0.183 C 
HETATM    6  N6  UNL     1     -33.303   5.740   2.953  1.00 20.00    -0.174 NA
HETATM    7  N7  UNL     1     -33.769   5.563   4.201  1.00 20.00    -0.247 N 
HETATM    8  F8  UNL     1     -33.987   6.763   6.281  1.00 20.00    -0.183 F 
HETATM    9 BR9  UNL     1     -32.504   9.342   4.701  1.00 20.00    -0.044 Br
ENDROOT
TORSDOF 0
