REMARK  0 active torsions:
REMARK  status: ('A' for Active; 'I' for Inactive)
ROOT
HETATM    1  C1  UNL     1     -32.353   6.774   2.705  1.00 20.00     0.217 C 
HETATM    2  C2  UNL     1     -32.361   7.268   4.135  1.00 20.00     0.108 C 
HETATM    3  C3  UNL     1     -33.749   4.945   3.606  1.00 20.00     0.131 C 
HETATM    4  C4  UNL     1     -33.810   7.299   4.638  1.00 20.00    -0.001 C 
HETATM    5  C5  UNL     1     -34.433   5.859   4.659  1.00 20.00    -0.028 C 
HETATM    6  C6  UNL     1     -33.900   8.060   5.963  1.00 20.00     0.011 C 
HETATM    7  C7  UNL     1     -35.938   5.965   4.332  1.00 20.00     0.016 C 
HETATM    8  C8  UNL     1     -34.296   5.167   6.030  1.00 20.00     0.016 C 
HETATM    9  N9  UNL     1     -33.162   5.673   2.501  1.00 20.00    -0.360 N 
HETATM   10  O10 UNL     1     -31.680   7.307   1.826  1.00 20.00    -0.274 OA
HETATM   11  H25 UNL     1     -33.343   5.377   1.577  1.00 20.00     0.162 HD
ENDROOT
TORSDOF 0
