REMARK  2 active torsions:
REMARK  status: ('A' for Active; 'I' for Inactive)
REMARK    1  A    between atoms: C6_6  and  C7_7 
REMARK    2  A    between atoms: C6_6  and  C8_8 
ROOT
HETATM    1  C1  UNL     1     -32.015   7.510   1.820  1.00 20.00     0.012 C 
HETATM    2  C2  UNL     1     -32.297   6.726   2.684  1.00 20.00    -0.117 C 
HETATM    3  C7  UNL     1     -32.634   5.763   3.738  1.00 20.00     0.103 C 
ENDROOT
BRANCH   3   4
HETATM    4  C6  UNL     1     -33.872   6.205   4.510  1.00 20.00    -0.021 C 
HETATM    5  C4  UNL     1     -34.015   5.542   5.911  1.00 20.00     0.011 C 
HETATM    6  C3  UNL     1     -35.512   5.333   5.609  1.00 20.00     0.002 C 
HETATM    7  C5  UNL     1     -35.172   5.446   4.110  1.00 20.00     0.011 C 
BRANCH   4   8
HETATM    8  C8  UNL     1     -34.013   7.727   4.520  1.00 20.00     0.095 C 
HETATM    9 BR9  UNL     1     -32.358   8.522   5.142  1.00 20.00    -0.096 Br
ENDBRANCH   4   8
ENDBRANCH   3   4
TORSDOF 2
