REMARK  0 active torsions:
REMARK  status: ('A' for Active; 'I' for Inactive)
ROOT
HETATM    1  C1  UNL     1     -32.645   7.417   2.889  1.00 20.00     0.105 C 
HETATM    2  C2  UNL     1     -32.830   8.510   3.652  1.00 20.00     0.056 C 
HETATM    3  C3  UNL     1     -33.083   6.095   3.405  1.00 20.00     0.196 C 
HETATM    4  C4  UNL     1     -33.813   7.407   5.434  1.00 20.00     0.035 C 
HETATM    5  C5  UNL     1     -33.826   6.091   4.708  1.00 20.00     0.205 C 
HETATM    6  C6  UNL     1     -32.436   9.900   3.213  1.00 20.00     0.072 C 
HETATM    7  C7  UNL     1     -34.362   7.453   6.840  1.00 20.00     0.068 C 
HETATM    8  N8  UNL     1     -33.368   8.511   4.921  1.00 20.00    -0.259 NA
HETATM    9  O9  UNL     1     -32.875   5.057   2.779  1.00 20.00    -0.289 OA
HETATM   10 CL10 UNL     1     -31.938   7.424   1.318  1.00 20.00    -0.078 Cl
HETATM   11 CL11 UNL     1     -35.515   5.679   4.341  1.00 20.00    -0.110 Cl
ENDROOT
TORSDOF 0
