REMARK  1 active torsions:
REMARK  status: ('A' for Active; 'I' for Inactive)
REMARK    1  A    between atoms: C1_1  and  C2_2 
ROOT
HETATM    1  C1  UNL     1     -34.521   5.765   5.137  1.00 20.00     0.314 C 
HETATM    2  F3  UNL     1     -34.357   4.726   5.999  1.00 20.00    -0.228 F 
HETATM    3 CL5  UNL     1     -33.753   5.346   3.590  1.00 20.00    -0.085 Cl
ENDROOT
BRANCH   1   4
HETATM    4  C2  UNL     1     -33.892   7.012   5.726  1.00 20.00     0.314 C 
HETATM    5  F4  UNL     1     -34.492   7.303   6.911  1.00 20.00    -0.228 F 
HETATM    6 CL6  UNL     1     -34.097   8.396   4.630  1.00 20.00    -0.085 Cl
ENDBRANCH   1   4
TORSDOF 1
