REMARK  0 active torsions:
REMARK  status: ('A' for Active; 'I' for Inactive)
ROOT
HETATM    1  C1  UNL     1     -33.098   7.015   6.187  1.00 20.00     0.023 C 
HETATM    2  C2  UNL     1     -32.978   7.856   5.153  1.00 20.00     0.047 C 
HETATM    3  C3  UNL     1     -34.150   5.929   6.033  1.00 20.00     0.040 C 
HETATM    4  C4  UNL     1     -32.068   9.022   5.037  1.00 20.00     0.076 C 
HETATM    5  C5  UNL     1     -35.304   6.224   6.999  1.00 20.00     0.029 C 
HETATM    6  C6  UNL     1     -33.569   4.549   6.337  1.00 20.00     0.029 C 
HETATM    7  O7  UNL     1     -33.814   7.597   4.076  1.00 20.00    -0.305 OA
HETATM    8  P8  UNL     1     -34.626   6.190   4.269  1.00 20.00     0.165 P 
HETATM    9  S9  UNL     1     -36.472   6.153   3.692  1.00 20.00    -0.049 SA
HETATM   10 CL10 UNL     1     -33.501   4.953   3.149  1.00 20.00    -0.054 Cl
ENDROOT
TORSDOF 0
