REMARK  2 active torsions:
REMARK  status: ('A' for Active; 'I' for Inactive)
REMARK    1  A    between atoms: C2_2  and  O6_6 
REMARK    2  A    between atoms: C5_5  and  O6_6 
ROOT
HETATM    1  C1  UNL     1     -34.721   5.628   6.588  1.00 20.00     0.099 A 
HETATM    2  C2  UNL     1     -33.653   6.365   5.831  1.00 20.00     0.181 A 
HETATM    3  C3  UNL     1     -34.547   5.390   5.115  1.00 20.00     0.207 A 
HETATM    4  F7  UNL     1     -33.958   4.179   4.766  1.00 20.00    -0.223 F 
HETATM    5 CL8  UNL     1     -35.789   5.967   4.021  1.00 20.00    -0.080 Cl
ENDROOT
BRANCH   2   6
HETATM    6  O6  UNL     1     -33.887   7.766   5.615  1.00 20.00    -0.382 OA
BRANCH   6   7
HETATM    7  C5  UNL     1     -32.819   8.352   4.894  1.00 20.00     0.164 C 
HETATM    8  C4  UNL     1     -32.691   7.662   3.553  1.00 20.00     0.033 C 
ENDBRANCH   6   7
ENDBRANCH   2   6
TORSDOF 2
