REMARK  2 active torsions:
REMARK  status: ('A' for Active; 'I' for Inactive)
REMARK    1  A    between atoms: C3_3  and  C4_4 
REMARK    2  A    between atoms: C5_5  and  C9_9 
ROOT
HETATM    1  C1  UNL     1     -34.021   5.264   4.971  1.00 20.00    -0.024 C 
HETATM    2  C2  UNL     1     -34.096   5.851   6.177  1.00 20.00    -0.087 C 
HETATM    3  C6  UNL     1     -33.552   5.967   3.730  1.00 20.00     0.036 C 
HETATM    4  C7  UNL     1     -33.742   7.302   6.381  1.00 20.00     0.034 C 
HETATM    5  C8  UNL     1     -33.620   8.094   5.075  1.00 20.00     0.013 C 
HETATM    6  C9  UNL     1     -32.846   7.303   4.015  1.00 20.00     0.018 C 
HETATM    7  C10 UNL     1     -34.533   5.099   7.400  1.00 20.00     0.043 C 
ENDROOT
BRANCH   6   8
HETATM    8  C5  UNL     1     -32.679   8.099   2.756  1.00 20.00    -0.076 C 
HETATM    9  C3  UNL     1     -33.153   9.335   2.522  1.00 20.00     0.044 C 
HETATM   10  C11 UNL     1     -31.892   7.388   1.686  1.00 20.00     0.044 C 
BRANCH   9  11
HETATM   11  C4  UNL     1     -32.973  10.097   1.267  1.00 20.00     0.259 C 
HETATM   12  O12 UNL     1     -32.866   9.534   0.183  1.00 20.00    -0.302 OA
ENDBRANCH   9  11
ENDBRANCH   6   8
TORSDOF 2
