REMARK  1 active torsions:
REMARK  status: ('A' for Active; 'I' for Inactive)
REMARK    1  A    between atoms: C4_4  and  C8_8 
ROOT
HETATM    1  C1  UNL     1     -32.993   5.385   2.686  1.00 20.00     0.030 A 
HETATM    2  C2  UNL     1     -33.640   6.778   4.537  1.00 20.00     0.055 A 
HETATM    3  C3  UNL     1     -33.653   4.340   3.311  1.00 20.00     0.119 A 
HETATM    4  C4  UNL     1     -32.991   6.624   3.317  1.00 20.00    -0.010 A 
HETATM    5  C5  UNL     1     -34.272   5.670   5.079  1.00 20.00     0.126 A 
HETATM    6  N9  UNL     1     -34.295   4.451   4.496  1.00 20.00    -0.249 NA
HETATM    7 CL12 UNL     1     -35.098   5.766   6.580  1.00 20.00    -0.062 Cl
ENDROOT
BRANCH   4   8
HETATM    8  C8  UNL     1     -32.268   7.829   2.663  1.00 20.00     0.173 C 
HETATM    9  C6  UNL     1     -32.194   7.862   1.128  1.00 20.00     0.218 C 
HETATM   10  O10 UNL     1     -32.622   9.245   1.113  1.00 20.00    -0.384 OA
HETATM   11  C7  UNL     1     -33.073   9.125   2.483  1.00 20.00     0.218 C 
HETATM   12  F11 UNL     1     -31.083   7.977   3.294  1.00 20.00    -0.233 F 
ENDBRANCH   4   8
TORSDOF 1
