REMARK  0 active torsions:
REMARK  status: ('A' for Active; 'I' for Inactive)
ROOT
HETATM    1  C1  UNL     1     -33.329   6.693   4.132  1.00 20.00    -0.071 C 
HETATM    2  C2  UNL     1     -32.414   7.334   3.396  1.00 20.00    -0.027 C 
HETATM    3  C3  UNL     1     -33.760   4.268   4.304  1.00 20.00     0.009 C 
HETATM    4  C4  UNL     1     -34.230   4.445   5.760  1.00 20.00     0.006 C 
HETATM    5  C5  UNL     1     -35.509   5.880   4.396  1.00 20.00     0.014 C 
HETATM    6  C6  UNL     1     -34.222   5.573   3.633  1.00 20.00     0.015 C 
HETATM    7  C7  UNL     1     -34.813   5.877   5.766  1.00 20.00    -0.002 C 
HETATM    8  C8  UNL     1     -33.704   6.967   5.585  1.00 20.00    -0.021 C 
HETATM    9  C9  UNL     1     -32.138   7.034   1.962  1.00 20.00     0.036 C 
HETATM   10  C10 UNL     1     -34.287   8.380   5.772  1.00 20.00     0.020 C 
HETATM   11  C11 UNL     1     -32.519   6.797   6.546  1.00 20.00     0.020 C 
ENDROOT
TORSDOF 0
