REMARK  0 active torsions:
REMARK  status: ('A' for Active; 'I' for Inactive)
ROOT
HETATM    1  C1  UNL     1     -33.276   7.309   4.367  1.00 20.00    -0.071 C 
HETATM    2  C2  UNL     1     -32.380   8.290   4.207  1.00 20.00    -0.027 C 
HETATM    3  C3  UNL     1     -33.957   6.151   6.438  1.00 20.00     0.009 C 
HETATM    4  C4  UNL     1     -34.243   4.867   5.637  1.00 20.00     0.006 C 
HETATM    5  C5  UNL     1     -35.492   6.622   4.682  1.00 20.00     0.014 C 
HETATM    6  C6  UNL     1     -34.339   7.265   5.449  1.00 20.00     0.015 C 
HETATM    7  C7  UNL     1     -34.656   5.407   4.249  1.00 20.00    -0.002 C 
HETATM    8  C8  UNL     1     -33.458   6.072   3.493  1.00 20.00    -0.021 C 
HETATM    9  C9  UNL     1     -32.297   9.495   5.083  1.00 20.00     0.036 C 
HETATM   10  C10 UNL     1     -32.202   5.190   3.445  1.00 20.00     0.020 C 
HETATM   11  C11 UNL     1     -33.854   6.439   2.051  1.00 20.00     0.020 C 
ENDROOT
TORSDOF 0
