REMARK  2 active torsions:
REMARK  status: ('A' for Active; 'I' for Inactive)
REMARK    1  A    between atoms: C1_1  and  C2_2 
REMARK    2  A    between atoms: C1_1  and  C3_3 
ROOT
HETATM    1  C1  UNL     1     -33.634   6.836   5.260  1.00 20.00     0.168 C 
ENDROOT
BRANCH   1   2
HETATM    2  C2  UNL     1     -33.291   7.871   4.206  1.00 20.00     0.360 C 
HETATM    3  F4  UNL     1     -32.448   8.790   4.745  1.00 20.00    -0.214 F 
HETATM    4  F5  UNL     1     -32.620   7.285   3.184  1.00 20.00    -0.214 F 
ENDBRANCH   1   2
BRANCH   1   5
HETATM    5  C3  UNL     1     -34.557   5.729   4.774  1.00 20.00     0.325 C 
HETATM    6  F6  UNL     1     -33.975   5.064   3.744  1.00 20.00    -0.188 F 
HETATM    7  F7  UNL     1     -34.718   4.823   5.774  1.00 20.00    -0.188 F 
HETATM    8 CL8  UNL     1     -36.148   6.326   4.275  1.00 20.00    -0.048 Cl
ENDBRANCH   1   5
TORSDOF 2
