REMARK  1 active torsions:
REMARK  status: ('A' for Active; 'I' for Inactive)
REMARK    1  A    between atoms: C2_2  and  C3_3 
ROOT
HETATM    1  C1  UNL     1     -34.234   4.392   5.423  1.00 20.00     0.051 C 
HETATM    2  C3  UNL     1     -34.343   5.835   4.934  1.00 20.00     0.122 C 
HETATM    3 CL5  UNL     1     -33.121   6.117   3.648  1.00 20.00    -0.101 Cl
HETATM    4 CL6  UNL     1     -35.969   6.056   4.191  1.00 20.00    -0.101 Cl
ENDROOT
BRANCH   2   5
HETATM    5  C2  UNL     1     -34.192   6.869   6.057  1.00 20.00     0.156 C 
HETATM    6 CL4  UNL     1     -33.736   8.494   5.476  1.00 20.00    -0.127 Cl
ENDBRANCH   2   5
TORSDOF 1
