REMARK  1 active torsions:
REMARK  status: ('A' for Active; 'I' for Inactive)
REMARK    1  A    between atoms: C1_1  and  S3_3 
ROOT
HETATM    1  C1  UNL     1     -33.870   6.026   5.012  1.00 20.00     0.295 C 
HETATM    2  O2  UNL     1     -33.344   6.961   4.421  1.00 20.00    -0.266 OA
HETATM    3 CL4  UNL     1     -34.553   6.096   6.611  1.00 20.00    -0.031 Cl
ENDROOT
BRANCH   1   4
HETATM    4  S3  UNL     1     -34.009   4.414   4.285  1.00 20.00     0.036 SA
HETATM    5 CL5  UNL     1     -33.125   4.727   2.480  1.00 20.00    -0.034 Cl
ENDBRANCH   1   4
TORSDOF 1
