REMARK  1 active torsions:
REMARK  status: ('A' for Active; 'I' for Inactive)
REMARK    1  A    between atoms: C1_1  and  C2_2 
ROOT
HETATM    1  C1  UNL     1     -33.516   7.048   5.528  1.00 20.00     0.314 C 
HETATM    2  F3  UNL     1     -34.377   7.256   6.559  1.00 20.00    -0.228 F 
HETATM    3 CL5  UNL     1     -32.979   8.624   4.909  1.00 20.00    -0.085 Cl
ENDROOT
BRANCH   1   4
HETATM    4  C2  UNL     1     -34.215   6.255   4.441  1.00 20.00     0.314 C 
HETATM    5  F4  UNL     1     -33.354   6.049   3.409  1.00 20.00    -0.228 F 
HETATM    6 CL6  UNL     1     -34.748   4.677   5.058  1.00 20.00    -0.085 Cl
ENDBRANCH   1   4
TORSDOF 1
