REMARK  1 active torsions:
REMARK  status: ('A' for Active; 'I' for Inactive)
REMARK    1  A    between atoms: C2_2  and  C6_6 
ROOT
HETATM    1  C3  UNL     1     -34.726   4.607   4.606  1.00 20.00     0.006 C 
HETATM    2  C4  UNL     1     -35.675   5.629   5.246  1.00 20.00     0.006 C 
HETATM    3  C5  UNL     1     -33.614   5.725   6.377  1.00 20.00     0.010 C 
HETATM    4  C6  UNL     1     -32.936   6.404   4.213  1.00 20.00     0.025 C 
HETATM    5  C7  UNL     1     -33.329   5.129   4.995  1.00 20.00    -0.005 C 
HETATM    6  C8  UNL     1     -34.707   6.665   5.843  1.00 20.00    -0.006 C 
HETATM    7  C9  UNL     1     -33.957   7.467   4.724  1.00 20.00    -0.036 C 
HETATM    8  C11 UNL     1     -33.210   8.667   5.347  1.00 20.00     0.016 C 
HETATM    9  C12 UNL     1     -34.909   8.035   3.658  1.00 20.00     0.016 C 
ENDROOT
BRANCH   4  10
HETATM   10  C2  UNL     1     -32.825   6.196   2.736  1.00 20.00    -0.088 C 
HETATM   11  C1  UNL     1     -33.110   5.017   2.162  1.00 20.00     0.014 C 
HETATM   12  C10 UNL     1     -32.377   7.381   1.934  1.00 20.00     0.043 C 
ENDBRANCH   4  10
TORSDOF 1
