REMARK  2 active torsions:
REMARK  status: ('A' for Active; 'I' for Inactive)
REMARK    1  A    between atoms: C2_2  and  O6_6 
REMARK    2  A    between atoms: C5_5  and  O6_6 
ROOT
HETATM    1  C1  UNL     1     -34.822   5.623   6.348  1.00 20.00     0.099 A 
HETATM    2  C2  UNL     1     -33.830   6.422   5.551  1.00 20.00     0.181 A 
HETATM    3  C3  UNL     1     -34.718   5.422   4.863  1.00 20.00     0.207 A 
HETATM    4  F7  UNL     1     -35.764   5.940   4.107  1.00 20.00    -0.223 F 
HETATM    5 CL8  UNL     1     -34.006   3.938   4.261  1.00 20.00    -0.080 Cl
ENDROOT
BRANCH   2   6
HETATM    6  O6  UNL     1     -34.157   7.806   5.347  1.00 20.00    -0.382 OA
BRANCH   6   7
HETATM    7  C5  UNL     1     -33.443   8.339   4.248  1.00 20.00     0.164 C 
HETATM    8  C4  UNL     1     -31.958   8.219   4.520  1.00 20.00     0.033 C 
ENDBRANCH   6   7
ENDBRANCH   2   6
TORSDOF 2
