REMARK  2 active torsions:
REMARK  status: ('A' for Active; 'I' for Inactive)
REMARK    1  A    between atoms: C1_1  and  P9_9 
REMARK    2  A    between atoms: C2_2  and  P9_9 
ROOT
HETATM    1  P9  UNL     1     -32.786   5.976   4.456  1.00 20.00     0.209 P 
HETATM    2 CL10 UNL     1     -32.944   6.068   2.366  1.00 20.00    -0.077 Cl
ENDROOT
BRANCH   1   3
HETATM    3  C1  UNL     1     -33.171   7.627   4.934  1.00 20.00     0.429 C 
HETATM    4  F3  UNL     1     -33.391   7.588   6.249  1.00 20.00    -0.165 F 
HETATM    5  F4  UNL     1     -32.094   8.354   4.630  1.00 20.00    -0.165 F 
HETATM    6  F5  UNL     1     -34.249   8.012   4.250  1.00 20.00    -0.165 F 
ENDBRANCH   1   3
BRANCH   1   7
HETATM    7  C2  UNL     1     -34.217   5.051   4.900  1.00 20.00     0.429 C 
HETATM    8  F6  UNL     1     -33.961   3.788   4.552  1.00 20.00    -0.165 F 
HETATM    9  F7  UNL     1     -35.221   5.570   4.190  1.00 20.00    -0.165 F 
HETATM   10  F8  UNL     1     -34.404   5.187   6.213  1.00 20.00    -0.165 F 
ENDBRANCH   1   7
TORSDOF 2
