REMARK  2 active torsions:
REMARK  status: ('A' for Active; 'I' for Inactive)
REMARK    1  A    between atoms: C7_7  and  O10_10 
REMARK    2  A    between atoms: C8_8  and  O10_10 
ROOT
HETATM    1  C1  UNL     1     -32.485   5.864   2.994  1.00 20.00     0.024 C 
HETATM    2  C2  UNL     1     -33.332   4.902   3.384  1.00 20.00     0.118 C 
HETATM    3  C3  UNL     1     -34.226   6.095   5.095  1.00 20.00     0.188 C 
HETATM    4  C4  UNL     1     -33.141   7.139   5.035  1.00 20.00     0.127 C 
HETATM    5  C7  UNL     1     -32.482   7.201   3.662  1.00 20.00     0.154 C 
HETATM    6  N9  UNL     1     -34.294   5.036   4.351  1.00 20.00    -0.237 NA
HETATM    7  F11 UNL     1     -35.173   6.246   6.032  1.00 20.00    -0.189 F 
ENDROOT
BRANCH   5   8
HETATM    8  O10 UNL     1     -33.184   8.135   2.846  1.00 20.00    -0.376 OA
BRANCH   8   9
HETATM    9  C8  UNL     1     -32.314   8.772   1.922  1.00 20.00     0.122 A 
HETATM   10  C5  UNL     1     -32.587   8.510   0.468  1.00 20.00     0.034 A 
HETATM   11  C6  UNL     1     -32.931   9.843   1.067  1.00 20.00     0.034 A 
ENDBRANCH   8   9
ENDBRANCH   5   8
TORSDOF 2
