REMARK  2 active torsions:
REMARK  status: ('A' for Active; 'I' for Inactive)
REMARK    1  A    between atoms: C1_1  and  C3_3 
REMARK    2  A    between atoms: C1_1  and  C5_5 
ROOT
HETATM    1  C2  UNL     1     -35.212   6.325   4.428  1.00 20.00     0.098 A 
HETATM    2  C3  UNL     1     -33.862   6.837   4.888  1.00 20.00     0.134 A 
HETATM    3  C4  UNL     1     -34.088   5.385   4.659  1.00 20.00     0.255 A 
HETATM    4  F7  UNL     1     -34.120   4.507   5.719  1.00 20.00    -0.205 F 
HETATM    5  F8  UNL     1     -33.499   4.730   3.601  1.00 20.00    -0.205 F 
ENDROOT
BRANCH   2   6
HETATM    6  C1  UNL     1     -33.031   7.601   3.953  1.00 20.00     0.146 C 
HETATM    7  O6  UNL     1     -32.777   8.784   4.170  1.00 20.00    -0.297 OA
BRANCH   6   8
HETATM    8  C5  UNL     1     -32.535   6.834   2.750  1.00 20.00     0.164 C 
HETATM    9 BR9  UNL     1     -31.500   7.995   1.595  1.00 20.00    -0.089 Br
ENDBRANCH   6   8
ENDBRANCH   2   6
TORSDOF 2
