REMARK  2 active torsions:
REMARK  status: ('A' for Active; 'I' for Inactive)
REMARK    1  A    between atoms: C7_7  and  O10_10 
REMARK    2  A    between atoms: C8_8  and  O10_10 
ROOT
HETATM    1  C1  UNL     1     -33.922   6.191   4.694  1.00 20.00     0.153 C 
HETATM    2  C2  UNL     1     -33.004   5.497   2.735  1.00 20.00     0.121 C 
HETATM    3  C3  UNL     1     -33.164   7.288   4.801  1.00 20.00     0.114 C 
HETATM    4  C4  UNL     1     -32.077   7.580   3.819  1.00 20.00     0.109 C 
HETATM    5  C7  UNL     1     -32.290   6.811   2.520  1.00 20.00     0.168 C 
HETATM    6  N9  UNL     1     -33.782   5.221   3.737  1.00 20.00    -0.272 NA
HETATM    7  F11 UNL     1     -33.395   8.156   5.810  1.00 20.00    -0.209 F 
ENDROOT
BRANCH   5   8
HETATM    8  O10 UNL     1     -33.122   7.567   1.650  1.00 20.00    -0.375 OA
BRANCH   8   9
HETATM    9  C8  UNL     1     -32.356   8.405   0.795  1.00 20.00     0.122 A 
HETATM   10  C5  UNL     1     -33.127   9.186  -0.231  1.00 20.00     0.034 A 
HETATM   11  C6  UNL     1     -32.555   9.883   0.968  1.00 20.00     0.034 A 
ENDBRANCH   8   9
ENDBRANCH   5   8
TORSDOF 2
