REMARK  1 active torsions:
REMARK  status: ('A' for Active; 'I' for Inactive)
REMARK    1  A    between atoms: C1_1  and  C5_5 
ROOT
HETATM    1  C3  UNL     1     -34.275   4.357   5.322  1.00 20.00     0.009 A 
HETATM    2  C4  UNL     1     -34.083   4.973   6.675  1.00 20.00     0.009 A 
HETATM    3  C5  UNL     1     -34.645   5.798   5.549  1.00 20.00     0.009 A 
ENDROOT
BRANCH   3   4
HETATM    4  C1  UNL     1     -33.820   6.840   4.959  1.00 20.00    -0.015 C 
HETATM    5  C2  UNL     1     -33.258   7.827   5.665  1.00 20.00     0.052 C 
HETATM    6 BR6  UNL     1     -32.203   9.165   4.934  1.00 20.00    -0.064 Br
ENDBRANCH   3   4
TORSDOF 1
