REMARK  0 active torsions:
REMARK  status: ('A' for Active; 'I' for Inactive)
ROOT
HETATM    1  C1  UNL     1     -33.323   8.879   5.325  1.00 20.00     0.004 A 
HETATM    2  C2  UNL     1     -33.884   7.680   5.463  1.00 20.00    -0.036 A 
HETATM    3  C3  UNL     1     -33.490   6.997   4.228  1.00 20.00     0.035 A 
HETATM    4  C4  UNL     1     -32.610   8.991   4.022  1.00 20.00     0.177 A 
HETATM    5  C5  UNL     1     -34.693   7.055   6.530  1.00 20.00     0.040 C 
HETATM    6  C6  UNL     1     -33.857   5.555   4.016  1.00 20.00     0.059 C 
HETATM    7  C7  UNL     1     -34.686   5.529   6.410  1.00 20.00     0.005 C 
HETATM    8  C8  UNL     1     -34.953   5.084   4.969  1.00 20.00     0.006 C 
HETATM    9  N9  UNL     1     -32.777   7.672   3.370  1.00 20.00    -0.290 NA
ENDROOT
TORSDOF 0
