REMARK  1 active torsions:
REMARK  status: ('A' for Active; 'I' for Inactive)
REMARK    1  A    between atoms: C4_4  and  C6_6 
ROOT
HETATM    1  C1  UNL     1     -33.630   7.797   4.360  1.00 20.00     0.070 A 
HETATM    2  C2  UNL     1     -33.630   5.525   3.655  1.00 20.00     0.129 A 
HETATM    3  C3  UNL     1     -32.449   7.068   2.429  1.00 20.00     0.170 A 
HETATM    4  C4  UNL     1     -34.051   6.487   4.560  1.00 20.00     0.027 A 
HETATM    5  C5  UNL     1     -32.814   8.101   3.277  1.00 20.00     0.190 A 
HETATM    6  N7  UNL     1     -32.837   5.783   2.591  1.00 20.00    -0.268 NA
HETATM    7  O8  UNL     1     -32.412   9.299   3.069  1.00 20.00    -0.287 OA
ENDROOT
BRANCH   4   8
HETATM    8  C6  UNL     1     -34.924   6.128   5.709  1.00 20.00     0.388 C 
HETATM    9  F9  UNL     1     -34.682   6.935   6.777  1.00 20.00    -0.209 F 
HETATM   10  F10 UNL     1     -34.680   4.857   6.128  1.00 20.00    -0.209 F 
ENDBRANCH   4   8
TORSDOF 1
