REMARK  2 active torsions:
REMARK  status: ('A' for Active; 'I' for Inactive)
REMARK    1  A    between atoms: C7_7  and  O10_10 
REMARK    2  A    between atoms: C8_8  and  O10_10 
ROOT
HETATM    1  C1  UNL     1     -32.598   7.017   2.410  1.00 20.00     0.155 C 
HETATM    2  C2  UNL     1     -32.461   7.971   1.211  1.00 20.00     0.084 C 
HETATM    3  C3  UNL     1     -32.524   9.136   2.225  1.00 20.00     0.047 C 
HETATM    4  C7  UNL     1     -32.355   8.158   3.416  1.00 20.00     0.191 C 
HETATM    5  O9  UNL     1     -32.819   5.830   2.518  1.00 20.00    -0.295 OA
ENDROOT
BRANCH   4   6
HETATM    6  O10 UNL     1     -33.332   8.233   4.437  1.00 20.00    -0.373 OA
BRANCH   6   7
HETATM    7  C8  UNL     1     -33.249   7.097   5.313  1.00 20.00     0.122 C 
HETATM    8  C5  UNL     1     -33.893   7.271   6.709  1.00 20.00     0.032 C 
HETATM    9  C4  UNL     1     -34.377   5.813   6.596  1.00 20.00     0.005 C 
HETATM   10  C6  UNL     1     -34.280   5.970   5.067  1.00 20.00     0.032 C 
ENDBRANCH   6   7
ENDBRANCH   4   6
TORSDOF 2
