REMARK  2 active torsions:
REMARK  status: ('A' for Active; 'I' for Inactive)
REMARK    1  A    between atoms: C1_1  and  C4_4 
REMARK    2  A    between atoms: C4_4  and  C5_5 
ROOT
HETATM    1  C2  UNL     1     -34.472   7.657   6.514  1.00 20.00     0.027 A 
HETATM    2  C3  UNL     1     -33.121   7.083   6.213  1.00 20.00     0.027 A 
HETATM    3  C4  UNL     1     -34.177   7.124   5.127  1.00 20.00     0.110 A 
ENDROOT
BRANCH   3   4
HETATM    4  C1  UNL     1     -33.991   8.125   4.049  1.00 20.00     0.249 C 
HETATM    5  O6  UNL     1     -32.959   8.231   3.395  1.00 20.00    -0.306 OA
ENDBRANCH   3   4
BRANCH   3   6
HETATM    6  C5  UNL     1     -34.819   5.815   4.745  1.00 20.00     0.401 C 
HETATM    7  F7  UNL     1     -34.088   5.178   3.808  1.00 20.00    -0.170 F 
HETATM    8  F8  UNL     1     -34.926   5.003   5.817  1.00 20.00    -0.170 F 
HETATM    9  F9  UNL     1     -36.055   6.015   4.247  1.00 20.00    -0.170 F 
ENDBRANCH   3   6
TORSDOF 2
