REMARK  0 active torsions:
REMARK  status: ('A' for Active; 'I' for Inactive)
ROOT
HETATM    1  C1  UNL     1     -32.582   4.524   2.295  1.00 20.00     0.013 C 
HETATM    2  C2  UNL     1     -33.227   5.165   3.079  1.00 20.00    -0.107 C 
HETATM    3  C3  UNL     1     -33.270   7.263   4.371  1.00 20.00     0.048 C 
HETATM    4  C4  UNL     1     -34.197   5.139   5.345  1.00 20.00     0.048 C 
HETATM    5  C5  UNL     1     -33.860   7.987   5.577  1.00 20.00     0.169 C 
HETATM    6  C6  UNL     1     -34.733   5.986   6.495  1.00 20.00     0.169 C 
HETATM    7  C7  UNL     1     -34.022   5.955   4.047  1.00 20.00     0.023 C 
HETATM    8  C8  UNL     1     -35.388   6.258   3.405  1.00 20.00     0.029 C 
HETATM    9  O9  UNL     1     -33.905   7.126   6.713  1.00 20.00    -0.391 OA
ENDROOT
TORSDOF 0
