REMARK  0 active torsions:
REMARK  status: ('A' for Active; 'I' for Inactive)
ROOT
HETATM    1  C1  UNL     1     -34.627   4.846   5.214  1.00 20.00     0.032 A 
HETATM    2  C2  UNL     1     -33.350   6.085   3.394  1.00 20.00     0.037 A 
HETATM    3  C3  UNL     1     -32.241   8.145   4.104  1.00 20.00     0.003 A 
HETATM    4  C4  UNL     1     -34.743   5.215   6.500  1.00 20.00     0.118 A 
HETATM    5  C5  UNL     1     -33.825   5.859   4.617  1.00 20.00    -0.008 A 
HETATM    6  C6  UNL     1     -32.539   7.258   3.137  1.00 20.00     0.031 A 
HETATM    7  C7  UNL     1     -33.538   6.788   5.726  1.00 20.00     0.048 A 
HETATM    8  C8  UNL     1     -32.706   8.021   5.531  1.00 20.00     0.088 A 
HETATM    9  N9  UNL     1     -34.091   6.394   6.845  1.00 20.00    -0.264 NA
HETATM   10 CL10 UNL     1     -31.955   7.490   1.528  1.00 20.00    -0.085 Cl
ENDROOT
TORSDOF 0
