REMARK  1 active torsions:
REMARK  status: ('A' for Active; 'I' for Inactive)
REMARK    1  A    between atoms: C1_1  and  C4_4 
ROOT
HETATM    1  C2  UNL     1     -34.544   4.964   5.621  1.00 20.00     0.038 C 
HETATM    2  C3  UNL     1     -34.928   6.018   6.642  1.00 20.00     0.169 C 
HETATM    3  C4  UNL     1     -33.682   7.037   4.962  1.00 20.00     0.190 C 
HETATM    4  C5  UNL     1     -34.319   5.782   4.353  1.00 20.00    -0.013 C 
HETATM    5  C6  UNL     1     -35.665   6.052   3.655  1.00 20.00     0.018 C 
HETATM    6  C7  UNL     1     -33.378   5.077   3.374  1.00 20.00     0.018 C 
HETATM    7  O9  UNL     1     -34.303   7.243   6.235  1.00 20.00    -0.378 OA
ENDROOT
BRANCH   3   8
HETATM    8  C1  UNL     1     -33.858   8.288   4.164  1.00 20.00     0.263 C 
HETATM    9  O8  UNL     1     -33.030   8.696   3.355  1.00 20.00    -0.304 OA
ENDBRANCH   3   8
TORSDOF 1
