REMARK  0 active torsions:
REMARK  status: ('A' for Active; 'I' for Inactive)
ROOT
HETATM    1  C1  UNL     1     -34.602   5.519   6.006  1.00 20.00     0.002 C 
HETATM    2  C2  UNL     1     -33.760   6.504   6.358  1.00 20.00     0.028 C 
HETATM    3  C3  UNL     1     -34.948   5.246   4.622  1.00 20.00    -0.003 C 
HETATM    4  C4  UNL     1     -34.214   5.741   3.610  1.00 20.00    -0.011 C 
HETATM    5  C5  UNL     1     -32.642   8.830   3.933  1.00 20.00     0.132 C 
HETATM    6  C6  UNL     1     -32.729   7.781   3.111  1.00 20.00     0.020 C 
HETATM    7  C7  UNL     1     -33.197   7.266   5.225  1.00 20.00     0.046 C 
HETATM    8  C8  UNL     1     -32.986   6.544   3.896  1.00 20.00     0.102 C 
HETATM    9  N9  UNL     1     -32.912   8.533   5.242  1.00 20.00    -0.263 NA
HETATM   10 BR10 UNL     1     -32.424   7.735   1.302  1.00 20.00    -0.053 Br
ENDROOT
TORSDOF 0
