REMARK  1 active torsions:
REMARK  status: ('A' for Active; 'I' for Inactive)
REMARK    1  A    between atoms: C6_6  and  C8_8 
ROOT
HETATM    1  C1  UNL     1     -34.218   5.113   4.476  1.00 20.00     0.099 C 
HETATM    2  C2  UNL     1     -32.922   6.884   3.399  1.00 20.00     0.031 A 
HETATM    3  C3  UNL     1     -34.091   7.347   5.461  1.00 20.00     0.046 A 
HETATM    4  C4  UNL     1     -32.805   9.087   4.386  1.00 20.00     0.032 A 
HETATM    5  C5  UNL     1     -33.740   6.459   4.445  1.00 20.00     0.046 A 
HETATM    6  C6  UNL     1     -32.454   8.198   3.369  1.00 20.00    -0.041 A 
HETATM    7  C7  UNL     1     -33.624   8.661   5.432  1.00 20.00     0.036 A 
HETATM    8  N9  UNL     1     -34.606   4.019   4.501  1.00 20.00    -0.191 NA
HETATM    9 CL10 UNL     1     -34.053   9.757   6.687  1.00 20.00    -0.084 Cl
ENDROOT
BRANCH   6  10
HETATM   10  C8  UNL     1     -31.577   8.653   2.251  1.00 20.00     0.153 C 
HETATM   11 CL11 UNL     1     -32.527   8.901   0.769  1.00 20.00    -0.126 Cl
ENDBRANCH   6  10
TORSDOF 1
