REMARK  0 active torsions:
REMARK  status: ('A' for Active; 'I' for Inactive)
ROOT
HETATM    1  C1  UNL     1     -34.178   4.980   4.354  1.00 20.00     0.116 A 
HETATM    2  C2  UNL     1     -33.648   6.869   5.790  1.00 20.00     0.084 A 
HETATM    3  C3  UNL     1     -34.265   5.591   5.542  1.00 20.00     0.124 A 
HETATM    4  C4  UNL     1     -32.970   7.456   4.798  1.00 20.00     0.109 A 
HETATM    5  C5  UNL     1     -33.418   5.640   3.250  1.00 20.00     0.249 A 
HETATM    6  N6  UNL     1     -32.853   6.867   3.565  1.00 20.00    -0.314 N 
HETATM    7  O7  UNL     1     -33.324   5.099   2.151  1.00 20.00    -0.268 OA
HETATM    8  F8  UNL     1     -34.945   5.014   6.553  1.00 20.00    -0.206 F 
HETATM    9 CL9  UNL     1     -32.187   8.968   4.944  1.00 20.00    -0.064 Cl
HETATM   10  H12 UNL     1     -32.325   7.365   2.855  1.00 20.00     0.170 HD
ENDROOT
TORSDOF 0
