REMARK  1 active torsions:
REMARK  status: ('A' for Active; 'I' for Inactive)
REMARK    1  A    between atoms: C3_3  and  C6_6 
ROOT
HETATM    1  C1  UNL     1     -32.895   6.788   3.241  1.00 20.00     0.068 A 
HETATM    2  C2  UNL     1     -33.132   8.436   4.939  1.00 20.00     0.126 A 
HETATM    3  C3  UNL     1     -32.664   8.086   3.683  1.00 20.00    -0.023 A 
HETATM    4  C4  UNL     1     -33.577   5.892   4.057  1.00 20.00     0.212 A 
HETATM    5  C5  UNL     1     -34.004   6.340   5.296  1.00 20.00     0.175 A 
HETATM    6  N7  UNL     1     -33.799   7.594   5.760  1.00 20.00    -0.244 NA
HETATM    7  O8  UNL     1     -33.787   4.697   3.645  1.00 20.00    -0.285 OA
HETATM    8 CL9  UNL     1     -34.864   5.358   6.431  1.00 20.00    -0.058 Cl
ENDROOT
BRANCH   3   9
HETATM    9  C6  UNL     1     -31.938   9.068   2.835  1.00 20.00     0.154 C 
HETATM   10 CL10 UNL     1     -32.980   9.661   1.520  1.00 20.00    -0.126 Cl
ENDBRANCH   3   9
TORSDOF 1
