REMARK  1 active torsions:
REMARK  status: ('A' for Active; 'I' for Inactive)
REMARK    1  A    between atoms: C1_1  and  C4_4 
ROOT
HETATM    1  C2  UNL     1     -33.911   4.590   3.885  1.00 20.00     0.038 C 
HETATM    2  C3  UNL     1     -33.363   5.539   2.836  1.00 20.00     0.169 C 
HETATM    3  C4  UNL     1     -33.405   6.646   4.882  1.00 20.00     0.190 C 
HETATM    4  C5  UNL     1     -34.461   5.537   4.948  1.00 20.00    -0.013 C 
HETATM    5  C6  UNL     1     -34.521   4.880   6.327  1.00 20.00     0.018 C 
HETATM    6  C7  UNL     1     -35.873   6.009   4.551  1.00 20.00     0.018 C 
HETATM    7  O9  UNL     1     -32.989   6.746   3.516  1.00 20.00    -0.378 OA
ENDROOT
BRANCH   3   8
HETATM    8  C1  UNL     1     -33.876   7.997   5.313  1.00 20.00     0.263 C 
HETATM    9  O8  UNL     1     -33.741   8.429   6.453  1.00 20.00    -0.304 OA
ENDBRANCH   3   8
TORSDOF 1
