REMARK  0 active torsions:
REMARK  status: ('A' for Active; 'I' for Inactive)
ROOT
HETATM    1  C1  UNL     1     -32.497   8.432   4.007  1.00 20.00     0.047 C 
HETATM    2  C2  UNL     1     -32.385   7.255   3.159  1.00 20.00     0.042 C 
HETATM    3  C3  UNL     1     -34.339   4.957   5.295  1.00 20.00     0.010 C 
HETATM    4  C4  UNL     1     -34.188   5.305   6.578  1.00 20.00     0.114 C 
HETATM    5  C5  UNL     1     -33.123   8.375   5.189  1.00 20.00     0.142 C 
HETATM    6  C6  UNL     1     -33.151   6.171   3.372  1.00 20.00     0.107 C 
HETATM    7  C7  UNL     1     -33.717   7.085   5.569  1.00 20.00     0.087 C 
HETATM    8  C8  UNL     1     -34.187   6.168   4.447  1.00 20.00     0.127 C 
HETATM    9  N9  UNL     1     -33.822   6.611   6.772  1.00 20.00    -0.262 NA
HETATM   10  F10 UNL     1     -33.150   9.378   6.080  1.00 20.00    -0.204 F 
HETATM   11  F11 UNL     1     -33.014   5.097   2.565  1.00 20.00    -0.210 F 
ENDROOT
TORSDOF 0
