REMARK  2 active torsions:
REMARK  status: ('A' for Active; 'I' for Inactive)
REMARK    1  A    between atoms: C7_7  and  O10_10 
REMARK    2  A    between atoms: C9_9  and  O10_10 
ROOT
HETATM    1  C1  UNL     1     -33.869   8.128   5.864  1.00 20.00     0.000 C 
HETATM    2  C2  UNL     1     -34.342   6.797   5.566  1.00 20.00     0.022 C 
HETATM    3  C3  UNL     1     -33.031   8.769   5.035  1.00 20.00     0.008 C 
HETATM    4  C4  UNL     1     -33.771   6.068   4.596  1.00 20.00     0.048 C 
HETATM    5  C7  UNL     1     -32.518   8.130   3.774  1.00 20.00     0.184 C 
HETATM    6  C8  UNL     1     -32.626   6.590   3.772  1.00 20.00     0.247 C 
HETATM    7  F11 UNL     1     -32.707   6.167   2.478  1.00 20.00    -0.240 F 
HETATM    8 CL12 UNL     1     -34.303   4.463   4.261  1.00 20.00    -0.086 Cl
ENDROOT
BRANCH   5   9
HETATM    9  O10 UNL     1     -33.275   8.673   2.692  1.00 20.00    -0.373 OA
BRANCH   9  10
HETATM   10  C9  UNL     1     -32.444   9.387   1.790  1.00 20.00     0.122 A 
HETATM   11  C5  UNL     1     -31.783   8.575   0.714  1.00 20.00     0.034 A 
HETATM   12  C6  UNL     1     -32.934   9.476   0.373  1.00 20.00     0.034 A 
ENDBRANCH   9  10
ENDBRANCH   5   9
TORSDOF 2
