REMARK  0 active torsions:
REMARK  status: ('A' for Active; 'I' for Inactive)
ROOT
HETATM    1  C1  UNL     1     -32.736   8.231   3.787  1.00 20.00     0.057 A 
HETATM    2  C2  UNL     1     -33.950   7.437   5.898  1.00 20.00     0.008 A 
HETATM    3  C3  UNL     1     -34.011   4.901   4.642  1.00 20.00     0.143 A 
HETATM    4  C4  UNL     1     -33.396   7.357   4.695  1.00 20.00    -0.005 A 
HETATM    5  C5  UNL     1     -32.436   7.451   2.732  1.00 20.00     0.127 A 
HETATM    6  C6  UNL     1     -33.401   6.076   4.006  1.00 20.00     0.085 A 
HETATM    7  C7  UNL     1     -34.576   6.239   6.556  1.00 20.00     0.176 A 
HETATM    8  N8  UNL     1     -34.548   4.970   5.804  1.00 20.00    -0.296 NA
HETATM    9  N9  UNL     1     -32.831   6.119   2.835  1.00 20.00    -0.235 NA
HETATM   10 CL10 UNL     1     -31.626   8.009   1.335  1.00 20.00    -0.062 Cl
ENDROOT
TORSDOF 0
