REMARK  1 active torsions:
REMARK  status: ('A' for Active; 'I' for Inactive)
REMARK    1  A    between atoms: C1_1  and  C4_4 
ROOT
HETATM    1  C2  UNL     1     -34.227   6.477   3.728  1.00 20.00     0.026 C 
HETATM    2  C3  UNL     1     -33.993   7.392   5.991  1.00 20.00     0.026 C 
HETATM    3  C4  UNL     1     -34.681   6.290   5.179  1.00 20.00     0.088 C 
HETATM    4  C5  UNL     1     -32.892   7.159   3.828  1.00 20.00     0.069 A 
HETATM    5  C6  UNL     1     -32.749   7.721   5.217  1.00 20.00     0.069 A 
HETATM    6  C7  UNL     1     -32.782   8.626   4.039  1.00 20.00     0.252 A 
HETATM    7  F10 UNL     1     -33.854   9.460   3.812  1.00 20.00    -0.205 F 
HETATM    8  F11 UNL     1     -31.647   9.302   3.649  1.00 20.00    -0.205 F 
ENDROOT
BRANCH   3   9
HETATM    9  C1  UNL     1     -34.185   4.940   5.674  1.00 20.00     0.177 C 
HETATM   10  O8  UNL     1     -33.901   4.887   6.903  1.00 20.00    -0.648 OA
HETATM   11  O9  UNL     1     -34.121   4.042   4.788  1.00 20.00    -0.648 OA
ENDBRANCH   3   9
TORSDOF 1
