REMARK  0 active torsions:
REMARK  status: ('A' for Active; 'I' for Inactive)
ROOT
HETATM    1  C1  UNL     1     -32.903   8.161   5.582  1.00 20.00     0.006 A 
HETATM    2  C2  UNL     1     -33.696   7.123   5.336  1.00 20.00    -0.008 A 
HETATM    3  C3  UNL     1     -33.102   6.540   4.132  1.00 20.00     0.038 A 
HETATM    4  C4  UNL     1     -31.795   8.234   4.587  1.00 20.00     0.177 A 
HETATM    5  C5  UNL     1     -34.914   6.570   5.965  1.00 20.00     0.310 C 
HETATM    6  C6  UNL     1     -33.779   5.369   3.479  1.00 20.00     0.089 C 
HETATM    7  C7  UNL     1     -34.813   4.721   4.405  1.00 20.00     0.276 C 
HETATM    8  N8  UNL     1     -32.029   7.105   3.654  1.00 20.00    -0.290 NA
HETATM    9  N9  UNL     1     -35.683   5.715   5.048  1.00 20.00     0.087 N 
HETATM   10  H19 UNL     1     -36.411   5.234   5.577  1.00 20.00     0.316 HD
ENDROOT
TORSDOF 0
