REMARK  1 active torsions:
REMARK  status: ('A' for Active; 'I' for Inactive)
REMARK    1  A    between atoms: C3_3  and  C6_6 
ROOT
HETATM    1  C1  UNL     1     -33.560   7.094   4.778  1.00 20.00     0.055 A 
HETATM    2  C2  UNL     1     -32.367   7.799   2.845  1.00 20.00     0.160 A 
HETATM    3  C3  UNL     1     -33.761   5.861   4.167  1.00 20.00    -0.001 A 
HETATM    4  C4  UNL     1     -32.851   8.087   4.111  1.00 20.00     0.134 A 
HETATM    5  C5  UNL     1     -33.236   5.673   2.898  1.00 20.00     0.133 A 
HETATM    6  N7  UNL     1     -32.542   6.614   2.219  1.00 20.00    -0.245 NA
HETATM    7  F8  UNL     1     -32.645   9.283   4.674  1.00 20.00    -0.205 F 
HETATM    8 CL9  UNL     1     -33.418   4.194   2.039  1.00 20.00    -0.062 Cl
ENDROOT
BRANCH   3   9
HETATM    9  C6  UNL     1     -34.520   4.799   4.887  1.00 20.00     0.156 C 
HETATM   10 CL10 UNL     1     -34.676   5.198   6.613  1.00 20.00    -0.125 Cl
ENDBRANCH   3   9
TORSDOF 1
