REMARK  1 active torsions:
REMARK  status: ('A' for Active; 'I' for Inactive)
REMARK    1  A    between atoms: C1_1  and  C3_3 
ROOT
HETATM    1  C2  UNL     1     -35.296   5.885   4.249  1.00 20.00     0.098 A 
HETATM    2  C3  UNL     1     -33.783   5.909   4.322  1.00 20.00     0.133 A 
HETATM    3  C4  UNL     1     -34.605   5.938   5.561  1.00 20.00     0.255 A 
HETATM    4  F7  UNL     1     -34.677   7.070   6.341  1.00 20.00    -0.205 F 
HETATM    5  F8  UNL     1     -34.632   4.853   6.408  1.00 20.00    -0.205 F 
ENDROOT
BRANCH   2   6
HETATM    6  C1  UNL     1     -33.066   7.114   3.895  1.00 20.00     0.133 C 
HETATM    7  C5  UNL     1     -33.730   8.433   4.182  1.00 20.00     0.091 C 
HETATM    8  O6  UNL     1     -31.974   7.050   3.333  1.00 20.00    -0.298 OA
ENDBRANCH   2   6
TORSDOF 1
