REMARK  0 active torsions:
REMARK  status: ('A' for Active; 'I' for Inactive)
ROOT
HETATM    1  C1  UNL     1     -33.501   8.452   5.340  1.00 20.00     0.124 C 
HETATM    2  C2  UNL     1     -33.838   6.477   4.410  1.00 20.00     0.044 C 
HETATM    3  C3  UNL     1     -34.091   5.020   4.462  1.00 20.00     0.057 C 
HETATM    4  C4  UNL     1     -34.391   4.877   5.965  1.00 20.00     0.007 C 
HETATM    5  C5  UNL     1     -33.975   6.207   6.631  1.00 20.00     0.016 C 
HETATM    6  C6  UNL     1     -34.319   7.238   5.581  1.00 20.00     0.077 C 
HETATM    7  N7  UNL     1     -32.894   8.440   4.194  1.00 20.00    -0.166 NA
HETATM    8  N8  UNL     1     -33.111   7.154   3.584  1.00 20.00    -0.159 NA
ENDROOT
TORSDOF 0
