REMARK  0 active torsions:
REMARK  status: ('A' for Active; 'I' for Inactive)
ROOT
HETATM    1  C1  UNL     1     -33.326   6.371   3.866  1.00 20.00     0.029 C 
HETATM    2  C2  UNL     1     -34.108   8.201   4.711  1.00 20.00     0.029 C 
HETATM    3  C3  UNL     1     -33.674   6.313   6.435  1.00 20.00     0.179 A 
HETATM    4  C4  UNL     1     -35.434   6.056   5.362  1.00 20.00     0.179 A 
HETATM    5  C5  UNL     1     -32.863   7.859   3.840  1.00 20.00     0.059 C 
HETATM    6  C6  UNL     1     -34.140   6.741   5.077  1.00 20.00     0.005 A 
HETATM    7  O7  UNL     1     -34.954   5.661   6.681  1.00 20.00    -0.389 OA
HETATM    8 BR8  UNL     1     -32.798   8.691   2.099  1.00 20.00    -0.091 Br
ENDROOT
TORSDOF 0
