REMARK  1 active torsions:
REMARK  status: ('A' for Active; 'I' for Inactive)
REMARK    1  A    between atoms: C2_2  and  C4_4 
ROOT
HETATM    1  C1  UNL     1     -34.155   5.970   6.531  1.00 20.00     0.026 A 
HETATM    2  C2  UNL     1     -34.142   6.886   5.564  1.00 20.00     0.068 A 
HETATM    3  C3  UNL     1     -34.420   4.687   5.845  1.00 20.00     0.203 A 
HETATM    4  N5  UNL     1     -34.370   6.344   4.324  1.00 20.00    -0.159 NA
HETATM    5  N6  UNL     1     -34.535   5.094   4.422  1.00 20.00    -0.189 NA
ENDROOT
BRANCH   2   6
HETATM    6  C4  UNL     1     -33.919   8.346   5.711  1.00 20.00     0.175 C 
HETATM    7 CL7  UNL     1     -32.470   8.753   4.786  1.00 20.00    -0.124 Cl
ENDBRANCH   2   6
TORSDOF 1
