REMARK  2 active torsions:
REMARK  status: ('A' for Active; 'I' for Inactive)
REMARK    1  A    between atoms: C4_4  and  O9_9 
REMARK    2  A    between atoms: C7_7  and  O9_9 
ROOT
HETATM    1  C1  UNL     1     -33.765   5.399   3.904  1.00 20.00     0.155 C 
HETATM    2  C2  UNL     1     -34.635   4.707   4.966  1.00 20.00     0.084 C 
HETATM    3  C3  UNL     1     -34.652   6.054   5.724  1.00 20.00     0.047 C 
HETATM    4  C4  UNL     1     -33.540   6.627   4.807  1.00 20.00     0.191 C 
HETATM    5  O8  UNL     1     -33.404   5.097   2.786  1.00 20.00    -0.295 OA
ENDROOT
BRANCH   4   6
HETATM    6  O9  UNL     1     -33.825   7.877   4.162  1.00 20.00    -0.374 OA
BRANCH   6   7
HETATM    7  C7  UNL     1     -32.638   8.480   3.679  1.00 20.00     0.114 C 
HETATM    8  C5  UNL     1     -32.958   9.283   2.427  1.00 20.00     0.039 C 
HETATM    9  C6  UNL     1     -32.038   9.351   4.772  1.00 20.00     0.039 C 
ENDBRANCH   6   7
ENDBRANCH   4   6
TORSDOF 2
