REMARK  0 active torsions:
REMARK  status: ('A' for Active; 'I' for Inactive)
ROOT
HETATM    1  C1  UNL     1     -32.294   7.836   4.316  1.00 20.00     0.012 C 
HETATM    2  C2  UNL     1     -33.329   7.260   4.505  1.00 20.00    -0.110 C 
HETATM    3  C3  UNL     1     -34.798   6.234   6.204  1.00 20.00     0.045 C 
HETATM    4  C4  UNL     1     -34.031   4.938   6.377  1.00 20.00     0.169 C 
HETATM    5  C5  UNL     1     -34.581   5.164   4.121  1.00 20.00     0.184 C 
HETATM    6  C6  UNL     1     -34.600   6.553   4.738  1.00 20.00     0.090 C 
HETATM    7  O7  UNL     1     -34.064   4.262   5.113  1.00 20.00    -0.390 OA
ENDROOT
TORSDOF 0
