REMARK  1 active torsions:
REMARK  status: ('A' for Active; 'I' for Inactive)
REMARK    1  A    between atoms: C5_5  and  C7_7 
ROOT
HETATM    1  C1  UNL     1     -33.707   6.812   4.565  1.00 20.00     0.071 A 
HETATM    2  C2  UNL     1     -32.692   5.582   2.351  1.00 20.00     0.126 A 
HETATM    3  C3  UNL     1     -32.550   6.956   2.462  1.00 20.00    -0.006 A 
HETATM    4  C4  UNL     1     -33.070   7.575   3.593  1.00 20.00     0.125 A 
HETATM    5  C5  UNL     1     -33.797   5.445   4.360  1.00 20.00     0.051 A 
HETATM    6  C6  UNL     1     -31.862   7.741   1.402  1.00 20.00     0.053 C 
HETATM    7  N8  UNL     1     -33.304   4.808   3.274  1.00 20.00    -0.264 NA
HETATM    8  F9  UNL     1     -32.962   8.901   3.754  1.00 20.00    -0.205 F 
ENDROOT
BRANCH   5   9
HETATM    9  C7  UNL     1     -34.476   4.596   5.383  1.00 20.00     0.173 C 
HETATM   10 CL10 UNL     1     -34.681   5.491   6.905  1.00 20.00    -0.124 Cl
ENDBRANCH   5   9
TORSDOF 1
