REMARK  1 active torsions:
REMARK  status: ('A' for Active; 'I' for Inactive)
REMARK    1  A    between atoms: C4_4  and  C9_9 
ROOT
HETATM    1  C1  UNL     1     -33.968   6.785   5.248  1.00 20.00     0.065 A 
HETATM    2  C2  UNL     1     -32.963   6.194   3.160  1.00 20.00     0.095 A 
HETATM    3  C3  UNL     1     -33.914   4.515   4.497  1.00 20.00     0.142 A 
HETATM    4  C4  UNL     1     -33.303   7.168   4.087  1.00 20.00    -0.031 A 
HETATM    5  C5  UNL     1     -34.278   5.445   5.459  1.00 20.00     0.187 A 
HETATM    6  N10 UNL     1     -33.274   4.911   3.388  1.00 20.00    -0.371 N 
HETATM    7  O11 UNL     1     -34.889   5.074   6.522  1.00 20.00    -0.287 OA
HETATM    8  H24 UNL     1     -33.014   4.211   2.694  1.00 20.00     0.164 HD
ENDROOT
BRANCH   4   9
HETATM    9  C9  UNL     1     -32.950   8.643   3.834  1.00 20.00    -0.023 C 
HETATM   10  C6  UNL     1     -32.030   9.158   4.962  1.00 20.00     0.019 C 
HETATM   11  C7  UNL     1     -34.242   9.489   3.807  1.00 20.00     0.019 C 
HETATM   12  C8  UNL     1     -32.215   8.890   2.497  1.00 20.00     0.019 C 
ENDBRANCH   4   9
TORSDOF 1
