REMARK  0 active torsions:
REMARK  status: ('A' for Active; 'I' for Inactive)
ROOT
HETATM    1  C1  UNL     1     -33.896   4.971   4.192  1.00 20.00     0.050 C 
HETATM    2  C2  UNL     1     -33.269   5.600   2.965  1.00 20.00     0.171 C 
HETATM    3  C3  UNL     1     -34.177   6.194   5.035  1.00 20.00     0.128 C 
HETATM    4  C4  UNL     1     -32.937   7.031   4.773  1.00 20.00     0.235 C 
HETATM    5  O5  UNL     1     -32.541   6.752   3.420  1.00 20.00    -0.369 OA
HETATM    6 CL6  UNL     1     -34.403   5.805   6.745  1.00 20.00    -0.121 Cl
HETATM    7 CL7  UNL     1     -33.244   8.763   4.975  1.00 20.00    -0.094 Cl
ENDROOT
TORSDOF 0
