REMARK  2 active torsions:
REMARK  status: ('A' for Active; 'I' for Inactive)
REMARK    1  A    between atoms: C4_4  and  C6_6 
REMARK    2  A    between atoms: C6_6  and  O7_7 
ROOT
HETATM    1  C1  UNL     1     -33.527   7.281   5.719  1.00 20.00     0.013 C 
HETATM    2  C2  UNL     1     -32.898   8.496   5.030  1.00 20.00     0.079 C 
HETATM    3  C3  UNL     1     -34.091   7.275   3.356  1.00 20.00     0.085 C 
HETATM    4  C4  UNL     1     -34.070   6.381   4.596  1.00 20.00     0.015 C 
HETATM    5  C5  UNL     1     -32.861   8.130   3.562  1.00 20.00     0.244 C 
HETATM    6  F8  UNL     1     -32.857   9.216   2.769  1.00 20.00    -0.206 F 
HETATM    7  F9  UNL     1     -31.745   7.415   3.288  1.00 20.00    -0.206 F 
ENDROOT
BRANCH   4   8
HETATM    8  C6  UNL     1     -35.428   5.777   4.915  1.00 20.00     0.168 C 
BRANCH   8   9
HETATM    9  O7  UNL     1     -35.310   4.981   6.082  1.00 20.00    -0.400 OA
HETATM   10  H19 UNL     1     -36.190   4.609   6.261  1.00 20.00     0.209 HD
ENDBRANCH   8   9
ENDBRANCH   4   8
TORSDOF 2
