REMARK  0 active torsions:
REMARK  status: ('A' for Active; 'I' for Inactive)
ROOT
HETATM    1  C1  UNL     1     -33.256   6.210   3.895  1.00 20.00     0.108 C 
HETATM    2  C2  UNL     1     -32.721   7.264   4.883  1.00 20.00     0.241 C 
HETATM    3  C3  UNL     1     -34.114   7.242   5.561  1.00 20.00     0.321 C 
HETATM    4  C4  UNL     1     -34.298   5.801   4.974  1.00 20.00     0.249 C 
HETATM    5  O5  UNL     1     -32.412   8.489   4.277  1.00 20.00    -0.229 OA
HETATM    6  F6  UNL     1     -35.026   8.141   5.118  1.00 20.00    -0.198 F 
HETATM    7  F7  UNL     1     -34.108   7.334   6.910  1.00 20.00    -0.198 F 
HETATM    8  F8  UNL     1     -35.540   5.566   4.480  1.00 20.00    -0.219 F 
HETATM    9 CL9  UNL     1     -33.832   4.443   6.044  1.00 20.00    -0.076 Cl
ENDROOT
TORSDOF 0
