REMARK  0 active torsions:
REMARK  status: ('A' for Active; 'I' for Inactive)
ROOT
HETATM    1  C1  UNL     1     -33.435   4.829   3.254  1.00 20.00     0.032 C 
HETATM    2  C2  UNL     1     -32.834   5.786   2.539  1.00 20.00     0.028 C 
HETATM    3  C3  UNL     1     -34.825   6.771   5.986  1.00 20.00     0.026 C 
HETATM    4  C4  UNL     1     -34.646   5.549   6.498  1.00 20.00     0.115 C 
HETATM    5  C5  UNL     1     -34.043   5.303   4.502  1.00 20.00     0.062 C 
HETATM    6  C6  UNL     1     -32.744   7.161   3.125  1.00 20.00     0.026 C 
HETATM    7  C7  UNL     1     -34.541   6.727   4.528  1.00 20.00     0.184 C 
HETATM    8  C8  UNL     1     -31.674   8.054   2.551  1.00 20.00     0.070 C 
HETATM    9  N9  UNL     1     -34.180   4.625   5.600  1.00 20.00    -0.263 NA
HETATM   10  N10 UNL     1     -33.484   7.622   4.081  1.00 20.00    -0.279 NA
ENDROOT
TORSDOF 0
