REMARK  0 active torsions:
REMARK  status: ('A' for Active; 'I' for Inactive)
ROOT
HETATM    1  C1  UNL     1     -34.426   5.309   5.604  1.00 20.00     0.002 C 
HETATM    2  C2  UNL     1     -33.952   5.380   4.350  1.00 20.00     0.028 C 
HETATM    3  C3  UNL     1     -34.367   6.430   6.527  1.00 20.00    -0.003 C 
HETATM    4  C4  UNL     1     -33.564   7.483   6.293  1.00 20.00    -0.012 C 
HETATM    5  C5  UNL     1     -32.562   8.747   4.308  1.00 20.00     0.027 C 
HETATM    6  C6  UNL     1     -32.911   8.502   3.040  1.00 20.00     0.100 C 
HETATM    7  C7  UNL     1     -33.346   6.678   3.995  1.00 20.00     0.047 C 
HETATM    8  C8  UNL     1     -32.675   7.489   5.095  1.00 20.00     0.085 C 
HETATM    9  N9  UNL     1     -33.381   7.232   2.822  1.00 20.00    -0.245 NA
HETATM   10 BR10 UNL     1     -32.873   9.719   1.654  1.00 20.00    -0.029 Br
ENDROOT
TORSDOF 0
