REMARK  0 active torsions:
REMARK  status: ('A' for Active; 'I' for Inactive)
ROOT
HETATM    1  C1  UNL     1     -34.418   6.939   6.296  1.00 20.00     0.002 C 
HETATM    2  C2  UNL     1     -33.236   7.377   5.834  1.00 20.00     0.028 C 
HETATM    3  C3  UNL     1     -35.321   6.131   5.493  1.00 20.00    -0.003 C 
HETATM    4  C4  UNL     1     -34.898   5.516   4.376  1.00 20.00    -0.012 C 
HETATM    5  C5  UNL     1     -33.155   5.840   2.530  1.00 20.00     0.032 C 
HETATM    6  C6  UNL     1     -32.424   6.953   2.417  1.00 20.00     0.123 C 
HETATM    7  C7  UNL     1     -32.918   6.951   4.457  1.00 20.00     0.047 C 
HETATM    8  C8  UNL     1     -33.465   5.615   3.968  1.00 20.00     0.086 C 
HETATM    9  N9  UNL     1     -32.250   7.644   3.587  1.00 20.00    -0.241 NA
HETATM   10 CL10 UNL     1     -31.798   7.547   0.945  1.00 20.00    -0.063 Cl
ENDROOT
TORSDOF 0
