REMARK  0 active torsions:
REMARK  status: ('A' for Active; 'I' for Inactive)
ROOT
HETATM    1  C1  UNL     1     -34.606   4.860   5.958  1.00 20.00    -0.025 C 
HETATM    2  C2  UNL     1     -34.225   6.008   6.538  1.00 20.00    -0.025 C 
HETATM    3  C3  UNL     1     -33.071   5.557   2.513  1.00 20.00    -0.024 C 
HETATM    4  C4  UNL     1     -32.534   6.757   2.281  1.00 20.00    -0.025 C 
HETATM    5  C5  UNL     1     -35.148   6.565   4.506  1.00 20.00     0.018 C 
HETATM    6  C6  UNL     1     -34.661   5.111   4.468  1.00 20.00     0.016 C 
HETATM    7  C7  UNL     1     -34.018   7.024   5.433  1.00 20.00     0.014 C 
HETATM    8  C8  UNL     1     -33.201   5.262   3.972  1.00 20.00     0.021 C 
HETATM    9  C9  UNL     1     -32.189   7.497   3.539  1.00 20.00     0.009 C 
HETATM   10  C10 UNL     1     -32.733   6.593   4.668  1.00 20.00     0.009 C 
HETATM   11  C11 UNL     1     -32.693   8.933   3.541  1.00 20.00     0.014 C 
ENDROOT
TORSDOF 0
