REMARK  0 active torsions:
REMARK  status: ('A' for Active; 'I' for Inactive)
ROOT
HETATM    1  C1  UNL     1     -34.168   4.344   5.068  1.00 20.00    -0.025 C 
HETATM    2  C2  UNL     1     -34.688   4.960   6.147  1.00 20.00    -0.025 C 
HETATM    3  C3  UNL     1     -32.224   7.065   3.702  1.00 20.00    -0.024 C 
HETATM    4  C4  UNL     1     -32.138   8.229   4.389  1.00 20.00    -0.025 C 
HETATM    5  C5  UNL     1     -35.738   5.869   4.364  1.00 20.00     0.018 C 
HETATM    6  C6  UNL     1     -34.397   5.237   3.871  1.00 20.00     0.016 C 
HETATM    7  C7  UNL     1     -35.154   6.346   5.703  1.00 20.00     0.014 C 
HETATM    8  C8  UNL     1     -33.606   6.556   3.873  1.00 20.00     0.021 C 
HETATM    9  C9  UNL     1     -33.371   8.482   5.271  1.00 20.00     0.009 C 
HETATM   10  C10 UNL     1     -33.826   7.036   5.332  1.00 20.00     0.009 C 
HETATM   11  C11 UNL     1     -34.368   9.477   4.700  1.00 20.00     0.014 C 
ENDROOT
TORSDOF 0
