REMARK  2 active torsions:
REMARK  status: ('A' for Active; 'I' for Inactive)
REMARK    1  A    between atoms: C5_5  and  C6_6 
REMARK    2  A    between atoms: C7_7  and  O8_8 
ROOT
HETATM    1  C3  UNL     1     -34.129   7.676   6.482  1.00 20.00     0.010 C 
HETATM    2  C4  UNL     1     -35.189   6.629   6.871  1.00 20.00     0.032 C 
HETATM    3  C6  UNL     1     -33.700   6.726   5.333  1.00 20.00     0.018 C 
HETATM    4  C7  UNL     1     -35.136   6.125   5.411  1.00 20.00     0.122 C 
ENDROOT
BRANCH   3   5
HETATM    5  C5  UNL     1     -33.220   7.316   4.027  1.00 20.00    -0.008 A 
HETATM    6  C1  UNL     1     -31.784   7.682   3.768  1.00 20.00     0.005 A 
HETATM    7  C2  UNL     1     -32.416   6.540   3.022  1.00 20.00     0.005 A 
ENDBRANCH   3   5
BRANCH   4   8
HETATM    8  O8  UNL     1     -35.246   4.704   5.215  1.00 20.00    -0.395 OA
HETATM    9  H20 UNL     1     -36.102   4.452   5.585  1.00 20.00     0.210 HD
ENDBRANCH   4   8
TORSDOF 2
