REMARK  1 active torsions:
REMARK  status: ('A' for Active; 'I' for Inactive)
REMARK    1  A    between atoms: C3_3  and  C7_7 
ROOT
HETATM    1  C1  UNL     1     -32.791   6.892   2.721  1.00 20.00     0.024 A 
HETATM    2  C2  UNL     1     -32.863   8.782   4.163  1.00 20.00     0.131 A 
HETATM    3  C3  UNL     1     -32.581   8.253   2.914  1.00 20.00     0.024 A 
HETATM    4  C4  UNL     1     -33.268   6.113   3.769  1.00 20.00    -0.021 A 
HETATM    5  C5  UNL     1     -33.518   6.738   4.980  1.00 20.00     0.131 A 
HETATM    6  C6  UNL     1     -33.490   4.654   3.557  1.00 20.00     0.051 C 
HETATM    7  N8  UNL     1     -33.328   8.057   5.205  1.00 20.00    -0.248 NA
HETATM    8 CL11 UNL     1     -34.109   5.881   6.350  1.00 20.00    -0.062 Cl
ENDROOT
BRANCH   3   9
HETATM    9  C7  UNL     1     -32.070   9.114   1.814  1.00 20.00     0.388 C 
HETATM   10  F9  UNL     1     -32.551  10.382   1.923  1.00 20.00    -0.209 F 
HETATM   11  F10 UNL     1     -32.483   8.652   0.602  1.00 20.00    -0.209 F 
ENDBRANCH   3   9
TORSDOF 1
