REMARK  0 active torsions:
REMARK  status: ('A' for Active; 'I' for Inactive)
ROOT
HETATM    1  C1  UNL     1     -32.179   7.482   2.037  1.00 20.00     0.104 C 
HETATM    2  C2  UNL     1     -33.789   6.861   5.333  1.00 20.00     0.107 A 
HETATM    3  C3  UNL     1     -33.287   5.528   3.006  1.00 20.00     0.145 A 
HETATM    4  C4  UNL     1     -32.862   6.842   3.114  1.00 20.00     0.100 A 
HETATM    5  C5  UNL     1     -33.121   7.515   4.303  1.00 20.00     0.142 A 
HETATM    6  C6  UNL     1     -34.173   5.546   5.125  1.00 20.00     0.212 A 
HETATM    7  N7  UNL     1     -31.623   8.002   1.161  1.00 20.00    -0.191 NA
HETATM    8  N8  UNL     1     -33.938   4.860   3.984  1.00 20.00    -0.231 NA
HETATM    9  F9  UNL     1     -32.736   8.788   4.469  1.00 20.00    -0.204 F 
HETATM   10  F10 UNL     1     -34.817   4.903   6.111  1.00 20.00    -0.184 F 
ENDROOT
TORSDOF 0
