REMARK  1 active torsions:
REMARK  status: ('A' for Active; 'I' for Inactive)
REMARK    1  A    between atoms: C3_3  and  C6_6 
ROOT
HETATM    1  C1  UNL     1     -33.663   5.941   2.323  1.00 20.00    -0.025 C 
HETATM    2  C2  UNL     1     -32.545   6.650   2.112  1.00 20.00    -0.026 C 
HETATM    3  C4  UNL     1     -34.248   5.662   3.687  1.00 20.00     0.015 C 
HETATM    4  C5  UNL     1     -31.736   7.285   3.217  1.00 20.00     0.008 C 
HETATM    5  C6  UNL     1     -33.289   6.109   4.817  1.00 20.00     0.066 C 
HETATM    6  C7  UNL     1     -32.549   7.439   4.535  1.00 20.00     0.000 C 
HETATM    7  C9  UNL     1     -35.669   6.230   3.766  1.00 20.00     0.015 C 
HETATM    8  C10 UNL     1     -31.106   8.599   2.746  1.00 20.00     0.014 C 
HETATM    9  C11 UNL     1     -33.469   8.668   4.532  1.00 20.00     0.011 C 
ENDROOT
BRANCH   5  10
HETATM   10  C3  UNL     1     -33.921   6.077   6.180  1.00 20.00     0.128 C 
HETATM   11  C8  UNL     1     -33.922   4.754   6.895  1.00 20.00     0.091 C 
HETATM   12  O12 UNL     1     -34.412   7.085   6.686  1.00 20.00    -0.298 OA
ENDBRANCH   5  10
TORSDOF 1
