REMARK  0 active torsions:
REMARK  status: ('A' for Active; 'I' for Inactive)
ROOT
HETATM    1  C1  UNL     1     -32.215   7.753   2.011  1.00 20.00     0.147 A 
HETATM    2  C2  UNL     1     -32.865   6.828   2.848  1.00 20.00    -0.015 A 
HETATM    3  C3  UNL     1     -33.114   7.530   4.003  1.00 20.00     0.036 A 
HETATM    4  C4  UNL     1     -33.274   5.418   2.654  1.00 20.00     0.043 C 
HETATM    5  C5  UNL     1     -33.767   7.023   5.236  1.00 20.00     0.068 C 
HETATM    6  C6  UNL     1     -33.635   4.764   4.006  1.00 20.00     0.014 C 
HETATM    7  C7  UNL     1     -34.496   5.671   4.947  1.00 20.00    -0.042 C 
HETATM    8  C8  UNL     1     -35.876   5.938   4.313  1.00 20.00     0.015 C 
HETATM    9  C9  UNL     1     -34.718   4.933   6.280  1.00 20.00     0.015 C 
HETATM   10  N10 UNL     1     -32.058   8.948   2.592  1.00 20.00    -0.186 NA
HETATM   11  N11 UNL     1     -32.615   8.781   3.807  1.00 20.00    -0.282 N 
HETATM   12  H25 UNL     1     -32.615   9.565   4.448  1.00 20.00     0.189 HD
ENDROOT
TORSDOF 0
