REMARK  0 active torsions:
REMARK  status: ('A' for Active; 'I' for Inactive)
ROOT
HETATM    1  C1  UNL     1     -33.926   4.056   4.155  1.00 20.00     0.002 C 
HETATM    2  C2  UNL     1     -33.567   5.045   3.321  1.00 20.00     0.030 C 
HETATM    3  C3  UNL     1     -34.305   4.297   5.538  1.00 20.00    -0.001 C 
HETATM    4  C4  UNL     1     -34.613   5.532   5.971  1.00 20.00     0.006 C 
HETATM    5  C5  UNL     1     -33.618   6.387   3.918  1.00 20.00     0.066 C 
HETATM    6  C6  UNL     1     -33.184   8.287   4.665  1.00 20.00     0.219 C 
HETATM    7  C7  UNL     1     -34.612   6.676   5.014  1.00 20.00     0.186 C 
HETATM    8  N8  UNL     1     -32.867   7.401   3.666  1.00 20.00    -0.221 NA
HETATM    9  N9  UNL     1     -34.088   7.950   5.537  1.00 20.00    -0.245 NA
HETATM   10 CL10 UNL     1     -32.339   9.755   4.777  1.00 20.00    -0.041 Cl
ENDROOT
TORSDOF 0
