REMARK  0 active torsions:
REMARK  status: ('A' for Active; 'I' for Inactive)
ROOT
HETATM    1  C1  UNL     1     -32.361   9.593   2.773  1.00 20.00     0.008 C 
HETATM    2  C2  UNL     1     -32.601   8.982   3.944  1.00 20.00     0.028 C 
HETATM    3  C3  UNL     1     -32.259   7.539   1.467  1.00 20.00    -0.005 C 
HETATM    4  C4  UNL     1     -32.923   5.516   2.883  1.00 20.00     0.015 C 
HETATM    5  C5  UNL     1     -32.345   8.885   1.495  1.00 20.00    -0.065 C 
HETATM    6  C6  UNL     1     -33.694   5.610   3.975  1.00 20.00     0.028 C 
HETATM    7  C7  UNL     1     -32.832   7.529   3.842  1.00 20.00     0.046 C 
HETATM    8  C8  UNL     1     -32.126   6.764   2.736  1.00 20.00     0.085 C 
HETATM    9  C9  UNL     1     -32.416   9.721   0.255  1.00 20.00     0.048 C 
HETATM   10  C10 UNL     1     -34.598   4.560   4.512  1.00 20.00     0.070 C 
HETATM   11  N11 UNL     1     -33.638   6.839   4.589  1.00 20.00    -0.258 NA
ENDROOT
TORSDOF 0
