REMARK  1 active torsions:
REMARK  status: ('A' for Active; 'I' for Inactive)
REMARK    1  A    between atoms: C4_4  and  C11_11 
ROOT
HETATM    1  C1  UNL     1     -32.669   6.060   2.191  1.00 20.00     0.003 A 
HETATM    2  C2  UNL     1     -33.533   5.608   3.201  1.00 20.00     0.008 A 
HETATM    3  C3  UNL     1     -32.067   7.319   2.277  1.00 20.00     0.029 A 
HETATM    4  C4  UNL     1     -33.812   6.410   4.308  1.00 20.00    -0.045 A 
HETATM    5  C5  UNL     1     -33.202   7.649   4.384  1.00 20.00    -0.024 A 
HETATM    6  C6  UNL     1     -32.325   8.097   3.392  1.00 20.00     0.035 A 
HETATM    7  C7  UNL     1     -33.367   8.718   5.415  1.00 20.00     0.061 C 
HETATM    8  C10 UNL     1     -32.254   9.709   5.011  1.00 20.00     0.124 C 
HETATM    9  N12 UNL     1     -31.873   9.392   3.640  1.00 20.00    -0.389 N 
HETATM   10  H25 UNL     1     -31.047   9.765   3.194  1.00 20.00     0.159 HD
ENDROOT
BRANCH   4  11
HETATM   11  C11 UNL     1     -34.749   5.939   5.364  1.00 20.00     0.019 A 
HETATM   12  C8  UNL     1     -34.280   5.896   6.797  1.00 20.00     0.010 A 
HETATM   13  C9  UNL     1     -34.488   4.619   6.044  1.00 20.00     0.010 A 
ENDBRANCH   4  11
TORSDOF 1
