REMARK  0 active torsions:
REMARK  status: ('A' for Active; 'I' for Inactive)
ROOT
HETATM    1  C1  UNL     1     -34.001   8.086   5.943  1.00 20.00     0.032 A 
HETATM    2  C2  UNL     1     -32.767   8.480   3.669  1.00 20.00     0.040 A 
HETATM    3  C3  UNL     1     -32.461   6.385   2.552  1.00 20.00     0.142 A 
HETATM    4  C4  UNL     1     -34.449   6.911   6.506  1.00 20.00     0.093 A 
HETATM    5  C5  UNL     1     -33.397   7.762   4.699  1.00 20.00     0.013 A 
HETATM    6  C6  UNL     1     -32.291   7.763   2.573  1.00 20.00     0.052 A 
HETATM    7  C7  UNL     1     -33.499   6.383   4.548  1.00 20.00     0.139 A 
HETATM    8  C8  UNL     1     -34.446   4.492   5.891  1.00 20.00     0.157 C 
HETATM    9  N9  UNL     1     -33.058   5.643   3.513  1.00 20.00    -0.241 NA
HETATM   10  N10 UNL     1     -34.139   5.884   5.652  1.00 20.00    -0.345 N 
HETATM   11 CL11 UNL     1     -31.512   8.572   1.274  1.00 20.00    -0.083 Cl
ENDROOT
TORSDOF 0
