REMARK  0 active torsions:
REMARK  status: ('A' for Active; 'I' for Inactive)
ROOT
HETATM    1  C1  UNL     1     -33.961   5.393   3.930  1.00 20.00    -0.026 C 
HETATM    2  C2  UNL     1     -33.047   5.812   3.044  1.00 20.00    -0.025 C 
HETATM    3  C3  UNL     1     -33.470   7.400   5.378  1.00 20.00     0.012 C 
HETATM    4  C4  UNL     1     -34.412   6.215   5.107  1.00 20.00     0.004 C 
HETATM    5  C5  UNL     1     -32.389   7.171   3.094  1.00 20.00     0.007 C 
HETATM    6  C6  UNL     1     -33.103   8.135   4.078  1.00 20.00    -0.011 C 
HETATM    7  C7  UNL     1     -34.537   5.349   6.361  1.00 20.00     0.014 C 
HETATM    8  C8  UNL     1     -32.330   7.761   1.681  1.00 20.00     0.014 C 
HETATM    9  C9  UNL     1     -32.245   9.362   4.400  1.00 20.00     0.010 C 
ENDROOT
TORSDOF 0
