REMARK  0 active torsions:
REMARK  status: ('A' for Active; 'I' for Inactive)
ROOT
HETATM    1  C1  UNL     1     -33.616   4.549   5.018  1.00 20.00    -0.025 C 
HETATM    2  C2  UNL     1     -34.343   4.977   6.068  1.00 20.00    -0.025 C 
HETATM    3  C3  UNL     1     -32.117   7.667   4.022  1.00 20.00    -0.024 C 
HETATM    4  C4  UNL     1     -32.334   8.779   4.763  1.00 20.00    -0.025 C 
HETATM    5  C5  UNL     1     -35.383   5.793   4.233  1.00 20.00     0.018 C 
HETATM    6  C6  UNL     1     -33.905   5.464   3.852  1.00 20.00     0.016 C 
HETATM    7  C7  UNL     1     -35.031   6.275   5.649  1.00 20.00     0.014 C 
HETATM    8  C8  UNL     1     -33.389   6.904   4.006  1.00 20.00     0.021 C 
HETATM    9  C9  UNL     1     -33.706   8.742   5.458  1.00 20.00     0.009 C 
HETATM   10  C10 UNL     1     -33.838   7.232   5.455  1.00 20.00     0.009 C 
HETATM   11  C11 UNL     1     -33.700   9.332   6.857  1.00 20.00     0.014 C 
ENDROOT
TORSDOF 0
