REMARK  1 active torsions:
REMARK  status: ('A' for Active; 'I' for Inactive)
REMARK    1  A    between atoms: C6_6  and  C8_8 
ROOT
HETATM    1  C1  UNL     1     -32.450   7.132   1.988  1.00 20.00     0.008 C 
HETATM    2  C2  UNL     1     -32.791   5.924   2.463  1.00 20.00     0.028 C 
HETATM    3  C3  UNL     1     -33.030   8.340   4.023  1.00 20.00    -0.005 C 
HETATM    4  C4  UNL     1     -34.822   5.672   5.351  1.00 20.00     0.128 C 
HETATM    5  C5  UNL     1     -32.718   8.373   2.712  1.00 20.00    -0.065 C 
HETATM    6  C6  UNL     1     -34.169   6.780   5.709  1.00 20.00     0.011 C 
HETATM    7  C7  UNL     1     -33.444   5.944   3.784  1.00 20.00     0.046 C 
HETATM    8  C9  UNL     1     -33.054   7.044   4.765  1.00 20.00     0.098 C 
HETATM    9  C10 UNL     1     -32.615   9.648   1.932  1.00 20.00     0.048 C 
HETATM   10  N11 UNL     1     -34.378   5.128   4.174  1.00 20.00    -0.264 NA
ENDROOT
BRANCH   6  11
HETATM   11  C8  UNL     1     -34.463   7.544   6.906  1.00 20.00     0.268 C 
HETATM   12  O12 UNL     1     -33.849   8.565   7.221  1.00 20.00    -0.302 OA
ENDBRANCH   6  11
TORSDOF 1
