REMARK  0 active torsions:
REMARK  status: ('A' for Active; 'I' for Inactive)
ROOT
HETATM    1  C1  UNL     1     -32.250   7.205   2.959  1.00 20.00     0.002 C 
HETATM    2  C2  UNL     1     -32.855   7.708   4.047  1.00 20.00     0.028 C 
HETATM    3  C3  UNL     1     -32.346   5.803   2.589  1.00 20.00    -0.003 C 
HETATM    4  C4  UNL     1     -33.287   5.005   3.121  1.00 20.00    -0.012 C 
HETATM    5  C5  UNL     1     -34.631   4.779   5.286  1.00 20.00     0.007 C 
HETATM    6  C6  UNL     1     -34.388   5.521   6.370  1.00 20.00     0.114 C 
HETATM    7  C7  UNL     1     -33.644   6.728   4.819  1.00 20.00     0.045 C 
HETATM    8  C8  UNL     1     -34.290   5.568   4.072  1.00 20.00     0.084 C 
HETATM    9  N9  UNL     1     -33.796   6.729   6.108  1.00 20.00    -0.265 NA
ENDROOT
TORSDOF 0
