REMARK  1 active torsions:
REMARK  status: ('A' for Active; 'I' for Inactive)
REMARK    1  A    between atoms: C4_4  and  C8_8 
ROOT
HETATM    1  C1  UNL     1     -34.208   4.768   4.460  1.00 20.00     0.079 A 
HETATM    2  C2  UNL     1     -33.841   7.093   5.343  1.00 20.00     0.088 A 
HETATM    3  C3  UNL     1     -33.460   5.146   3.422  1.00 20.00     0.146 A 
HETATM    4  C4  UNL     1     -33.104   7.354   4.247  1.00 20.00     0.064 A 
HETATM    5  C5  UNL     1     -34.453   5.759   5.525  1.00 20.00     0.176 A 
HETATM    6  O10 UNL     1     -35.129   5.490   6.511  1.00 20.00    -0.288 OA
HETATM    7  O11 UNL     1     -32.898   6.388   3.262  1.00 20.00    -0.326 OA
ENDROOT
BRANCH   4   8
HETATM    8  C8  UNL     1     -32.470   8.672   4.014  1.00 20.00     0.006 A 
HETATM    9  C6  UNL     1     -32.886   9.409   2.764  1.00 20.00     0.017 A 
HETATM   10  C7  UNL     1     -31.532   8.771   2.836  1.00 20.00     0.017 A 
HETATM   11  C9  UNL     1     -32.158   9.471   5.244  1.00 20.00     0.022 C 
ENDBRANCH   4   8
TORSDOF 1
