REMARK  2 active torsions:
REMARK  status: ('A' for Active; 'I' for Inactive)
REMARK    1  A    between atoms: C6_6  and  C7_7 
REMARK    2  A    between atoms: C7_7  and  N8_8 
ROOT
HETATM    1  C1  UNL     1     -32.370   7.449   3.251  1.00 20.00     0.332 C 
HETATM    2  N8  UNL     1     -32.567   7.214   4.385  1.00 20.00    -0.247 NA
HETATM    3  O9  UNL     1     -32.173   7.684   2.115  1.00 20.00    -0.260 OA
ENDROOT
BRANCH   2   4
HETATM    4  C7  UNL     1     -33.709   7.918   4.961  1.00 20.00     0.161 C 
BRANCH   4   5
HETATM    5  C6  UNL     1     -34.721   6.892   5.455  1.00 20.00     0.028 C 
HETATM    6  C3  UNL     1     -34.136   5.998   6.505  1.00 20.00    -0.024 C 
HETATM    7  C2  UNL     1     -33.917   4.762   6.047  1.00 20.00    -0.030 C 
HETATM    8  C4  UNL     1     -34.313   4.622   4.617  1.00 20.00     0.027 C 
HETATM    9  C5  UNL     1     -35.130   5.891   4.364  1.00 20.00     0.014 C 
ENDBRANCH   4   5
ENDBRANCH   2   4
TORSDOF 2
