REMARK  0 active torsions:
REMARK  status: ('A' for Active; 'I' for Inactive)
ROOT
HETATM    1  C1  UNL     1     -33.690   6.386   4.272  1.00 20.00     0.031 C 
HETATM    2  C2  UNL     1     -34.678   5.263   4.544  1.00 20.00     0.075 C 
HETATM    3  C3  UNL     1     -33.929   6.723   6.675  1.00 20.00     0.094 C 
HETATM    4  C4  UNL     1     -33.951   7.443   5.336  1.00 20.00     0.092 C 
HETATM    5  S5  UNL     1     -34.766   5.143   6.354  1.00 20.00    -0.168 SA
HETATM    6 CL6  UNL     1     -32.726   8.728   5.280  1.00 20.00    -0.124 Cl
ENDROOT
TORSDOF 0
