REMARK  0 active torsions:
REMARK  status: ('A' for Active; 'I' for Inactive)
ROOT
HETATM    1  C1  UNL     1     -34.502   5.250   6.768  1.00 20.00     0.011 A 
HETATM    2  C2  UNL     1     -33.935   6.581   6.266  1.00 20.00     0.011 A 
HETATM    3  C3  UNL     1     -35.544   5.628   4.303  1.00 20.00     0.027 A 
HETATM    4  C4  UNL     1     -34.179   4.953   4.096  1.00 20.00     0.067 A 
HETATM    5  C5  UNL     1     -34.528   5.610   5.352  1.00 20.00    -0.026 A 
HETATM    6 BR6  UNL     1     -32.948   5.800   2.912  1.00 20.00    -0.090 Br
ENDROOT
TORSDOF 0
