REMARK  0 active torsions:
REMARK  status: ('A' for Active; 'I' for Inactive)
ROOT
HETATM    1  C1  UNL     1     -32.675   6.244   2.419  1.00 20.00     0.014 C 
HETATM    2  C2  UNL     1     -33.443   6.199   3.340  1.00 20.00    -0.091 C 
HETATM    3  C3  UNL     1     -34.861   5.217   6.649  1.00 20.00     0.003 C 
HETATM    4  C4  UNL     1     -34.803   6.741   6.772  1.00 20.00     0.003 C 
HETATM    5  C5  UNL     1     -34.225   4.877   5.301  1.00 20.00     0.039 C 
HETATM    6  C6  UNL     1     -34.133   7.244   5.494  1.00 20.00     0.039 C 
HETATM    7  C7  UNL     1     -34.379   6.144   4.463  1.00 20.00     0.099 C 
HETATM    8 CL8  UNL     1     -36.037   6.263   3.799  1.00 20.00    -0.105 Cl
ENDROOT
TORSDOF 0
