REMARK  0 active torsions:
REMARK  status: ('A' for Active; 'I' for Inactive)
ROOT
HETATM    1  C1  UNL     1     -32.245   7.492   1.678  1.00 20.00     0.012 C 
HETATM    2  C2  UNL     1     -32.401   6.829   2.666  1.00 20.00    -0.112 C 
HETATM    3  C3  UNL     1     -35.433   5.897   4.369  1.00 20.00    -0.026 C 
HETATM    4  C4  UNL     1     -34.753   7.030   4.609  1.00 20.00    -0.024 C 
HETATM    5  C5  UNL     1     -34.076   4.622   5.985  1.00 20.00     0.009 C 
HETATM    6  C6  UNL     1     -33.311   5.936   6.271  1.00 20.00     0.010 C 
HETATM    7  C7  UNL     1     -33.414   4.729   3.572  1.00 20.00     0.026 C 
HETATM    8  C8  UNL     1     -32.592   6.013   3.879  1.00 20.00     0.072 C 
HETATM    9  C9  UNL     1     -34.620   4.632   4.538  1.00 20.00     0.009 C 
HETATM   10  C10 UNL     1     -33.302   6.822   5.002  1.00 20.00     0.023 C 
ENDROOT
TORSDOF 0
