REMARK  1 active torsions:
REMARK  status: ('A' for Active; 'I' for Inactive)
REMARK    1  A    between atoms: C1_1  and  C6_6 
ROOT
HETATM    1  C1  UNL     1     -33.001   6.894   3.490  1.00 20.00    -0.029 A 
HETATM    2  C2  UNL     1     -33.653   7.331   4.582  1.00 20.00     0.168 A 
HETATM    3  C3  UNL     1     -33.493   5.477   3.631  1.00 20.00     0.124 A 
HETATM    4  C7  UNL     1     -34.242   5.961   4.897  1.00 20.00     0.300 A 
HETATM    5  F8  UNL     1     -33.750   8.525   5.181  1.00 20.00    -0.204 F 
HETATM    6  F9  UNL     1     -33.855   5.358   6.047  1.00 20.00    -0.198 F 
HETATM    7  F10 UNL     1     -35.589   5.826   4.842  1.00 20.00    -0.198 F 
ENDROOT
BRANCH   1   8
HETATM    8  C6  UNL     1     -32.097   7.619   2.485  1.00 20.00     0.018 A 
HETATM    9  C4  UNL     1     -32.317   7.600   0.972  1.00 20.00     0.010 A 
HETATM   10  C5  UNL     1     -32.503   8.883   1.726  1.00 20.00     0.010 A 
ENDBRANCH   1   8
TORSDOF 1
