REMARK  0 active torsions:
REMARK  status: ('A' for Active; 'I' for Inactive)
ROOT
HETATM    1  C1  UNL     1     -33.195   7.606   4.836  1.00 20.00     0.041 A 
HETATM    2  C2  UNL     1     -33.447   6.447   4.200  1.00 20.00     0.101 A 
HETATM    3  C3  UNL     1     -34.238   7.363   5.900  1.00 20.00     0.138 A 
HETATM    4  C4  UNL     1     -34.538   6.028   5.178  1.00 20.00     0.287 A 
HETATM    5  F5  UNL     1     -35.802   5.915   4.703  1.00 20.00    -0.199 F 
HETATM    6  F6  UNL     1     -34.322   4.920   5.927  1.00 20.00    -0.199 F 
HETATM    7 CL7  UNL     1     -32.064   8.925   4.543  1.00 20.00    -0.087 Cl
HETATM    8 CL8  UNL     1     -32.774   5.680   2.763  1.00 20.00    -0.081 Cl
ENDROOT
TORSDOF 0
