REMARK  0 active torsions:
REMARK  status: ('A' for Active; 'I' for Inactive)
ROOT
HETATM    1  C1  UNL     1     -33.955   6.895   5.280  1.00 20.00    -0.075 C 
HETATM    2  C2  UNL     1     -33.669   8.198   5.336  1.00 20.00     0.015 C 
HETATM    3  C3  UNL     1     -33.939   5.796   6.318  1.00 20.00     0.036 C 
HETATM    4  C4  UNL     1     -34.810   5.024   5.307  1.00 20.00     0.024 C 
HETATM    5  C5  UNL     1     -34.419   5.986   4.161  1.00 20.00     0.086 C 
HETATM    6 BR6  UNL     1     -32.978   5.395   3.012  1.00 20.00    -0.086 Br
ENDROOT
TORSDOF 0
