REMARK  0 active torsions:
REMARK  status: ('A' for Active; 'I' for Inactive)
ROOT
HETATM    1  C1  UNL     1     -32.941   8.062   5.136  1.00 20.00     0.013 C 
HETATM    2  C2  UNL     1     -33.626   7.078   5.194  1.00 20.00    -0.106 C 
HETATM    3  C3  UNL     1     -35.500   5.731   4.187  1.00 20.00     0.041 A 
HETATM    4  C4  UNL     1     -34.310   4.813   4.213  1.00 20.00     0.079 A 
HETATM    5  C5  UNL     1     -34.450   5.897   5.264  1.00 20.00     0.033 A 
HETATM    6  C6  UNL     1     -34.806   5.467   6.662  1.00 20.00     0.030 C 
HETATM    7 BR7  UNL     1     -33.036   4.959   2.795  1.00 20.00    -0.089 Br
ENDROOT
TORSDOF 0
