REMARK  0 active torsions:
REMARK  status: ('A' for Active; 'I' for Inactive)
ROOT
HETATM    1  C1  UNL     1     -34.437   5.223   6.746  1.00 20.00    -0.027 A 
HETATM    2  C2  UNL     1     -34.908   6.430   6.387  1.00 20.00    -0.010 A 
HETATM    3  C3  UNL     1     -34.275   4.744   5.320  1.00 20.00     0.051 A 
HETATM    4  C4  UNL     1     -34.833   6.134   4.897  1.00 20.00     0.035 A 
HETATM    5  C5  UNL     1     -36.167   6.111   4.164  1.00 20.00     0.032 C 
HETATM    6 BR6  UNL     1     -33.533   7.292   4.006  1.00 20.00    -0.081 Br
ENDROOT
TORSDOF 0
