REMARK  0 active torsions:
REMARK  status: ('A' for Active; 'I' for Inactive)
ROOT
HETATM    1  C1  UNL     1     -34.790   5.154   6.346  1.00 20.00     0.003 A 
HETATM    2  C2  UNL     1     -34.753   6.477   6.562  1.00 20.00     0.034 A 
HETATM    3  C3  UNL     1     -34.218   4.784   5.072  1.00 20.00     0.018 A 
HETATM    4  C4  UNL     1     -32.173   8.404   1.610  1.00 20.00     0.014 A 
HETATM    5  C5  UNL     1     -32.691   8.808   2.778  1.00 20.00     0.118 A 
HETATM    6  C6  UNL     1     -33.804   5.876   4.449  1.00 20.00     0.042 A 
HETATM    7  C7  UNL     1     -34.119   6.995   5.355  1.00 20.00     0.091 A 
HETATM    8  C8  UNL     1     -33.185   6.533   3.304  1.00 20.00     0.158 A 
HETATM    9  C9  UNL     1     -32.151   6.936   1.239  1.00 20.00     0.180 A 
HETATM   10  N10 UNL     1     -33.777   8.161   4.899  1.00 20.00    -0.166 NA
HETATM   11  N11 UNL     1     -32.729   5.988   2.234  1.00 20.00    -0.267 NA
HETATM   12  N12 UNL     1     -33.205   7.887   3.647  1.00 20.00    -0.226 N 
ENDROOT
TORSDOF 0
