REMARK  1 active torsions:
REMARK  status: ('A' for Active; 'I' for Inactive)
REMARK    1  A    between atoms: C5_5  and  C7_7 
ROOT
HETATM    1  C1  UNL     1     -32.889   4.932   2.634  1.00 20.00     0.001 C 
HETATM    2  C2  UNL     1     -32.547   6.422   2.633  1.00 20.00     0.001 C 
HETATM    3  C3  UNL     1     -33.473   4.630   4.012  1.00 20.00     0.018 C 
HETATM    4  C4  UNL     1     -32.941   6.950   4.011  1.00 20.00     0.018 C 
HETATM    5  C5  UNL     1     -34.011   5.974   4.521  1.00 20.00     0.054 C 
HETATM    6  C6  UNL     1     -35.388   6.290   3.915  1.00 20.00     0.024 C 
ENDROOT
BRANCH   5   7
HETATM    7  C7  UNL     1     -34.113   5.998   6.047  1.00 20.00     0.395 C 
HETATM    8  F8  UNL     1     -32.903   5.800   6.582  1.00 20.00    -0.170 F 
HETATM    9  F9  UNL     1     -34.585   7.185   6.447  1.00 20.00    -0.170 F 
HETATM   10  F10 UNL     1     -34.942   5.031   6.457  1.00 20.00    -0.170 F 
ENDBRANCH   5   7
TORSDOF 1
