REMARK  4 active torsions:
REMARK  status: ('A' for Active; 'I' for Inactive)
REMARK    1  A    between atoms: C1_1  and  C7_7 
REMARK    2  A    between atoms: C2_2  and  C9_9 
REMARK    3  A    between atoms: C9_9  and  C11_11 
REMARK    4  A    between atoms: C10_10  and  C11_11 
ROOT
HETATM    1  C1  UNL     1     -33.978   7.472   4.462  1.00 20.00    -0.098 C 
HETATM    2  C2  UNL     1     -33.147   8.218   4.018  1.00 20.00    -0.106 C 
ENDROOT
BRANCH   1   3
HETATM    3  C7  UNL     1     -34.993   6.562   5.002  1.00 20.00     0.087 C 
HETATM    4  C4  UNL     1     -34.894   5.226   4.336  1.00 20.00    -0.014 C 
HETATM    5  C3  UNL     1     -34.373   4.297   5.144  1.00 20.00    -0.029 C 
HETATM    6  C5  UNL     1     -34.026   4.859   6.481  1.00 20.00     0.028 C 
HETATM    7  C6  UNL     1     -34.738   6.215   6.475  1.00 20.00     0.025 C 
ENDBRANCH   1   3
BRANCH   2   8
HETATM    8  C9  UNL     1     -32.128   9.129   3.478  1.00 20.00     0.094 C 
BRANCH   8   9
HETATM    9  C11 UNL     1     -32.513   9.620   2.083  1.00 20.00     0.012 C 
BRANCH   9  10
HETATM   10  C10 UNL     1     -32.697   8.453   1.113  1.00 20.00    -0.004 C 
HETATM   11  C8  UNL     1     -33.119   8.935  -0.266  1.00 20.00     0.005 C 
ENDBRANCH   9  10
ENDBRANCH   8   9
ENDBRANCH   2   8
TORSDOF 4
