REMARK  2 active torsions:
REMARK  status: ('A' for Active; 'I' for Inactive)
REMARK    1  A    between atoms: C8_8  and  C10_10 
REMARK    2  A    between atoms: C10_10  and  C11_11 
ROOT
HETATM    1  C1  UNL     1     -32.560   9.296  -0.335  1.00 20.00     0.012 C 
HETATM    2  C2  UNL     1     -32.345   8.541   0.573  1.00 20.00    -0.113 C 
HETATM    3  C3  UNL     1     -32.677   8.116   3.033  1.00 20.00     0.017 C 
HETATM    4  C4  UNL     1     -32.612   6.181   1.410  1.00 20.00     0.017 C 
HETATM    5  C5  UNL     1     -32.458   7.150   4.199  1.00 20.00     0.006 C 
HETATM    6  C6  UNL     1     -32.393   5.211   2.572  1.00 20.00     0.006 C 
HETATM    7  C7  UNL     1     -32.072   7.581   1.730  1.00 20.00     0.064 C 
HETATM    8  C8  UNL     1     -32.954   5.729   3.902  1.00 20.00    -0.014 C 
ENDROOT
BRANCH   8   9
HETATM    9  C10 UNL     1     -34.429   5.671   3.912  1.00 20.00     0.004 C 
BRANCH   9  10
HETATM   10  C11 UNL     1     -34.986   6.049   5.280  1.00 20.00    -0.004 C 
HETATM   11  C9  UNL     1     -34.500   5.091   6.356  1.00 20.00     0.005 C 
ENDBRANCH   9  10
ENDBRANCH   8   9
TORSDOF 2
