REMARK  0 active torsions:
REMARK  status: ('A' for Active; 'I' for Inactive)
ROOT
HETATM    1  C1  UNL     1     -32.475   4.933   2.460  1.00 20.00     0.001 C 
HETATM    2  C2  UNL     1     -34.789   5.583   6.784  1.00 20.00     0.001 C 
HETATM    3  C3  UNL     1     -33.652   4.508   3.347  1.00 20.00     0.005 C 
HETATM    4  C4  UNL     1     -34.771   4.590   5.632  1.00 20.00     0.005 C 
HETATM    5  C5  UNL     1     -32.450   6.424   2.116  1.00 20.00     0.005 C 
HETATM    6  C6  UNL     1     -34.518   6.938   6.134  1.00 20.00     0.005 C 
HETATM    7  C7  UNL     1     -32.531   8.559   3.614  1.00 20.00     0.010 A 
HETATM    8  C8  UNL     1     -33.642   5.120   4.750  1.00 20.00    -0.010 C 
HETATM    9  C9  UNL     1     -31.883   7.254   3.228  1.00 20.00    -0.010 A 
HETATM   10  C10 UNL     1     -33.880   6.640   4.766  1.00 20.00    -0.006 C 
HETATM   11  C11 UNL     1     -32.597   7.382   4.551  1.00 20.00    -0.006 A 
ENDROOT
TORSDOF 0
