REMARK  0 active torsions:
REMARK  status: ('A' for Active; 'I' for Inactive)
ROOT
HETATM    1  C1  UNL     1     -33.421   5.321   5.793  1.00 20.00     0.005 C 
HETATM    2  C2  UNL     1     -35.473   5.910   4.492  1.00 20.00     0.005 C 
HETATM    3  C3  UNL     1     -33.359   6.754   6.342  1.00 20.00     0.011 C 
HETATM    4  C4  UNL     1     -35.409   7.343   5.042  1.00 20.00     0.011 C 
HETATM    5  C5  UNL     1     -33.212   6.195   3.457  1.00 20.00     0.084 C 
HETATM    6  C6  UNL     1     -34.059   5.311   4.392  1.00 20.00    -0.009 C 
HETATM    7  C7  UNL     1     -33.948   7.739   5.318  1.00 20.00     0.058 C 
HETATM    8  C8  UNL     1     -33.155   7.618   4.012  1.00 20.00     0.247 C 
HETATM    9  F9  UNL     1     -31.863   7.975   4.224  1.00 20.00    -0.206 F 
HETATM   10  F10 UNL     1     -33.644   8.488   3.093  1.00 20.00    -0.206 F 
ENDROOT
TORSDOF 0
