REMARK  2 active torsions:
REMARK  status: ('A' for Active; 'I' for Inactive)
REMARK    1  A    between atoms: C6_6  and  C10_10 
REMARK    2  A    between atoms: C7_7  and  C11_11 
ROOT
HETATM    1  C1  UNL     1     -34.040   4.805   5.978  1.00 20.00    -0.025 C 
HETATM    2  C2  UNL     1     -34.206   4.450   4.695  1.00 20.00    -0.025 C 
HETATM    3  C3  UNL     1     -35.458   6.358   5.033  1.00 20.00     0.017 C 
HETATM    4  C4  UNL     1     -34.335   6.285   6.075  1.00 20.00     0.013 C 
HETATM    5  C5  UNL     1     -34.617   5.690   3.937  1.00 20.00     0.013 C 
HETATM    6  C6  UNL     1     -33.168   7.028   5.365  1.00 20.00    -0.002 C 
HETATM    7  C7  UNL     1     -33.430   6.689   3.855  1.00 20.00    -0.002 C 
ENDROOT
BRANCH   6   8
HETATM    8  C10 UNL     1     -33.188   8.531   5.627  1.00 20.00     0.001 C 
HETATM    9  C8  UNL     1     -32.095   9.235   4.889  1.00 20.00     0.005 C 
ENDBRANCH   6   8
BRANCH   7  10
HETATM   10  C11 UNL     1     -32.199   6.153   3.138  1.00 20.00     0.001 C 
HETATM   11  C9  UNL     1     -32.494   5.797   1.716  1.00 20.00     0.005 C 
ENDBRANCH   7  10
TORSDOF 2
