REMARK  1 active torsions:
REMARK  status: ('A' for Active; 'I' for Inactive)
REMARK    1  A    between atoms: C9_9  and  C10_10 
ROOT
HETATM    1  C1  UNL     1     -34.455   4.440   5.084  1.00 20.00     0.001 A 
HETATM    2  C2  UNL     1     -34.507   5.375   6.213  1.00 20.00     0.001 A 
HETATM    3  C3  UNL     1     -33.866   4.760   3.913  1.00 20.00     0.012 A 
HETATM    4  C4  UNL     1     -33.969   6.611   6.147  1.00 20.00     0.012 A 
HETATM    5  C5  UNL     1     -32.639   6.646   2.760  1.00 20.00     0.009 A 
HETATM    6  C6  UNL     1     -32.723   8.151   4.575  1.00 20.00     0.009 A 
HETATM    7  C7  UNL     1     -33.274   6.071   3.791  1.00 20.00    -0.028 A 
HETATM    8  C8  UNL     1     -33.326   7.002   4.915  1.00 20.00    -0.028 A 
HETATM    9  C10 UNL     1     -32.205   8.035   3.161  1.00 20.00     0.082 A 
HETATM   10  C11 UNL     1     -30.704   8.245   3.057  1.00 20.00     0.035 C 
ENDROOT
BRANCH   9  11
HETATM   11  C9  UNL     1     -32.949   9.033   2.300  1.00 20.00     0.189 C 
HETATM   12  O12 UNL     1     -32.375   9.349   1.222  1.00 20.00    -0.647 OA
HETATM   13  O13 UNL     1     -34.054   9.422   2.774  1.00 20.00    -0.647 OA
ENDBRANCH   9  11
TORSDOF 1
