REMARK  1 active torsions:
REMARK  status: ('A' for Active; 'I' for Inactive)
REMARK    1  A    between atoms: C1_1  and  C5_5 
ROOT
HETATM    1  C1  UNL     1     -33.323   7.461   3.067  1.00 20.00    -0.097 C 
HETATM    2  C2  UNL     1     -32.955   7.855   1.994  1.00 20.00    -0.110 C 
HETATM    3  C7  UNL     1     -32.506   8.334   0.688  1.00 20.00     0.112 C 
ENDROOT
BRANCH   1   4
HETATM    4  C5  UNL     1     -33.771   6.981   4.373  1.00 20.00     0.027 C 
HETATM    5  C3  UNL     1     -35.280   7.278   4.641  1.00 20.00     0.024 C 
HETATM    6  C4  UNL     1     -35.621   5.868   4.121  1.00 20.00     0.012 C 
HETATM    7  C6  UNL     1     -34.158   5.433   4.434  1.00 20.00    -0.029 C 
HETATM    8  C9  UNL     1     -33.555   4.521   3.362  1.00 20.00     0.016 C 
HETATM    9  C10 UNL     1     -34.041   4.758   5.809  1.00 20.00     0.016 C 
HETATM   10  C8  UNL     1     -32.837   7.516   5.456  1.00 20.00     0.030 C 
ENDBRANCH   1   4
TORSDOF 1
