REMARK  0 active torsions:
REMARK  status: ('A' for Active; 'I' for Inactive)
ROOT
HETATM    1  C1  UNL     1     -33.644   6.583   6.643  1.00 20.00    -0.011 A 
HETATM    2  C2  UNL     1     -33.484   7.034   5.389  1.00 20.00    -0.011 A 
HETATM    3  C3  UNL     1     -34.187   5.175   6.597  1.00 20.00     0.033 A 
HETATM    4  C4  UNL     1     -35.272   5.584   4.222  1.00 20.00     0.016 A 
HETATM    5  C5  UNL     1     -33.854   6.067   4.346  1.00 20.00     0.030 A 
HETATM    6  C6  UNL     1     -34.318   4.847   5.122  1.00 20.00    -0.002 A 
HETATM    7 BR7  UNL     1     -32.877   8.697   4.886  1.00 20.00    -0.056 Br
ENDROOT
TORSDOF 0
