REMARK  1 active torsions:
REMARK  status: ('A' for Active; 'I' for Inactive)
REMARK    1  A    between atoms: C3_3  and  C8_8 
ROOT
HETATM    1  C1  UNL     1     -31.845   8.408   4.380  1.00 20.00    -0.025 C 
HETATM    2  C2  UNL     1     -32.908   8.815   5.087  1.00 20.00    -0.024 C 
HETATM    3  C4  UNL     1     -33.600   8.606   2.904  1.00 20.00     0.018 C 
HETATM    4  C5  UNL     1     -32.369   7.726   3.138  1.00 20.00     0.013 C 
HETATM    5  C6  UNL     1     -34.146   8.393   4.323  1.00 20.00     0.024 C 
HETATM    6  C7  UNL     1     -33.005   6.371   3.572  1.00 20.00     0.004 C 
HETATM    7  C8  UNL     1     -34.287   6.838   4.371  1.00 20.00     0.020 C 
HETATM    8  C9  UNL     1     -33.259   5.461   2.373  1.00 20.00     0.012 C 
HETATM    9  C10 UNL     1     -35.634   6.383   3.796  1.00 20.00     0.024 C 
ENDROOT
BRANCH   7  10
HETATM   10  C3  UNL     1     -34.246   6.327   5.789  1.00 20.00     0.241 C 
HETATM   11  O11 UNL     1     -33.402   5.537   6.199  1.00 20.00    -0.306 OA
ENDBRANCH   7  10
TORSDOF 1
