REMARK  1 active torsions:
REMARK  status: ('A' for Active; 'I' for Inactive)
REMARK    1  A    between atoms: C6_6  and  C10_10 
ROOT
HETATM    1  C1  UNL     1     -32.894   6.019   3.531  1.00 20.00     0.142 A 
HETATM    2  C2  UNL     1     -32.562   9.108   4.370  1.00 20.00     0.006 C 
HETATM    3  C3  UNL     1     -32.508   7.874   5.280  1.00 20.00     0.019 C 
HETATM    4  C4  UNL     1     -33.482   7.276   3.127  1.00 20.00     0.076 A 
HETATM    5  C5  UNL     1     -32.673   8.538   2.945  1.00 20.00    -0.006 C 
HETATM    6  C6  UNL     1     -33.412   6.873   4.589  1.00 20.00     0.034 A 
HETATM    7  C7  UNL     1     -33.313   9.522   1.979  1.00 20.00     0.011 C 
HETATM    8  O11 UNL     1     -33.113   4.868   3.214  1.00 20.00    -0.297 OA
ENDROOT
BRANCH   6   9
HETATM    9  C10 UNL     1     -34.685   6.538   5.308  1.00 20.00    -0.006 C 
HETATM   10  C8  UNL     1     -35.672   5.797   4.391  1.00 20.00     0.011 C 
HETATM   11  C9  UNL     1     -34.418   5.694   6.564  1.00 20.00     0.011 C 
ENDBRANCH   6   9
TORSDOF 1
