REMARK  0 active torsions:
REMARK  status: ('A' for Active; 'I' for Inactive)
ROOT
HETATM    1  C1  UNL     1     -32.672   7.141   3.786  1.00 20.00     0.129 C 
HETATM    2  C2  UNL     1     -33.439   6.056   3.957  1.00 20.00     0.136 C 
HETATM    3  C3  UNL     1     -32.675   8.313   4.717  1.00 20.00     0.073 C 
HETATM    4  C4  UNL     1     -33.863   8.313   5.679  1.00 20.00     0.008 C 
HETATM    5  C5  UNL     1     -34.116   6.913   6.240  1.00 20.00     0.016 C 
HETATM    6  C6  UNL     1     -34.384   5.868   5.126  1.00 20.00     0.009 C 
HETATM    7  C7  UNL     1     -35.828   5.998   4.608  1.00 20.00     0.022 C 
HETATM    8  C8  UNL     1     -34.198   4.460   5.717  1.00 20.00     0.022 C 
HETATM    9  F9  UNL     1     -31.863   7.189   2.703  1.00 20.00    -0.208 F 
HETATM   10  F10 UNL     1     -33.359   5.073   3.030  1.00 20.00    -0.207 F 
ENDROOT
TORSDOF 0
