REMARK  1 active torsions:
REMARK  status: ('A' for Active; 'I' for Inactive)
REMARK    1  A    between atoms: C5_5  and  C6_6 
ROOT
HETATM    1  C1  UNL     1     -34.648   6.288   3.977  1.00 20.00     0.024 A 
HETATM    2  C2  UNL     1     -34.279   4.290   5.633  1.00 20.00     0.275 C 
HETATM    3  C3  UNL     1     -34.512   6.458   6.582  1.00 20.00     0.285 C 
HETATM    4  C4  UNL     1     -33.754   5.271   4.639  1.00 20.00     0.030 A 
HETATM    5  C5  UNL     1     -33.871   6.627   5.232  1.00 20.00     0.051 A 
HETATM    6  N7  UNL     1     -35.057   5.084   6.605  1.00 20.00     0.084 N 
HETATM    7  H18 UNL     1     -36.022   5.126   6.274  1.00 20.00     0.315 HD
ENDROOT
BRANCH   5   8
HETATM    8  C6  UNL     1     -32.736   7.596   5.135  1.00 20.00     0.363 C 
HETATM    9  F8  UNL     1     -33.193   8.865   5.307  1.00 20.00    -0.214 F 
HETATM   10  F9  UNL     1     -32.191   7.550   3.890  1.00 20.00    -0.214 F 
ENDBRANCH   5   8
TORSDOF 1
