REMARK  2 active torsions:
REMARK  status: ('A' for Active; 'I' for Inactive)
REMARK    1  A    between atoms: C1_1  and  C6_6 
REMARK    2  A    between atoms: C2_2  and  C8_8 
ROOT
HETATM    1  C1  UNL     1     -32.927   8.139   3.267  1.00 20.00    -0.100 C 
HETATM    2  C2  UNL     1     -33.427   7.214   3.847  1.00 20.00    -0.088 C 
ENDROOT
BRANCH   1   3
HETATM    3  C6  UNL     1     -32.330   9.243   2.575  1.00 20.00     0.069 A 
HETATM    4  C5  UNL     1     -33.230  10.282   1.955  1.00 20.00     0.023 A 
HETATM    5  C7  UNL     1     -32.435   9.361   1.072  1.00 20.00    -0.002 A 
HETATM    6  C9  UNL     1     -33.134   8.347   0.230  1.00 20.00     0.011 C 
ENDBRANCH   1   3
BRANCH   2   7
HETATM    7  C8  UNL     1     -34.035   6.088   4.553  1.00 20.00     0.055 A 
HETATM    8  C3  UNL     1     -35.138   6.271   5.482  1.00 20.00    -0.003 A 
HETATM    9  C4  UNL     1     -33.953   5.955   5.999  1.00 20.00    -0.003 A 
HETATM   10  C10 UNL     1     -34.020   4.819   3.742  1.00 20.00     0.038 C 
ENDBRANCH   2   7
TORSDOF 2
