REMARK  0 active torsions:
REMARK  status: ('A' for Active; 'I' for Inactive)
ROOT
HETATM    1  C1  UNL     1     -33.438   8.849   5.344  1.00 20.00     0.013 C 
HETATM    2  C2  UNL     1     -33.548   7.768   4.834  1.00 20.00    -0.104 C 
HETATM    3  C3  UNL     1     -35.075   5.888   4.137  1.00 20.00     0.069 A 
HETATM    4  C4  UNL     1     -33.680   6.468   4.221  1.00 20.00     0.057 A 
HETATM    5  C5  UNL     1     -34.083   5.286   5.099  1.00 20.00     0.133 A 
HETATM    6  C6  UNL     1     -32.767   6.260   3.039  1.00 20.00     0.032 C 
HETATM    7 CL7  UNL     1     -33.476   3.667   4.745  1.00 20.00    -0.100 Cl
HETATM    8 CL8  UNL     1     -34.390   5.520   6.825  1.00 20.00    -0.100 Cl
ENDROOT
TORSDOF 0
