REMARK  0 active torsions:
REMARK  status: ('A' for Active; 'I' for Inactive)
ROOT
HETATM    1  C1  UNL     1     -34.470   4.437   6.581  1.00 20.00     0.013 C 
HETATM    2  C2  UNL     1     -34.385   5.101   5.584  1.00 20.00    -0.103 C 
HETATM    3  C3  UNL     1     -32.434   6.970   2.381  1.00 20.00    -0.004 C 
HETATM    4  C4  UNL     1     -32.560   7.607   3.667  1.00 20.00     0.004 C 
HETATM    5  C5  UNL     1     -32.952   5.756   2.157  1.00 20.00    -0.025 C 
HETATM    6  C6  UNL     1     -33.408   7.158   4.613  1.00 20.00    -0.063 C 
HETATM    7  C7  UNL     1     -33.698   5.012   3.227  1.00 20.00     0.054 C 
HETATM    8  C8  UNL     1     -34.281   5.922   4.356  1.00 20.00     0.045 C 
HETATM    9  C9  UNL     1     -33.545   7.900   5.917  1.00 20.00     0.045 C 
HETATM   10  C10 UNL     1     -35.694   6.391   3.954  1.00 20.00     0.034 C 
ENDROOT
TORSDOF 0
