REMARK  1 active torsions:
REMARK  status: ('A' for Active; 'I' for Inactive)
REMARK    1  A    between atoms: C3_3  and  C6_6 
ROOT
HETATM    1  C1  UNL     1     -33.039  10.136   1.583  1.00 20.00     0.013 C 
HETATM    2  C2  UNL     1     -32.873   9.359   2.482  1.00 20.00    -0.107 C 
HETATM    3  C5  UNL     1     -32.180   7.042   3.201  1.00 20.00     0.033 A 
HETATM    4  C6  UNL     1     -33.616   7.231   3.608  1.00 20.00     0.030 A 
HETATM    5  C7  UNL     1     -32.673   8.425   3.563  1.00 20.00     0.027 A 
HETATM    6  C10 UNL     1     -32.153   9.042   4.835  1.00 20.00     0.030 C 
ENDROOT
BRANCH   4   7
HETATM    7  C3  UNL     1     -34.069   6.682   4.878  1.00 20.00    -0.018 C 
HETATM    8  C4  UNL     1     -34.443   5.415   5.142  1.00 20.00    -0.091 C 
HETATM    9  C8  UNL     1     -34.888   5.006   6.518  1.00 20.00     0.042 C 
HETATM   10  C9  UNL     1     -34.452   4.316   4.117  1.00 20.00     0.042 C 
ENDBRANCH   4   7
TORSDOF 1
