REMARK  0 active torsions:
REMARK  status: ('A' for Active; 'I' for Inactive)
ROOT
HETATM    1  C1  UNL     1     -31.916   8.547   2.709  1.00 20.00     0.001 C 
HETATM    2  C2  UNL     1     -32.179   7.132   2.176  1.00 20.00     0.005 C 
HETATM    3  C3  UNL     1     -32.586   8.631   4.087  1.00 20.00     0.005 C 
HETATM    4  C4  UNL     1     -33.378   5.062   3.167  1.00 20.00     0.011 C 
HETATM    5  C5  UNL     1     -33.959   4.595   4.512  1.00 20.00     0.079 C 
HETATM    6  C6  UNL     1     -34.010   6.966   5.472  1.00 20.00     0.084 C 
HETATM    7  C7  UNL     1     -33.269   6.583   3.087  1.00 20.00    -0.010 C 
HETATM    8  C8  UNL     1     -32.907   7.185   4.440  1.00 20.00    -0.005 C 
HETATM    9  C9  UNL     1     -34.782   5.672   5.208  1.00 20.00     0.244 C 
HETATM   10  F10 UNL     1     -35.271   5.192   6.379  1.00 20.00    -0.206 F 
HETATM   11  F11 UNL     1     -35.866   5.954   4.434  1.00 20.00    -0.206 F 
ENDROOT
TORSDOF 0
