REMARK  1 active torsions:
REMARK  status: ('A' for Active; 'I' for Inactive)
REMARK    1  A    between atoms: C4_4  and  C7_7 
ROOT
HETATM    1  C1  UNL     1     -32.962  10.090   1.320  1.00 20.00     0.014 C 
HETATM    2  C2  UNL     1     -32.863   9.417   2.309  1.00 20.00    -0.091 C 
HETATM    3  C3  UNL     1     -32.158   7.226   3.359  1.00 20.00     0.046 A 
HETATM    4  C4  UNL     1     -33.631   7.390   3.615  1.00 20.00     0.024 A 
HETATM    5  C5  UNL     1     -32.745   8.613   3.491  1.00 20.00     0.103 A 
HETATM    6 CL8  UNL     1     -32.319   9.540   4.932  1.00 20.00    -0.105 Cl
ENDROOT
BRANCH   4   7
HETATM    7  C7  UNL     1     -34.215   6.941   4.912  1.00 20.00     0.003 C 
HETATM    8  C6  UNL     1     -34.489   5.460   4.951  1.00 20.00     0.005 C 
ENDBRANCH   4   7
TORSDOF 1
