REMARK  2 active torsions:
REMARK  status: ('A' for Active; 'I' for Inactive)
REMARK    1  A    between atoms: C4_4  and  C10_10 
REMARK    2  A    between atoms: C5_5  and  C11_11 
ROOT
HETATM    1  C1  UNL     1     -33.949   8.133   5.293  1.00 20.00     0.004 A 
HETATM    2  C2  UNL     1     -33.152   8.957   4.599  1.00 20.00    -0.017 A 
HETATM    3  C3  UNL     1     -33.154   6.844   3.596  1.00 20.00    -0.011 A 
HETATM    4  C4  UNL     1     -33.952   6.828   4.675  1.00 20.00    -0.058 A 
HETATM    5  C5  UNL     1     -32.553   8.217   3.431  1.00 20.00     0.034 A 
ENDROOT
BRANCH   4   6
HETATM    6  C10 UNL     1     -34.740   5.694   5.216  1.00 20.00     0.010 C 
HETATM    7  C6  UNL     1     -34.579   4.451   4.337  1.00 20.00     0.015 C 
HETATM    8  C7  UNL     1     -34.344   5.378   6.661  1.00 20.00     0.015 C 
ENDBRANCH   4   6
BRANCH   5   9
HETATM    9  C11 UNL     1     -32.921   8.851   2.096  1.00 20.00    -0.012 C 
HETATM   10  C8  UNL     1     -32.453  10.305   2.040  1.00 20.00     0.010 C 
HETATM   11  C9  UNL     1     -32.325   8.054   0.936  1.00 20.00     0.010 C 
ENDBRANCH   5   9
TORSDOF 2
