REMARK  1 active torsions:
REMARK  status: ('A' for Active; 'I' for Inactive)
REMARK    1  A    between atoms: C1_1  and  C5_5 
ROOT
HETATM    1  C2  UNL     1     -32.760   5.741   6.433  1.00 20.00     0.006 C 
HETATM    2  C3  UNL     1     -33.157   4.424   5.754  1.00 20.00     0.006 C 
HETATM    3  C4  UNL     1     -35.110   5.455   6.564  1.00 20.00     0.011 C 
HETATM    4  C5  UNL     1     -34.408   7.072   4.984  1.00 20.00     0.084 C 
HETATM    5  C6  UNL     1     -34.064   6.563   6.403  1.00 20.00    -0.001 C 
HETATM    6  C7  UNL     1     -34.613   4.685   5.330  1.00 20.00    -0.006 C 
HETATM    7  C8  UNL     1     -34.701   5.759   4.193  1.00 20.00    -0.032 C 
HETATM    8  C9  UNL     1     -36.130   5.798   3.612  1.00 20.00     0.016 C 
HETATM    9  C10 UNL     1     -33.744   5.476   3.024  1.00 20.00     0.016 C 
ENDROOT
BRANCH   4  10
HETATM   10  C1  UNL     1     -33.359   7.983   4.422  1.00 20.00     0.224 C 
HETATM   11  O11 UNL     1     -32.789   7.735   3.364  1.00 20.00    -0.279 OA
HETATM   12 CL12 UNL     1     -33.085   9.368   5.436  1.00 20.00    -0.043 Cl
ENDBRANCH   4  10
TORSDOF 1
