REMARK  1 active torsions:
REMARK  status: ('A' for Active; 'I' for Inactive)
REMARK    1  A    between atoms: C6_6  and  C10_10 
ROOT
HETATM    1  C1  UNL     1     -34.109   7.213   5.786  1.00 20.00     0.142 A 
HETATM    2  C2  UNL     1     -32.871   8.705   3.218  1.00 20.00     0.006 C 
HETATM    3  C3  UNL     1     -34.304   8.194   3.415  1.00 20.00     0.019 C 
HETATM    4  C4  UNL     1     -32.839   7.206   5.096  1.00 20.00     0.076 A 
HETATM    5  C5  UNL     1     -32.148   8.430   4.550  1.00 20.00    -0.006 C 
HETATM    6  C6  UNL     1     -34.146   7.012   4.347  1.00 20.00     0.034 A 
HETATM    7  C7  UNL     1     -32.222   9.613   5.508  1.00 20.00     0.011 C 
HETATM    8  O11 UNL     1     -34.542   6.576   6.724  1.00 20.00    -0.297 OA
ENDROOT
BRANCH   6   9
HETATM    9  C10 UNL     1     -34.448   5.667   3.755  1.00 20.00    -0.006 C 
HETATM   10  C8  UNL     1     -33.303   5.176   2.856  1.00 20.00     0.011 C 
HETATM   11  C9  UNL     1     -34.729   4.622   4.846  1.00 20.00     0.011 C 
ENDBRANCH   6   9
TORSDOF 1
