REMARK  0 active torsions:
REMARK  status: ('A' for Active; 'I' for Inactive)
ROOT
HETATM    1  C1  UNL     1     -32.407   5.155   2.319  1.00 20.00     0.013 C 
HETATM    2  C2  UNL     1     -33.111   5.696   3.127  1.00 20.00    -0.106 C 
HETATM    3  C3  UNL     1     -35.324   5.742   4.339  1.00 20.00     0.041 A 
HETATM    4  C4  UNL     1     -34.243   5.556   5.366  1.00 20.00     0.079 A 
HETATM    5  C5  UNL     1     -33.958   6.345   4.098  1.00 20.00     0.033 A 
HETATM    6  C6  UNL     1     -33.841   7.846   4.118  1.00 20.00     0.030 C 
HETATM    7 BR7  UNL     1     -34.439   6.425   7.055  1.00 20.00    -0.089 Br
ENDROOT
TORSDOF 0
