REMARK  0 active torsions:
REMARK  status: ('A' for Active; 'I' for Inactive)
ROOT
HETATM    1  C1  UNL     1     -34.185   6.002   5.736  1.00 20.00    -0.087 C 
HETATM    2  C2  UNL     1     -34.669   4.938   6.377  1.00 20.00     0.014 C 
HETATM    3  C3  UNL     1     -33.142   7.039   6.091  1.00 20.00     0.049 C 
HETATM    4  C4  UNL     1     -34.467   6.612   4.380  1.00 20.00     0.049 C 
HETATM    5  C5  UNL     1     -33.838   7.888   4.997  1.00 20.00     0.065 C 
HETATM    6 BR6  UNL     1     -32.648   8.877   3.829  1.00 20.00    -0.091 Br
ENDROOT
TORSDOF 0
