REMARK  1 active torsions:
REMARK  status: ('A' for Active; 'I' for Inactive)
REMARK    1  A    between atoms: C3_3  and  C6_6 
ROOT
HETATM    1  C1  UNL     1     -33.246   9.549   1.669  1.00 20.00     0.013 C 
HETATM    2  C2  UNL     1     -32.942   9.078   2.730  1.00 20.00    -0.107 C 
HETATM    3  C5  UNL     1     -32.660   9.415   5.214  1.00 20.00     0.033 A 
HETATM    4  C6  UNL     1     -33.701   8.345   5.019  1.00 20.00     0.030 A 
HETATM    5  C7  UNL     1     -32.577   8.511   4.005  1.00 20.00     0.027 A 
HETATM    6  C10 UNL     1     -31.442   7.522   3.948  1.00 20.00     0.030 C 
ENDROOT
BRANCH   4   7
HETATM    7  C3  UNL     1     -33.727   7.210   5.929  1.00 20.00    -0.018 C 
HETATM    8  C4  UNL     1     -34.264   5.994   5.715  1.00 20.00    -0.091 C 
HETATM    9  C8  UNL     1     -34.207   4.921   6.766  1.00 20.00     0.042 C 
HETATM   10  C9  UNL     1     -34.956   5.599   4.441  1.00 20.00     0.042 C 
ENDBRANCH   4   7
TORSDOF 1
