REMARK  1 active torsions:
REMARK  status: ('A' for Active; 'I' for Inactive)
REMARK    1  A    between atoms: C4_4  and  C6_6 
ROOT
HETATM    1  C1  UNL     1     -33.106   9.856   1.651  1.00 20.00     0.012 C 
HETATM    2  C2  UNL     1     -32.850   8.830   2.218  1.00 20.00    -0.109 C 
HETATM    3  C3  UNL     1     -33.472   7.396   4.083  1.00 20.00    -0.003 C 
HETATM    4  C4  UNL     1     -34.081   6.235   4.381  1.00 20.00    -0.061 C 
HETATM    5  C7  UNL     1     -33.854   4.978   3.578  1.00 20.00     0.038 C 
HETATM    6  C8  UNL     1     -32.632   5.062   2.661  1.00 20.00     0.006 C 
HETATM    7  C9  UNL     1     -32.590   6.397   1.926  1.00 20.00     0.021 C 
HETATM    8  C10 UNL     1     -32.536   7.571   2.915  1.00 20.00     0.087 C 
ENDROOT
BRANCH   4   9
HETATM    9  C6  UNL     1     -34.982   6.125   5.502  1.00 20.00    -0.004 C 
HETATM   10  C5  UNL     1     -34.685   6.750   6.653  1.00 20.00     0.012 C 
ENDBRANCH   4   9
TORSDOF 1
