REMARK  0 active torsions:
REMARK  status: ('A' for Active; 'I' for Inactive)
ROOT
HETATM    1  C1  UNL     1     -32.645   6.460   2.882  1.00 20.00     0.022 A 
HETATM    2  C2  UNL     1     -33.234   8.221   4.581  1.00 20.00     0.022 A 
HETATM    3  C3  UNL     1     -33.610   5.668   3.373  1.00 20.00     0.054 A 
HETATM    4  C4  UNL     1     -34.198   7.426   5.068  1.00 20.00     0.054 A 
HETATM    5  C5  UNL     1     -32.328   7.825   3.441  1.00 20.00     0.135 A 
HETATM    6  C6  UNL     1     -34.482   6.055   4.530  1.00 20.00     0.280 A 
HETATM    7  C7  UNL     1     -30.870   7.872   3.898  1.00 20.00     0.061 C 
HETATM    8  F8  UNL     1     -32.461   8.747   2.440  1.00 20.00    -0.234 F 
HETATM    9  F9  UNL     1     -34.341   5.138   5.529  1.00 20.00    -0.197 F 
HETATM   10  F10 UNL     1     -35.790   5.982   4.152  1.00 20.00    -0.197 F 
ENDROOT
TORSDOF 0
