REMARK  0 active torsions:
REMARK  status: ('A' for Active; 'I' for Inactive)
ROOT
HETATM    1  C1  UNL     1     -33.315   7.140   5.790  1.00 20.00    -0.007 A 
HETATM    2  C2  UNL     1     -33.377   6.984   4.459  1.00 20.00    -0.014 A 
HETATM    3  C3  UNL     1     -34.325   5.867   4.106  1.00 20.00     0.051 A 
HETATM    4  C4  UNL     1     -33.942   4.723   6.458  1.00 20.00     0.014 A 
HETATM    5  C5  UNL     1     -34.181   6.205   6.526  1.00 20.00     0.014 A 
HETATM    6  C6  UNL     1     -34.846   5.371   5.444  1.00 20.00    -0.002 A 
HETATM    7 BR7  UNL     1     -32.484   7.911   3.154  1.00 20.00    -0.056 Br
ENDROOT
TORSDOF 0
