REMARK  0 active torsions:
REMARK  status: ('A' for Active; 'I' for Inactive)
ROOT
HETATM    1  C1  UNL     1     -33.258   8.620   4.175  1.00 20.00     0.014 C 
HETATM    2  C2  UNL     1     -33.798   7.621   4.563  1.00 20.00    -0.090 C 
HETATM    3  C3  UNL     1     -33.841   3.822   4.524  1.00 20.00     0.013 A 
HETATM    4  C4  UNL     1     -33.347   4.617   3.313  1.00 20.00     0.013 A 
HETATM    5  C5  UNL     1     -35.593   5.852   4.176  1.00 20.00     0.052 A 
HETATM    6  C6  UNL     1     -34.441   6.428   5.025  1.00 20.00     0.107 A 
HETATM    7  C7  UNL     1     -34.297   5.187   4.267  1.00 20.00    -0.005 A 
HETATM    8 CL8  UNL     1     -34.615   6.328   6.776  1.00 20.00    -0.104 Cl
ENDROOT
TORSDOF 0
