REMARK  1 active torsions:
REMARK  status: ('A' for Active; 'I' for Inactive)
REMARK    1  A    between atoms: C4_4  and  C6_6 
ROOT
HETATM    1  C1  UNL     1     -33.879   8.187   3.167  1.00 20.00     0.062 C 
HETATM    2  C2  UNL     1     -32.000   7.826   4.099  1.00 20.00     0.062 C 
HETATM    3  C3  UNL     1     -32.989   6.257   3.056  1.00 20.00     0.062 C 
HETATM    4  C4  UNL     1     -33.425   7.159   4.283  1.00 20.00     0.067 C 
HETATM    5  C5  UNL     1     -32.514   7.673   2.646  1.00 20.00     0.106 C 
HETATM    6  F7  UNL     1     -31.893   8.023   1.531  1.00 20.00    -0.243 F 
ENDROOT
BRANCH   4   7
HETATM    7  C6  UNL     1     -34.118   6.768   5.530  1.00 20.00     0.395 C 
HETATM    8  F8  UNL     1     -35.337   6.220   5.283  1.00 20.00    -0.170 F 
HETATM    9  F9  UNL     1     -33.409   5.850   6.239  1.00 20.00    -0.170 F 
HETATM   10  F10 UNL     1     -34.322   7.830   6.352  1.00 20.00    -0.170 F 
ENDBRANCH   4   7
TORSDOF 1
