REMARK  0 active torsions:
REMARK  status: ('A' for Active; 'I' for Inactive)
ROOT
HETATM    1  C1  UNL     1     -34.692   5.144   5.851  1.00 20.00     0.021 A 
HETATM    2  C2  UNL     1     -34.466   6.584   6.014  1.00 20.00     0.029 A 
HETATM    3  C3  UNL     1     -32.222   9.126   4.910  1.00 20.00     0.025 A 
HETATM    4  C4  UNL     1     -34.240   4.527   4.738  1.00 20.00     0.107 A 
HETATM    5  C5  UNL     1     -32.721   7.477   3.068  1.00 20.00     0.101 C 
HETATM    6  C6  UNL     1     -33.428   8.597   4.835  1.00 20.00     0.038 A 
HETATM    7  C7  UNL     1     -32.604   8.726   3.585  1.00 20.00     0.028 A 
HETATM    8  C8  UNL     1     -33.777   7.209   5.045  1.00 20.00     0.044 A 
HETATM    9  N9  UNL     1     -33.558   5.219   3.754  1.00 20.00    -0.306 N 
HETATM   10  N10 UNL     1     -33.294   6.542   3.915  1.00 20.00    -0.274 N 
HETATM   11  H16 UNL     1     -33.182   4.714   2.961  1.00 20.00     0.186 HD
ENDROOT
TORSDOF 0
