REMARK  1 active torsions:
REMARK  status: ('A' for Active; 'I' for Inactive)
REMARK    1  A    between atoms: C2_2  and  C6_6 
ROOT
HETATM    1  C3  UNL     1     -34.897   6.345   5.963  1.00 20.00     0.006 C 
HETATM    2  C4  UNL     1     -33.386   6.300   6.248  1.00 20.00     0.006 C 
HETATM    3  C5  UNL     1     -34.500   7.808   4.005  1.00 20.00     0.014 C 
HETATM    4  C6  UNL     1     -32.969   7.770   4.235  1.00 20.00     0.012 C 
HETATM    5  C7  UNL     1     -34.951   6.384   4.419  1.00 20.00    -0.006 C 
HETATM    6  C8  UNL     1     -32.768   6.344   4.828  1.00 20.00     0.001 C 
HETATM    7  C9  UNL     1     -33.763   5.485   3.997  1.00 20.00    -0.040 C 
HETATM    8  C10 UNL     1     -33.493   5.451   2.481  1.00 20.00     0.015 C 
HETATM    9  C11 UNL     1     -33.874   4.015   4.445  1.00 20.00     0.015 C 
ENDROOT
BRANCH   4  10
HETATM   10  C2  UNL     1     -32.449   8.899   5.064  1.00 20.00    -0.032 C 
HETATM   11  C1  UNL     1     -33.158   9.518   6.014  1.00 20.00     0.007 C 
ENDBRANCH   4  10
TORSDOF 1
