REMARK  1 active torsions:
REMARK  status: ('A' for Active; 'I' for Inactive)
REMARK    1  A    between atoms: C8_8  and  N9_9 
ROOT
HETATM    1  C1  UNL     1     -32.938   7.134   4.415  1.00 20.00     0.050 C 
HETATM    2  C2  UNL     1     -33.437   6.761   5.598  1.00 20.00     0.136 C 
HETATM    3  C3  UNL     1     -32.941   6.128   3.329  1.00 20.00     0.033 C 
HETATM    4  C4  UNL     1     -33.374   4.731   3.694  1.00 20.00     0.085 C 
HETATM    5  C7  UNL     1     -34.461   4.827   4.752  1.00 20.00     0.180 C 
HETATM    6  N9  UNL     1     -32.553   6.382   2.123  1.00 20.00    -0.289 NA
HETATM    7  O10 UNL     1     -34.034   5.565   5.903  1.00 20.00    -0.363 OA
ENDROOT
BRANCH   6   8
HETATM    8  C8  UNL     1     -32.105   7.750   1.911  1.00 20.00     0.108 A 
HETATM    9  C5  UNL     1     -32.197   8.311   0.521  1.00 20.00     0.029 A 
HETATM   10  C6  UNL     1     -33.146   8.783   1.584  1.00 20.00     0.029 A 
ENDBRANCH   6   8
TORSDOF 1
