REMARK  1 active torsions:
REMARK  status: ('A' for Active; 'I' for Inactive)
REMARK    1  A    between atoms: C7_7  and  C11_11 
ROOT
HETATM    1  C1  UNL     1     -33.884   7.412   5.410  1.00 20.00    -0.084 C 
HETATM    2  C2  UNL     1     -34.282   7.388   6.687  1.00 20.00     0.014 C 
HETATM    3  C3  UNL     1     -33.687   8.670   4.592  1.00 20.00     0.044 C 
HETATM    4  C4  UNL     1     -31.562   7.641   3.478  1.00 20.00     0.016 A 
HETATM    5  C5  UNL     1     -33.459   6.204   4.591  1.00 20.00     0.014 C 
HETATM    6  C6  UNL     1     -32.782   6.765   3.356  1.00 20.00     0.003 A 
HETATM    7  C7  UNL     1     -32.937   8.257   3.341  1.00 20.00    -0.029 A 
HETATM    8  C8  UNL     1     -34.658   5.338   4.210  1.00 20.00     0.015 C 
ENDROOT
BRANCH   7   9
HETATM    9  C11 UNL     1     -33.290   8.963   2.071  1.00 20.00    -0.014 C 
HETATM   10  C9  UNL     1     -33.078  10.483   2.187  1.00 20.00     0.010 C 
HETATM   11  C10 UNL     1     -32.481   8.425   0.878  1.00 20.00     0.010 C 
ENDBRANCH   7   9
TORSDOF 1
