REMARK  0 active torsions:
REMARK  status: ('A' for Active; 'I' for Inactive)
ROOT
HETATM    1  C1  UNL     1     -32.247   9.434   5.155  1.00 20.00     0.012 C 
HETATM    2  C2  UNL     1     -32.883   8.505   4.738  1.00 20.00    -0.112 C 
HETATM    3  C3  UNL     1     -35.037   4.872   4.368  1.00 20.00    -0.026 C 
HETATM    4  C4  UNL     1     -35.724   6.026   4.338  1.00 20.00    -0.024 C 
HETATM    5  C5  UNL     1     -33.932   5.464   6.490  1.00 20.00     0.009 C 
HETATM    6  C6  UNL     1     -34.735   6.786   6.455  1.00 20.00     0.010 C 
HETATM    7  C7  UNL     1     -32.856   6.039   4.312  1.00 20.00     0.026 C 
HETATM    8  C8  UNL     1     -33.663   7.365   4.226  1.00 20.00     0.072 C 
HETATM    9  C9  UNL     1     -33.688   4.962   5.050  1.00 20.00     0.009 C 
HETATM   10  C10 UNL     1     -35.009   7.198   4.986  1.00 20.00     0.023 C 
ENDROOT
TORSDOF 0
