REMARK  0 active torsions:
REMARK  status: ('A' for Active; 'I' for Inactive)
ROOT
HETATM    1  C1  UNL     1     -33.090   7.951   4.831  1.00 20.00    -0.012 C 
HETATM    2  C2  UNL     1     -33.266   7.548   6.104  1.00 20.00    -0.016 C 
HETATM    3  C3  UNL     1     -33.206   6.046   3.363  1.00 20.00    -0.010 C 
HETATM    4  C4  UNL     1     -33.480   4.596   3.703  1.00 20.00     0.014 C 
HETATM    5  C5  UNL     1     -33.891   7.014   4.055  1.00 20.00     0.051 C 
HETATM    6  C6  UNL     1     -34.250   6.455   6.130  1.00 20.00     0.034 C 
HETATM    7  C7  UNL     1     -34.980   6.496   4.975  1.00 20.00     0.224 C 
HETATM    8  C8  UNL     1     -34.317   4.408   4.778  1.00 20.00     0.216 C 
HETATM    9  C9  UNL     1     -33.806   4.973   6.185  1.00 20.00     0.066 C 
HETATM   10  N10 UNL     1     -35.463   5.228   4.629  1.00 20.00     0.115 N 
HETATM   11  H17 UNL     1     -36.281   4.923   5.149  1.00 20.00     0.318 HD
ENDROOT
TORSDOF 0
