REMARK  0 active torsions:
REMARK  status: ('A' for Active; 'I' for Inactive)
ROOT
HETATM    1  C1  UNL     1     -34.711   6.654   4.481  1.00 20.00     0.017 A 
HETATM    2  C2  UNL     1     -33.975   7.770   4.566  1.00 20.00     0.054 A 
HETATM    3  C3  UNL     1     -32.408   6.866   2.821  1.00 20.00     0.060 A 
HETATM    4  C4  UNL     1     -33.137   5.740   2.726  1.00 20.00    -0.044 A 
HETATM    5  C5  UNL     1     -34.378   5.517   3.558  1.00 20.00     0.221 A 
HETATM    6  C6  UNL     1     -32.742   7.999   3.747  1.00 20.00     0.280 A 
HETATM    7  C7  UNL     1     -32.766   4.633   1.784  1.00 20.00     0.046 C 
HETATM    8  F8  UNL     1     -34.239   4.375   4.292  1.00 20.00    -0.240 F 
HETATM    9  F9  UNL     1     -32.889   9.145   3.021  1.00 20.00    -0.197 F 
HETATM   10  F10 UNL     1     -31.685   8.229   4.577  1.00 20.00    -0.197 F 
ENDROOT
TORSDOF 0
