REMARK  0 active torsions:
REMARK  status: ('A' for Active; 'I' for Inactive)
ROOT
HETATM    1  C1  UNL     1     -31.747   8.160   4.324  1.00 20.00    -0.025 C 
HETATM    2  C2  UNL     1     -32.413   7.769   3.221  1.00 20.00    -0.025 C 
HETATM    3  C3  UNL     1     -34.235   6.442   6.730  1.00 20.00    -0.022 C 
HETATM    4  C4  UNL     1     -34.964   5.480   6.119  1.00 20.00     0.007 C 
HETATM    5  C5  UNL     1     -33.761   9.188   4.430  1.00 20.00     0.018 C 
HETATM    6  C6  UNL     1     -32.788   8.491   5.394  1.00 20.00     0.017 C 
HETATM    7  C7  UNL     1     -33.888   7.953   3.485  1.00 20.00     0.016 C 
HETATM    8  C8  UNL     1     -33.404   7.100   5.687  1.00 20.00     0.023 C 
HETATM    9  C9  UNL     1     -34.853   5.565   4.597  1.00 20.00     0.198 C 
HETATM   10  C10 UNL     1     -34.462   7.019   4.551  1.00 20.00     0.039 C 
HETATM   11  F11 UNL     1     -33.867   4.771   4.122  1.00 20.00    -0.245 F 
ENDROOT
TORSDOF 0
