REMARK  0 active torsions:
REMARK  status: ('A' for Active; 'I' for Inactive)
ROOT
HETATM    1  C1  UNL     1     -32.781   7.257   4.273  1.00 20.00    -0.059 A 
HETATM    2  C2  UNL     1     -33.354   6.106   3.866  1.00 20.00    -0.055 A 
HETATM    3  C3  UNL     1     -33.579   7.318   5.563  1.00 20.00     0.138 A 
HETATM    4  C4  UNL     1     -34.335   6.050   5.046  1.00 20.00     0.077 A 
HETATM    5  C5  UNL     1     -31.669   8.150   3.686  1.00 20.00     0.045 C 
HETATM    6  C6  UNL     1     -33.154   5.204   2.629  1.00 20.00     0.046 C 
HETATM    7  C7  UNL     1     -35.795   6.237   4.618  1.00 20.00     0.039 C 
HETATM    8 CL8  UNL     1     -34.491   8.842   5.932  1.00 20.00    -0.118 Cl
HETATM    9 CL9  UNL     1     -34.187   4.589   6.110  1.00 20.00    -0.113 Cl
ENDROOT
TORSDOF 0
