REMARK  0 active torsions:
REMARK  status: ('A' for Active; 'I' for Inactive)
ROOT
HETATM    1  C1  UNL     1     -33.310   4.902   3.119  1.00 20.00     0.001 C 
HETATM    2  C2  UNL     1     -32.097   8.855   4.726  1.00 20.00     0.001 C 
HETATM    3  C3  UNL     1     -32.702   6.295   2.990  1.00 20.00     0.005 C 
HETATM    4  C4  UNL     1     -32.761   8.767   3.345  1.00 20.00     0.005 C 
HETATM    5  C5  UNL     1     -33.446   4.457   4.570  1.00 20.00     0.005 C 
HETATM    6  C6  UNL     1     -32.873   7.896   5.638  1.00 20.00     0.005 C 
HETATM    7  C7  UNL     1     -34.711   5.618   6.530  1.00 20.00     0.010 A 
HETATM    8  C8  UNL     1     -33.605   7.479   3.386  1.00 20.00    -0.010 C 
HETATM    9  C9  UNL     1     -34.707   4.968   5.174  1.00 20.00    -0.010 A 
HETATM   10  C10 UNL     1     -34.118   7.547   4.831  1.00 20.00    -0.006 C 
HETATM   11  C11 UNL     1     -35.005   6.439   5.296  1.00 20.00    -0.006 A 
ENDROOT
TORSDOF 0
