REMARK  1 active torsions:
REMARK  status: ('A' for Active; 'I' for Inactive)
REMARK    1  A    between atoms: C6_6  and  C10_10 
ROOT
HETATM    1  C1  UNL     1     -32.391   9.975   4.099  1.00 20.00     0.017 C 
HETATM    2  C2  UNL     1     -32.723   8.831   3.952  1.00 20.00    -0.083 C 
HETATM    3  C3  UNL     1     -34.026   6.942   4.616  1.00 20.00    -0.002 C 
HETATM    4  C4  UNL     1     -33.116   7.471   3.779  1.00 20.00    -0.009 C 
HETATM    5  C7  UNL     1     -32.518   6.679   2.645  1.00 20.00     0.048 C 
HETATM    6  C8  UNL     1     -33.299   5.404   2.320  1.00 20.00     0.006 C 
HETATM    7  C9  UNL     1     -33.657   4.648   3.595  1.00 20.00     0.012 C 
HETATM    8  C10 UNL     1     -34.513   5.516   4.532  1.00 20.00     0.031 C 
ENDROOT
BRANCH   8   9
HETATM    9  C6  UNL     1     -34.583   4.877   5.886  1.00 20.00    -0.028 C 
HETATM   10  C5  UNL     1     -33.759   5.174   6.897  1.00 20.00     0.007 C 
ENDBRANCH   8   9
TORSDOF 1
