REMARK  1 active torsions:
REMARK  status: ('A' for Active; 'I' for Inactive)
REMARK    1  A    between atoms: C2_2  and  C12_12 
ROOT
HETATM    1  C1  UNL     1     -33.125   7.472   5.642  1.00 20.00    -0.023 C 
HETATM    2  C2  UNL     1     -33.741   6.649   4.770  1.00 20.00    -0.075 C 
HETATM    3  C3  UNL     1     -32.499   8.770   5.174  1.00 20.00     0.033 C 
HETATM    4  C4  UNL     1     -34.211   8.641   3.297  1.00 20.00     0.015 C 
HETATM    5  C5  UNL     1     -33.786   7.128   3.341  1.00 20.00     0.023 C 
HETATM    6  C6  UNL     1     -32.712   8.919   3.652  1.00 20.00    -0.002 C 
HETATM    7  C7  UNL     1     -32.378   7.627   2.783  1.00 20.00    -0.036 C 
HETATM    8  C8  UNL     1     -31.125   6.827   3.162  1.00 20.00     0.016 C 
HETATM    9  C9  UNL     1     -32.332   7.858   1.259  1.00 20.00     0.016 C 
ENDROOT
BRANCH   2  10
HETATM   10  C12 UNL     1     -34.369   5.344   5.120  1.00 20.00     0.006 C 
HETATM   11  C10 UNL     1     -33.732   4.209   4.319  1.00 20.00     0.014 C 
HETATM   12  C11 UNL     1     -34.265   5.067   6.620  1.00 20.00     0.014 C 
ENDBRANCH   2  10
TORSDOF 1
