REMARK  6 active torsions:
REMARK  status: ('A' for Active; 'I' for Inactive)
REMARK    1  A    between atoms: C2_2  and  C6_6 
REMARK    2  A    between atoms: C6_6  and  C11_11 
REMARK    3  A    between atoms: C7_7  and  C9_9 
REMARK    4  A    between atoms: C8_8  and  C11_11 
REMARK    5  A    between atoms: C9_9  and  C10_10 
REMARK    6  A    between atoms: C10_10  and  C11_11 
ROOT
HETATM    1  C11 UNL     1     -34.082   7.266   4.556  1.00 20.00    -0.011 C 
ENDROOT
BRANCH   1   2
HETATM    2  C6  UNL     1     -34.584   5.923   3.968  1.00 20.00     0.037 C 
BRANCH   2   3
HETATM    3  C2  UNL     1     -33.516   4.864   3.799  1.00 20.00    -0.093 C 
HETATM    4  C1  UNL     1     -32.779   4.784   2.680  1.00 20.00     0.014 C 
HETATM    5  C3  UNL     1     -33.346   3.877   4.918  1.00 20.00     0.042 C 
ENDBRANCH   2   3
ENDBRANCH   1   2
BRANCH   1   6
HETATM    6  C8  UNL     1     -33.527   7.079   5.985  1.00 20.00     0.000 C 
HETATM    7  C5  UNL     1     -34.530   6.484   6.964  1.00 20.00     0.005 C 
ENDBRANCH   1   6
BRANCH   1   8
HETATM    8  C10 UNL     1     -33.091   7.949   3.582  1.00 20.00     0.005 C 
BRANCH   8   9
HETATM    9  C9  UNL     1     -33.641   8.232   2.180  1.00 20.00     0.000 C 
BRANCH   9  10
HETATM   10  C7  UNL     1     -32.607   8.871   1.247  1.00 20.00    -0.005 C 
HETATM   11  C4  UNL     1     -33.117   9.091  -0.168  1.00 20.00     0.005 C 
ENDBRANCH   9  10
ENDBRANCH   8   9
ENDBRANCH   1   8
TORSDOF 6
