REMARK  1 active torsions:
REMARK  status: ('A' for Active; 'I' for Inactive)
REMARK    1  A    between atoms: C1_1  and  C5_5 
ROOT
HETATM    1  C1  UNL     1     -33.048   6.583   3.246  1.00 20.00    -0.097 C 
HETATM    2  C2  UNL     1     -32.459   7.322   2.505  1.00 20.00    -0.110 C 
HETATM    3  C7  UNL     1     -31.742   8.222   1.603  1.00 20.00     0.112 C 
ENDROOT
BRANCH   1   4
HETATM    4  C5  UNL     1     -33.765   5.683   4.147  1.00 20.00     0.027 C 
HETATM    5  C3  UNL     1     -35.307   5.684   3.901  1.00 20.00     0.024 C 
HETATM    6  C4  UNL     1     -35.454   6.745   5.010  1.00 20.00     0.012 C 
HETATM    7  C6  UNL     1     -34.086   6.280   5.592  1.00 20.00    -0.029 C 
HETATM    8  C9  UNL     1     -34.262   5.258   6.725  1.00 20.00     0.016 C 
HETATM    9  C10 UNL     1     -33.210   7.438   6.078  1.00 20.00     0.016 C 
HETATM   10  C8  UNL     1     -33.132   4.295   4.083  1.00 20.00     0.030 C 
ENDBRANCH   1   4
TORSDOF 1
