REMARK  0 active torsions:
REMARK  status: ('A' for Active; 'I' for Inactive)
ROOT
HETATM    1  C1  UNL     1     -33.189   8.361   5.043  1.00 20.00     0.179 C 
HETATM    2  C2  UNL     1     -33.884   5.076   6.649  1.00 20.00    -0.010 C 
HETATM    3  C3  UNL     1     -34.208   4.383   5.549  1.00 20.00    -0.023 C 
HETATM    4  C4  UNL     1     -33.752   6.568   6.681  1.00 20.00     0.161 C 
HETATM    5  C5  UNL     1     -34.785   6.550   4.420  1.00 20.00     0.143 C 
HETATM    6  C6  UNL     1     -34.514   5.050   4.235  1.00 20.00     0.022 C 
HETATM    7  C7  UNL     1     -33.378   4.800   3.243  1.00 20.00     0.016 C 
HETATM    8  N8  UNL     1     -32.719   9.398   4.821  1.00 20.00    -0.172 NA
HETATM    9  N9  UNL     1     -33.735   7.154   5.300  1.00 20.00    -0.316 N 
ENDROOT
TORSDOF 0
