REMARK  0 active torsions:
REMARK  status: ('A' for Active; 'I' for Inactive)
ROOT
HETATM    1  C1  UNL     1     -32.928   5.911   2.585  1.00 20.00     0.019 A 
HETATM    2  C2  UNL     1     -33.844   5.271   3.326  1.00 20.00     0.054 A 
HETATM    3  C3  UNL     1     -33.876   7.193   4.946  1.00 20.00     0.096 A 
HETATM    4  C4  UNL     1     -32.960   7.831   4.205  1.00 20.00     0.133 A 
HETATM    5  C5  UNL     1     -32.383   7.263   2.943  1.00 20.00     0.254 A 
HETATM    6  C6  UNL     1     -34.420   5.840   4.589  1.00 20.00     0.282 A 
HETATM    7  F7  UNL     1     -32.535   9.048   4.614  1.00 20.00    -0.207 F 
HETATM    8  F8  UNL     1     -32.608   8.129   1.913  1.00 20.00    -0.238 F 
HETATM    9  F9  UNL     1     -35.777   5.916   4.473  1.00 20.00    -0.197 F 
HETATM   10  F10 UNL     1     -34.193   4.976   5.619  1.00 20.00    -0.197 F 
ENDROOT
TORSDOF 0
