REMARK  1 active torsions:
REMARK  status: ('A' for Active; 'I' for Inactive)
REMARK    1  A    between atoms: C6_6  and  C11_11 
ROOT
HETATM    1  C1  UNL     1     -32.557   6.333   2.542  1.00 20.00     0.003 C 
HETATM    2  C2  UNL     1     -33.340   5.464   3.198  1.00 20.00    -0.016 C 
HETATM    3  C3  UNL     1     -32.830   8.063   4.211  1.00 20.00    -0.019 C 
HETATM    4  C4  UNL     1     -32.398   7.702   2.991  1.00 20.00    -0.066 C 
HETATM    5  C5  UNL     1     -33.488   7.089   5.150  1.00 20.00     0.041 C 
HETATM    6  C6  UNL     1     -34.107   5.841   4.453  1.00 20.00    -0.020 C 
HETATM    7  C7  UNL     1     -31.716   8.651   2.054  1.00 20.00     0.048 C 
HETATM    8  C8  UNL     1     -35.564   6.135   4.047  1.00 20.00     0.020 C 
ENDROOT
BRANCH   6   9
HETATM    9  C11 UNL     1     -34.097   4.662   5.440  1.00 20.00    -0.011 C 
HETATM   10  C9  UNL     1     -32.665   4.286   5.793  1.00 20.00     0.010 C 
HETATM   11  C10 UNL     1     -34.894   5.018   6.688  1.00 20.00     0.010 C 
ENDBRANCH   6   9
TORSDOF 1
