REMARK  0 active torsions:
REMARK  status: ('A' for Active; 'I' for Inactive)
ROOT
HETATM    1  C1  UNL     1     -33.181   9.799   1.338  1.00 20.00     0.012 C 
HETATM    2  C2  UNL     1     -33.737   5.736   6.676  1.00 20.00     0.012 C 
HETATM    3  C3  UNL     1     -32.886   9.282   2.380  1.00 20.00    -0.113 C 
HETATM    4  C4  UNL     1     -34.088   6.436   5.766  1.00 20.00    -0.113 C 
HETATM    5  C5  UNL     1     -32.973   6.245   2.899  1.00 20.00     0.002 C 
HETATM    6  C6  UNL     1     -31.946   7.250   3.427  1.00 20.00     0.017 C 
HETATM    7  C7  UNL     1     -34.415   6.545   3.319  1.00 20.00     0.017 C 
HETATM    8  C8  UNL     1     -33.727   8.619   4.627  1.00 20.00     0.034 C 
HETATM    9  C9  UNL     1     -32.525   8.646   3.663  1.00 20.00     0.065 C 
HETATM   10  C10 UNL     1     -34.519   7.297   4.646  1.00 20.00     0.065 C 
ENDROOT
TORSDOF 0
