REMARK  1 active torsions:
REMARK  status: ('A' for Active; 'I' for Inactive)
REMARK    1  A    between atoms: C8_8  and  C11_11 
ROOT
HETATM    1  C1  UNL     1     -35.444   5.943   4.164  1.00 20.00    -0.081 C 
HETATM    2  C2  UNL     1     -36.647   6.281   3.701  1.00 20.00     0.015 C 
HETATM    3  C3  UNL     1     -34.168   4.066   4.617  1.00 20.00     0.010 C 
HETATM    4  C4  UNL     1     -34.481   4.812   5.930  1.00 20.00     0.010 C 
HETATM    5  C5  UNL     1     -33.203   6.163   3.630  1.00 20.00     0.014 C 
HETATM    6  C6  UNL     1     -34.348   5.142   3.536  1.00 20.00     0.014 C 
HETATM    7  C7  UNL     1     -34.779   6.248   5.471  1.00 20.00     0.018 C 
HETATM    8  C8  UNL     1     -33.470   6.897   4.970  1.00 20.00    -0.002 C 
ENDROOT
BRANCH   8   9
HETATM    9  C11 UNL     1     -33.596   8.406   4.777  1.00 20.00    -0.018 C 
HETATM   10  C9  UNL     1     -33.893   9.095   6.108  1.00 20.00     0.010 C 
HETATM   11  C10 UNL     1     -32.325   8.976   4.150  1.00 20.00     0.010 C 
ENDBRANCH   8   9
TORSDOF 1
