REMARK  0 active torsions:
REMARK  status: ('A' for Active; 'I' for Inactive)
ROOT
HETATM    1  C1  UNL     1     -32.398   5.860   2.586  1.00 20.00     0.001 C 
HETATM    2  C2  UNL     1     -33.718   4.999   6.887  1.00 20.00     0.001 C 
HETATM    3  C3  UNL     1     -33.659   5.142   3.053  1.00 20.00     0.005 C 
HETATM    4  C4  UNL     1     -33.224   4.495   5.525  1.00 20.00     0.005 C 
HETATM    5  C5  UNL     1     -32.539   7.378   2.628  1.00 20.00     0.005 C 
HETATM    6  C6  UNL     1     -34.574   6.243   6.602  1.00 20.00     0.005 C 
HETATM    7  C7  UNL     1     -33.029   8.918   4.679  1.00 20.00     0.010 A 
HETATM    8  C8  UNL     1     -34.075   5.266   4.518  1.00 20.00    -0.010 C 
HETATM    9  C9  UNL     1     -32.179   7.901   3.973  1.00 20.00    -0.010 A 
HETATM   10  C10 UNL     1     -34.213   6.654   5.161  1.00 20.00    -0.006 C 
HETATM   11  C11 UNL     1     -32.961   7.500   5.195  1.00 20.00    -0.006 A 
ENDROOT
TORSDOF 0
