REMARK  0 active torsions:
REMARK  status: ('A' for Active; 'I' for Inactive)
ROOT
HETATM    1  C1  UNL     1     -32.779   6.204   2.848  1.00 20.00     0.017 A 
HETATM    2  C2  UNL     1     -33.733   5.393   3.324  1.00 20.00     0.054 A 
HETATM    3  C3  UNL     1     -33.983   6.874   5.340  1.00 20.00     0.060 A 
HETATM    4  C4  UNL     1     -33.027   7.697   4.873  1.00 20.00    -0.044 A 
HETATM    5  C5  UNL     1     -32.321   7.442   3.563  1.00 20.00     0.221 A 
HETATM    6  C6  UNL     1     -34.441   5.638   4.621  1.00 20.00     0.280 A 
HETATM    7  C7  UNL     1     -32.599   8.921   5.628  1.00 20.00     0.046 C 
HETATM    8  F8  UNL     1     -32.483   8.518   2.738  1.00 20.00    -0.240 F 
HETATM    9  F9  UNL     1     -35.784   5.720   4.395  1.00 20.00    -0.197 F 
HETATM   10  F10 UNL     1     -34.278   4.556   5.436  1.00 20.00    -0.197 F 
ENDROOT
TORSDOF 0
