REMARK  0 active torsions:
REMARK  status: ('A' for Active; 'I' for Inactive)
ROOT
HETATM    1  C1  UNL     1     -34.255   7.085   4.640  1.00 20.00    -0.064 A 
HETATM    2  C2  UNL     1     -33.755   8.274   4.363  1.00 20.00     0.016 C 
HETATM    3  C3  UNL     1     -34.345   5.016   6.488  1.00 20.00     0.017 A 
HETATM    4  C4  UNL     1     -33.600   6.250   6.757  1.00 20.00     0.017 A 
HETATM    5  C5  UNL     1     -34.708   5.908   4.067  1.00 20.00     0.099 A 
HETATM    6  C6  UNL     1     -34.707   6.252   5.690  1.00 20.00     0.000 A 
HETATM    7 BR7  UNL     1     -33.367   4.815   3.267  1.00 20.00    -0.085 Br
ENDROOT
TORSDOF 0
