REMARK  0 active torsions:
REMARK  status: ('A' for Active; 'I' for Inactive)
ROOT
HETATM    1  C1  UNL     1     -32.580   8.667   3.783  1.00 20.00     0.019 A 
HETATM    2  C2  UNL     1     -33.494   8.534   4.755  1.00 20.00     0.054 A 
HETATM    3  C3  UNL     1     -33.694   6.083   4.233  1.00 20.00     0.096 A 
HETATM    4  C4  UNL     1     -32.780   6.217   3.261  1.00 20.00     0.133 A 
HETATM    5  C5  UNL     1     -32.120   7.522   2.928  1.00 20.00     0.254 A 
HETATM    6  C6  UNL     1     -34.153   7.227   5.088  1.00 20.00     0.282 A 
HETATM    7  F7  UNL     1     -32.435   5.123   2.546  1.00 20.00    -0.207 F 
HETATM    8  F8  UNL     1     -32.342   7.819   1.616  1.00 20.00    -0.238 F 
HETATM    9  F9  UNL     1     -33.927   6.930   6.400  1.00 20.00    -0.197 F 
HETATM   10  F10 UNL     1     -35.505   7.361   4.975  1.00 20.00    -0.197 F 
ENDROOT
TORSDOF 0
