REMARK  2 active torsions:
REMARK  status: ('A' for Active; 'I' for Inactive)
REMARK    1  A    between atoms: C4_4  and  C12_12 
REMARK    2  A    between atoms: C5_5  and  C11_11 
ROOT
HETATM    1  C1  UNL     1     -33.182   5.828   3.217  1.00 20.00     0.004 A 
HETATM    2  C2  UNL     1     -32.665   6.368   2.105  1.00 20.00    -0.017 A 
HETATM    3  C3  UNL     1     -32.809   8.002   3.772  1.00 20.00    -0.010 A 
HETATM    4  C4  UNL     1     -33.272   6.836   4.248  1.00 20.00    -0.054 A 
HETATM    5  C5  UNL     1     -32.367   7.827   2.341  1.00 20.00     0.034 A 
ENDROOT
BRANCH   4   6
HETATM    6  C12 UNL     1     -33.804   6.544   5.601  1.00 20.00    -0.024 C 
HETATM    7  C8  UNL     1     -32.948   5.455   6.277  1.00 20.00     0.019 C 
HETATM    8  C9  UNL     1     -35.262   6.047   5.509  1.00 20.00     0.019 C 
HETATM    9  C10 UNL     1     -33.774   7.816   6.475  1.00 20.00     0.019 C 
ENDBRANCH   4   6
BRANCH   5  10
HETATM   10  C11 UNL     1     -33.132   8.733   1.386  1.00 20.00    -0.012 C 
HETATM   11  C6  UNL     1     -32.831  10.203   1.678  1.00 20.00     0.010 C 
HETATM   12  C7  UNL     1     -32.793   8.399  -0.067  1.00 20.00     0.010 C 
ENDBRANCH   5  10
TORSDOF 2
