REMARK  1 active torsions:
REMARK  status: ('A' for Active; 'I' for Inactive)
REMARK    1  A    between atoms: C8_8  and  C9_9 
ROOT
HETATM    1  C1  UNL     1     -33.067   4.601   2.904  1.00 20.00     0.014 C 
HETATM    2  C2  UNL     1     -34.693   6.724   6.409  1.00 20.00     0.014 C 
HETATM    3  C3  UNL     1     -33.111   5.627   3.524  1.00 20.00    -0.094 C 
HETATM    4  C4  UNL     1     -33.996   6.783   5.433  1.00 20.00    -0.094 C 
HETATM    5  C7  UNL     1     -31.910   7.693   4.338  1.00 20.00     0.043 A 
HETATM    6  C9  UNL     1     -33.083   8.180   3.527  1.00 20.00     0.025 A 
HETATM    7  C10 UNL     1     -33.162   6.854   4.266  1.00 20.00     0.089 A 
ENDROOT
BRANCH   6   8
HETATM    8  C8  UNL     1     -33.025   8.316   2.011  1.00 20.00    -0.008 A 
HETATM    9  C5  UNL     1     -32.820   9.638   1.323  1.00 20.00     0.005 A 
HETATM   10  C6  UNL     1     -31.745   8.588   1.269  1.00 20.00     0.005 A 
ENDBRANCH   6   8
TORSDOF 1
