REMARK  1 active torsions:
REMARK  status: ('A' for Active; 'I' for Inactive)
REMARK    1  A    between atoms: C1_1  and  C4_4 
ROOT
HETATM    1  C2  UNL     1     -33.975   5.577   6.180  1.00 20.00     0.054 A 
HETATM    2  C3  UNL     1     -35.250   5.873   5.447  1.00 20.00     0.054 A 
HETATM    3  C4  UNL     1     -34.042   6.744   5.233  1.00 20.00     0.156 A 
HETATM    4  F6  UNL     1     -34.096   7.998   5.833  1.00 20.00    -0.235 F 
ENDROOT
BRANCH   3   5
HETATM    5  C1  UNL     1     -33.321   6.691   3.958  1.00 20.00     0.274 C 
HETATM    6  O5  UNL     1     -33.104   5.649   3.347  1.00 20.00    -0.303 OA
ENDBRANCH   3   5
TORSDOF 1
