REMARK  2 active torsions:
REMARK  status: ('A' for Active; 'I' for Inactive)
REMARK    1  A    between atoms: C1_1  and  C4_4 
REMARK    2  A    between atoms: C1_1  and  C5_5 
ROOT
HETATM    1  C1  UNL     1     -33.501   6.475   4.140  1.00 20.00     0.159 C 
HETATM    2  O6  UNL     1     -33.436   5.617   3.268  1.00 20.00    -0.295 OA
ENDROOT
BRANCH   1   3
HETATM    3  C4  UNL     1     -34.560   6.428   5.154  1.00 20.00     0.058 A 
HETATM    4  C2  UNL     1     -34.730   5.188   5.988  1.00 20.00     0.013 A 
HETATM    5  C3  UNL     1     -34.185   6.437   6.611  1.00 20.00     0.013 A 
ENDBRANCH   1   3
BRANCH   1   6
HETATM    6  C5  UNL     1     -32.538   7.620   4.250  1.00 20.00     0.300 C 
HETATM    7  F7  UNL     1     -33.140   8.717   4.783  1.00 20.00    -0.248 F 
ENDBRANCH   1   6
TORSDOF 2
