REMARK  1 active torsions:
REMARK  status: ('A' for Active; 'I' for Inactive)
REMARK    1  A    between atoms: C3_3  and  C6_6 
ROOT
HETATM    1  C1  UNL     1     -32.556   5.617   2.916  1.00 20.00     0.013 C 
HETATM    2  C2  UNL     1     -33.349   5.699   3.815  1.00 20.00    -0.099 C 
HETATM    3  C4  UNL     1     -34.261   4.496   5.742  1.00 20.00     0.038 C 
HETATM    4  C5  UNL     1     -35.731   5.966   4.314  1.00 20.00     0.038 C 
HETATM    5  C6  UNL     1     -34.332   5.795   4.925  1.00 20.00     0.091 C 
ENDROOT
BRANCH   5   6
HETATM    6  C3  UNL     1     -33.980   7.008   5.813  1.00 20.00     0.238 C 
HETATM    7  O7  UNL     1     -34.643   7.308   6.804  1.00 20.00    -0.278 OA
HETATM    8 CL8  UNL     1     -32.572   7.901   5.283  1.00 20.00    -0.042 Cl
ENDBRANCH   5   6
TORSDOF 1
