REMARK  0 active torsions:
REMARK  status: ('A' for Active; 'I' for Inactive)
ROOT
HETATM    1  C1  UNL     1     -34.510   5.514   5.689  1.00 20.00     0.029 C 
HETATM    2  C2  UNL     1     -34.962   6.279   4.470  1.00 20.00     0.042 C 
HETATM    3  C3  UNL     1     -32.673   6.456   3.315  1.00 20.00     0.070 C 
HETATM    4  C4  UNL     1     -32.238   7.515   2.302  1.00 20.00     0.275 C 
HETATM    5  C5  UNL     1     -34.063   8.433   3.422  1.00 20.00     0.309 C 
HETATM    6  C6  UNL     1     -33.716   6.563   6.437  1.00 20.00     0.169 C 
HETATM    7  C7  UNL     1     -33.748   7.143   4.169  1.00 20.00     0.089 C 
HETATM    8  C8  UNL     1     -32.850   9.816   1.836  1.00 20.00     0.310 C 
HETATM    9  N9  UNL     1     -32.759   8.770   2.843  1.00 20.00     0.087 N 
HETATM   10  O10 UNL     1     -33.171   7.457   5.455  1.00 20.00    -0.378 OA
ENDROOT
TORSDOF 0
