REMARK  1 active torsions:
REMARK  status: ('A' for Active; 'I' for Inactive)
REMARK    1  A    between atoms: C2_2  and  C4_4 
ROOT
HETATM    1  C1  UNL     1     -32.449   7.473   2.547  1.00 20.00     0.107 C 
HETATM    2  C2  UNL     1     -33.467   6.093   4.279  1.00 20.00     0.118 C 
HETATM    3  C3  UNL     1     -32.866   7.226   3.883  1.00 20.00     0.095 C 
HETATM    4  N5  UNL     1     -32.106   7.683   1.458  1.00 20.00    -0.191 NA
HETATM    5 BR9  UNL     1     -32.517   8.615   5.090  1.00 20.00    -0.039 Br
ENDROOT
BRANCH   2   6
HETATM    6  C4  UNL     1     -33.946   5.722   5.643  1.00 20.00     0.409 C 
HETATM    7  F6  UNL     1     -34.506   4.484   5.643  1.00 20.00    -0.167 F 
HETATM    8  F7  UNL     1     -32.981   5.711   6.595  1.00 20.00    -0.167 F 
HETATM    9  F8  UNL     1     -34.907   6.581   6.073  1.00 20.00    -0.167 F 
ENDBRANCH   2   6
TORSDOF 1
