REMARK  4 active torsions:
REMARK  status: ('A' for Active; 'I' for Inactive)
REMARK    1  A    between atoms: C2_2  and  C9_9 
REMARK    2  A    between atoms: C7_7  and  C8_8 
REMARK    3  A    between atoms: C8_8  and  C9_9 
REMARK    4  A    between atoms: C9_9  and  O11_11 
ROOT
HETATM    1  C3  UNL     1     -33.166   9.937   1.574  1.00 20.00     0.031 C 
HETATM    2  C4  UNL     1     -32.712   7.477   1.765  1.00 20.00     0.031 C 
HETATM    3  C5  UNL     1     -32.383   9.908   0.266  1.00 20.00     0.168 C 
HETATM    4  C6  UNL     1     -31.956   7.586   0.447  1.00 20.00     0.168 C 
HETATM    5  C7  UNL     1     -32.698   8.817   2.510  1.00 20.00    -0.008 C 
HETATM    6  O10 UNL     1     -32.494   8.631  -0.361  1.00 20.00    -0.391 OA
ENDROOT
BRANCH   5   7
HETATM    7  C8  UNL     1     -33.558   8.756   3.769  1.00 20.00     0.040 C 
BRANCH   7   8
HETATM    8  C9  UNL     1     -32.917   7.950   4.902  1.00 20.00     0.140 C 
BRANCH   8   9
HETATM    9  C2  UNL     1     -33.801   7.835   6.109  1.00 20.00    -0.006 C 
HETATM   10  C1  UNL     1     -34.173   6.671   6.654  1.00 20.00     0.009 C 
ENDBRANCH   8   9
BRANCH   8  11
HETATM   11  O11 UNL     1     -31.723   8.618   5.312  1.00 20.00    -0.392 OA
HETATM   12  H27 UNL     1     -31.324   8.067   6.002  1.00 20.00     0.210 HD
ENDBRANCH   8  11
ENDBRANCH   7   8
ENDBRANCH   5   7
TORSDOF 4
