REMARK  2 active torsions:
REMARK  status: ('A' for Active; 'I' for Inactive)
REMARK    1  A    between atoms: C4_4  and  C8_8 
REMARK    2  A    between atoms: C9_9  and  O11_11 
ROOT
HETATM    1  C1  UNL     1     -33.551   6.570   5.274  1.00 20.00    -0.079 C 
HETATM    2  C2  UNL     1     -33.376   6.708   6.597  1.00 20.00     0.015 C 
HETATM    3  C5  UNL     1     -34.695   5.771   4.702  1.00 20.00     0.065 C 
HETATM    4  C6  UNL     1     -32.662   6.429   2.906  1.00 20.00     0.016 C 
HETATM    5  C7  UNL     1     -32.869   4.928   3.094  1.00 20.00     0.033 C 
HETATM    6  C8  UNL     1     -32.577   7.151   4.266  1.00 20.00     0.041 C 
HETATM    7  C9  UNL     1     -34.186   4.621   3.820  1.00 20.00     0.122 C 
ENDROOT
BRANCH   6   8
HETATM    8  C4  UNL     1     -32.776   8.627   4.089  1.00 20.00    -0.085 C 
HETATM    9  C3  UNL     1     -33.031   9.169   2.890  1.00 20.00     0.014 C 
HETATM   10  C10 UNL     1     -32.674   9.461   5.332  1.00 20.00     0.043 C 
ENDBRANCH   6   8
BRANCH   7  11
HETATM   11  O11 UNL     1     -33.992   3.448   4.609  1.00 20.00    -0.395 OA
HETATM   12  H27 UNL     1     -33.673   2.758   4.006  1.00 20.00     0.210 HD
ENDBRANCH   7  11
TORSDOF 2
