REMARK  0 active torsions:
REMARK  status: ('A' for Active; 'I' for Inactive)
ROOT
HETATM    1  C1  UNL     1     -33.985   7.529   6.193  1.00 20.00     0.027 C 
HETATM    2  C2  UNL     1     -33.072   8.323   5.251  1.00 20.00     0.012 C 
HETATM    3  C3  UNL     1     -33.801   6.020   6.119  1.00 20.00     0.167 C 
HETATM    4  C4  UNL     1     -33.798   4.665   4.153  1.00 20.00     0.177 C 
HETATM    5  C5  UNL     1     -33.260   8.053   3.758  1.00 20.00     0.074 C 
HETATM    6  C6  UNL     1     -33.423   5.397   2.873  1.00 20.00     0.100 C 
HETATM    7  O7  UNL     1     -34.545   5.512   5.015  1.00 20.00    -0.390 OA
HETATM    8  S8  UNL     1     -32.189   6.712   3.134  1.00 20.00    -0.167 SA
ENDROOT
TORSDOF 0
