REMARK  0 active torsions:
REMARK  status: ('A' for Active; 'I' for Inactive)
ROOT
HETATM    1  C1  UNL     1     -34.670   4.753   5.388  1.00 20.00     0.128 C 
HETATM    2  C2  UNL     1     -34.387   5.317   6.740  1.00 20.00     0.234 C 
HETATM    3  N3  UNL     1     -34.573   5.525   4.361  1.00 20.00    -0.203 NA
HETATM    4  O4  UNL     1     -34.223   6.708   6.524  1.00 20.00    -0.295 OA
HETATM    5  S5  UNL     1     -34.117   7.046   4.895  1.00 20.00     0.137 SA
ENDROOT
TORSDOF 0
