REMARK  0 active torsions:
REMARK  status: ('A' for Active; 'I' for Inactive)
ROOT
HETATM    1  C1  UNL     1     -33.280   7.575   3.868  1.00 20.00     0.411 C 
HETATM    2  C2  UNL     1     -34.373   7.378   5.812  1.00 20.00     0.368 C 
HETATM    3  C3  UNL     1     -34.523   6.099   5.033  1.00 20.00     0.199 C 
HETATM    4  C4  UNL     1     -35.871   5.975   4.328  1.00 20.00     0.070 C 
HETATM    5  O5  UNL     1     -32.601   8.055   2.973  1.00 20.00    -0.229 OA
HETATM    6  O6  UNL     1     -33.932   8.301   4.828  1.00 20.00    -0.257 OA
HETATM    7  O7  UNL     1     -33.497   6.235   4.050  1.00 20.00    -0.265 OA
HETATM    8  F8  UNL     1     -33.378   7.285   6.730  1.00 20.00    -0.214 F 
HETATM    9 CL9  UNL     1     -34.218   4.661   6.027  1.00 20.00    -0.082 Cl
ENDROOT
TORSDOF 0
