REMARK  0 active torsions:
REMARK  status: ('A' for Active; 'I' for Inactive)
ROOT
HETATM    1  C1  UNL     1     -33.446   5.501   3.354  1.00 20.00     0.141 C 
HETATM    2  C2  UNL     1     -32.448   6.024   2.339  1.00 20.00     0.079 C 
HETATM    3  C3  UNL     1     -31.809   7.321   2.815  1.00 20.00     0.008 C 
HETATM    4  C4  UNL     1     -32.847   8.347   3.283  1.00 20.00     0.017 C 
HETATM    5  C5  UNL     1     -34.768   5.608   6.458  1.00 20.00     0.085 C 
HETATM    6  C6  UNL     1     -34.236   6.936   6.965  1.00 20.00     0.084 C 
HETATM    7  C7  UNL     1     -34.482   6.516   3.822  1.00 20.00     0.130 C 
HETATM    8  C8  UNL     1     -33.815   7.794   4.347  1.00 20.00     0.068 C 
HETATM    9  O9  UNL     1     -33.442   4.317   3.683  1.00 20.00    -0.297 OA
HETATM   10  S10 UNL     1     -35.728   5.781   4.927  1.00 20.00    -0.155 SA
HETATM   11  S11 UNL     1     -32.899   7.574   5.923  1.00 20.00    -0.162 SA
ENDROOT
TORSDOF 0
