REMARK  1 active torsions:
REMARK  status: ('A' for Active; 'I' for Inactive)
REMARK    1  A    between atoms: C4_4  and  C9_9 
ROOT
HETATM    1  C1  UNL     1     -34.252   5.347   5.564  1.00 20.00    -0.089 C 
HETATM    2  C2  UNL     1     -34.219   4.841   6.805  1.00 20.00     0.014 C 
HETATM    3  C5  UNL     1     -34.604   4.512   4.361  1.00 20.00     0.033 C 
HETATM    4  C6  UNL     1     -33.918   6.787   5.267  1.00 20.00     0.042 C 
HETATM    5  C7  UNL     1     -33.512   4.613   3.295  1.00 20.00     0.005 C 
HETATM    6  C8  UNL     1     -33.189   6.068   2.945  1.00 20.00     0.009 C 
HETATM    7  C9  UNL     1     -32.817   6.880   4.197  1.00 20.00     0.017 C 
ENDROOT
BRANCH   7   8
HETATM    8  C4  UNL     1     -32.544   8.307   3.831  1.00 20.00    -0.089 C 
HETATM    9  C3  UNL     1     -32.675   8.754   2.573  1.00 20.00     0.014 C 
HETATM   10  C10 UNL     1     -32.117   9.207   4.952  1.00 20.00     0.043 C 
ENDBRANCH   7   8
TORSDOF 1
