REMARK  1 active torsions:
REMARK  status: ('A' for Active; 'I' for Inactive)
REMARK    1  A    between atoms: C1_1  and  C5_5 
ROOT
HETATM    1  C3  UNL     1     -33.060   5.698   3.523  1.00 20.00     0.207 C 
HETATM    2  C4  UNL     1     -34.753   6.938   4.690  1.00 20.00     0.208 C 
HETATM    3  C5  UNL     1     -32.256   6.992   3.682  1.00 20.00     0.267 C 
HETATM    4  C6  UNL     1     -33.657   7.313   5.700  1.00 20.00     0.172 C 
HETATM    5  C8  UNL     1     -34.042   8.625   6.402  1.00 20.00     0.051 C 
HETATM    6  C9  UNL     1     -33.504   6.213   6.769  1.00 20.00     0.051 C 
HETATM    7  N10 UNL     1     -32.364   7.545   5.034  1.00 20.00     0.104 N 
HETATM    8  O11 UNL     1     -34.428   5.786   3.919  1.00 20.00    -0.386 OA
HETATM    9  H28 UNL     1     -31.607   7.173   5.621  1.00 20.00     0.318 HD
ENDROOT
BRANCH   3  10
HETATM   10  C1  UNL     1     -32.602   8.011   2.636  1.00 20.00     0.006 C 
HETATM   11  C2  UNL     1     -32.020   8.070   1.429  1.00 20.00    -0.033 C 
HETATM   12  C7  UNL     1     -32.364   9.083   0.389  1.00 20.00     0.036 C 
ENDBRANCH   3  10
TORSDOF 1
