REMARK  0 active torsions:
REMARK  status: ('A' for Active; 'I' for Inactive)
ROOT
HETATM    1  C1  UNL     1     -35.283   5.655   4.213  1.00 20.00     0.080 A 
HETATM    2  C2  UNL     1     -33.883   5.130   4.148  1.00 20.00     0.207 A 
HETATM    3  C3  UNL     1     -34.211   6.246   5.097  1.00 20.00     0.128 A 
HETATM    4  F4  UNL     1     -33.150   5.423   3.011  1.00 20.00    -0.246 F 
HETATM    5 CL5  UNL     1     -33.632   7.865   4.720  1.00 20.00    -0.103 Cl
HETATM    6 BR6  UNL     1     -34.270   5.838   6.966  1.00 20.00    -0.065 Br
ENDROOT
TORSDOF 0
