REMARK  2 active torsions:
REMARK  status: ('A' for Active; 'I' for Inactive)
REMARK    1  A    between atoms: C1_1  and  C2_2 
REMARK    2  A    between atoms: C1_1  and  C3_3 
ROOT
HETATM    1  C2  UNL     1     -34.427   6.282   5.111  1.00 20.00     0.043 A 
HETATM    2  C4  UNL     1     -34.803   4.918   4.811  1.00 20.00     0.013 A 
HETATM    3  C5  UNL     1     -34.127   5.280   6.129  1.00 20.00    -0.023 A 
HETATM    4  C8  UNL     1     -34.144   4.089   3.763  1.00 20.00     0.012 C 
HETATM    5  C9  UNL     1     -34.992   5.294   7.367  1.00 20.00     0.017 C 
HETATM    6  C10 UNL     1     -32.706   4.848   6.397  1.00 20.00     0.017 C 
ENDROOT
BRANCH   1   7
HETATM    7  C1  UNL     1     -33.545   6.970   4.461  1.00 20.00    -0.159 C 
BRANCH   7   8
HETATM    8  C3  UNL     1     -32.655   7.665   3.805  1.00 20.00     0.022 C 
HETATM    9  C6  UNL     1     -31.904   7.104   2.631  1.00 20.00     0.029 C 
HETATM   10  C7  UNL     1     -32.316   9.082   4.168  1.00 20.00     0.029 C 
ENDBRANCH   7   8
ENDBRANCH   1   7
TORSDOF 2
