REMARK  2 active torsions:
REMARK  status: ('A' for Active; 'I' for Inactive)
REMARK    1  A    between atoms: C2_2  and  C5_5 
REMARK    2  A    between atoms: C5_5  and  C6_6 
ROOT
HETATM    1  C5  UNL     1     -33.545   7.442   5.569  1.00 20.00     0.042 C 
ENDROOT
BRANCH   1   2
HETATM    2  C2  UNL     1     -33.051   7.952   4.242  1.00 20.00    -0.030 C 
HETATM    3  C1  UNL     1     -32.639   7.158   3.243  1.00 20.00    -0.035 C 
HETATM    4  C3  UNL     1     -32.144   7.665   1.929  1.00 20.00     0.036 C 
ENDBRANCH   1   2
BRANCH   1   5
HETATM    5  C6  UNL     1     -34.216   6.070   5.464  1.00 20.00     0.057 C 
HETATM    6  C4  UNL     1     -34.782   5.617   6.802  1.00 20.00     0.022 C 
HETATM    7 BR7  UNL     1     -35.697   6.148   4.177  1.00 20.00    -0.091 Br
ENDBRANCH   1   5
TORSDOF 2
