REMARK  0 active torsions:
REMARK  status: ('A' for Active; 'I' for Inactive)
ROOT
HETATM    1  C1  UNL     1     -34.644   5.079   6.621  1.00 20.00     0.004 A 
HETATM    2  C2  UNL     1     -34.286   4.356   5.471  1.00 20.00     0.034 A 
HETATM    3  C3  UNL     1     -34.428   6.460   6.716  1.00 20.00     0.021 A 
HETATM    4  C4  UNL     1     -32.815   5.710   2.561  1.00 20.00     0.210 A 
HETATM    5  C5  UNL     1     -33.704   5.055   4.402  1.00 20.00     0.086 A 
HETATM    6  C6  UNL     1     -33.509   6.420   4.535  1.00 20.00     0.081 A 
HETATM    7  C7  UNL     1     -33.839   7.165   5.664  1.00 20.00     0.029 A 
HETATM    8  C8  UNL     1     -32.606   8.188   3.065  1.00 20.00     0.140 C 
HETATM    9  C9  UNL     1     -32.231   8.966   4.332  1.00 20.00     0.100 C 
HETATM   10  N10 UNL     1     -33.263   4.627   3.167  1.00 20.00    -0.242 NA
HETATM   11  N11 UNL     1     -32.948   6.810   3.351  1.00 20.00    -0.338 N 
HETATM   12  S12 UNL     1     -33.522   8.904   5.647  1.00 20.00    -0.126 SA
ENDROOT
TORSDOF 0
