REMARK  0 active torsions:
REMARK  status: ('A' for Active; 'I' for Inactive)
ROOT
HETATM    1  C1  UNL     1     -35.308   5.958   4.256  1.00 20.00     0.036 A 
HETATM    2  C2  UNL     1     -34.024   5.218   3.952  1.00 20.00    -0.025 A 
HETATM    3  C3  UNL     1     -34.017   6.449   4.870  1.00 20.00     0.041 A 
HETATM    4  C4  UNL     1     -33.451   5.333   2.560  1.00 20.00     0.016 C 
HETATM    5  C5  UNL     1     -33.858   3.836   4.541  1.00 20.00     0.016 C 
HETATM    6  C6  UNL     1     -33.452   7.762   4.405  1.00 20.00     0.033 C 
HETATM    7 CL7  UNL     1     -33.820   6.198   6.626  1.00 20.00    -0.119 Cl
ENDROOT
TORSDOF 0
