REMARK  3 active torsions:
REMARK  status: ('A' for Active; 'I' for Inactive)
REMARK    1  A    between atoms: C1_1  and  C7_7 
REMARK    2  A    between atoms: C2_2  and  C8_8 
REMARK    3  A    between atoms: C8_8  and  C9_9 
ROOT
HETATM    1  C1  UNL     1     -32.707   8.383   3.296  1.00 20.00     0.157 A 
HETATM    2  C2  UNL     1     -33.085   7.052   3.898  1.00 20.00     0.185 A 
HETATM    3  O10 UNL     1     -31.716   7.425   3.691  1.00 20.00    -0.372 OA
ENDROOT
BRANCH   2   4
HETATM    4  C8  UNL     1     -33.548   5.886   3.083  1.00 20.00     0.204 C 
HETATM    5  F11 UNL     1     -32.473   5.089   2.827  1.00 20.00    -0.246 F 
BRANCH   4   6
HETATM    6  C9  UNL     1     -34.649   5.051   3.755  1.00 20.00     0.014 C 
HETATM    7  C5  UNL     1     -35.685   5.917   4.475  1.00 20.00     0.012 C 
HETATM    8  C6  UNL     1     -34.025   4.071   4.752  1.00 20.00     0.012 C 
ENDBRANCH   4   6
ENDBRANCH   2   4
BRANCH   1   9
HETATM    9  C7  UNL     1     -32.759   8.661   1.836  1.00 20.00     0.009 C 
HETATM   10  C3  UNL     1     -33.225  10.100   1.539  1.00 20.00     0.012 C 
HETATM   11  C4  UNL     1     -31.396   8.424   1.155  1.00 20.00     0.012 C 
ENDBRANCH   1   9
TORSDOF 3
