REMARK  0 active torsions:
REMARK  status: ('A' for Active; 'I' for Inactive)
ROOT
HETATM    1  C1  UNL     1     -33.873   4.927   4.458  1.00 20.00     0.141 C 
HETATM    2  C2  UNL     1     -33.807   4.334   3.068  1.00 20.00     0.079 C 
HETATM    3  C3  UNL     1     -32.638   4.921   2.298  1.00 20.00     0.008 C 
HETATM    4  C4  UNL     1     -32.706   6.445   2.271  1.00 20.00     0.017 C 
HETATM    5  C5  UNL     1     -33.826   8.756   6.108  1.00 20.00     0.085 C 
HETATM    6  C6  UNL     1     -32.683   9.317   5.279  1.00 20.00     0.084 C 
HETATM    7  C7  UNL     1     -33.858   6.457   4.538  1.00 20.00     0.130 C 
HETATM    8  C8  UNL     1     -32.704   7.024   3.695  1.00 20.00     0.068 C 
HETATM    9  O9  UNL     1     -34.032   4.191   5.431  1.00 20.00    -0.297 OA
HETATM   10  S10 UNL     1     -33.725   6.953   6.295  1.00 20.00    -0.155 SA
HETATM   11  S11 UNL     1     -32.800   8.848   3.529  1.00 20.00    -0.162 SA
ENDROOT
TORSDOF 0
