REMARK  4 active torsions:
REMARK  status: ('A' for Active; 'I' for Inactive)
REMARK    1  A    between atoms: C1_1  and  C7_7 
REMARK    2  A    between atoms: C1_1  and  C8_8 
REMARK    3  A    between atoms: C5_5  and  C6_6 
REMARK    4  A    between atoms: C6_6  and  C8_8 
ROOT
HETATM    1  C1  UNL     1     -33.691   6.755   5.114  1.00 20.00     0.148 C 
HETATM    2  O9  UNL     1     -33.369   7.296   6.173  1.00 20.00    -0.296 OA
ENDROOT
BRANCH   1   3
HETATM    3  C7  UNL     1     -34.550   5.492   5.082  1.00 20.00     0.049 C 
HETATM    4  C3  UNL     1     -35.816   5.709   4.257  1.00 20.00     0.017 C 
HETATM    5  C4  UNL     1     -34.896   5.064   6.503  1.00 20.00     0.017 C 
ENDBRANCH   1   3
BRANCH   1   6
HETATM    6  C8  UNL     1     -33.241   7.312   3.770  1.00 20.00     0.152 C 
HETATM    7 CL10 UNL     1     -32.375   8.835   4.116  1.00 20.00    -0.117 Cl
BRANCH   6   8
HETATM    8  C6  UNL     1     -32.323   6.342   3.027  1.00 20.00     0.027 C 
BRANCH   8   9
HETATM    9  C5  UNL     1     -32.299   6.613   1.520  1.00 20.00    -0.003 C 
HETATM   10  C2  UNL     1     -31.743   7.995   1.213  1.00 20.00     0.005 C 
ENDBRANCH   8   9
ENDBRANCH   6   8
ENDBRANCH   1   6
TORSDOF 4
