REMARK  0 active torsions:
REMARK  status: ('A' for Active; 'I' for Inactive)
ROOT
HETATM    1  C1  UNL     1     -32.805   8.485   5.411  1.00 20.00     0.128 A 
HETATM    2  C2  UNL     1     -32.612   7.061   4.841  1.00 20.00     0.089 A 
HETATM    3  C3  UNL     1     -34.105   8.086   6.146  1.00 20.00     0.089 A 
HETATM    4  C4  UNL     1     -35.021   6.076   4.779  1.00 20.00     0.085 C 
HETATM    5  C5  UNL     1     -33.784   5.550   6.607  1.00 20.00     0.085 C 
HETATM    6  C6  UNL     1     -33.888   6.684   5.596  1.00 20.00    -0.011 A 
HETATM    7  O7  UNL     1     -32.177   9.519   5.317  1.00 20.00    -0.298 OA
HETATM    8  S8  UNL     1     -34.516   4.416   5.368  1.00 20.00    -0.167 SA
ENDROOT
TORSDOF 0
