REMARK  2 active torsions:
REMARK  status: ('A' for Active; 'I' for Inactive)
REMARK    1  A    between atoms: C7_7  and  C9_9 
REMARK    2  A    between atoms: C8_8  and  C10_10 
ROOT
HETATM    1  C1  UNL     1     -34.169   6.644   6.399  1.00 20.00     0.005 C 
HETATM    2  C2  UNL     1     -34.051   5.149   5.994  1.00 20.00     0.005 C 
HETATM    3  C3  UNL     1     -35.728   7.204   4.547  1.00 20.00     0.005 C 
HETATM    4  C4  UNL     1     -35.977   5.671   4.514  1.00 20.00     0.005 C 
HETATM    5  C7  UNL     1     -34.323   7.503   5.111  1.00 20.00    -0.010 C 
HETATM    6  C8  UNL     1     -34.605   4.937   4.570  1.00 20.00    -0.010 C 
ENDROOT
BRANCH   5   7
HETATM    7  C9  UNL     1     -33.214   6.977   4.188  1.00 20.00    -0.006 C 
HETATM    8  C5  UNL     1     -32.542   7.219   2.808  1.00 20.00     0.006 C 
HETATM    9  C6  UNL     1     -32.374   5.636   2.812  1.00 20.00     0.006 C 
HETATM   10  C10 UNL     1     -33.761   5.665   3.515  1.00 20.00    -0.006 C 
ENDBRANCH   5   7
TORSDOF 2
