REMARK  0 active torsions:
REMARK  status: ('A' for Active; 'I' for Inactive)
ROOT
HETATM    1  C1  UNL     1     -33.291   6.308   2.167  1.00 20.00     0.010 A 
HETATM    2  C2  UNL     1     -32.803   5.058   2.849  1.00 20.00     0.010 A 
HETATM    3  C3  UNL     1     -33.950   5.111   6.530  1.00 20.00     0.010 A 
HETATM    4  C4  UNL     1     -34.729   6.373   6.781  1.00 20.00     0.010 A 
HETATM    5  C5  UNL     1     -33.116   6.889   4.745  1.00 20.00     0.019 C 
HETATM    6  C6  UNL     1     -34.944   5.871   4.190  1.00 20.00     0.019 C 
HETATM    7  C7  UNL     1     -33.599   6.073   3.611  1.00 20.00    -0.038 A 
HETATM    8  C8  UNL     1     -34.165   6.099   5.425  1.00 20.00    -0.038 A 
ENDROOT
TORSDOF 0
