REMARK  2 active torsions:
REMARK  status: ('A' for Active; 'I' for Inactive)
REMARK    1  A    between atoms: C7_7  and  C9_9 
REMARK    2  A    between atoms: C8_8  and  C10_10 
ROOT
HETATM    1  C1  UNL     1     -31.833   8.320   1.947  1.00 20.00     0.012 C 
HETATM    2  C2  UNL     1     -32.335   7.647   2.806  1.00 20.00    -0.112 C 
HETATM    3  C6  UNL     1     -32.935   6.843   3.832  1.00 20.00     0.074 A 
HETATM    4  C9  UNL     1     -34.220   7.337   4.460  1.00 20.00     0.015 A 
HETATM    5  C10 UNL     1     -32.920   7.372   5.249  1.00 20.00     0.015 A 
ENDROOT
BRANCH   4   6
HETATM    6  C7  UNL     1     -35.156   6.507   5.352  1.00 20.00     0.014 C 
HETATM    7  C3  UNL     1     -34.688   5.072   5.505  1.00 20.00    -0.025 C 
HETATM    8  C4  UNL     1     -33.539   5.103   6.202  1.00 20.00    -0.025 C 
HETATM    9  C8  UNL     1     -33.245   6.559   6.511  1.00 20.00     0.014 C 
HETATM   10  C5  UNL     1     -34.706   7.005   6.742  1.00 20.00     0.018 C 
ENDBRANCH   4   6
TORSDOF 2
