REMARK  0 active torsions:
REMARK  status: ('A' for Active; 'I' for Inactive)
ROOT
HETATM    1  C1  UNL     1     -33.934   4.201   5.195  1.00 20.00     0.083 C 
HETATM    2  C2  UNL     1     -32.384   7.414   4.734  1.00 20.00    -0.003 A 
HETATM    3  C3  UNL     1     -32.900   8.686   5.021  1.00 20.00    -0.011 A 
HETATM    4  C4  UNL     1     -33.296   7.704   5.883  1.00 20.00    -0.006 A 
HETATM    5  C5  UNL     1     -33.172   7.238   3.634  1.00 20.00    -0.016 C 
HETATM    6  C6  UNL     1     -34.289   4.899   3.921  1.00 20.00     0.052 C 
HETATM    7  C7  UNL     1     -33.188   8.832   3.504  1.00 20.00     0.023 C 
HETATM    8  C8  UNL     1     -34.880   5.837   6.618  1.00 20.00     0.153 C 
HETATM    9  C9  UNL     1     -34.607   6.889   5.573  1.00 20.00     0.022 C 
HETATM   10  C10 UNL     1     -34.539   6.396   4.088  1.00 20.00     0.007 C 
HETATM   11  N11 UNL     1     -34.184   4.591   6.389  1.00 20.00    -0.305 NA
ENDROOT
TORSDOF 0
