REMARK  0 active torsions:
REMARK  status: ('A' for Active; 'I' for Inactive)
ROOT
HETATM    1  C1  UNL     1     -34.631   4.919   5.777  1.00 20.00     0.005 C 
HETATM    2  C2  UNL     1     -34.326   5.722   3.436  1.00 20.00     0.005 C 
HETATM    3  C3  UNL     1     -33.257   5.363   6.317  1.00 20.00     0.005 C 
HETATM    4  C4  UNL     1     -32.905   6.293   3.608  1.00 20.00     0.005 C 
HETATM    5  C5  UNL     1     -34.433   7.496   6.584  1.00 20.00     0.010 C 
HETATM    6  C6  UNL     1     -34.152   8.237   4.425  1.00 20.00     0.010 C 
HETATM    7  C7  UNL     1     -35.175   5.905   4.716  1.00 20.00    -0.010 C 
HETATM    8  C8  UNL     1     -33.084   6.885   6.169  1.00 20.00    -0.010 C 
HETATM    9  C9  UNL     1     -32.890   7.396   4.682  1.00 20.00    -0.010 C 
HETATM   10  C10 UNL     1     -35.152   7.406   5.235  1.00 20.00    -0.010 C 
ENDROOT
TORSDOF 0
