REMARK  2 active torsions:
REMARK  status: ('A' for Active; 'I' for Inactive)
REMARK    1  A    between atoms: C1_1  and  C2_2 
REMARK    2  A    between atoms: C1_1  and  C3_3 
ROOT
HETATM    1  C1  UNL     1     -33.163   6.067   4.443  1.00 20.00     0.348 C 
HETATM    2  F4  UNL     1     -33.069   6.091   3.078  1.00 20.00    -0.234 F 
ENDROOT
BRANCH   1   3
HETATM    3  C2  UNL     1     -33.240   7.511   4.895  1.00 20.00     0.423 C 
HETATM    4  F5  UNL     1     -32.202   8.243   4.441  1.00 20.00    -0.168 F 
HETATM    5  F6  UNL     1     -34.380   8.099   4.478  1.00 20.00    -0.168 F 
HETATM    6  F7  UNL     1     -33.214   7.578   6.246  1.00 20.00    -0.168 F 
ENDBRANCH   1   3
BRANCH   1   7
HETATM    7  C3  UNL     1     -34.373   5.208   4.811  1.00 20.00     0.294 C 
HETATM    8  F8  UNL     1     -34.224   3.974   4.258  1.00 20.00    -0.204 F 
HETATM    9 CL9  UNL     1     -35.864   5.935   4.148  1.00 20.00    -0.062 Cl
HETATM   10 CL10 UNL     1     -34.562   5.025   6.572  1.00 20.00    -0.062 Cl
ENDBRANCH   1   7
TORSDOF 2
