REMARK  4 active torsions:
REMARK  status: ('A' for Active; 'I' for Inactive)
REMARK    1  A    between atoms: C1_1  and  C6_6 
REMARK    2  A    between atoms: C2_2  and  C7_7 
REMARK    3  A    between atoms: C6_6  and  C8_8 
REMARK    4  A    between atoms: C7_7  and  C9_9 
ROOT
HETATM    1  C1  UNL     1     -33.548   7.407   5.744  1.00 20.00    -0.107 C 
HETATM    2  C2  UNL     1     -33.118   8.106   4.867  1.00 20.00    -0.106 C 
ENDROOT
BRANCH   2   3
HETATM    3  C7  UNL     1     -32.595   8.953   3.785  1.00 20.00     0.097 C 
BRANCH   3   4
HETATM    4  C9  UNL     1     -32.868   8.394   2.378  1.00 20.00    -0.012 C 
HETATM    5  C4  UNL     1     -32.238   7.015   2.168  1.00 20.00     0.010 C 
HETATM    6  C5  UNL     1     -32.431   9.359   1.273  1.00 20.00     0.010 C 
ENDBRANCH   3   4
ENDBRANCH   2   3
BRANCH   1   7
HETATM    7  C6  UNL     1     -34.078   6.542   6.806  1.00 20.00     0.093 C 
BRANCH   7   8
HETATM    8  C8  UNL     1     -34.072   5.067   6.405  1.00 20.00     0.007 C 
HETATM    9  C3  UNL     1     -34.905   4.784   5.162  1.00 20.00     0.006 C 
ENDBRANCH   7   8
ENDBRANCH   1   7
TORSDOF 4
