REMARK  0 active torsions:
REMARK  status: ('A' for Active; 'I' for Inactive)
ROOT
HETATM    1  C1  UNL     1     -33.854   5.096   3.818  1.00 20.00     0.043 C 
HETATM    2  C2  UNL     1     -33.287   7.626   5.691  1.00 20.00     0.019 C 
HETATM    3  C3  UNL     1     -33.982   6.685   6.343  1.00 20.00     0.114 C 
HETATM    4  C4  UNL     1     -32.981   5.948   3.261  1.00 20.00     0.136 C 
HETATM    5  C5  UNL     1     -34.982   5.358   4.755  1.00 20.00     0.118 C 
HETATM    6  C6  UNL     1     -33.599   8.027   4.285  1.00 20.00     0.203 C 
HETATM    7  N7  UNL     1     -35.074   6.020   5.863  1.00 20.00    -0.273 NA
HETATM    8  O8  UNL     1     -32.784   7.294   3.377  1.00 20.00    -0.359 OA
ENDROOT
TORSDOF 0
