REMARK  1 active torsions:
REMARK  status: ('A' for Active; 'I' for Inactive)
REMARK    1  A    between atoms: C9_9  and  O10_10 
ROOT
HETATM    1  C1  UNL     1     -33.774   8.373   5.458  1.00 20.00     0.053 A 
HETATM    2  C2  UNL     1     -33.229   6.277   3.639  1.00 20.00     0.055 A 
HETATM    3  C3  UNL     1     -34.075   7.059   5.772  1.00 20.00    -0.046 A 
HETATM    4  C4  UNL     1     -33.806   6.019   4.872  1.00 20.00    -0.020 A 
HETATM    5  C5  UNL     1     -33.181   8.639   4.222  1.00 20.00     0.155 A 
HETATM    6  C6  UNL     1     -32.911   7.599   3.319  1.00 20.00     0.155 A 
HETATM    7  C7  UNL     1     -34.740   6.538   7.008  1.00 20.00     0.042 C 
HETATM    8  C8  UNL     1     -34.388   5.046   6.925  1.00 20.00     0.041 C 
HETATM    9  C9  UNL     1     -34.273   4.708   5.429  1.00 20.00     0.152 C 
HETATM   10  F11 UNL     1     -32.873   9.901   3.891  1.00 20.00    -0.203 F 
HETATM   11  F12 UNL     1     -32.349   7.879   2.136  1.00 20.00    -0.203 F 
ENDROOT
BRANCH   9  12
HETATM   12  O10 UNL     1     -33.333   3.674   5.214  1.00 20.00    -0.391 OA
HETATM   13  H20 UNL     1     -33.705   2.862   5.600  1.00 20.00     0.210 HD
ENDBRANCH   9  12
TORSDOF 1
