REMARK  2 active torsions:
REMARK  status: ('A' for Active; 'I' for Inactive)
REMARK    1  A    between atoms: C1_1  and  C2_2 
REMARK    2  A    between atoms: C1_1  and  C3_3 
ROOT
HETATM    1  C1  UNL     1     -33.090   6.673   5.171  1.00 20.00     0.346 C 
HETATM    2  F4  UNL     1     -33.506   7.355   6.282  1.00 20.00    -0.234 F 
ENDROOT
BRANCH   1   3
HETATM    3  C2  UNL     1     -34.059   5.520   4.942  1.00 20.00     0.357 C 
HETATM    4  F5  UNL     1     -35.303   5.984   4.675  1.00 20.00    -0.184 F 
HETATM    5  F6  UNL     1     -34.152   4.763   6.064  1.00 20.00    -0.184 F 
HETATM    6 CL9  UNL     1     -33.530   4.496   3.593  1.00 20.00    -0.045 Cl
ENDBRANCH   1   3
BRANCH   1   7
HETATM    7  C3  UNL     1     -33.019   7.690   4.040  1.00 20.00     0.357 C 
HETATM    8  F7  UNL     1     -32.213   8.714   4.428  1.00 20.00    -0.184 F 
HETATM    9  F8  UNL     1     -34.246   8.226   3.823  1.00 20.00    -0.184 F 
HETATM   10 CL10 UNL     1     -32.389   7.019   2.527  1.00 20.00    -0.045 Cl
ENDBRANCH   1   7
TORSDOF 2
