REMARK  1 active torsions:
REMARK  status: ('A' for Active; 'I' for Inactive)
REMARK    1  A    between atoms: C2_2  and  C6_6 
ROOT
HETATM    1  C3  UNL     1     -33.981   6.982   5.807  1.00 20.00     0.181 C 
HETATM    2  C4  UNL     1     -33.269   6.153   3.558  1.00 20.00     0.181 C 
HETATM    3  C5  UNL     1     -34.178   4.725   5.186  1.00 20.00     0.337 C 
HETATM    4  C6  UNL     1     -33.816   7.357   4.331  1.00 20.00     0.061 C 
HETATM    5  O8  UNL     1     -34.764   5.793   5.927  1.00 20.00    -0.366 OA
HETATM    6  O9  UNL     1     -34.087   5.006   3.791  1.00 20.00    -0.366 OA
ENDROOT
BRANCH   4   7
HETATM    7  C2  UNL     1     -32.951   8.564   4.161  1.00 20.00    -0.085 C 
HETATM    8  C1  UNL     1     -32.386   9.185   5.206  1.00 20.00     0.014 C 
HETATM    9  C7  UNL     1     -32.750   9.039   2.752  1.00 20.00     0.043 C 
ENDBRANCH   4   7
TORSDOF 1
