REMARK  0 active torsions:
REMARK  status: ('A' for Active; 'I' for Inactive)
ROOT
HETATM    1  C1  UNL     1     -34.050   5.375   6.423  1.00 20.00    -0.028 C 
HETATM    2  C2  UNL     1     -33.604   6.635   6.362  1.00 20.00    -0.014 C 
HETATM    3  C3  UNL     1     -34.854   5.021   5.207  1.00 20.00     0.043 C 
HETATM    4  C4  UNL     1     -31.706   7.722   3.694  1.00 20.00     0.084 C 
HETATM    5  C5  UNL     1     -32.260   6.875   2.566  1.00 20.00     0.084 C 
HETATM    6  C6  UNL     1     -34.087   7.300   5.110  1.00 20.00     0.083 C 
HETATM    7  C7  UNL     1     -34.414   6.103   4.196  1.00 20.00     0.068 C 
HETATM    8  S8  UNL     1     -33.016   8.638   4.540  1.00 20.00    -0.158 SA
HETATM    9  S9  UNL     1     -33.045   5.378   3.204  1.00 20.00    -0.162 SA
ENDROOT
TORSDOF 0
