REMARK  1 active torsions:
REMARK  status: ('A' for Active; 'I' for Inactive)
REMARK    1  A    between atoms: C1_1  and  C8_8 
ROOT
HETATM    1  C1  UNL     1     -32.958   6.634   3.240  1.00 20.00     0.069 C 
HETATM    2  C2  UNL     1     -33.791   4.693   4.053  1.00 20.00     0.169 C 
HETATM    3  C3  UNL     1     -34.439   5.675   5.039  1.00 20.00     0.025 C 
HETATM    4  C4  UNL     1     -34.389   5.163   6.475  1.00 20.00     0.029 C 
HETATM    5  C5  UNL     1     -35.876   6.017   4.634  1.00 20.00     0.029 C 
HETATM    6  N9  UNL     1     -33.231   5.421   2.893  1.00 20.00    -0.285 NA
HETATM    7  S10 UNL     1     -33.391   7.151   4.848  1.00 20.00    -0.104 SA
ENDROOT
BRANCH   1   8
HETATM    8  C8  UNL     1     -32.331   7.630   2.326  1.00 20.00     0.036 C 
HETATM    9  C6  UNL     1     -31.017   8.146   2.913  1.00 20.00     0.016 C 
HETATM   10  C7  UNL     1     -32.101   7.032   0.937  1.00 20.00     0.016 C 
ENDBRANCH   1   8
TORSDOF 1
