REMARK  2 active torsions:
REMARK  status: ('A' for Active; 'I' for Inactive)
REMARK    1  A    between atoms: C1_1  and  C2_2 
REMARK    2  A    between atoms: C1_1  and  C3_3 
ROOT
HETATM    1  C2  UNL     1     -33.217   6.076   4.220  1.00 20.00     0.043 A 
HETATM    2  C4  UNL     1     -33.750   5.182   3.216  1.00 20.00     0.013 A 
HETATM    3  C5  UNL     1     -34.528   5.494   4.489  1.00 20.00    -0.023 A 
HETATM    4  C8  UNL     1     -34.196   5.626   1.864  1.00 20.00     0.012 C 
HETATM    5  C9  UNL     1     -35.779   6.338   4.426  1.00 20.00     0.017 C 
HETATM    6  C10 UNL     1     -34.586   4.415   5.543  1.00 20.00     0.017 C 
ENDROOT
BRANCH   1   7
HETATM    7  C1  UNL     1     -32.983   7.336   4.044  1.00 20.00    -0.159 C 
BRANCH   7   8
HETATM    8  C3  UNL     1     -32.746   8.608   3.867  1.00 20.00     0.022 C 
HETATM    9  C6  UNL     1     -33.011   9.299   2.560  1.00 20.00     0.029 C 
HETATM   10  C7  UNL     1     -32.195   9.481   4.958  1.00 20.00     0.029 C 
ENDBRANCH   7   8
ENDBRANCH   1   7
TORSDOF 2
