REMARK  0 active torsions:
REMARK  status: ('A' for Active; 'I' for Inactive)
ROOT
HETATM    1  C1  UNL     1     -33.558   5.296   6.733  1.00 20.00     0.001 C 
HETATM    2  C2  UNL     1     -34.551   4.642   5.752  1.00 20.00     0.005 C 
HETATM    3  C3  UNL     1     -33.523   5.463   3.529  1.00 20.00     0.005 C 
HETATM    4  C4  UNL     1     -32.854   6.847   3.386  1.00 20.00     0.006 C 
HETATM    5  C5  UNL     1     -33.794   6.806   6.920  1.00 20.00     0.010 C 
HETATM    6  C6  UNL     1     -35.183   6.875   4.837  1.00 20.00     0.014 C 
HETATM    7  C7  UNL     1     -33.415   8.770   5.151  1.00 20.00     0.015 A 
HETATM    8  C8  UNL     1     -34.781   5.448   4.447  1.00 20.00    -0.014 C 
HETATM    9  C9  UNL     1     -32.722   7.501   4.728  1.00 20.00    -0.005 A 
HETATM   10  C10 UNL     1     -33.985   7.439   5.566  1.00 20.00    -0.036 A 
ENDROOT
TORSDOF 0
