REMARK  3 active torsions:
REMARK  status: ('A' for Active; 'I' for Inactive)
REMARK    1  A    between atoms: C1_1  and  C3_3 
REMARK    2  A    between atoms: C2_2  and  C4_4 
REMARK    3  A    between atoms: C5_5  and  C6_6 
ROOT
HETATM    1  C3  UNL     1     -32.893   8.600   3.125  1.00 20.00     0.010 C 
HETATM    2  C5  UNL     1     -32.483   7.750   2.167  1.00 20.00    -0.017 C 
HETATM    3  C7  UNL     1     -32.234   6.279   2.291  1.00 20.00     0.052 C 
ENDROOT
BRANCH   1   4
HETATM    4  C1  UNL     1     -33.139   8.265   4.512  1.00 20.00     0.004 C 
HETATM    5  C2  UNL     1     -33.735   7.123   4.880  1.00 20.00     0.041 C 
BRANCH   5   6
HETATM    6  C4  UNL     1     -33.955   6.859   6.316  1.00 20.00     0.258 C 
HETATM    7  O9  UNL     1     -34.494   5.833   6.711  1.00 20.00    -0.302 OA
ENDBRANCH   5   6
ENDBRANCH   1   4
BRANCH   2   8
HETATM    8  C6  UNL     1     -32.296   8.352   0.809  1.00 20.00     0.151 C 
HETATM    9  C8  UNL     1     -33.168   9.525   0.446  1.00 20.00     0.096 C 
HETATM   10  O10 UNL     1     -31.451   7.917   0.030  1.00 20.00    -0.293 OA
ENDBRANCH   2   8
TORSDOF 3
