REMARK  0 active torsions:
REMARK  status: ('A' for Active; 'I' for Inactive)
ROOT
HETATM    1  C1  UNL     1     -32.960   8.555   3.915  1.00 20.00    -0.081 C 
HETATM    2  C2  UNL     1     -32.544   9.633   4.602  1.00 20.00     0.015 C 
HETATM    3  C3  UNL     1     -32.976   8.613   2.400  1.00 20.00     0.034 C 
HETATM    4  C4  UNL     1     -32.144   7.486   1.798  1.00 20.00     0.004 C 
HETATM    5  C5  UNL     1     -32.567   6.124   2.335  1.00 20.00     0.001 C 
HETATM    6  C6  UNL     1     -35.230   5.725   6.436  1.00 20.00     0.000 C 
HETATM    7  C7  UNL     1     -35.511   5.765   4.939  1.00 20.00     0.001 C 
HETATM    8  C8  UNL     1     -33.746   5.890   6.738  1.00 20.00     0.001 C 
HETATM    9  C9  UNL     1     -32.550   6.094   3.866  1.00 20.00     0.014 C 
HETATM   10  C10 UNL     1     -34.924   7.014   4.278  1.00 20.00     0.014 C 
HETATM   11  C11 UNL     1     -33.180   7.149   6.080  1.00 20.00     0.014 C 
HETATM   12  C12 UNL     1     -33.403   7.213   4.538  1.00 20.00    -0.018 C 
ENDROOT
TORSDOF 0
