REMARK  0 active torsions:
REMARK  status: ('A' for Active; 'I' for Inactive)
ROOT
HETATM    1  C1  UNL     1     -34.801   7.667   3.440  1.00 20.00     0.175 C 
HETATM    2  C2  UNL     1     -32.639   7.996   5.173  1.00 20.00     0.175 C 
HETATM    3  C3  UNL     1     -32.431   6.263   2.996  1.00 20.00     0.175 C 
HETATM    4  C4  UNL     1     -34.064   5.596   5.159  1.00 20.00     0.175 C 
HETATM    5  S5  UNL     1     -33.997   8.947   4.440  1.00 20.00    -0.117 SA
HETATM    6  S6  UNL     1     -33.771   7.064   2.076  1.00 20.00    -0.117 SA
HETATM    7  S7  UNL     1     -31.422   7.421   3.959  1.00 20.00    -0.117 SA
HETATM    8  S8  UNL     1     -35.546   6.340   4.426  1.00 20.00    -0.117 SA
HETATM    9  S9  UNL     1     -33.196   6.697   6.309  1.00 20.00    -0.117 SA
HETATM   10  S10 UNL     1     -32.970   4.814   3.943  1.00 20.00    -0.117 SA
ENDROOT
TORSDOF 0
