REMARK  4 active torsions:
REMARK  status: ('A' for Active; 'I' for Inactive)
REMARK    1  A    between atoms: C1_1  and  O8_8 
REMARK    2  A    between atoms: C5_5  and  C6_6 
REMARK    3  A    between atoms: C6_6  and  C7_7 
REMARK    4  A    between atoms: C7_7  and  O8_8 
ROOT
HETATM    1  C4  UNL     1     -32.292   8.776   4.452  1.00 20.00     0.040 C 
HETATM    2  C7  UNL     1     -33.111   7.838   3.576  1.00 20.00     0.125 C 
ENDROOT
BRANCH   2   3
HETATM    3  C6  UNL     1     -32.431   7.593   2.225  1.00 20.00     0.032 C 
BRANCH   3   4
HETATM    4  C5  UNL     1     -32.632   8.763   1.258  1.00 20.00    -0.002 C 
HETATM    5  C3  UNL     1     -31.916   8.522  -0.062  1.00 20.00     0.005 C 
ENDBRANCH   3   4
ENDBRANCH   2   3
BRANCH   2   6
HETATM    6  O8  UNL     1     -33.287   6.604   4.267  1.00 20.00    -0.340 OA
BRANCH   6   7
HETATM    7  C1  UNL     1     -34.197   6.482   5.259  1.00 20.00     0.109 C 
HETATM    8  C2  UNL     1     -35.592   6.056   4.928  1.00 20.00     0.089 C 
HETATM    9  S9  UNL     1     -33.680   6.825   6.805  1.00 20.00    -0.058 SA
ENDBRANCH   6   7
ENDBRANCH   2   6
TORSDOF 4
