REMARK  2 active torsions:
REMARK  status: ('A' for Active; 'I' for Inactive)
REMARK    1  A    between atoms: C1_1  and  C2_2 
REMARK    2  A    between atoms: C2_2  and  C3_3 
ROOT
HETATM    1  C2  UNL     1     -34.461   6.044   4.651  1.00 20.00     0.205 C 
HETATM    2 CL7  UNL     1     -34.689   5.686   6.411  1.00 20.00    -0.092 Cl
HETATM    3 CL8  UNL     1     -36.123   6.192   3.951  1.00 20.00    -0.092 Cl
ENDROOT
BRANCH   1   4
HETATM    4  C1  UNL     1     -33.752   4.835   4.018  1.00 20.00     0.164 C 
HETATM    5 CL6  UNL     1     -33.022   5.173   2.427  1.00 20.00    -0.127 Cl
ENDBRANCH   1   4
BRANCH   1   6
HETATM    6  C3  UNL     1     -33.746   7.397   4.498  1.00 20.00     0.355 C 
HETATM    7  F4  UNL     1     -34.027   8.205   5.554  1.00 20.00    -0.184 F 
HETATM    8  F5  UNL     1     -32.397   7.211   4.525  1.00 20.00    -0.184 F 
HETATM    9 CL9  UNL     1     -34.165   8.264   3.002  1.00 20.00    -0.045 Cl
ENDBRANCH   1   6
TORSDOF 2
