REMARK  2 active torsions:
REMARK  status: ('A' for Active; 'I' for Inactive)
REMARK    1  A    between atoms: C1_1  and  C2_2 
REMARK    2  A    between atoms: C2_2  and  C3_3 
ROOT
HETATM    1  C2  UNL     1     -33.287   6.322   4.468  1.00 20.00     0.218 C 
HETATM    2 CL8  UNL     1     -33.552   5.379   2.972  1.00 20.00    -0.113 Cl
ENDROOT
BRANCH   1   3
HETATM    3  C1  UNL     1     -33.428   7.807   4.166  1.00 20.00     0.251 C 
HETATM    4  F4  UNL     1     -32.542   8.171   3.202  1.00 20.00    -0.254 F 
ENDBRANCH   1   3
BRANCH   1   5
HETATM    5  C3  UNL     1     -34.257   5.859   5.537  1.00 20.00     0.406 C 
HETATM    6  F5  UNL     1     -34.028   6.503   6.704  1.00 20.00    -0.169 F 
HETATM    7  F6  UNL     1     -34.154   4.534   5.776  1.00 20.00    -0.169 F 
HETATM    8  F7  UNL     1     -35.536   6.117   5.182  1.00 20.00    -0.169 F 
ENDBRANCH   1   5
TORSDOF 2
