REMARK  2 active torsions:
REMARK  status: ('A' for Active; 'I' for Inactive)
REMARK    1  A    between atoms: C5_5  and  C6_6 
REMARK    2  A    between atoms: C5_5  and  O8_8 
ROOT
HETATM    1  C1  UNL     1     -33.091   8.714   4.651  1.00 20.00     0.228 C 
HETATM    2  N7  UNL     1     -32.433   9.626   4.368  1.00 20.00    -0.164 NA
HETATM    3  O8  UNL     1     -33.853   7.673   4.983  1.00 20.00    -0.283 OA
ENDROOT
BRANCH   3   4
HETATM    4  C5  UNL     1     -33.404   6.497   4.320  1.00 20.00     0.198 C 
BRANCH   4   5
HETATM    5  C6  UNL     1     -34.252   5.275   4.726  1.00 20.00    -0.029 C 
HETATM    6  C2  UNL     1     -33.750   4.015   4.001  1.00 20.00     0.016 C 
HETATM    7  C3  UNL     1     -35.717   5.532   4.339  1.00 20.00     0.016 C 
HETATM    8  C4  UNL     1     -34.163   5.044   6.244  1.00 20.00     0.016 C 
ENDBRANCH   4   5
ENDBRANCH   3   4
TORSDOF 2
