REMARK  0 active torsions:
REMARK  status: ('A' for Active; 'I' for Inactive)
ROOT
HETATM    1  C1  UNL     1     -33.898   7.222   4.570  1.00 20.00    -0.064 A 
HETATM    2  C2  UNL     1     -32.972   7.898   3.926  1.00 20.00    -0.084 C 
HETATM    3  C3  UNL     1     -34.522   4.789   6.473  1.00 20.00     0.002 C 
HETATM    4  C4  UNL     1     -34.141   6.217   6.893  1.00 20.00     0.010 C 
HETATM    5  C5  UNL     1     -34.409   4.768   4.940  1.00 20.00     0.014 C 
HETATM    6  C6  UNL     1     -34.626   7.076   5.765  1.00 20.00     0.028 A 
HETATM    7  C7  UNL     1     -34.828   6.156   4.520  1.00 20.00    -0.013 A 
HETATM    8  C8  UNL     1     -32.556   7.571   2.507  1.00 20.00     0.043 C 
HETATM    9  C9  UNL     1     -32.233   9.066   4.543  1.00 20.00     0.043 C 
HETATM   10  C10 UNL     1     -36.076   6.284   3.708  1.00 20.00     0.021 C 
ENDROOT
TORSDOF 0
