REMARK  1 active torsions:
REMARK  status: ('A' for Active; 'I' for Inactive)
REMARK    1  A    between atoms: C4_4  and  O11_11 
ROOT
HETATM    1  C1  UNL     1     -34.102   5.660   6.366  1.00 20.00    -0.021 C 
HETATM    2  C2  UNL     1     -34.328   4.505   5.719  1.00 20.00    -0.025 C 
HETATM    3  C3  UNL     1     -33.282   6.708   4.307  1.00 20.00    -0.043 C 
HETATM    4  C4  UNL     1     -32.341   7.621   4.053  1.00 20.00     0.045 C 
HETATM    5  C5  UNL     1     -33.515   5.411   3.540  1.00 20.00     0.046 C 
HETATM    6  C6  UNL     1     -35.514   6.149   4.604  1.00 20.00     0.022 C 
HETATM    7  C7  UNL     1     -34.353   6.780   5.382  1.00 20.00     0.040 C 
HETATM    8  C8  UNL     1     -34.743   4.857   4.304  1.00 20.00     0.013 C 
HETATM    9  C9  UNL     1     -32.167   8.877   4.848  1.00 20.00     0.076 C 
ENDROOT
BRANCH   4  10
HETATM   10  O11 UNL     1     -31.457   7.437   3.006  1.00 20.00    -0.360 OA
HETATM   11  C10 UNL     1     -31.929   7.985   1.801  1.00 20.00     0.209 C 
ENDBRANCH   4  10
TORSDOF 1
