REMARK  0 active torsions:
REMARK  status: ('A' for Active; 'I' for Inactive)
ROOT
HETATM    1  C1  UNL     1     -35.250   5.896   4.130  1.00 20.00     0.062 A 
HETATM    2  C2  UNL     1     -33.998   5.071   4.113  1.00 20.00     0.119 A 
HETATM    3  C3  UNL     1     -34.081   6.282   5.003  1.00 20.00     0.112 A 
HETATM    4 CL4  UNL     1     -33.017   5.040   2.670  1.00 20.00    -0.122 Cl
HETATM    5 CL5  UNL     1     -33.214   7.760   4.595  1.00 20.00    -0.105 Cl
HETATM    6 BR6  UNL     1     -34.247   5.976   6.890  1.00 20.00    -0.066 Br
ENDROOT
TORSDOF 0
