REMARK  0 active torsions:
REMARK  status: ('A' for Active; 'I' for Inactive)
ROOT
HETATM    1  C1  UNL     1     -35.474   6.162   4.397  1.00 20.00     0.177 A 
HETATM    2  C2  UNL     1     -34.332   5.247   4.137  1.00 20.00     0.218 A 
HETATM    3  O3  UNL     1     -33.459   7.606   5.193  1.00 20.00    -0.226 OA
HETATM    4  O4  UNL     1     -34.482   5.831   6.785  1.00 20.00    -0.226 OA
HETATM    5  S5  UNL     1     -33.995   6.307   5.514  1.00 20.00     0.165 S 
HETATM    6 CL6  UNL     1     -33.381   5.444   2.687  1.00 20.00    -0.107 Cl
ENDROOT
TORSDOF 0
