REMARK  4 active torsions:
REMARK  status: ('A' for Active; 'I' for Inactive)
REMARK    1  A    between atoms: C3_3  and  C5_5 
REMARK    2  A    between atoms: C5_5  and  N8_8 
REMARK    3  A    between atoms: C6_6  and  C7_7 
REMARK    4  A    between atoms: C6_6  and  N8_8 
ROOT
HETATM    1  N8  UNL     1     -31.787   8.275   4.658  1.00 20.00     0.089 N 
HETATM    2  H23 UNL     1     -31.201   7.811   5.361  1.00 20.00     0.316 HD
ENDROOT
BRANCH   1   3
HETATM    3  C5  UNL     1     -31.690   7.589   3.398  1.00 20.00     0.274 C 
BRANCH   3   4
HETATM    4  C3  UNL     1     -32.533   8.246   2.361  1.00 20.00     0.018 A 
HETATM    5  C1  UNL     1     -32.615   9.748   2.291  1.00 20.00     0.011 A 
HETATM    6  C2  UNL     1     -31.887   8.983   1.217  1.00 20.00    -0.013 A 
HETATM    7  C4  UNL     1     -32.461   8.888  -0.154  1.00 20.00     0.010 C 
ENDBRANCH   3   4
ENDBRANCH   1   3
BRANCH   1   8
HETATM    8  C6  UNL     1     -33.164   8.303   5.153  1.00 20.00     0.340 C 
BRANCH   8   9
HETATM    9  C7  UNL     1     -33.682   6.895   5.365  1.00 20.00     0.381 C 
HETATM   10  F9  UNL     1     -34.121   6.382   4.188  1.00 20.00    -0.213 F 
HETATM   11  F10 UNL     1     -34.759   6.938   6.191  1.00 20.00    -0.213 F 
ENDBRANCH   8   9
ENDBRANCH   1   8
TORSDOF 4
