REMARK  3 active torsions:
REMARK  status: ('A' for Active; 'I' for Inactive)
REMARK       I    between atoms: C1_1  and  N10_10 
REMARK    1  A    between atoms: C7_7  and  C8_8 
REMARK    2  A    between atoms: C7_7  and  N10_10 
REMARK    3  A    between atoms: C8_8  and  C9_9 
ROOT
HETATM    1  C7  UNL     1     -32.292   7.067   3.690  1.00 20.00     0.127 C 
ENDROOT
BRANCH   1   2
HETATM    2  C8  UNL     1     -33.657   6.528   4.167  1.00 20.00     0.007 C 
HETATM    3  C3  UNL     1     -34.008   5.256   3.372  1.00 20.00     0.012 C 
BRANCH   2   4
HETATM    4  C9  UNL     1     -33.736   6.327   5.727  1.00 20.00    -0.047 C 
HETATM    5  C4  UNL     1     -35.143   5.830   6.133  1.00 20.00     0.015 C 
HETATM    6  C5  UNL     1     -33.442   7.625   6.501  1.00 20.00     0.015 C 
HETATM    7  C6  UNL     1     -32.729   5.250   6.188  1.00 20.00     0.015 C 
ENDBRANCH   2   4
ENDBRANCH   1   2
BRANCH   1   8
HETATM    8  N10 UNL     1     -32.295   7.408   2.291  1.00 20.00    -0.361 N 
HETATM    9  C1  UNL     1     -32.629   8.665   1.814  1.00 20.00     0.213 C 
HETATM   10  C2  UNL     1     -32.562   8.794   0.329  1.00 20.00     0.117 C 
HETATM   11  O11 UNL     1     -32.959   9.632   2.491  1.00 20.00    -0.274 OA
HETATM   12  H30 UNL     1     -32.038   6.689   1.617  1.00 20.00     0.162 HD
ENDBRANCH   1   8
TORSDOF 3
