REMARK  1 active torsions:
REMARK  status: ('A' for Active; 'I' for Inactive)
REMARK    1  A    between atoms: C4_4  and  C8_8 
ROOT
HETATM    1  C1  UNL     1     -32.527   7.294   2.624  1.00 20.00     0.137 C 
HETATM    2  C2  UNL     1     -33.309   6.184   3.282  1.00 20.00     0.095 C 
HETATM    3  C3  UNL     1     -32.819   8.676   3.147  1.00 20.00     0.152 C 
HETATM    4  C4  UNL     1     -33.654   6.666   4.684  1.00 20.00     0.062 C 
HETATM    5  O9  UNL     1     -31.749   7.093   1.696  1.00 20.00    -0.297 OA
HETATM    6  S10 UNL     1     -34.015   8.433   4.482  1.00 20.00    -0.156 SA
ENDROOT
BRANCH   4   7
HETATM    7  C8  UNL     1     -34.835   5.925   5.286  1.00 20.00    -0.038 C 
HETATM    8  C5  UNL     1     -35.151   6.503   6.672  1.00 20.00     0.015 C 
HETATM    9  C6  UNL     1     -34.490   4.435   5.419  1.00 20.00     0.015 C 
HETATM   10  C7  UNL     1     -36.060   6.087   4.373  1.00 20.00     0.015 C 
ENDBRANCH   4   7
TORSDOF 1
