REMARK  2 active torsions:
REMARK  status: ('A' for Active; 'I' for Inactive)
REMARK    1  A    between atoms: C5_5  and  C7_7 
REMARK    2  A    between atoms: C6_6  and  C7_7 
ROOT
HETATM    1  C1  UNL     1     -34.562   7.148   6.021  1.00 20.00     0.033 C 
HETATM    2  C2  UNL     1     -34.870   5.783   6.601  1.00 20.00     0.168 C 
HETATM    3  C3  UNL     1     -33.987   5.489   4.466  1.00 20.00     0.172 C 
HETATM    4  C5  UNL     1     -33.486   6.815   5.011  1.00 20.00     0.014 C 
HETATM    5  O8  UNL     1     -34.650   4.827   5.554  1.00 20.00    -0.391 OA
ENDROOT
BRANCH   4   6
HETATM    6  C7  UNL     1     -33.283   7.876   3.947  1.00 20.00     0.041 C 
BRANCH   6   7
HETATM    7  C6  UNL     1     -32.187   7.514   2.992  1.00 20.00     0.145 A 
HETATM    8  C4  UNL     1     -32.346   7.718   1.512  1.00 20.00     0.200 A 
HETATM    9  O9  UNL     1     -32.497   6.424   2.117  1.00 20.00    -0.381 OA
ENDBRANCH   6   7
ENDBRANCH   4   6
TORSDOF 2
