REMARK  1 active torsions:
REMARK  status: ('A' for Active; 'I' for Inactive)
REMARK    1  A    between atoms: C2_2  and  C6_6 
ROOT
HETATM    1  C1  UNL     1     -34.214   6.541   5.642  1.00 20.00     0.011 C 
HETATM    2  C2  UNL     1     -33.681   6.860   4.451  1.00 20.00     0.026 C 
HETATM    3  C3  UNL     1     -34.764   5.176   5.932  1.00 20.00     0.195 C 
HETATM    4  C4  UNL     1     -33.586   5.825   3.362  1.00 20.00     0.069 C 
HETATM    5  C5  UNL     1     -33.795   4.415   3.909  1.00 20.00     0.172 C 
HETATM    6  O7  UNL     1     -34.950   4.393   4.747  1.00 20.00    -0.387 OA
ENDROOT
BRANCH   2   7
HETATM    7  C6  UNL     1     -33.164   8.230   4.135  1.00 20.00     0.413 C 
HETATM    8  F8  UNL     1     -32.685   8.286   2.875  1.00 20.00    -0.166 F 
HETATM    9  F9  UNL     1     -34.139   9.154   4.249  1.00 20.00    -0.166 F 
HETATM   10  F10 UNL     1     -32.165   8.578   4.972  1.00 20.00    -0.166 F 
ENDBRANCH   2   7
TORSDOF 1
