REMARK  1 active torsions:
REMARK  status: ('A' for Active; 'I' for Inactive)
REMARK    1  A    between atoms: C2_2  and  C4_4 
ROOT
HETATM    1  C1  UNL     1     -35.439   5.731   4.184  1.00 20.00     0.092 A 
HETATM    2  C2  UNL     1     -34.348   5.258   5.120  1.00 20.00     0.092 A 
HETATM    3  C3  UNL     1     -34.047   6.233   4.040  1.00 20.00     0.250 A 
HETATM    4  F5  UNL     1     -33.283   5.864   2.956  1.00 20.00    -0.206 F 
HETATM    5  F6  UNL     1     -33.747   7.546   4.326  1.00 20.00    -0.206 F 
ENDROOT
BRANCH   2   6
HETATM    6  C4  UNL     1     -34.345   5.689   6.545  1.00 20.00     0.232 C 
HETATM    7  F7  UNL     1     -34.686   7.009   6.627  1.00 20.00    -0.255 F 
ENDBRANCH   2   6
TORSDOF 1
