REMARK  1 active torsions:
REMARK  status: ('A' for Active; 'I' for Inactive)
REMARK    1  A    between atoms: C2_2  and  C6_6 
ROOT
HETATM    1  C1  UNL     1     -33.557   5.057   3.372  1.00 20.00     0.139 C 
HETATM    2  C4  UNL     1     -33.425   3.704   4.084  1.00 20.00     0.081 C 
HETATM    3  C5  UNL     1     -34.016   4.371   5.346  1.00 20.00     0.028 C 
HETATM    4  C6  UNL     1     -34.312   5.694   4.569  1.00 20.00     0.035 C 
HETATM    5  C8  UNL     1     -35.784   5.971   4.299  1.00 20.00     0.027 C 
HETATM    6  O9  UNL     1     -33.209   5.458   2.280  1.00 20.00    -0.297 OA
ENDROOT
BRANCH   4   7
HETATM    7  C2  UNL     1     -33.576   6.876   5.080  1.00 20.00    -0.014 C 
HETATM    8  C3  UNL     1     -33.300   7.960   4.342  1.00 20.00    -0.034 C 
HETATM    9  C7  UNL     1     -32.560   9.150   4.857  1.00 20.00     0.036 C 
ENDBRANCH   4   7
TORSDOF 1
