REMARK  0 active torsions:
REMARK  status: ('A' for Active; 'I' for Inactive)
ROOT
HETATM    1  C1  UNL     1     -33.116   7.180   4.914  1.00 20.00     0.221 C 
HETATM    2  C2  UNL     1     -35.431   6.051   5.337  1.00 20.00     0.020 C 
HETATM    3  C3  UNL     1     -33.982   4.747   4.530  1.00 20.00     0.020 C 
HETATM    4  C4  UNL     1     -33.393   5.652   6.885  1.00 20.00     0.127 C 
HETATM    5  C5  UNL     1     -34.253   6.274   4.334  1.00 20.00     0.078 C 
HETATM    6  C6  UNL     1     -34.460   5.020   5.989  1.00 20.00     0.005 C 
HETATM    7  N7  UNL     1     -32.763   6.778   6.197  1.00 20.00    -0.360 N 
HETATM    8  O8  UNL     1     -32.585   8.128   4.336  1.00 20.00    -0.273 OA
HETATM    9  H17 UNL     1     -32.032   7.292   6.679  1.00 20.00     0.162 HD
ENDROOT
TORSDOF 0
