REMARK  0 active torsions:
REMARK  status: ('A' for Active; 'I' for Inactive)
ROOT
HETATM    1  C1  UNL     1     -32.991   4.994   2.683  1.00 20.00     0.102 C 
HETATM    2  C2  UNL     1     -32.609   7.305   3.381  1.00 20.00     0.050 A 
HETATM    3  C3  UNL     1     -33.474   8.107   5.489  1.00 20.00     0.069 A 
HETATM    4  C4  UNL     1     -33.156   6.047   3.635  1.00 20.00     0.087 A 
HETATM    5  C5  UNL     1     -34.021   6.849   5.743  1.00 20.00     0.158 A 
HETATM    6  C6  UNL     1     -33.862   5.819   4.816  1.00 20.00     0.175 A 
HETATM    7  C7  UNL     1     -32.768   8.335   4.308  1.00 20.00     0.038 A 
HETATM    8  N8  UNL     1     -32.856   4.140   1.909  1.00 20.00    -0.191 NA
HETATM    9  F9  UNL     1     -34.698   6.631   6.878  1.00 20.00    -0.203 F 
HETATM   10  F10 UNL     1     -34.393   4.615   5.075  1.00 20.00    -0.201 F 
HETATM   11 CL11 UNL     1     -32.094   9.887   3.994  1.00 20.00    -0.084 Cl
ENDROOT
TORSDOF 0
