REMARK  5 active torsions:
REMARK  status: ('A' for Active; 'I' for Inactive)
REMARK    1  A    between atoms: C3_3  and  C7_7 
REMARK    2  A    between atoms: C4_4  and  C8_8 
REMARK    3  A    between atoms: C7_7  and  C9_9 
REMARK    4  A    between atoms: C8_8  and  C10_10 
REMARK    5  A    between atoms: C9_9  and  C10_10 
ROOT
HETATM    1  C9  UNL     1     -32.721   8.386   2.789  1.00 20.00     0.004 C 
ENDROOT
BRANCH   1   2
HETATM    2  C7  UNL     1     -32.068   8.151   1.425  1.00 20.00     0.026 C 
BRANCH   2   3
HETATM    3  C3  UNL     1     -32.502   9.187   0.428  1.00 20.00    -0.031 C 
HETATM    4  C1  UNL     1     -33.157   8.901  -0.706  1.00 20.00    -0.035 C 
HETATM    5  C5  UNL     1     -33.584   9.930  -1.700  1.00 20.00     0.035 C 
ENDBRANCH   2   3
ENDBRANCH   1   2
BRANCH   1   6
HETATM    6  C10 UNL     1     -32.254   7.350   3.814  1.00 20.00     0.004 C 
BRANCH   6   7
HETATM    7  C8  UNL     1     -32.877   7.609   5.188  1.00 20.00     0.026 C 
BRANCH   7   8
HETATM    8  C4  UNL     1     -34.374   7.511   5.134  1.00 20.00    -0.031 C 
HETATM    9  C2  UNL     1     -35.057   6.384   5.382  1.00 20.00    -0.035 C 
HETATM   10  C6  UNL     1     -34.415   5.086   5.743  1.00 20.00     0.035 C 
ENDBRANCH   7   8
ENDBRANCH   6   7
ENDBRANCH   1   6
TORSDOF 5
