REMARK  2 active torsions:
REMARK  status: ('A' for Active; 'I' for Inactive)
REMARK    1  A    between atoms: C1_1  and  C3_3 
REMARK    2  A    between atoms: C2_2  and  C4_4 
ROOT
HETATM    1  C4  UNL     1     -32.680   7.094   3.906  1.00 20.00     0.097 C 
HETATM    2  C5  UNL     1     -33.980   7.583   4.600  1.00 20.00     0.074 C 
HETATM    3  C6  UNL     1     -33.504   5.891   3.375  1.00 20.00     0.315 C 
HETATM    4  C7  UNL     1     -34.458   6.105   4.582  1.00 20.00     0.312 C 
HETATM    5  C8  UNL     1     -33.818   8.221   5.966  1.00 20.00     0.017 C 
HETATM    6  F10 UNL     1     -34.081   6.049   2.160  1.00 20.00    -0.199 F 
HETATM    7  F11 UNL     1     -32.856   4.705   3.348  1.00 20.00    -0.199 F 
HETATM    8  F12 UNL     1     -35.772   5.917   4.329  1.00 20.00    -0.199 F 
HETATM    9  F13 UNL     1     -34.162   5.373   5.681  1.00 20.00    -0.199 F 
ENDROOT
BRANCH   1  10
HETATM   10  C2  UNL     1     -32.128   7.994   2.876  1.00 20.00    -0.012 C 
HETATM   11  C1  UNL     1     -32.864   8.526   1.894  1.00 20.00     0.038 C 
BRANCH  11  12
HETATM   12  C3  UNL     1     -32.215   9.416   0.911  1.00 20.00     0.258 C 
HETATM   13  O9  UNL     1     -32.840   9.930  -0.009  1.00 20.00    -0.302 OA
ENDBRANCH  11  12
ENDBRANCH   1  10
TORSDOF 2
