REMARK  1 active torsions:
REMARK  status: ('A' for Active; 'I' for Inactive)
REMARK    1  A    between atoms: C5_5  and  C6_6 
ROOT
HETATM    1  C1  UNL     1     -34.074   4.636   4.041  1.00 20.00     0.078 C 
HETATM    2  C2  UNL     1     -34.890   5.004   5.032  1.00 20.00    -0.018 C 
HETATM    3  C3  UNL     1     -33.330   5.648   3.267  1.00 20.00     0.283 C 
HETATM    4  C4  UNL     1     -35.020   6.428   5.455  1.00 20.00     0.061 C 
HETATM    5  C5  UNL     1     -33.728   7.161   5.120  1.00 20.00     0.149 C 
HETATM    6  O7  UNL     1     -32.758   5.346   2.226  1.00 20.00    -0.260 OA
HETATM    7  O8  UNL     1     -33.350   6.920   3.747  1.00 20.00    -0.311 OA
ENDROOT
BRANCH   5   8
HETATM    8  C6  UNL     1     -33.876   8.664   5.308  1.00 20.00     0.147 C 
HETATM    9 CL9  UNL     1     -32.352   9.485   4.920  1.00 20.00    -0.128 Cl
ENDBRANCH   5   8
TORSDOF 1
