REMARK  1 active torsions:
REMARK  status: ('A' for Active; 'I' for Inactive)
REMARK    1  A    between atoms: N9_9  and  O10_10 
ROOT
HETATM    1  C1  UNL     1     -34.075   5.724   4.046  1.00 20.00     0.044 C 
HETATM    2  C2  UNL     1     -33.220   5.458   2.821  1.00 20.00     0.058 C 
HETATM    3  C3  UNL     1     -32.196   6.615   2.889  1.00 20.00     0.011 C 
HETATM    4  C4  UNL     1     -33.493   9.223   5.350  1.00 20.00     0.001 C 
HETATM    5  C5  UNL     1     -34.402   7.974   5.471  1.00 20.00     0.011 C 
HETATM    6  C6  UNL     1     -32.386   8.871   4.326  1.00 20.00     0.005 C 
HETATM    7  C7  UNL     1     -33.574   6.902   4.813  1.00 20.00     0.040 C 
HETATM    8  C8  UNL     1     -32.984   7.673   3.632  1.00 20.00    -0.004 C 
HETATM    9  N9  UNL     1     -35.081   4.993   4.381  1.00 20.00    -0.145 NA
ENDROOT
BRANCH   9  10
HETATM   10  O10 UNL     1     -35.638   5.517   5.551  1.00 20.00    -0.266 OA
HETATM   11  H23 UNL     1     -36.374   4.901   5.710  1.00 20.00     0.247 HD
ENDBRANCH   9  10
TORSDOF 1
