REMARK  1 active torsions:
REMARK  status: ('A' for Active; 'I' for Inactive)
REMARK    1  A    between atoms: C7_7  and  C8_8 
ROOT
HETATM    1  C4  UNL     1     -34.071   4.852   4.864  1.00 20.00     0.038 C 
HETATM    2  C5  UNL     1     -34.313   4.399   6.302  1.00 20.00     0.270 C 
HETATM    3  C6  UNL     1     -34.873   6.643   6.994  1.00 20.00     0.307 C 
HETATM    4  C8  UNL     1     -33.649   6.324   4.807  1.00 20.00     0.027 C 
HETATM    5  C9  UNL     1     -34.643   7.186   5.588  1.00 20.00     0.202 C 
HETATM    6  N10 UNL     1     -35.301   5.246   6.970  1.00 20.00     0.086 N 
HETATM    7  F11 UNL     1     -34.134   8.445   5.697  1.00 20.00    -0.247 F 
HETATM    8  H27 UNL     1     -36.187   5.179   6.469  1.00 20.00     0.315 HD
ENDROOT
BRANCH   4   9
HETATM    9  C7  UNL     1     -33.580   6.789   3.353  1.00 20.00    -0.008 C 
HETATM   10  C2  UNL     1     -32.596   6.030   2.426  1.00 20.00     0.005 C 
HETATM   11  C1  UNL     1     -32.304   7.385   1.749  1.00 20.00     0.001 C 
HETATM   12  C3  UNL     1     -32.733   8.057   3.069  1.00 20.00     0.005 C 
ENDBRANCH   4   9
TORSDOF 1
