REMARK  0 active torsions:
REMARK  status: ('A' for Active; 'I' for Inactive)
ROOT
HETATM    1  C1  UNL     1     -32.934   7.749   3.356  1.00 20.00     0.088 C 
HETATM    2  C2  UNL     1     -34.957   5.174   5.229  1.00 20.00     0.001 C 
HETATM    3  C3  UNL     1     -34.425   5.554   3.821  1.00 20.00     0.010 C 
HETATM    4  C4  UNL     1     -34.429   6.257   6.206  1.00 20.00     0.007 C 
HETATM    5  C5  UNL     1     -33.050   8.455   5.461  1.00 20.00     0.153 C 
HETATM    6  C6  UNL     1     -33.362   6.565   4.149  1.00 20.00     0.031 C 
HETATM    7  C7  UNL     1     -34.053   7.352   5.245  1.00 20.00     0.014 C 
HETATM    8  N8  UNL     1     -32.681   8.820   4.054  1.00 20.00    -0.305 NA
ENDROOT
TORSDOF 0
