REMARK  0 active torsions:
REMARK  status: ('A' for Active; 'I' for Inactive)
ROOT
HETATM    1  C1  UNL     1     -33.116   7.721   4.499  1.00 20.00     0.135 C 
HETATM    2  C2  UNL     1     -34.156   7.182   5.457  1.00 20.00     0.110 C 
HETATM    3  C3  UNL     1     -33.753   5.754   3.162  1.00 20.00     0.179 C 
HETATM    4  C4  UNL     1     -32.619   6.742   3.443  1.00 20.00     0.075 C 
HETATM    5  C5  UNL     1     -33.971   5.670   5.570  1.00 20.00     0.124 C 
HETATM    6  C6  UNL     1     -32.193   7.464   2.172  1.00 20.00     0.020 C 
HETATM    7  C7  UNL     1     -34.961   5.066   6.556  1.00 20.00     0.040 C 
HETATM    8  O8  UNL     1     -32.710   8.879   4.580  1.00 20.00    -0.297 OA
HETATM    9  O9  UNL     1     -34.151   5.006   4.314  1.00 20.00    -0.385 OA
ENDROOT
TORSDOF 0
