REMARK  0 active torsions:
REMARK  status: ('A' for Active; 'I' for Inactive)
ROOT
HETATM    1  C1  UNL     1     -32.093   7.520   2.080  1.00 20.00     0.064 C 
HETATM    2  C2  UNL     1     -34.043   5.142   4.324  1.00 20.00     0.012 C 
HETATM    3  C3  UNL     1     -34.059   5.818   5.480  1.00 20.00     0.090 C 
HETATM    4  C4  UNL     1     -33.374   5.656   3.082  1.00 20.00     0.049 C 
HETATM    5  C5  UNL     1     -33.438   7.170   5.648  1.00 20.00     0.071 C 
HETATM    6  C6  UNL     1     -33.100   7.844   4.315  1.00 20.00     0.026 C 
HETATM    7  C7  UNL     1     -32.444   6.854   3.345  1.00 20.00     0.096 C 
HETATM    8  N8  UNL     1     -31.816   8.045   1.083  1.00 20.00    -0.197 NA
HETATM    9  F9  UNL     1     -34.687   5.263   6.541  1.00 20.00    -0.211 F 
ENDROOT
TORSDOF 0
