REMARK  2 active torsions:
REMARK  status: ('A' for Active; 'I' for Inactive)
REMARK    1  A    between atoms: C2_2  and  C6_6 
REMARK    2  A    between atoms: C3_3  and  C6_6 
ROOT
HETATM    1  C1  UNL     1     -33.090   8.402   4.929  1.00 20.00    -0.110 C 
HETATM    2  C2  UNL     1     -33.723   7.381   4.933  1.00 20.00    -0.092 C 
HETATM    3  C4  UNL     1     -32.319   9.644   4.923  1.00 20.00     0.112 C 
ENDROOT
BRANCH   2   4
HETATM    4  C6  UNL     1     -34.502   6.129   4.937  1.00 20.00     0.162 C 
HETATM    5  C5  UNL     1     -34.509   5.515   6.333  1.00 20.00     0.035 C 
BRANCH   4   6
HETATM    6  C3  UNL     1     -33.950   5.176   3.860  1.00 20.00     0.188 C 
HETATM    7  O7  UNL     1     -34.122   3.947   4.110  1.00 20.00    -0.647 OA
HETATM    8  O8  UNL     1     -33.397   5.716   2.862  1.00 20.00    -0.647 OA
ENDBRANCH   4   6
ENDBRANCH   2   4
TORSDOF 2
