REMARK  2 active torsions:
REMARK  status: ('A' for Active; 'I' for Inactive)
REMARK    1  A    between atoms: C1_1  and  C7_7 
REMARK    2  A    between atoms: C4_4  and  C7_7 
ROOT
HETATM    1  C2  UNL     1     -34.395   4.777   6.289  1.00 20.00     0.197 C 
HETATM    2  C3  UNL     1     -33.972   6.156   6.715  1.00 20.00     0.197 C 
HETATM    3  C4  UNL     1     -34.146   6.088   4.455  1.00 20.00     0.169 C 
HETATM    4  C5  UNL     1     -35.382   6.216   3.574  1.00 20.00     0.080 C 
HETATM    5  O9  UNL     1     -34.026   4.730   4.911  1.00 20.00    -0.353 OA
HETATM    6  O10 UNL     1     -34.294   6.965   5.584  1.00 20.00    -0.353 OA
ENDROOT
BRANCH   3   7
HETATM    7  C7  UNL     1     -32.880   6.458   3.692  1.00 20.00     0.105 C 
HETATM    8  C6  UNL     1     -32.685   5.554   2.481  1.00 20.00     0.023 C 
BRANCH   7   9
HETATM    9  C1  UNL     1     -32.951   7.921   3.295  1.00 20.00     0.240 C 
HETATM   10  O8  UNL     1     -32.572   8.853   3.997  1.00 20.00    -0.306 OA
ENDBRANCH   7   9
ENDBRANCH   3   7
TORSDOF 2
