REMARK  1 active torsions:
REMARK  status: ('A' for Active; 'I' for Inactive)
REMARK    1  A    between atoms: C2_2  and  O6_6 
ROOT
HETATM    1  C1  UNL     1     -34.808   6.781   4.315  1.00 20.00     0.106 A 
HETATM    2  C2  UNL     1     -33.456   6.740   4.976  1.00 20.00     0.111 A 
HETATM    3  C3  UNL     1     -33.921   5.577   4.135  1.00 20.00     0.212 A 
HETATM    4  C4  UNL     1     -33.360   6.602   6.459  1.00 20.00     0.051 C 
HETATM    5  F7  UNL     1     -34.314   4.433   4.822  1.00 20.00    -0.222 F 
HETATM    6 CL8  UNL     1     -33.208   5.295   2.556  1.00 20.00    -0.079 Cl
ENDROOT
BRANCH   2   7
HETATM    7  O6  UNL     1     -32.460   7.612   4.414  1.00 20.00    -0.381 OA
HETATM    8  C5  UNL     1     -32.632   8.938   4.877  1.00 20.00     0.202 C 
ENDBRANCH   2   7
TORSDOF 1
