REMARK  2 active torsions:
REMARK  status: ('A' for Active; 'I' for Inactive)
REMARK    1  A    between atoms: C4_4  and  C8_8 
REMARK    2  A    between atoms: C5_5  and  C9_9 
ROOT
HETATM    1  C1  UNL     1     -34.051   6.051   5.962  1.00 20.00     0.139 C 
HETATM    2  C6  UNL     1     -33.216   7.145   6.587  1.00 20.00     0.080 C 
HETATM    3  C7  UNL     1     -32.931   8.059   5.400  1.00 20.00     0.017 C 
HETATM    4  C8  UNL     1     -34.169   7.906   4.511  1.00 20.00     0.027 C 
HETATM    5  C9  UNL     1     -34.468   6.384   4.532  1.00 20.00     0.041 C 
HETATM    6  C10 UNL     1     -35.944   6.081   4.292  1.00 20.00     0.028 C 
HETATM    7  O11 UNL     1     -34.346   5.017   6.551  1.00 20.00    -0.297 OA
ENDROOT
BRANCH   5   8
HETATM    8  C5  UNL     1     -33.599   5.542   3.640  1.00 20.00    -0.019 C 
HETATM    9  C3  UNL     1     -33.571   4.205   3.669  1.00 20.00     0.008 C 
ENDBRANCH   5   8
BRANCH   4  10
HETATM   10  C4  UNL     1     -34.005   8.522   3.159  1.00 20.00    -0.031 C 
HETATM   11  C2  UNL     1     -32.882   9.113   2.737  1.00 20.00     0.007 C 
ENDBRANCH   4  10
TORSDOF 2
