REMARK  0 active torsions:
REMARK  status: ('A' for Active; 'I' for Inactive)
ROOT
HETATM    1  C1  UNL     1     -34.076   4.893   5.735  1.00 20.00    -0.024 C 
HETATM    2  C2  UNL     1     -34.089   4.197   4.574  1.00 20.00    -0.024 C 
HETATM    3  C3  UNL     1     -33.216   8.419   4.924  1.00 20.00     0.272 C 
HETATM    4  C4  UNL     1     -32.675   7.564   2.870  1.00 20.00     0.272 C 
HETATM    5  C5  UNL     1     -34.824   6.060   5.136  1.00 20.00     0.031 C 
HETATM    6  C6  UNL     1     -34.409   5.431   3.739  1.00 20.00     0.031 C 
HETATM    7  C7  UNL     1     -34.193   7.310   4.591  1.00 20.00     0.108 C 
HETATM    8  C8  UNL     1     -33.246   6.424   3.709  1.00 20.00     0.108 C 
HETATM    9  O9  UNL     1     -33.072   9.066   5.951  1.00 20.00    -0.264 OA
HETATM   10  O10 UNL     1     -32.367   7.593   1.688  1.00 20.00    -0.264 OA
HETATM   11  O11 UNL     1     -32.486   8.641   3.750  1.00 20.00    -0.244 OA
ENDROOT
TORSDOF 0
