REMARK  1 active torsions:
REMARK  status: ('A' for Active; 'I' for Inactive)
REMARK    1  A    between atoms: C5_5  and  P6_6 
ROOT
HETATM    1  C1  UNL     1     -33.471   5.587   2.979  1.00 20.00     0.021 C 
HETATM    2  C2  UNL     1     -33.759   4.315   5.127  1.00 20.00     0.021 C 
HETATM    3  C3  UNL     1     -35.502   5.975   4.407  1.00 20.00     0.021 C 
HETATM    4  C5  UNL     1     -34.000   5.656   4.419  1.00 20.00    -0.015 C 
ENDROOT
BRANCH   4   5
HETATM    5  P6  UNL     1     -33.077   7.011   5.346  1.00 20.00    -0.013 P 
HETATM    6  C4  UNL     1     -33.550   8.419   4.281  1.00 20.00     0.062 C 
HETATM    7 CL7  UNL     1     -34.401   7.269   6.946  1.00 20.00    -0.096 Cl
ENDBRANCH   4   5
TORSDOF 1
