REMARK  1 active torsions:
REMARK  status: ('A' for Active; 'I' for Inactive)
REMARK    1  A    between atoms: C1_1  and  C7_7 
ROOT
HETATM    1  C2  UNL     1     -31.871   8.094   4.410  1.00 20.00     0.007 C 
HETATM    2  C3  UNL     1     -32.351   6.663   4.662  1.00 20.00     0.020 C 
HETATM    3  C4  UNL     1     -34.528   7.020   3.448  1.00 20.00     0.026 C 
HETATM    4  C5  UNL     1     -32.772   8.940   3.562  1.00 20.00    -0.002 A 
HETATM    5  C6  UNL     1     -34.111   8.417   3.096  1.00 20.00    -0.000 A 
HETATM    6  C7  UNL     1     -33.873   6.538   4.745  1.00 20.00     0.045 C 
HETATM    7  C8  UNL     1     -33.022   8.739   2.076  1.00 20.00    -0.040 A 
HETATM    8  C9  UNL     1     -34.458   7.204   5.988  1.00 20.00     0.027 C 
HETATM    9  C10 UNL     1     -33.224   9.987   1.247  1.00 20.00     0.015 C 
HETATM   10  C11 UNL     1     -32.304   7.654   1.319  1.00 20.00     0.015 C 
ENDROOT
BRANCH   6  11
HETATM   11  C1  UNL     1     -34.164   5.044   4.854  1.00 20.00     0.181 C 
HETATM   12  O12 UNL     1     -34.323   4.444   3.755  1.00 20.00    -0.647 OA
HETATM   13  O13 UNL     1     -34.209   4.598   6.035  1.00 20.00    -0.647 OA
ENDBRANCH   6  11
TORSDOF 1
