REMARK  1 active torsions:
REMARK  status: ('A' for Active; 'I' for Inactive)
REMARK    1  A    between atoms: C1_1  and  C3_3 
ROOT
HETATM    1  C1  UNL     1     -33.609   7.367   5.675  1.00 20.00     0.181 A 
HETATM    2  C2  UNL     1     -34.010   8.110   4.433  1.00 20.00     0.247 A 
HETATM    3  O4  UNL     1     -33.930   8.763   5.707  1.00 20.00    -0.358 OA
HETATM    4 CL5  UNL     1     -32.818   8.482   3.220  1.00 20.00    -0.092 Cl
ENDROOT
BRANCH   1   5
HETATM    5  C3  UNL     1     -34.576   6.497   6.393  1.00 20.00     0.150 C 
HETATM    6 CL6  UNL     1     -34.743   4.909   5.590  1.00 20.00    -0.128 Cl
ENDBRANCH   1   5
TORSDOF 1
