REMARK  2 active torsions:
REMARK  status: ('A' for Active; 'I' for Inactive)
REMARK    1  A    between atoms: C3_3  and  C4_4 
REMARK    2  A    between atoms: C4_4  and  S7_7 
ROOT
HETATM    1  C4  UNL     1     -33.683   6.901   5.446  1.00 20.00     0.162 C 
ENDROOT
BRANCH   1   2
HETATM    2  C3  UNL     1     -33.568   8.093   4.560  1.00 20.00     0.001 A 
HETATM    3  C1  UNL     1     -32.611   9.201   4.901  1.00 20.00     0.006 A 
HETATM    4  C2  UNL     1     -32.332   8.302   3.730  1.00 20.00     0.006 A 
ENDBRANCH   1   2
BRANCH   1   5
HETATM    5  S7  UNL     1     -34.415   5.517   4.615  1.00 20.00     0.230 S 
HETATM    6  O5  UNL     1     -35.742   5.894   4.173  1.00 20.00    -0.211 OA
HETATM    7  O6  UNL     1     -34.178   4.327   5.405  1.00 20.00    -0.211 OA
HETATM    8 CL8  UNL     1     -33.340   5.240   2.896  1.00 20.00     0.018 Cl
ENDBRANCH   1   5
TORSDOF 2
