REMARK  3 active torsions:
REMARK  status: ('A' for Active; 'I' for Inactive)
REMARK    1  A    between atoms: C3_3  and  C4_4 
REMARK    2  A    between atoms: C4_4  and  C5_5 
REMARK    3  A    between atoms: C7_7  and  O10_10 
ROOT
HETATM    1  C1  UNL     1     -34.083   6.214   6.806  1.00 20.00     0.006 C 
HETATM    2  C2  UNL     1     -34.945   5.267   6.426  1.00 20.00    -0.023 C 
HETATM    3  C3  UNL     1     -33.571   6.927   5.666  1.00 20.00    -0.027 C 
HETATM    4  C6  UNL     1     -35.138   5.245   4.942  1.00 20.00     0.064 C 
HETATM    5  C7  UNL     1     -34.120   6.274   4.426  1.00 20.00     0.157 C 
ENDROOT
BRANCH   3   6
HETATM    6  C4  UNL     1     -32.763   7.990   5.712  1.00 20.00     0.051 C 
BRANCH   6   7
HETATM    7  C5  UNL     1     -32.343   8.588   4.431  1.00 20.00     0.259 C 
HETATM    8  O9  UNL     1     -33.049   8.552   3.430  1.00 20.00    -0.302 OA
ENDBRANCH   6   7
ENDBRANCH   3   6
BRANCH   5   9
HETATM    9  O10 UNL     1     -33.064   5.611   3.741  1.00 20.00    -0.386 OA
HETATM   10  C8  UNL     1     -33.394   5.376   2.379  1.00 20.00     0.202 C 
ENDBRANCH   5   9
TORSDOF 3
