REMARK  0 active torsions:
REMARK  status: ('A' for Active; 'I' for Inactive)
ROOT
HETATM    1  C1  UNL     1     -33.380   7.224   5.739  1.00 20.00     0.200 C 
HETATM    2  C2  UNL     1     -34.249   6.300   5.346  1.00 20.00     0.113 C 
HETATM    3  F3  UNL     1     -32.947   8.185   4.902  1.00 20.00    -0.219 F 
HETATM    4 CL4  UNL     1     -34.821   5.062   6.379  1.00 20.00    -0.095 Cl
ENDROOT
TORSDOF 0
