REMARK  1 active torsions:
REMARK  status: ('A' for Active; 'I' for Inactive)
REMARK    1  A    between atoms: C5_5  and  C10_10 
ROOT
HETATM    1  C1  UNL     1     -32.405   7.789   1.491  1.00 20.00     0.027 A 
HETATM    2  C2  UNL     1     -32.988   9.703   2.825  1.00 20.00     0.027 A 
HETATM    3  C3  UNL     1     -32.374   8.632   0.392  1.00 20.00     0.116 A 
HETATM    4  C4  UNL     1     -32.930  10.460   1.667  1.00 20.00     0.116 A 
HETATM    5  C5  UNL     1     -32.719   8.342   2.727  1.00 20.00    -0.051 A 
HETATM    6  N11 UNL     1     -32.629   9.958   0.448  1.00 20.00    -0.273 NA
ENDROOT
BRANCH   5   7
HETATM    7  C10 UNL     1     -32.770   7.414   4.037  1.00 20.00     0.026 C 
HETATM    8  C8  UNL     1     -33.848   7.712   5.127  1.00 20.00     0.043 C 
HETATM    9  C6  UNL     1     -34.541   6.483   4.597  1.00 20.00    -0.088 C 
HETATM   10  C7  UNL     1     -35.789   6.024   4.708  1.00 20.00     0.014 C 
HETATM   11  C9  UNL     1     -33.312   5.956   3.901  1.00 20.00     0.043 C 
ENDBRANCH   5   7
TORSDOF 1
