REMARK  0 active torsions:
REMARK  status: ('A' for Active; 'I' for Inactive)
ROOT
HETATM    1  C1  UNL     1     -32.239   8.638   0.367  1.00 20.00     0.012 C 
HETATM    2  C2  UNL     1     -32.376   8.092   1.427  1.00 20.00    -0.113 C 
HETATM    3  C3  UNL     1     -34.123   6.518   5.000  1.00 20.00     0.127 C 
HETATM    4  C4  UNL     1     -33.722   5.530   3.928  1.00 20.00     0.079 C 
HETATM    5  C5  UNL     1     -33.265   7.755   5.133  1.00 20.00     0.079 C 
HETATM    6  C6  UNL     1     -33.511   6.238   2.596  1.00 20.00     0.024 C 
HETATM    7  C7  UNL     1     -33.063   8.417   3.776  1.00 20.00     0.024 C 
HETATM    8  C8  UNL     1     -32.544   7.423   2.728  1.00 20.00     0.065 C 
HETATM    9  O9  UNL     1     -35.035   6.278   5.790  1.00 20.00    -0.298 OA
ENDROOT
TORSDOF 0
