REMARK  1 active torsions:
REMARK  status: ('A' for Active; 'I' for Inactive)
REMARK    1  A    between atoms: N3_3  and  P4_4 
ROOT
HETATM    1  C1  UNL     1     -32.476   7.801   2.906  1.00 20.00     0.117 C 
HETATM    2  C2  UNL     1     -32.754   8.868   5.028  1.00 20.00     0.117 C 
HETATM    3  N3  UNL     1     -32.756   7.580   4.328  1.00 20.00    -0.274 NA
ENDROOT
BRANCH   3   4
HETATM    4  P4  UNL     1     -34.116   6.587   4.648  1.00 20.00     0.158 P 
HETATM    5 CL5  UNL     1     -33.863   4.678   3.805  1.00 20.00    -0.059 Cl
HETATM    6 CL6  UNL     1     -34.154   5.998   6.666  1.00 20.00    -0.059 Cl
ENDBRANCH   3   4
TORSDOF 1
