REMARK  0 active torsions:
REMARK  status: ('A' for Active; 'I' for Inactive)
ROOT
HETATM    1  C1  UNL     1     -32.626   7.694   3.248  1.00 20.00     0.099 A 
HETATM    2  C2  UNL     1     -33.503   8.358   5.408  1.00 20.00     0.063 A 
HETATM    3  C3  UNL     1     -34.732   4.826   6.192  1.00 20.00     0.167 A 
HETATM    4  C4  UNL     1     -33.704   6.035   4.659  1.00 20.00     0.124 A 
HETATM    5  C5  UNL     1     -33.045   6.377   3.458  1.00 20.00     0.204 A 
HETATM    6  C6  UNL     1     -32.853   8.670   4.211  1.00 20.00     0.121 A 
HETATM    7  C7  UNL     1     -33.921   7.034   5.613  1.00 20.00     0.042 A 
HETATM    8  N8  UNL     1     -34.174   4.776   5.005  1.00 20.00    -0.249 NA
HETATM    9  O9  UNL     1     -32.880   5.419   2.634  1.00 20.00    -0.286 OA
HETATM   10  F10 UNL     1     -32.444   9.927   3.990  1.00 20.00    -0.206 F 
HETATM   11  S11 UNL     1     -34.737   6.350   6.969  1.00 20.00    -0.080 SA
ENDROOT
TORSDOF 0
