REMARK  2 active torsions:
REMARK  status: ('A' for Active; 'I' for Inactive)
REMARK    1  A    between atoms: C1_1  and  C5_5 
REMARK    2  A    between atoms: C4_4  and  C5_5 
ROOT
HETATM    1  C2  UNL     1     -35.360   6.931   4.172  1.00 20.00     0.032 C 
HETATM    2  C3  UNL     1     -33.551   5.253   3.769  1.00 20.00     0.032 C 
HETATM    3  C5  UNL     1     -33.951   6.488   4.583  1.00 20.00     0.100 C 
ENDROOT
BRANCH   3   4
HETATM    4  C1  UNL     1     -32.927   7.641   4.368  1.00 20.00     0.186 C 
HETATM    5  O6  UNL     1     -32.387   7.692   3.226  1.00 20.00    -0.647 OA
HETATM    6  O7  UNL     1     -32.758   8.417   5.352  1.00 20.00    -0.647 OA
ENDBRANCH   3   4
BRANCH   3   7
HETATM    7  C4  UNL     1     -33.919   6.164   6.078  1.00 20.00     0.371 C 
HETATM    8  F8  UNL     1     -34.802   5.177   6.373  1.00 20.00    -0.213 F 
HETATM    9  F9  UNL     1     -34.286   7.246   6.811  1.00 20.00    -0.213 F 
ENDBRANCH   3   7
TORSDOF 2
