MODEL 1
REMARK VINA RESULT:      -5.2      0.000      0.000
REMARK  0 active torsions:
REMARK  status: ('A' for Active; 'I' for Inactive)
ROOT
HETATM    1  C1  UNL     1     -34.295   5.834   6.459  1.00 20.00    -0.030 C 
HETATM    2  C2  UNL     1     -33.763   6.600   5.497  1.00 20.00    -0.030 C 
HETATM    3  C3  UNL     1     -35.125   4.618   6.175  1.00 20.00     0.026 C 
HETATM    4  C4  UNL     1     -33.974   6.341   4.034  1.00 20.00     0.026 C 
HETATM    5  C5  UNL     1     -35.037   4.156   4.718  1.00 20.00     0.004 C 
HETATM    6  C6  UNL     1     -35.097   5.340   3.756  1.00 20.00     0.004 C 
ENDROOT
TORSDOF 0
ENDMDL
MODEL 2
REMARK VINA RESULT:      -5.1      0.056      2.082
REMARK  0 active torsions:
REMARK  status: ('A' for Active; 'I' for Inactive)
ROOT
HETATM    1  C1  UNL     1     -33.711   6.609   5.455  1.00 20.00    -0.030 C 
HETATM    2  C2  UNL     1     -34.260   5.884   6.438  1.00 20.00    -0.030 C 
HETATM    3  C3  UNL     1     -33.938   6.325   4.000  1.00 20.00     0.026 C 
HETATM    4  C4  UNL     1     -35.131   4.688   6.185  1.00 20.00     0.026 C 
HETATM    5  C5  UNL     1     -35.094   5.352   3.750  1.00 20.00     0.004 C 
HETATM    6  C6  UNL     1     -35.064   4.190   4.739  1.00 20.00     0.004 C 
ENDROOT
TORSDOF 0
ENDMDL
MODEL 3
REMARK VINA RESULT:      -5.0      0.567      2.086
REMARK  0 active torsions:
REMARK  status: ('A' for Active; 'I' for Inactive)
ROOT
HETATM    1  C1  UNL     1     -33.666   6.501   4.336  1.00 20.00    -0.030 C 
HETATM    2  C2  UNL     1     -33.727   6.550   5.673  1.00 20.00    -0.030 C 
HETATM    3  C3  UNL     1     -34.398   5.480   3.518  1.00 20.00     0.026 C 
HETATM    4  C4  UNL     1     -34.506   5.565   6.494  1.00 20.00     0.026 C 
HETATM    5  C5  UNL     1     -35.460   4.718   4.316  1.00 20.00     0.004 C 
HETATM    6  C6  UNL     1     -34.943   4.332   5.699  1.00 20.00     0.004 C 
ENDROOT
TORSDOF 0
ENDMDL
MODEL 4
REMARK VINA RESULT:      -5.0      0.580      1.084
REMARK  0 active torsions:
REMARK  status: ('A' for Active; 'I' for Inactive)
ROOT
HETATM    1  C1  UNL     1     -33.710   6.534   5.690  1.00 20.00    -0.030 C 
HETATM    2  C2  UNL     1     -33.647   6.500   4.352  1.00 20.00    -0.030 C 
HETATM    3  C3  UNL     1     -34.503   5.551   6.499  1.00 20.00     0.026 C 
HETATM    4  C4  UNL     1     -34.391   5.496   3.522  1.00 20.00     0.026 C 
HETATM    5  C5  UNL     1     -34.957   4.333   5.689  1.00 20.00     0.004 C 
HETATM    6  C6  UNL     1     -35.465   4.742   4.310  1.00 20.00     0.004 C 
ENDROOT
TORSDOF 0
ENDMDL
MODEL 5
REMARK VINA RESULT:      -5.0      0.519      2.083
REMARK  0 active torsions:
REMARK  status: ('A' for Active; 'I' for Inactive)
ROOT
HETATM    1  C1  UNL     1     -35.063   4.234   5.750  1.00 20.00    -0.030 C 
HETATM    2  C2  UNL     1     -35.272   4.394   4.436  1.00 20.00    -0.030 C 
HETATM    3  C3  UNL     1     -34.268   5.199   6.578  1.00 20.00     0.026 C 
HETATM    4  C4  UNL     1     -34.702   5.537   3.650  1.00 20.00     0.026 C 
HETATM    5  C5  UNL     1     -34.000   6.526   5.864  1.00 20.00     0.004 C 
HETATM    6  C6  UNL     1     -33.612   6.302   4.405  1.00 20.00     0.004 C 
ENDROOT
TORSDOF 0
ENDMDL
MODEL 6
REMARK VINA RESULT:      -5.0      0.550      2.707
REMARK  0 active torsions:
REMARK  status: ('A' for Active; 'I' for Inactive)
ROOT
HETATM    1  C1  UNL     1     -35.296   4.470   4.410  1.00 20.00    -0.030 C 
HETATM    2  C2  UNL     1     -35.099   4.265   5.719  1.00 20.00    -0.030 C 
HETATM    3  C3  UNL     1     -34.696   5.623   3.661  1.00 20.00     0.026 C 
HETATM    4  C4  UNL     1     -34.285   5.186   6.579  1.00 20.00     0.026 C 
HETATM    5  C5  UNL     1     -33.594   6.341   4.444  1.00 20.00     0.004 C 
HETATM    6  C6  UNL     1     -33.986   6.529   5.907  1.00 20.00     0.004 C 
ENDROOT
TORSDOF 0
ENDMDL
MODEL 7
REMARK VINA RESULT:      -4.7      0.413      2.083
REMARK  0 active torsions:
REMARK  status: ('A' for Active; 'I' for Inactive)
ROOT
HETATM    1  C1  UNL     1     -34.355   5.600   6.462  1.00 20.00    -0.030 C 
HETATM    2  C2  UNL     1     -35.094   4.596   5.972  1.00 20.00    -0.030 C 
HETATM    3  C3  UNL     1     -33.687   6.626   5.596  1.00 20.00     0.026 C 
HETATM    4  C4  UNL     1     -35.301   4.373   4.503  1.00 20.00     0.026 C 
HETATM    5  C5  UNL     1     -34.189   6.610   4.149  1.00 20.00     0.004 C 
HETATM    6  C6  UNL     1     -34.340   5.183   3.630  1.00 20.00     0.004 C 
ENDROOT
TORSDOF 0
ENDMDL
MODEL 8
REMARK VINA RESULT:      -4.7      0.420      1.614
REMARK  0 active torsions:
REMARK  status: ('A' for Active; 'I' for Inactive)
ROOT
HETATM    1  C1  UNL     1     -35.105   4.622   5.955  1.00 20.00    -0.030 C 
HETATM    2  C2  UNL     1     -34.349   5.610   6.451  1.00 20.00    -0.030 C 
HETATM    3  C3  UNL     1     -35.312   4.405   4.485  1.00 20.00     0.026 C 
HETATM    4  C4  UNL     1     -33.659   6.626   5.588  1.00 20.00     0.026 C 
HETATM    5  C5  UNL     1     -34.334   5.202   3.617  1.00 20.00     0.004 C 
HETATM    6  C6  UNL     1     -34.158   6.624   4.141  1.00 20.00     0.004 C 
ENDROOT
TORSDOF 0
ENDMDL
MODEL 9
REMARK VINA RESULT:      -3.4      8.398      9.686
REMARK  0 active torsions:
REMARK  status: ('A' for Active; 'I' for Inactive)
ROOT
HETATM    1  C1  UNL     1     -41.175   7.151  -0.917  1.00 20.00    -0.030 C 
HETATM    2  C2  UNL     1     -41.914   7.106  -2.033  1.00 20.00    -0.030 C 
HETATM    3  C3  UNL     1     -40.660   5.925  -0.224  1.00 20.00     0.026 C 
HETATM    4  C4  UNL     1     -42.334   5.822  -2.686  1.00 20.00     0.026 C 
HETATM    5  C5  UNL     1     -40.778   4.658  -1.075  1.00 20.00     0.004 C 
HETATM    6  C6  UNL     1     -42.123   4.597  -1.794  1.00 20.00     0.004 C 
ENDROOT
TORSDOF 0
ENDMDL
