MODEL 1
REMARK VINA RESULT:      -5.6      0.000      0.000
REMARK  0 active torsions:
REMARK  status: ('A' for Active; 'I' for Inactive)
ROOT
HETATM    1  C1  UNL     1     -35.302   4.617   5.833  1.00 20.00     0.001 A 
HETATM    2  C2  UNL     1     -34.681   5.531   6.689  1.00 20.00     0.003 A 
HETATM    3  C3  UNL     1     -34.987   4.576   4.468  1.00 20.00     0.014 A 
HETATM    4  C4  UNL     1     -33.727   6.435   6.215  1.00 20.00     0.038 A 
HETATM    5  C5  UNL     1     -33.454   5.748   2.700  1.00 20.00     0.039 A 
HETATM    6  C6  UNL     1     -32.558   6.775   2.892  1.00 20.00     0.143 A 
HETATM    7  C7  UNL     1     -34.030   5.477   3.969  1.00 20.00    -0.001 A 
HETATM    8  C8  UNL     1     -33.435   6.371   4.853  1.00 20.00     0.085 A 
HETATM    9  O9  UNL     1     -32.540   7.160   4.195  1.00 20.00    -0.322 OA
ENDROOT
TORSDOF 0
ENDMDL
MODEL 2
REMARK VINA RESULT:      -5.5      0.894      1.949
REMARK  0 active torsions:
REMARK  status: ('A' for Active; 'I' for Inactive)
ROOT
HETATM    1  C1  UNL     1     -34.666   5.575   6.653  1.00 20.00     0.001 A 
HETATM    2  C2  UNL     1     -35.294   4.659   5.804  1.00 20.00     0.003 A 
HETATM    3  C3  UNL     1     -33.708   6.474   6.164  1.00 20.00     0.014 A 
HETATM    4  C4  UNL     1     -34.989   4.607   4.442  1.00 20.00     0.038 A 
HETATM    5  C5  UNL     1     -32.505   7.151   3.941  1.00 20.00     0.039 A 
HETATM    6  C6  UNL     1     -32.671   6.620   2.682  1.00 20.00     0.143 A 
HETATM    7  C7  UNL     1     -33.386   6.438   4.796  1.00 20.00    -0.001 A 
HETATM    8  C8  UNL     1     -34.033   5.512   3.984  1.00 20.00     0.085 A 
HETATM    9  O9  UNL     1     -33.596   5.624   2.699  1.00 20.00    -0.322 OA
ENDROOT
TORSDOF 0
ENDMDL
MODEL 3
REMARK VINA RESULT:      -4.7      1.064      3.085
REMARK  0 active torsions:
REMARK  status: ('A' for Active; 'I' for Inactive)
ROOT
HETATM    1  C1  UNL     1     -33.368   5.850   2.285  1.00 20.00     0.001 A 
HETATM    2  C2  UNL     1     -32.559   6.800   2.914  1.00 20.00     0.003 A 
HETATM    3  C3  UNL     1     -34.301   5.100   3.014  1.00 20.00     0.014 A 
HETATM    4  C4  UNL     1     -32.652   7.035   4.288  1.00 20.00     0.038 A 
HETATM    5  C5  UNL     1     -35.201   4.790   5.452  1.00 20.00     0.039 A 
HETATM    6  C6  UNL     1     -34.813   5.447   6.596  1.00 20.00     0.143 A 
HETATM    7  C7  UNL     1     -34.412   5.320   4.398  1.00 20.00    -0.001 A 
HETATM    8  C8  UNL     1     -33.589   6.275   4.986  1.00 20.00     0.085 A 
HETATM    9  O9  UNL     1     -33.835   6.350   6.324  1.00 20.00    -0.322 OA
ENDROOT
TORSDOF 0
ENDMDL
MODEL 4
REMARK VINA RESULT:      -4.6      1.454      3.657
REMARK  0 active torsions:
REMARK  status: ('A' for Active; 'I' for Inactive)
ROOT
HETATM    1  C1  UNL     1     -32.592   6.814   3.007  1.00 20.00     0.001 A 
HETATM    2  C2  UNL     1     -33.376   5.909   2.287  1.00 20.00     0.003 A 
HETATM    3  C3  UNL     1     -32.753   6.968   4.391  1.00 20.00     0.014 A 
HETATM    4  C4  UNL     1     -34.346   5.127   2.920  1.00 20.00     0.038 A 
HETATM    5  C5  UNL     1     -34.180   6.053   6.385  1.00 20.00     0.039 A 
HETATM    6  C6  UNL     1     -35.173   5.102   6.360  1.00 20.00     0.143 A 
HETATM    7  C7  UNL     1     -33.723   6.191   5.048  1.00 20.00    -0.001 A 
HETATM    8  C8  UNL     1     -34.483   5.301   4.296  1.00 20.00     0.085 A 
HETATM    9  O9  UNL     1     -35.365   4.640   5.096  1.00 20.00    -0.322 OA
ENDROOT
TORSDOF 0
ENDMDL
MODEL 5
REMARK VINA RESULT:      -4.5      9.924     10.769
REMARK  0 active torsions:
REMARK  status: ('A' for Active; 'I' for Inactive)
ROOT
HETATM    1  C1  UNL     1     -40.600   6.111  -0.371  1.00 20.00     0.001 A 
HETATM    2  C2  UNL     1     -41.245   7.170  -1.016  1.00 20.00     0.003 A 
HETATM    3  C3  UNL     1     -40.817   4.784  -0.766  1.00 20.00     0.014 A 
HETATM    4  C4  UNL     1     -42.128   6.943  -2.075  1.00 20.00     0.038 A 
HETATM    5  C5  UNL     1     -42.174   3.378  -2.506  1.00 20.00     0.039 A 
HETATM    6  C6  UNL     1     -43.041   3.825  -3.477  1.00 20.00     0.143 A 
HETATM    7  C7  UNL     1     -41.701   4.533  -1.829  1.00 20.00    -0.001 A 
HETATM    8  C8  UNL     1     -42.323   5.614  -2.445  1.00 20.00     0.085 A 
HETATM    9  O9  UNL     1     -43.139   5.180  -3.447  1.00 20.00    -0.322 OA
ENDROOT
TORSDOF 0
ENDMDL
MODEL 6
REMARK VINA RESULT:      -4.5     10.142     10.921
REMARK  0 active torsions:
REMARK  status: ('A' for Active; 'I' for Inactive)
ROOT
HETATM    1  C1  UNL     1     -40.661   5.776  -0.421  1.00 20.00     0.001 A 
HETATM    2  C2  UNL     1     -41.047   4.575  -1.023  1.00 20.00     0.003 A 
HETATM    3  C3  UNL     1     -41.105   7.009  -0.918  1.00 20.00     0.014 A 
HETATM    4  C4  UNL     1     -41.885   4.561  -2.141  1.00 20.00     0.038 A 
HETATM    5  C5  UNL     1     -42.592   8.016  -2.822  1.00 20.00     0.039 A 
HETATM    6  C6  UNL     1     -43.291   7.351  -3.803  1.00 20.00     0.143 A 
HETATM    7  C7  UNL     1     -41.949   7.019  -2.042  1.00 20.00    -0.001 A 
HETATM    8  C8  UNL     1     -42.310   5.802  -2.613  1.00 20.00     0.085 A 
HETATM    9  O9  UNL     1     -43.126   6.007  -3.684  1.00 20.00    -0.322 OA
ENDROOT
TORSDOF 0
ENDMDL
MODEL 7
REMARK VINA RESULT:      -4.3     12.094     13.766
REMARK  0 active torsions:
REMARK  status: ('A' for Active; 'I' for Inactive)
ROOT
HETATM    1  C1  UNL     1     -34.452  13.325  -4.887  1.00 20.00     0.001 A 
HETATM    2  C2  UNL     1     -33.627  13.679  -3.816  1.00 20.00     0.003 A 
HETATM    3  C3  UNL     1     -34.793  14.258  -5.876  1.00 20.00     0.014 A 
HETATM    4  C4  UNL     1     -33.114  14.973  -3.693  1.00 20.00     0.038 A 
HETATM    5  C5  UNL     1     -34.392  16.759  -6.534  1.00 20.00     0.039 A 
HETATM    6  C6  UNL     1     -33.642  17.707  -5.877  1.00 20.00     0.143 A 
HETATM    7  C7  UNL     1     -34.288  15.566  -5.772  1.00 20.00    -0.001 A 
HETATM    8  C8  UNL     1     -33.470  15.878  -4.691  1.00 20.00     0.085 A 
HETATM    9  O9  UNL     1     -33.079  17.182  -4.757  1.00 20.00    -0.322 OA
ENDROOT
TORSDOF 0
ENDMDL
MODEL 8
REMARK VINA RESULT:      -4.3     12.102     13.864
REMARK  0 active torsions:
REMARK  status: ('A' for Active; 'I' for Inactive)
ROOT
HETATM    1  C1  UNL     1     -33.123  15.147  -3.694  1.00 20.00     0.001 A 
HETATM    2  C2  UNL     1     -33.691  13.870  -3.702  1.00 20.00     0.003 A 
HETATM    3  C3  UNL     1     -33.303  16.024  -4.772  1.00 20.00     0.014 A 
HETATM    4  C4  UNL     1     -34.456  13.424  -4.782  1.00 20.00     0.038 A 
HETATM    5  C5  UNL     1     -34.473  16.159  -7.109  1.00 20.00     0.039 A 
HETATM    6  C6  UNL     1     -35.229  15.201  -7.743  1.00 20.00     0.143 A 
HETATM    7  C7  UNL     1     -34.069  15.596  -5.870  1.00 20.00    -0.001 A 
HETATM    8  C8  UNL     1     -34.618  14.318  -5.839  1.00 20.00     0.085 A 
HETATM    9  O9  UNL     1     -35.323  14.080  -6.981  1.00 20.00    -0.322 OA
ENDROOT
TORSDOF 0
ENDMDL
MODEL 9
REMARK VINA RESULT:      -4.2     11.824     12.725
REMARK  0 active torsions:
REMARK  status: ('A' for Active; 'I' for Inactive)
ROOT
HETATM    1  C1  UNL     1     -33.266  14.977  -3.447  1.00 20.00     0.001 A 
HETATM    2  C2  UNL     1     -33.580  13.705  -3.933  1.00 20.00     0.003 A 
HETATM    3  C3  UNL     1     -34.273  15.909  -3.159  1.00 20.00     0.014 A 
HETATM    4  C4  UNL     1     -34.905  13.318  -4.149  1.00 20.00     0.038 A 
HETATM    5  C5  UNL     1     -36.877  16.167  -3.209  1.00 20.00     0.039 A 
HETATM    6  C6  UNL     1     -37.821  15.246  -3.601  1.00 20.00     0.143 A 
HETATM    7  C7  UNL     1     -35.613  15.541  -3.370  1.00 20.00    -0.001 A 
HETATM    8  C8  UNL     1     -35.884  14.265  -3.855  1.00 20.00     0.085 A 
HETATM    9  O9  UNL     1     -37.227  14.089  -3.995  1.00 20.00    -0.322 OA
ENDROOT
TORSDOF 0
ENDMDL
