MODEL 1
REMARK VINA RESULT:      -6.1      0.000      0.000
REMARK  0 active torsions:
REMARK  status: ('A' for Active; 'I' for Inactive)
ROOT
HETATM    1  C1  UNL     1     -35.295   4.304   5.778  1.00 20.00     0.001 A 
HETATM    2  C2  UNL     1     -34.793   5.227   6.699  1.00 20.00     0.003 A 
HETATM    3  C3  UNL     1     -34.963   4.387   4.419  1.00 20.00     0.014 A 
HETATM    4  C4  UNL     1     -33.943   6.263   6.300  1.00 20.00     0.038 A 
HETATM    5  C5  UNL     1     -33.555   5.835   2.755  1.00 20.00     0.046 A 
HETATM    6  C6  UNL     1     -34.110   5.421   3.994  1.00 20.00     0.000 A 
HETATM    7  C7  UNL     1     -33.631   6.319   4.943  1.00 20.00     0.086 A 
HETATM    8  C8  UNL     1     -32.785   6.943   3.026  1.00 20.00     0.050 A 
HETATM    9  C9  UNL     1     -31.962   7.823   2.184  1.00 20.00     0.077 C 
HETATM   10  O10 UNL     1     -32.825   7.245   4.350  1.00 20.00    -0.315 OA
ENDROOT
TORSDOF 0
ENDMDL
MODEL 2
REMARK VINA RESULT:      -4.6     10.247     11.205
REMARK  0 active torsions:
REMARK  status: ('A' for Active; 'I' for Inactive)
ROOT
HETATM    1  C1  UNL     1     -40.846   6.608  -0.582  1.00 20.00     0.001 A 
HETATM    2  C2  UNL     1     -41.727   7.429  -1.288  1.00 20.00     0.003 A 
HETATM    3  C3  UNL     1     -40.763   5.235  -0.852  1.00 20.00     0.014 A 
HETATM    4  C4  UNL     1     -42.556   6.913  -2.289  1.00 20.00     0.038 A 
HETATM    5  C5  UNL     1     -41.798   3.405  -2.411  1.00 20.00     0.046 A 
HETATM    6  C6  UNL     1     -41.587   4.694  -1.854  1.00 20.00     0.000 A 
HETATM    7  C7  UNL     1     -42.452   5.545  -2.535  1.00 20.00     0.086 A 
HETATM    8  C8  UNL     1     -42.763   3.553  -3.380  1.00 20.00     0.050 A 
HETATM    9  C9  UNL     1     -43.410   2.611  -4.303  1.00 20.00     0.077 C 
HETATM   10  O10 UNL     1     -43.166   4.848  -3.464  1.00 20.00    -0.315 OA
ENDROOT
TORSDOF 0
ENDMDL
MODEL 3
REMARK VINA RESULT:      -4.5     11.821     13.878
REMARK  0 active torsions:
REMARK  status: ('A' for Active; 'I' for Inactive)
ROOT
HETATM    1  C1  UNL     1     -34.374  13.323  -4.763  1.00 20.00     0.001 A 
HETATM    2  C2  UNL     1     -33.481  13.737  -3.772  1.00 20.00     0.003 A 
HETATM    3  C3  UNL     1     -34.823  14.214  -5.748  1.00 20.00     0.014 A 
HETATM    4  C4  UNL     1     -33.003  15.050  -3.727  1.00 20.00     0.038 A 
HETATM    5  C5  UNL     1     -34.561  16.704  -6.509  1.00 20.00     0.046 A 
HETATM    6  C6  UNL     1     -34.356  15.540  -5.723  1.00 20.00     0.000 A 
HETATM    7  C7  UNL     1     -33.467  15.912  -4.719  1.00 20.00     0.086 A 
HETATM    8  C8  UNL     1     -33.794  17.696  -5.941  1.00 20.00     0.050 A 
HETATM    9  C9  UNL     1     -33.571  19.108  -6.278  1.00 20.00     0.077 C 
HETATM   10  O10 UNL     1     -33.126  17.225  -4.855  1.00 20.00    -0.315 OA
ENDROOT
TORSDOF 0
ENDMDL
MODEL 4
REMARK VINA RESULT:      -4.5     11.578     12.691
REMARK  0 active torsions:
REMARK  status: ('A' for Active; 'I' for Inactive)
ROOT
HETATM    1  C1  UNL     1     -33.107  15.079  -3.482  1.00 20.00     0.001 A 
HETATM    2  C2  UNL     1     -33.388  13.780  -3.911  1.00 20.00     0.003 A 
HETATM    3  C3  UNL     1     -34.138  15.991  -3.217  1.00 20.00     0.014 A 
HETATM    4  C4  UNL     1     -34.704  13.342  -4.090  1.00 20.00     0.038 A 
HETATM    5  C5  UNL     1     -36.750  16.167  -3.232  1.00 20.00     0.046 A 
HETATM    6  C6  UNL     1     -35.470  15.573  -3.389  1.00 20.00     0.000 A 
HETATM    7  C7  UNL     1     -35.707  14.271  -3.818  1.00 20.00     0.086 A 
HETATM    8  C8  UNL     1     -37.670  15.201  -3.571  1.00 20.00     0.050 A 
HETATM    9  C9  UNL     1     -39.138  15.187  -3.615  1.00 20.00     0.077 C 
HETATM   10  O10 UNL     1     -37.048  14.047  -3.927  1.00 20.00    -0.315 OA
ENDROOT
TORSDOF 0
ENDMDL
MODEL 5
REMARK VINA RESULT:      -4.4      9.989     10.927
REMARK  0 active torsions:
REMARK  status: ('A' for Active; 'I' for Inactive)
ROOT
HETATM    1  C1  UNL     1     -42.231   7.713  -1.523  1.00 20.00     0.001 A 
HETATM    2  C2  UNL     1     -41.184   7.235  -0.732  1.00 20.00     0.003 A 
HETATM    3  C3  UNL     1     -42.909   6.867  -2.412  1.00 20.00     0.014 A 
HETATM    4  C4  UNL     1     -40.777   5.899  -0.795  1.00 20.00     0.038 A 
HETATM    5  C5  UNL     1     -42.931   4.382  -3.235  1.00 20.00     0.046 A 
HETATM    6  C6  UNL     1     -42.516   5.519  -2.493  1.00 20.00     0.000 A 
HETATM    7  C7  UNL     1     -41.470   5.082  -1.686  1.00 20.00     0.086 A 
HETATM    8  C8  UNL     1     -42.122   3.342  -2.839  1.00 20.00     0.050 A 
HETATM    9  C9  UNL     1     -42.045   1.927  -3.226  1.00 20.00     0.077 C 
HETATM   10  O10 UNL     1     -41.232   3.757  -1.899  1.00 20.00    -0.315 OA
ENDROOT
TORSDOF 0
ENDMDL
MODEL 6
REMARK VINA RESULT:      -4.4     11.940     13.161
REMARK  0 active torsions:
REMARK  status: ('A' for Active; 'I' for Inactive)
ROOT
HETATM    1  C1  UNL     1     -34.857  13.735  -5.196  1.00 20.00     0.001 A 
HETATM    2  C2  UNL     1     -34.363  14.707  -6.070  1.00 20.00     0.003 A 
HETATM    3  C3  UNL     1     -34.935  13.975  -3.818  1.00 20.00     0.014 A 
HETATM    4  C4  UNL     1     -33.931  15.952  -5.602  1.00 20.00     0.038 A 
HETATM    5  C5  UNL     1     -34.425  15.834  -2.046  1.00 20.00     0.046 A 
HETATM    6  C6  UNL     1     -34.505  15.221  -3.324  1.00 20.00     0.000 A 
HETATM    7  C7  UNL     1     -34.020  16.162  -4.227  1.00 20.00     0.086 A 
HETATM    8  C8  UNL     1     -33.903  17.091  -2.252  1.00 20.00     0.050 A 
HETATM    9  C9  UNL     1     -33.579  18.202  -1.347  1.00 20.00     0.077 C 
HETATM   10  O10 UNL     1     -33.654  17.299  -3.571  1.00 20.00    -0.315 OA
ENDROOT
TORSDOF 0
ENDMDL
MODEL 7
REMARK VINA RESULT:      -4.4     11.729     13.060
REMARK  0 active torsions:
REMARK  status: ('A' for Active; 'I' for Inactive)
ROOT
HETATM    1  C1  UNL     1     -34.460  14.655  -6.165  1.00 20.00     0.001 A 
HETATM    2  C2  UNL     1     -34.927  13.658  -5.305  1.00 20.00     0.003 A 
HETATM    3  C3  UNL     1     -34.033  15.895  -5.670  1.00 20.00     0.014 A 
HETATM    4  C4  UNL     1     -34.984  13.860  -3.923  1.00 20.00     0.038 A 
HETATM    5  C5  UNL     1     -33.754  17.196  -3.416  1.00 20.00     0.046 A 
HETATM    6  C6  UNL     1     -34.082  16.121  -4.283  1.00 20.00     0.000 A 
HETATM    7  C7  UNL     1     -34.553  15.102  -3.460  1.00 20.00     0.086 A 
HETATM    8  C8  UNL     1     -34.042  16.769  -2.141  1.00 20.00     0.050 A 
HETATM    9  C9  UNL     1     -33.927  17.403  -0.821  1.00 20.00     0.077 C 
HETATM   10  O10 UNL     1     -34.528  15.500  -2.156  1.00 20.00    -0.315 OA
ENDROOT
TORSDOF 0
ENDMDL
MODEL 8
REMARK VINA RESULT:      -4.3     12.166     13.226
REMARK  0 active torsions:
REMARK  status: ('A' for Active; 'I' for Inactive)
ROOT
HETATM    1  C1  UNL     1     -34.273  17.818  -0.270  1.00 20.00     0.001 A 
HETATM    2  C2  UNL     1     -33.751  18.804  -1.110  1.00 20.00     0.003 A 
HETATM    3  C3  UNL     1     -34.644  16.563  -0.773  1.00 20.00     0.014 A 
HETATM    4  C4  UNL     1     -33.579  18.577  -2.478  1.00 20.00     0.038 A 
HETATM    5  C5  UNL     1     -34.725  15.215  -3.015  1.00 20.00     0.046 A 
HETATM    6  C6  UNL     1     -34.481  16.312  -2.147  1.00 20.00     0.000 A 
HETATM    7  C7  UNL     1     -33.957  17.321  -2.949  1.00 20.00     0.086 A 
HETATM    8  C8  UNL     1     -34.339  15.622  -4.272  1.00 20.00     0.050 A 
HETATM    9  C9  UNL     1     -34.338  14.961  -5.584  1.00 20.00     0.077 C 
HETATM   10  O10 UNL     1     -33.872  16.898  -4.243  1.00 20.00    -0.315 OA
ENDROOT
TORSDOF 0
ENDMDL
MODEL 9
REMARK VINA RESULT:      -4.2     10.084     10.719
REMARK  0 active torsions:
REMARK  status: ('A' for Active; 'I' for Inactive)
ROOT
HETATM    1  C1  UNL     1     -41.210   4.682  -0.431  1.00 20.00     0.001 A 
HETATM    2  C2  UNL     1     -40.685   5.909  -0.019  1.00 20.00     0.003 A 
HETATM    3  C3  UNL     1     -42.017   4.588  -1.573  1.00 20.00     0.014 A 
HETATM    4  C4  UNL     1     -40.944   7.085  -0.730  1.00 20.00     0.038 A 
HETATM    5  C5  UNL     1     -43.034   6.076  -3.472  1.00 20.00     0.046 A 
HETATM    6  C6  UNL     1     -42.292   5.758  -2.304  1.00 20.00     0.000 A 
HETATM    7  C7  UNL     1     -41.749   6.960  -1.861  1.00 20.00     0.086 A 
HETATM    8  C8  UNL     1     -42.898   7.432  -3.661  1.00 20.00     0.050 A 
HETATM    9  C9  UNL     1     -43.414   8.360  -4.676  1.00 20.00     0.077 C 
HETATM   10  O10 UNL     1     -42.120   7.978  -2.689  1.00 20.00    -0.315 OA
ENDROOT
TORSDOF 0
ENDMDL
