MODEL 1
REMARK VINA RESULT:      -5.3      0.000      0.000
REMARK  2 active torsions:
REMARK  status: ('A' for Active; 'I' for Inactive)
REMARK    1  A    between atoms: C6_6  and  C10_10 
REMARK    2  A    between atoms: C9_9  and  C10_10 
ROOT
HETATM    1  C1  UNL     1     -35.140   4.679   5.640  1.00 20.00     0.000 A 
HETATM    2  C2  UNL     1     -34.437   5.633   6.375  1.00 20.00     0.001 A 
HETATM    3  C3  UNL     1     -35.030   4.650   4.250  1.00 20.00     0.001 A 
HETATM    4  C4  UNL     1     -33.625   6.558   5.721  1.00 20.00     0.007 A 
HETATM    5  C5  UNL     1     -34.218   5.575   3.595  1.00 20.00     0.007 A 
HETATM    6  C6  UNL     1     -33.515   6.529   4.331  1.00 20.00    -0.054 A 
ENDROOT
BRANCH   6   7
HETATM    7  C10 UNL     1     -32.630   7.536   3.617  1.00 20.00     0.014 C 
HETATM    8  C8  UNL     1     -31.281   7.669   4.333  1.00 20.00     0.015 C 
BRANCH   7   9
HETATM    9  C9  UNL     1     -32.415   7.205   2.126  1.00 20.00     0.004 C 
HETATM   10  C7  UNL     1     -31.891   8.387   1.319  1.00 20.00     0.006 C 
ENDBRANCH   7   9
ENDBRANCH   6   7
TORSDOF 2
ENDMDL
MODEL 2
REMARK VINA RESULT:      -5.3      0.012      1.528
REMARK  2 active torsions:
REMARK  status: ('A' for Active; 'I' for Inactive)
REMARK    1  A    between atoms: C6_6  and  C10_10 
REMARK    2  A    between atoms: C9_9  and  C10_10 
ROOT
HETATM    1  C1  UNL     1     -35.141   4.673   5.650  1.00 20.00     0.000 A 
HETATM    2  C2  UNL     1     -35.029   4.641   4.261  1.00 20.00     0.001 A 
HETATM    3  C3  UNL     1     -34.443   5.633   6.384  1.00 20.00     0.001 A 
HETATM    4  C4  UNL     1     -34.219   5.567   3.605  1.00 20.00     0.007 A 
HETATM    5  C5  UNL     1     -33.634   6.559   5.728  1.00 20.00     0.007 A 
HETATM    6  C6  UNL     1     -33.521   6.527   4.338  1.00 20.00    -0.054 A 
ENDROOT
BRANCH   6   7
HETATM    7  C10 UNL     1     -32.639   7.536   3.625  1.00 20.00     0.014 C 
HETATM    8  C8  UNL     1     -31.290   7.672   4.342  1.00 20.00     0.015 C 
BRANCH   7   9
HETATM    9  C9  UNL     1     -32.423   7.206   2.134  1.00 20.00     0.004 C 
HETATM   10  C7  UNL     1     -31.898   8.389   1.329  1.00 20.00     0.006 C 
ENDBRANCH   7   9
ENDBRANCH   6   7
TORSDOF 2
ENDMDL
MODEL 3
REMARK VINA RESULT:      -4.8     11.200     11.927
REMARK  2 active torsions:
REMARK  status: ('A' for Active; 'I' for Inactive)
REMARK    1  A    between atoms: C6_6  and  C10_10 
REMARK    2  A    between atoms: C9_9  and  C10_10 
ROOT
HETATM    1  C1  UNL     1     -35.143  13.339  -4.543  1.00 20.00     0.000 A 
HETATM    2  C2  UNL     1     -36.087  14.218  -4.013  1.00 20.00     0.001 A 
HETATM    3  C3  UNL     1     -33.787  13.527  -4.273  1.00 20.00     0.001 A 
HETATM    4  C4  UNL     1     -35.676  15.284  -3.214  1.00 20.00     0.007 A 
HETATM    5  C5  UNL     1     -33.376  14.593  -3.474  1.00 20.00     0.007 A 
HETATM    6  C6  UNL     1     -34.320  15.472  -2.944  1.00 20.00    -0.054 A 
ENDROOT
BRANCH   6   7
HETATM    7  C10 UNL     1     -33.871  16.633  -2.074  1.00 20.00     0.014 C 
HETATM    8  C8  UNL     1     -34.022  17.959  -2.828  1.00 20.00     0.015 C 
BRANCH   7   9
HETATM    9  C9  UNL     1     -34.610  16.698  -0.722  1.00 20.00     0.004 C 
HETATM   10  C7  UNL     1     -34.167  17.870   0.147  1.00 20.00     0.006 C 
ENDBRANCH   7   9
ENDBRANCH   6   7
TORSDOF 2
ENDMDL
MODEL 4
REMARK VINA RESULT:      -4.8     11.169     11.899
REMARK  2 active torsions:
REMARK  status: ('A' for Active; 'I' for Inactive)
REMARK    1  A    between atoms: C6_6  and  C10_10 
REMARK    2  A    between atoms: C9_9  and  C10_10 
ROOT
HETATM    1  C1  UNL     1     -35.079  13.315  -4.479  1.00 20.00     0.000 A 
HETATM    2  C2  UNL     1     -33.727  13.532  -4.218  1.00 20.00     0.001 A 
HETATM    3  C3  UNL     1     -36.039  14.178  -3.951  1.00 20.00     0.001 A 
HETATM    4  C4  UNL     1     -33.334  14.613  -3.429  1.00 20.00     0.007 A 
HETATM    5  C5  UNL     1     -35.646  15.259  -3.162  1.00 20.00     0.007 A 
HETATM    6  C6  UNL     1     -34.294  15.476  -2.900  1.00 20.00    -0.054 A 
ENDROOT
BRANCH   6   7
HETATM    7  C10 UNL     1     -33.867  16.653  -2.041  1.00 20.00     0.014 C 
HETATM    8  C8  UNL     1     -34.028  17.969  -2.813  1.00 20.00     0.015 C 
BRANCH   7   9
HETATM    9  C9  UNL     1     -34.619  16.726  -0.696  1.00 20.00     0.004 C 
HETATM   10  C7  UNL     1     -34.174  17.894   0.176  1.00 20.00     0.006 C 
ENDBRANCH   7   9
ENDBRANCH   6   7
TORSDOF 2
ENDMDL
MODEL 5
REMARK VINA RESULT:      -4.4     11.102     12.113
REMARK  2 active torsions:
REMARK  status: ('A' for Active; 'I' for Inactive)
REMARK    1  A    between atoms: C6_6  and  C10_10 
REMARK    2  A    between atoms: C9_9  and  C10_10 
ROOT
HETATM    1  C1  UNL     1     -34.799  13.328  -4.396  1.00 20.00     0.000 A 
HETATM    2  C2  UNL     1     -35.995  14.015  -4.189  1.00 20.00     0.001 A 
HETATM    3  C3  UNL     1     -33.610  13.825  -3.863  1.00 20.00     0.001 A 
HETATM    4  C4  UNL     1     -36.002  15.198  -3.451  1.00 20.00     0.007 A 
HETATM    5  C5  UNL     1     -33.616  15.008  -3.125  1.00 20.00     0.007 A 
HETATM    6  C6  UNL     1     -34.813  15.694  -2.918  1.00 20.00    -0.054 A 
ENDROOT
BRANCH   6   7
HETATM    7  C10 UNL     1     -34.819  16.982  -2.113  1.00 20.00     0.014 C 
HETATM    8  C8  UNL     1     -34.625  16.685  -0.621  1.00 20.00     0.015 C 
BRANCH   7   9
HETATM    9  C9  UNL     1     -33.769  18.004  -2.596  1.00 20.00     0.004 C 
HETATM   10  C7  UNL     1     -33.959  18.415  -4.051  1.00 20.00     0.006 C 
ENDBRANCH   7   9
ENDBRANCH   6   7
TORSDOF 2
ENDMDL
MODEL 6
REMARK VINA RESULT:      -4.4     11.176     12.507
REMARK  2 active torsions:
REMARK  status: ('A' for Active; 'I' for Inactive)
REMARK    1  A    between atoms: C6_6  and  C10_10 
REMARK    2  A    between atoms: C9_9  and  C10_10 
ROOT
HETATM    1  C1  UNL     1     -34.110  18.328  -0.292  1.00 20.00     0.000 A 
HETATM    2  C2  UNL     1     -33.601  18.797  -1.504  1.00 20.00     0.001 A 
HETATM    3  C3  UNL     1     -34.668  17.052  -0.218  1.00 20.00     0.001 A 
HETATM    4  C4  UNL     1     -33.651  17.990  -2.640  1.00 20.00     0.007 A 
HETATM    5  C5  UNL     1     -34.717  16.245  -1.354  1.00 20.00     0.007 A 
HETATM    6  C6  UNL     1     -34.209  16.714  -2.565  1.00 20.00    -0.054 A 
ENDROOT
BRANCH   6   7
HETATM    7  C10 UNL     1     -34.263  15.834  -3.802  1.00 20.00     0.014 C 
HETATM    8  C8  UNL     1     -33.249  16.314  -4.848  1.00 20.00     0.015 C 
BRANCH   7   9
HETATM    9  C9  UNL     1     -34.045  14.339  -3.492  1.00 20.00     0.004 C 
HETATM   10  C7  UNL     1     -34.980  13.423  -4.274  1.00 20.00     0.006 C 
ENDBRANCH   7   9
ENDBRANCH   6   7
TORSDOF 2
ENDMDL
MODEL 7
REMARK VINA RESULT:      -4.4     11.335     12.328
REMARK  2 active torsions:
REMARK  status: ('A' for Active; 'I' for Inactive)
REMARK    1  A    between atoms: C6_6  and  C10_10 
REMARK    2  A    between atoms: C9_9  and  C10_10 
ROOT
HETATM    1  C1  UNL     1     -33.409  18.869   1.406  1.00 20.00     0.000 A 
HETATM    2  C2  UNL     1     -32.689  18.760   0.216  1.00 20.00     0.001 A 
HETATM    3  C3  UNL     1     -34.595  18.154   1.570  1.00 20.00     0.001 A 
HETATM    4  C4  UNL     1     -33.154  17.937  -0.808  1.00 20.00     0.007 A 
HETATM    5  C5  UNL     1     -35.061  17.331   0.546  1.00 20.00     0.007 A 
HETATM    6  C6  UNL     1     -34.341  17.222  -0.644  1.00 20.00    -0.054 A 
ENDROOT
BRANCH   6   7
HETATM    7  C10 UNL     1     -34.849  16.325  -1.758  1.00 20.00     0.014 C 
HETATM    8  C8  UNL     1     -36.001  17.002  -2.511  1.00 20.00     0.015 C 
BRANCH   7   9
HETATM    9  C9  UNL     1     -33.743  15.898  -2.745  1.00 20.00     0.004 C 
HETATM   10  C7  UNL     1     -34.046  14.581  -3.451  1.00 20.00     0.006 C 
ENDBRANCH   7   9
ENDBRANCH   6   7
TORSDOF 2
ENDMDL
MODEL 8
REMARK VINA RESULT:      -4.4     11.247     12.532
REMARK  2 active torsions:
REMARK  status: ('A' for Active; 'I' for Inactive)
REMARK    1  A    between atoms: C6_6  and  C10_10 
REMARK    2  A    between atoms: C9_9  and  C10_10 
ROOT
HETATM    1  C1  UNL     1     -34.130  18.311  -0.379  1.00 20.00     0.000 A 
HETATM    2  C2  UNL     1     -34.655  17.021  -0.299  1.00 20.00     0.001 A 
HETATM    3  C3  UNL     1     -33.642  18.790  -1.594  1.00 20.00     0.001 A 
HETATM    4  C4  UNL     1     -34.691  16.211  -1.433  1.00 20.00     0.007 A 
HETATM    5  C5  UNL     1     -33.677  17.980  -2.728  1.00 20.00     0.007 A 
HETATM    6  C6  UNL     1     -34.202  16.690  -2.648  1.00 20.00    -0.054 A 
ENDROOT
BRANCH   6   7
HETATM    7  C10 UNL     1     -34.240  15.809  -3.885  1.00 20.00     0.014 C 
HETATM    8  C8  UNL     1     -33.275  16.339  -4.952  1.00 20.00     0.015 C 
BRANCH   7   9
HETATM    9  C9  UNL     1     -33.943  14.327  -3.582  1.00 20.00     0.004 C 
HETATM   10  C7  UNL     1     -34.636  13.369  -4.544  1.00 20.00     0.006 C 
ENDBRANCH   7   9
ENDBRANCH   6   7
TORSDOF 2
ENDMDL
MODEL 9
REMARK VINA RESULT:      -4.3     11.670     12.544
REMARK  2 active torsions:
REMARK  status: ('A' for Active; 'I' for Inactive)
REMARK    1  A    between atoms: C6_6  and  C10_10 
REMARK    2  A    between atoms: C9_9  and  C10_10 
ROOT
HETATM    1  C1  UNL     1     -32.085  18.770   3.885  1.00 20.00     0.000 A 
HETATM    2  C2  UNL     1     -31.397  19.030   2.700  1.00 20.00     0.001 A 
HETATM    3  C3  UNL     1     -33.433  18.412   3.844  1.00 20.00     0.001 A 
HETATM    4  C4  UNL     1     -32.056  18.933   1.475  1.00 20.00     0.007 A 
HETATM    5  C5  UNL     1     -34.091  18.314   2.619  1.00 20.00     0.007 A 
HETATM    6  C6  UNL     1     -33.403  18.574   1.434  1.00 20.00    -0.054 A 
ENDROOT
BRANCH   6   7
HETATM    7  C10 UNL     1     -34.121  18.468   0.100  1.00 20.00     0.014 C 
HETATM    8  C8  UNL     1     -33.156  18.760  -1.055  1.00 20.00     0.015 C 
BRANCH   7   9
HETATM    9  C9  UNL     1     -34.810  17.104  -0.110  1.00 20.00     0.004 C 
HETATM   10  C7  UNL     1     -34.462  16.457  -1.446  1.00 20.00     0.006 C 
ENDBRANCH   7   9
ENDBRANCH   6   7
TORSDOF 2
ENDMDL
