MODEL 1
REMARK VINA RESULT:      -6.0      0.000      0.000
REMARK  1 active torsions:
REMARK  status: ('A' for Active; 'I' for Inactive)
REMARK    1  A    between atoms: C6_6  and  C8_8 
ROOT
HETATM    1  C1  UNL     1     -35.162   4.710   6.022  1.00 20.00     0.000 A 
HETATM    2  C2  UNL     1     -34.332   5.758   6.419  1.00 20.00     0.001 A 
HETATM    3  C3  UNL     1     -35.277   4.384   4.670  1.00 20.00     0.001 A 
HETATM    4  C4  UNL     1     -33.615   6.480   5.463  1.00 20.00     0.011 A 
HETATM    5  C5  UNL     1     -34.562   5.106   3.715  1.00 20.00     0.011 A 
HETATM    6  C6  UNL     1     -33.731   6.155   4.112  1.00 20.00    -0.037 A 
ENDROOT
BRANCH   6   7
HETATM    7  C8  UNL     1     -32.985   6.907   3.116  1.00 20.00     0.001 C 
HETATM    8  C7  UNL     1     -31.767   7.390   3.317  1.00 20.00     0.012 C 
ENDBRANCH   6   7
TORSDOF 1
ENDMDL
MODEL 2
REMARK VINA RESULT:      -6.0      0.031      1.709
REMARK  1 active torsions:
REMARK  status: ('A' for Active; 'I' for Inactive)
REMARK    1  A    between atoms: C6_6  and  C8_8 
ROOT
HETATM    1  C1  UNL     1     -35.164   4.745   6.046  1.00 20.00     0.000 A 
HETATM    2  C2  UNL     1     -35.274   4.393   4.700  1.00 20.00     0.001 A 
HETATM    3  C3  UNL     1     -34.337   5.801   6.426  1.00 20.00     0.001 A 
HETATM    4  C4  UNL     1     -34.556   5.100   3.734  1.00 20.00     0.011 A 
HETATM    5  C5  UNL     1     -33.619   6.507   5.461  1.00 20.00     0.011 A 
HETATM    6  C6  UNL     1     -33.728   6.156   4.114  1.00 20.00    -0.037 A 
ENDROOT
BRANCH   6   7
HETATM    7  C8  UNL     1     -32.979   6.892   3.108  1.00 20.00     0.001 C 
HETATM    8  C7  UNL     1     -31.754   7.360   3.298  1.00 20.00     0.012 C 
ENDBRANCH   6   7
TORSDOF 1
ENDMDL
MODEL 3
REMARK VINA RESULT:      -4.7      1.264      2.705
REMARK  1 active torsions:
REMARK  status: ('A' for Active; 'I' for Inactive)
REMARK    1  A    between atoms: C6_6  and  C8_8 
ROOT
HETATM    1  C1  UNL     1     -35.269   4.232   4.298  1.00 20.00     0.000 A 
HETATM    2  C2  UNL     1     -34.758   5.361   3.657  1.00 20.00     0.001 A 
HETATM    3  C3  UNL     1     -35.133   4.092   5.679  1.00 20.00     0.001 A 
HETATM    4  C4  UNL     1     -34.111   6.351   4.399  1.00 20.00     0.011 A 
HETATM    5  C5  UNL     1     -34.487   5.081   6.420  1.00 20.00     0.011 A 
HETATM    6  C6  UNL     1     -33.975   6.211   5.780  1.00 20.00    -0.037 A 
ENDROOT
BRANCH   6   7
HETATM    7  C8  UNL     1     -33.301   7.241   6.553  1.00 20.00     0.001 C 
HETATM    8  C7  UNL     1     -33.867   7.898   7.556  1.00 20.00     0.012 C 
ENDBRANCH   6   7
TORSDOF 1
ENDMDL
MODEL 4
REMARK VINA RESULT:      -4.6      1.223      2.602
REMARK  1 active torsions:
REMARK  status: ('A' for Active; 'I' for Inactive)
REMARK    1  A    between atoms: C6_6  and  C8_8 
ROOT
HETATM    1  C1  UNL     1     -35.200   4.295   4.295  1.00 20.00     0.000 A 
HETATM    2  C2  UNL     1     -35.149   4.155   5.682  1.00 20.00     0.001 A 
HETATM    3  C3  UNL     1     -34.615   5.404   3.684  1.00 20.00     0.001 A 
HETATM    4  C4  UNL     1     -34.512   5.124   6.458  1.00 20.00     0.011 A 
HETATM    5  C5  UNL     1     -33.980   6.374   4.460  1.00 20.00     0.011 A 
HETATM    6  C6  UNL     1     -33.928   6.233   5.847  1.00 20.00    -0.037 A 
ENDROOT
BRANCH   6   7
HETATM    7  C8  UNL     1     -33.264   7.244   6.655  1.00 20.00     0.001 C 
HETATM    8  C7  UNL     1     -33.884   7.984   7.564  1.00 20.00     0.012 C 
ENDBRANCH   6   7
TORSDOF 1
ENDMDL
MODEL 5
REMARK VINA RESULT:      -4.5      1.086      3.074
REMARK  1 active torsions:
REMARK  status: ('A' for Active; 'I' for Inactive)
REMARK    1  A    between atoms: C6_6  and  C8_8 
ROOT
HETATM    1  C1  UNL     1     -34.083   5.402   2.552  1.00 20.00     0.000 A 
HETATM    2  C2  UNL     1     -35.099   4.987   3.412  1.00 20.00     0.001 A 
HETATM    3  C3  UNL     1     -33.034   6.184   3.036  1.00 20.00     0.001 A 
HETATM    4  C4  UNL     1     -35.066   5.354   4.759  1.00 20.00     0.011 A 
HETATM    5  C5  UNL     1     -33.001   6.552   4.381  1.00 20.00     0.011 A 
HETATM    6  C6  UNL     1     -34.017   6.136   5.243  1.00 20.00    -0.037 A 
ENDROOT
BRANCH   6   7
HETATM    7  C8  UNL     1     -33.982   6.519   6.645  1.00 20.00     0.001 C 
HETATM    8  C7  UNL     1     -33.389   7.616   7.095  1.00 20.00     0.012 C 
ENDBRANCH   6   7
TORSDOF 1
ENDMDL
MODEL 6
REMARK VINA RESULT:      -4.5      0.848      3.320
REMARK  1 active torsions:
REMARK  status: ('A' for Active; 'I' for Inactive)
REMARK    1  A    between atoms: C6_6  and  C8_8 
ROOT
HETATM    1  C1  UNL     1     -32.906   6.290   2.473  1.00 20.00     0.000 A 
HETATM    2  C2  UNL     1     -32.366   6.864   3.623  1.00 20.00     0.001 A 
HETATM    3  C3  UNL     1     -34.042   5.486   2.561  1.00 20.00     0.001 A 
HETATM    4  C4  UNL     1     -32.963   6.634   4.864  1.00 20.00     0.011 A 
HETATM    5  C5  UNL     1     -34.639   5.255   3.800  1.00 20.00     0.011 A 
HETATM    6  C6  UNL     1     -34.099   5.830   4.952  1.00 20.00    -0.037 A 
ENDROOT
BRANCH   6   7
HETATM    7  C8  UNL     1     -34.722   5.589   6.244  1.00 20.00     0.001 C 
HETATM    8  C7  UNL     1     -35.203   4.413   6.622  1.00 20.00     0.012 C 
ENDBRANCH   6   7
TORSDOF 1
ENDMDL
MODEL 7
REMARK VINA RESULT:      -4.4     11.888     12.270
REMARK  1 active torsions:
REMARK  status: ('A' for Active; 'I' for Inactive)
REMARK    1  A    between atoms: C6_6  and  C8_8 
ROOT
HETATM    1  C1  UNL     1     -35.208  13.445  -4.551  1.00 20.00     0.000 A 
HETATM    2  C2  UNL     1     -36.177  14.283  -3.998  1.00 20.00     0.001 A 
HETATM    3  C3  UNL     1     -33.863  13.629  -4.233  1.00 20.00     0.001 A 
HETATM    4  C4  UNL     1     -35.799  15.304  -3.125  1.00 20.00     0.011 A 
HETATM    5  C5  UNL     1     -33.485  14.650  -3.362  1.00 20.00     0.011 A 
HETATM    6  C6  UNL     1     -34.453  15.488  -2.807  1.00 20.00    -0.037 A 
ENDROOT
BRANCH   6   7
HETATM    7  C8  UNL     1     -34.059  16.552  -1.898  1.00 20.00     0.001 C 
HETATM    8  C7  UNL     1     -34.597  16.736  -0.701  1.00 20.00     0.012 C 
ENDBRANCH   6   7
TORSDOF 1
ENDMDL
MODEL 8
REMARK VINA RESULT:      -4.4     11.903     12.259
REMARK  1 active torsions:
REMARK  status: ('A' for Active; 'I' for Inactive)
REMARK    1  A    between atoms: C6_6  and  C8_8 
ROOT
HETATM    1  C1  UNL     1     -35.207  13.470  -4.545  1.00 20.00     0.000 A 
HETATM    2  C2  UNL     1     -33.862  13.659  -4.227  1.00 20.00     0.001 A 
HETATM    3  C3  UNL     1     -36.180  14.297  -3.983  1.00 20.00     0.001 A 
HETATM    4  C4  UNL     1     -33.490  14.677  -3.348  1.00 20.00     0.011 A 
HETATM    5  C5  UNL     1     -35.808  15.313  -3.103  1.00 20.00     0.011 A 
HETATM    6  C6  UNL     1     -34.462  15.503  -2.785  1.00 20.00    -0.037 A 
ENDROOT
BRANCH   6   7
HETATM    7  C8  UNL     1     -34.076  16.564  -1.868  1.00 20.00     0.001 C 
HETATM    8  C7  UNL     1     -34.641  16.757  -0.685  1.00 20.00     0.012 C 
ENDBRANCH   6   7
TORSDOF 1
ENDMDL
MODEL 9
REMARK VINA RESULT:      -4.2      9.179     10.451
REMARK  1 active torsions:
REMARK  status: ('A' for Active; 'I' for Inactive)
REMARK    1  A    between atoms: C6_6  and  C8_8 
ROOT
HETATM    1  C1  UNL     1     -41.121   7.131  -0.907  1.00 20.00     0.000 A 
HETATM    2  C2  UNL     1     -40.641   5.923  -0.402  1.00 20.00     0.001 A 
HETATM    3  C3  UNL     1     -41.995   7.136  -1.994  1.00 20.00     0.001 A 
HETATM    4  C4  UNL     1     -41.038   4.717  -0.984  1.00 20.00     0.011 A 
HETATM    5  C5  UNL     1     -42.391   5.932  -2.576  1.00 20.00     0.011 A 
HETATM    6  C6  UNL     1     -41.912   4.722  -2.070  1.00 20.00    -0.037 A 
ENDROOT
BRANCH   6   7
HETATM    7  C8  UNL     1     -42.326   3.467  -2.678  1.00 20.00     0.001 C 
HETATM    8  C7  UNL     1     -41.481   2.580  -3.183  1.00 20.00     0.012 C 
ENDBRANCH   6   7
TORSDOF 1
ENDMDL
