MODEL 1
REMARK VINA RESULT:      -5.7      0.000      0.000
REMARK  2 active torsions:
REMARK  status: ('A' for Active; 'I' for Inactive)
REMARK    1  A    between atoms: C6_6  and  C10_10 
REMARK    2  A    between atoms: C9_9  and  C10_10 
ROOT
HETATM    1  C1  UNL     1     -35.210   5.048   5.693  1.00 20.00     0.000 A 
HETATM    2  C2  UNL     1     -35.209   4.796   4.321  1.00 20.00     0.001 A 
HETATM    3  C3  UNL     1     -34.275   5.927   6.240  1.00 20.00     0.001 A 
HETATM    4  C4  UNL     1     -34.274   5.422   3.496  1.00 20.00     0.007 A 
HETATM    5  C5  UNL     1     -33.339   6.552   5.416  1.00 20.00     0.007 A 
HETATM    6  C6  UNL     1     -33.339   6.299   4.044  1.00 20.00    -0.054 A 
ENDROOT
BRANCH   6   7
HETATM    7  C10 UNL     1     -32.319   6.981   3.147  1.00 20.00     0.014 C 
HETATM    8  C8  UNL     1     -31.233   7.663   3.987  1.00 20.00     0.015 C 
BRANCH   7   9
HETATM    9  C9  UNL     1     -32.948   8.000   2.175  1.00 20.00     0.004 C 
HETATM   10  C7  UNL     1     -31.920   8.695   1.290  1.00 20.00     0.006 C 
ENDBRANCH   7   9
ENDBRANCH   6   7
TORSDOF 2
ENDMDL
MODEL 2
REMARK VINA RESULT:      -5.7      0.017      1.528
REMARK  2 active torsions:
REMARK  status: ('A' for Active; 'I' for Inactive)
REMARK    1  A    between atoms: C6_6  and  C10_10 
REMARK    2  A    between atoms: C9_9  and  C10_10 
ROOT
HETATM    1  C1  UNL     1     -35.201   5.043   5.675  1.00 20.00     0.000 A 
HETATM    2  C2  UNL     1     -34.267   5.919   6.227  1.00 20.00     0.001 A 
HETATM    3  C3  UNL     1     -35.199   4.798   4.302  1.00 20.00     0.001 A 
HETATM    4  C4  UNL     1     -33.331   6.550   5.408  1.00 20.00     0.007 A 
HETATM    5  C5  UNL     1     -34.265   5.429   3.481  1.00 20.00     0.007 A 
HETATM    6  C6  UNL     1     -33.331   6.305   4.034  1.00 20.00    -0.054 A 
ENDROOT
BRANCH   6   7
HETATM    7  C10 UNL     1     -32.313   6.992   3.139  1.00 20.00     0.014 C 
HETATM    8  C8  UNL     1     -31.221   7.662   3.981  1.00 20.00     0.015 C 
BRANCH   7   9
HETATM    9  C9  UNL     1     -32.942   8.021   2.178  1.00 20.00     0.004 C 
HETATM   10  C7  UNL     1     -31.917   8.709   1.285  1.00 20.00     0.006 C 
ENDBRANCH   7   9
ENDBRANCH   6   7
TORSDOF 2
ENDMDL
MODEL 3
REMARK VINA RESULT:      -5.4      0.883      1.272
REMARK  2 active torsions:
REMARK  status: ('A' for Active; 'I' for Inactive)
REMARK    1  A    between atoms: C6_6  and  C10_10 
REMARK    2  A    between atoms: C9_9  and  C10_10 
ROOT
HETATM    1  C1  UNL     1     -34.926   5.291   6.512  1.00 20.00     0.000 A 
HETATM    2  C2  UNL     1     -35.173   4.568   5.346  1.00 20.00     0.001 A 
HETATM    3  C3  UNL     1     -34.069   6.391   6.482  1.00 20.00     0.001 A 
HETATM    4  C4  UNL     1     -34.563   4.944   4.149  1.00 20.00     0.007 A 
HETATM    5  C5  UNL     1     -33.458   6.768   5.285  1.00 20.00     0.007 A 
HETATM    6  C6  UNL     1     -33.705   6.043   4.119  1.00 20.00    -0.054 A 
ENDROOT
BRANCH   6   7
HETATM    7  C10 UNL     1     -33.039   6.454   2.816  1.00 20.00     0.014 C 
HETATM    8  C8  UNL     1     -32.319   5.260   2.180  1.00 20.00     0.015 C 
BRANCH   7   9
HETATM    9  C9  UNL     1     -32.060   7.635   2.978  1.00 20.00     0.004 C 
HETATM   10  C7  UNL     1     -31.997   8.531   1.748  1.00 20.00     0.006 C 
ENDBRANCH   7   9
ENDBRANCH   6   7
TORSDOF 2
ENDMDL
MODEL 4
REMARK VINA RESULT:      -4.7     10.968     11.886
REMARK  2 active torsions:
REMARK  status: ('A' for Active; 'I' for Inactive)
REMARK    1  A    between atoms: C6_6  and  C10_10 
REMARK    2  A    between atoms: C9_9  and  C10_10 
ROOT
HETATM    1  C1  UNL     1     -35.070  13.319  -4.407  1.00 20.00     0.000 A 
HETATM    2  C2  UNL     1     -36.051  14.191  -3.936  1.00 20.00     0.001 A 
HETATM    3  C3  UNL     1     -33.726  13.570  -4.132  1.00 20.00     0.001 A 
HETATM    4  C4  UNL     1     -35.690  15.313  -3.190  1.00 20.00     0.007 A 
HETATM    5  C5  UNL     1     -33.363  14.692  -3.387  1.00 20.00     0.007 A 
HETATM    6  C6  UNL     1     -34.345  15.563  -2.917  1.00 20.00    -0.054 A 
ENDROOT
BRANCH   6   7
HETATM    7  C10 UNL     1     -33.949  16.785  -2.105  1.00 20.00     0.014 C 
HETATM    8  C8  UNL     1     -34.577  16.731  -0.708  1.00 20.00     0.015 C 
BRANCH   7   9
HETATM    9  C9  UNL     1     -34.310  18.118  -2.793  1.00 20.00     0.004 C 
HETATM   10  C7  UNL     1     -33.684  18.268  -4.173  1.00 20.00     0.006 C 
ENDBRANCH   7   9
ENDBRANCH   6   7
TORSDOF 2
ENDMDL
MODEL 5
REMARK VINA RESULT:      -4.7     10.978     11.912
REMARK  2 active torsions:
REMARK  status: ('A' for Active; 'I' for Inactive)
REMARK    1  A    between atoms: C6_6  and  C10_10 
REMARK    2  A    between atoms: C9_9  and  C10_10 
ROOT
HETATM    1  C1  UNL     1     -35.062  13.309  -4.438  1.00 20.00     0.000 A 
HETATM    2  C2  UNL     1     -33.720  13.564  -4.154  1.00 20.00     0.001 A 
HETATM    3  C3  UNL     1     -36.049  14.178  -3.972  1.00 20.00     0.001 A 
HETATM    4  C4  UNL     1     -33.365  14.685  -3.405  1.00 20.00     0.007 A 
HETATM    5  C5  UNL     1     -35.695  15.299  -3.222  1.00 20.00     0.007 A 
HETATM    6  C6  UNL     1     -34.353  15.552  -2.938  1.00 20.00    -0.054 A 
ENDROOT
BRANCH   6   7
HETATM    7  C10 UNL     1     -33.968  16.774  -2.121  1.00 20.00     0.014 C 
HETATM    8  C8  UNL     1     -34.598  16.709  -0.725  1.00 20.00     0.015 C 
BRANCH   7   9
HETATM    9  C9  UNL     1     -34.340  18.106  -2.804  1.00 20.00     0.004 C 
HETATM   10  C7  UNL     1     -33.750  18.247  -4.201  1.00 20.00     0.006 C 
ENDBRANCH   7   9
ENDBRANCH   6   7
TORSDOF 2
ENDMDL
MODEL 6
REMARK VINA RESULT:      -4.6      9.538     11.290
REMARK  2 active torsions:
REMARK  status: ('A' for Active; 'I' for Inactive)
REMARK    1  A    between atoms: C6_6  and  C10_10 
REMARK    2  A    between atoms: C9_9  and  C10_10 
ROOT
HETATM    1  C1  UNL     1     -41.059   6.944  -0.997  1.00 20.00     0.000 A 
HETATM    2  C2  UNL     1     -40.647   5.700  -0.519  1.00 20.00     0.001 A 
HETATM    3  C3  UNL     1     -41.924   7.020  -2.088  1.00 20.00     0.001 A 
HETATM    4  C4  UNL     1     -41.098   4.532  -1.134  1.00 20.00     0.007 A 
HETATM    5  C5  UNL     1     -42.375   5.853  -2.704  1.00 20.00     0.007 A 
HETATM    6  C6  UNL     1     -41.962   4.609  -2.226  1.00 20.00    -0.054 A 
ENDROOT
BRANCH   6   7
HETATM    7  C10 UNL     1     -42.455   3.338  -2.897  1.00 20.00     0.014 C 
HETATM    8  C8  UNL     1     -43.417   2.580  -1.976  1.00 20.00     0.015 C 
BRANCH   7   9
HETATM    9  C9  UNL     1     -41.312   2.403  -3.347  1.00 20.00     0.004 C 
HETATM   10  C7  UNL     1     -41.795   1.010  -3.728  1.00 20.00     0.006 C 
ENDBRANCH   7   9
ENDBRANCH   6   7
TORSDOF 2
ENDMDL
MODEL 7
REMARK VINA RESULT:      -4.5     10.895     11.951
REMARK  2 active torsions:
REMARK  status: ('A' for Active; 'I' for Inactive)
REMARK    1  A    between atoms: C6_6  and  C10_10 
REMARK    2  A    between atoms: C9_9  and  C10_10 
ROOT
HETATM    1  C1  UNL     1     -34.743  13.249  -4.257  1.00 20.00     0.000 A 
HETATM    2  C2  UNL     1     -35.909  13.986  -4.052  1.00 20.00     0.001 A 
HETATM    3  C3  UNL     1     -33.504  13.800  -3.931  1.00 20.00     0.001 A 
HETATM    4  C4  UNL     1     -35.837  15.274  -3.522  1.00 20.00     0.007 A 
HETATM    5  C5  UNL     1     -33.431  15.088  -3.401  1.00 20.00     0.007 A 
HETATM    6  C6  UNL     1     -34.597  15.825  -3.197  1.00 20.00    -0.054 A 
ENDROOT
BRANCH   6   7
HETATM    7  C10 UNL     1     -34.517  17.228  -2.619  1.00 20.00     0.014 C 
HETATM    8  C8  UNL     1     -33.815  18.175  -3.600  1.00 20.00     0.015 C 
BRANCH   7   9
HETATM    9  C9  UNL     1     -33.818  17.283  -1.245  1.00 20.00     0.004 C 
HETATM   10  C7  UNL     1     -34.776  17.073  -0.079  1.00 20.00     0.006 C 
ENDBRANCH   7   9
ENDBRANCH   6   7
TORSDOF 2
ENDMDL
MODEL 8
REMARK VINA RESULT:      -4.5     10.858     12.137
REMARK  2 active torsions:
REMARK  status: ('A' for Active; 'I' for Inactive)
REMARK    1  A    between atoms: C6_6  and  C10_10 
REMARK    2  A    between atoms: C9_9  and  C10_10 
ROOT
HETATM    1  C1  UNL     1     -34.164  18.451   0.929  1.00 20.00     0.000 A 
HETATM    2  C2  UNL     1     -33.128  18.772   0.053  1.00 20.00     0.001 A 
HETATM    3  C3  UNL     1     -35.042  17.413   0.619  1.00 20.00     0.001 A 
HETATM    4  C4  UNL     1     -32.969  18.055  -1.134  1.00 20.00     0.007 A 
HETATM    5  C5  UNL     1     -34.885  16.696  -0.568  1.00 20.00     0.007 A 
HETATM    6  C6  UNL     1     -33.849  17.018  -1.445  1.00 20.00    -0.054 A 
ENDROOT
BRANCH   6   7
HETATM    7  C10 UNL     1     -33.678  16.237  -2.737  1.00 20.00     0.014 C 
HETATM    8  C8  UNL     1     -33.667  17.185  -3.942  1.00 20.00     0.015 C 
BRANCH   7   9
HETATM    9  C9  UNL     1     -34.750  15.146  -2.936  1.00 20.00     0.004 C 
HETATM   10  C7  UNL     1     -34.212  13.897  -3.621  1.00 20.00     0.006 C 
ENDBRANCH   7   9
ENDBRANCH   6   7
TORSDOF 2
ENDMDL
MODEL 9
REMARK VINA RESULT:      -4.4     10.834     12.212
REMARK  2 active torsions:
REMARK  status: ('A' for Active; 'I' for Inactive)
REMARK    1  A    between atoms: C6_6  and  C10_10 
REMARK    2  A    between atoms: C9_9  and  C10_10 
ROOT
HETATM    1  C1  UNL     1     -34.323  18.617   0.655  1.00 20.00     0.000 A 
HETATM    2  C2  UNL     1     -34.979  17.393   0.522  1.00 20.00     0.001 A 
HETATM    3  C3  UNL     1     -33.452  19.053  -0.343  1.00 20.00     0.001 A 
HETATM    4  C4  UNL     1     -34.764  16.605  -0.609  1.00 20.00     0.007 A 
HETATM    5  C5  UNL     1     -33.236  18.265  -1.474  1.00 20.00     0.007 A 
HETATM    6  C6  UNL     1     -33.891  17.041  -1.606  1.00 20.00    -0.054 A 
ENDROOT
BRANCH   6   7
HETATM    7  C10 UNL     1     -33.655  16.184  -2.838  1.00 20.00     0.014 C 
HETATM    8  C8  UNL     1     -33.609  17.054  -4.099  1.00 20.00     0.015 C 
BRANCH   7   9
HETATM    9  C9  UNL     1     -34.701  15.063  -3.011  1.00 20.00     0.004 C 
HETATM   10  C7  UNL     1     -34.134  13.814  -3.674  1.00 20.00     0.006 C 
ENDBRANCH   7   9
ENDBRANCH   6   7
TORSDOF 2
ENDMDL
