MODEL 1
REMARK VINA RESULT:      -5.6      0.000      0.000
REMARK  0 active torsions:
REMARK  status: ('A' for Active; 'I' for Inactive)
ROOT
HETATM    1  C1  UNL     1     -35.177   4.904   5.951  1.00 20.00     0.001 A 
HETATM    2  C2  UNL     1     -34.329   5.871   6.492  1.00 20.00     0.001 A 
HETATM    3  C3  UNL     1     -35.172   4.661   4.578  1.00 20.00     0.007 A 
HETATM    4  C4  UNL     1     -33.477   6.595   5.659  1.00 20.00     0.007 A 
HETATM    5  C5  UNL     1     -34.319   5.385   3.744  1.00 20.00    -0.056 A 
HETATM    6  C6  UNL     1     -33.472   6.352   4.285  1.00 20.00    -0.056 A 
HETATM    7  C7  UNL     1     -34.331   5.108   2.277  1.00 20.00     0.049 C 
HETATM    8  C8  UNL     1     -32.551   7.141   3.413  1.00 20.00     0.049 C 
ENDROOT
TORSDOF 0
ENDMDL
MODEL 2
REMARK VINA RESULT:      -5.6      0.726      2.061
REMARK  0 active torsions:
REMARK  status: ('A' for Active; 'I' for Inactive)
ROOT
HETATM    1  C1  UNL     1     -35.189   4.174   4.476  1.00 20.00     0.001 A 
HETATM    2  C2  UNL     1     -35.280   4.263   5.866  1.00 20.00     0.001 A 
HETATM    3  C3  UNL     1     -34.458   5.123   3.763  1.00 20.00     0.007 A 
HETATM    4  C4  UNL     1     -34.639   5.302   6.541  1.00 20.00     0.007 A 
HETATM    5  C5  UNL     1     -33.817   6.162   4.437  1.00 20.00    -0.056 A 
HETATM    6  C6  UNL     1     -33.908   6.252   5.827  1.00 20.00    -0.056 A 
HETATM    7  C7  UNL     1     -33.039   7.167   3.653  1.00 20.00     0.049 C 
HETATM    8  C8  UNL     1     -33.232   7.356   6.572  1.00 20.00     0.049 C 
ENDROOT
TORSDOF 0
ENDMDL
MODEL 3
REMARK VINA RESULT:      -5.6      0.719      2.494
REMARK  0 active torsions:
REMARK  status: ('A' for Active; 'I' for Inactive)
ROOT
HETATM    1  C1  UNL     1     -35.274   4.269   5.859  1.00 20.00     0.001 A 
HETATM    2  C2  UNL     1     -35.181   4.180   4.469  1.00 20.00     0.001 A 
HETATM    3  C3  UNL     1     -34.633   5.306   6.536  1.00 20.00     0.007 A 
HETATM    4  C4  UNL     1     -34.448   5.129   3.757  1.00 20.00     0.007 A 
HETATM    5  C5  UNL     1     -33.899   6.255   5.824  1.00 20.00    -0.056 A 
HETATM    6  C6  UNL     1     -33.807   6.167   4.435  1.00 20.00    -0.056 A 
HETATM    7  C7  UNL     1     -33.222   7.358   6.570  1.00 20.00     0.049 C 
HETATM    8  C8  UNL     1     -33.026   7.171   3.651  1.00 20.00     0.049 C 
ENDROOT
TORSDOF 0
ENDMDL
MODEL 4
REMARK VINA RESULT:      -5.6      0.117      2.253
REMARK  0 active torsions:
REMARK  status: ('A' for Active; 'I' for Inactive)
ROOT
HETATM    1  C1  UNL     1     -34.412   5.729   6.523  1.00 20.00     0.001 A 
HETATM    2  C2  UNL     1     -35.239   4.771   5.935  1.00 20.00     0.001 A 
HETATM    3  C3  UNL     1     -33.557   6.493   5.730  1.00 20.00     0.007 A 
HETATM    4  C4  UNL     1     -35.210   4.578   4.554  1.00 20.00     0.007 A 
HETATM    5  C5  UNL     1     -33.528   6.301   4.349  1.00 20.00    -0.056 A 
HETATM    6  C6  UNL     1     -34.354   5.343   3.761  1.00 20.00    -0.056 A 
HETATM    7  C7  UNL     1     -32.604   7.132   3.520  1.00 20.00     0.049 C 
HETATM    8  C8  UNL     1     -34.340   5.118   2.284  1.00 20.00     0.049 C 
ENDROOT
TORSDOF 0
ENDMDL
MODEL 5
REMARK VINA RESULT:      -5.1      0.832      3.525
REMARK  0 active torsions:
REMARK  status: ('A' for Active; 'I' for Inactive)
ROOT
HETATM    1  C1  UNL     1     -33.248   6.370   3.014  1.00 20.00     0.001 A 
HETATM    2  C2  UNL     1     -34.091   5.269   2.863  1.00 20.00     0.001 A 
HETATM    3  C3  UNL     1     -33.060   6.938   4.273  1.00 20.00     0.007 A 
HETATM    4  C4  UNL     1     -34.746   4.735   3.973  1.00 20.00     0.007 A 
HETATM    5  C5  UNL     1     -33.715   6.405   5.384  1.00 20.00    -0.056 A 
HETATM    6  C6  UNL     1     -34.558   5.303   5.233  1.00 20.00    -0.056 A 
HETATM    7  C7  UNL     1     -33.499   7.029   6.723  1.00 20.00     0.049 C 
HETATM    8  C8  UNL     1     -35.271   4.715   6.407  1.00 20.00     0.049 C 
ENDROOT
TORSDOF 0
ENDMDL
MODEL 6
REMARK VINA RESULT:      -5.1      0.830      2.751
REMARK  0 active torsions:
REMARK  status: ('A' for Active; 'I' for Inactive)
ROOT
HETATM    1  C1  UNL     1     -34.072   5.306   2.816  1.00 20.00     0.001 A 
HETATM    2  C2  UNL     1     -33.191   6.376   2.974  1.00 20.00     0.001 A 
HETATM    3  C3  UNL     1     -34.747   4.789   3.921  1.00 20.00     0.007 A 
HETATM    4  C4  UNL     1     -32.986   6.930   4.238  1.00 20.00     0.007 A 
HETATM    5  C5  UNL     1     -34.543   5.342   5.186  1.00 20.00    -0.056 A 
HETATM    6  C6  UNL     1     -33.662   6.413   5.344  1.00 20.00    -0.056 A 
HETATM    7  C7  UNL     1     -35.277   4.773   6.355  1.00 20.00     0.049 C 
HETATM    8  C8  UNL     1     -33.425   7.022   6.687  1.00 20.00     0.049 C 
ENDROOT
TORSDOF 0
ENDMDL
MODEL 7
REMARK VINA RESULT:      -4.3      0.785      2.467
REMARK  0 active torsions:
REMARK  status: ('A' for Active; 'I' for Inactive)
ROOT
HETATM    1  C1  UNL     1     -33.074   7.387   5.579  1.00 20.00     0.001 A 
HETATM    2  C2  UNL     1     -33.730   6.762   6.641  1.00 20.00     0.001 A 
HETATM    3  C3  UNL     1     -33.181   6.867   4.290  1.00 20.00     0.007 A 
HETATM    4  C4  UNL     1     -34.493   5.617   6.412  1.00 20.00     0.007 A 
HETATM    5  C5  UNL     1     -33.945   5.722   4.060  1.00 20.00    -0.056 A 
HETATM    6  C6  UNL     1     -34.600   5.097   5.122  1.00 20.00    -0.056 A 
HETATM    7  C7  UNL     1     -34.046   5.183   2.671  1.00 20.00     0.049 C 
HETATM    8  C8  UNL     1     -35.422   3.869   4.901  1.00 20.00     0.049 C 
ENDROOT
TORSDOF 0
ENDMDL
MODEL 8
REMARK VINA RESULT:      -4.2      0.808      2.077
REMARK  0 active torsions:
REMARK  status: ('A' for Active; 'I' for Inactive)
ROOT
HETATM    1  C1  UNL     1     -33.808   6.726   6.710  1.00 20.00     0.001 A 
HETATM    2  C2  UNL     1     -33.114   7.381   5.693  1.00 20.00     0.001 A 
HETATM    3  C3  UNL     1     -34.557   5.586   6.421  1.00 20.00     0.007 A 
HETATM    4  C4  UNL     1     -33.169   6.897   4.386  1.00 20.00     0.007 A 
HETATM    5  C5  UNL     1     -34.613   5.101   5.114  1.00 20.00    -0.056 A 
HETATM    6  C6  UNL     1     -33.918   5.757   4.097  1.00 20.00    -0.056 A 
HETATM    7  C7  UNL     1     -35.421   3.878   4.827  1.00 20.00     0.049 C 
HETATM    8  C8  UNL     1     -33.963   5.257   2.690  1.00 20.00     0.049 C 
ENDROOT
TORSDOF 0
ENDMDL
MODEL 9
REMARK VINA RESULT:      -4.1     11.985     13.583
REMARK  0 active torsions:
REMARK  status: ('A' for Active; 'I' for Inactive)
ROOT
HETATM    1  C1  UNL     1     -33.589  13.805  -3.849  1.00 20.00     0.001 A 
HETATM    2  C2  UNL     1     -33.014  15.058  -3.631  1.00 20.00     0.001 A 
HETATM    3  C3  UNL     1     -34.379  13.587  -4.976  1.00 20.00     0.007 A 
HETATM    4  C4  UNL     1     -33.229  16.092  -4.542  1.00 20.00     0.007 A 
HETATM    5  C5  UNL     1     -34.595  14.621  -5.888  1.00 20.00    -0.056 A 
HETATM    6  C6  UNL     1     -34.020  15.874  -5.670  1.00 20.00    -0.056 A 
HETATM    7  C7  UNL     1     -35.445  14.365  -7.089  1.00 20.00     0.049 C 
HETATM    8  C8  UNL     1     -34.238  16.997  -6.631  1.00 20.00     0.049 C 
ENDROOT
TORSDOF 0
ENDMDL
