MODEL 1
REMARK VINA RESULT:      -5.9      0.000      0.000
REMARK  1 active torsions:
REMARK  status: ('A' for Active; 'I' for Inactive)
REMARK    1  A    between atoms: C2_2  and  C8_8 
ROOT
HETATM    1  C1  UNL     1     -34.115   6.128   5.886  1.00 20.00    -0.081 C 
HETATM    2  C2  UNL     1     -34.104   5.977   4.553  1.00 20.00    -0.078 C 
HETATM    3  C3  UNL     1     -34.919   5.050   6.551  1.00 20.00     0.034 C 
HETATM    4  C4  UNL     1     -34.898   4.777   4.131  1.00 20.00     0.034 C 
HETATM    5  C5  UNL     1     -35.106   4.022   5.440  1.00 20.00     0.009 C 
HETATM    6  C6  UNL     1     -33.489   7.191   6.719  1.00 20.00     0.043 C 
ENDROOT
BRANCH   2   7
HETATM    7  C8  UNL     1     -33.461   6.829   3.515  1.00 20.00     0.030 C 
HETATM    8  C7  UNL     1     -32.118   6.254   3.108  1.00 20.00     0.010 C 
ENDBRANCH   2   7
TORSDOF 1
ENDMDL
MODEL 2
REMARK VINA RESULT:      -4.9      0.893      3.004
REMARK  1 active torsions:
REMARK  status: ('A' for Active; 'I' for Inactive)
REMARK    1  A    between atoms: C2_2  and  C8_8 
ROOT
HETATM    1  C1  UNL     1     -33.466   6.587   5.001  1.00 20.00    -0.081 C 
HETATM    2  C2  UNL     1     -34.166   5.728   4.244  1.00 20.00    -0.078 C 
HETATM    3  C3  UNL     1     -32.315   7.173   4.239  1.00 20.00     0.034 C 
HETATM    4  C4  UNL     1     -33.586   5.614   2.866  1.00 20.00     0.034 C 
HETATM    5  C5  UNL     1     -32.630   6.801   2.794  1.00 20.00     0.009 C 
HETATM    6  C6  UNL     1     -33.672   6.971   6.424  1.00 20.00     0.043 C 
ENDROOT
BRANCH   2   7
HETATM    7  C8  UNL     1     -35.354   4.907   4.605  1.00 20.00     0.030 C 
HETATM    8  C7  UNL     1     -34.999   3.895   5.677  1.00 20.00     0.010 C 
ENDBRANCH   2   7
TORSDOF 1
ENDMDL
MODEL 3
REMARK VINA RESULT:      -4.9      0.885      2.314
REMARK  1 active torsions:
REMARK  status: ('A' for Active; 'I' for Inactive)
REMARK    1  A    between atoms: C2_2  and  C8_8 
ROOT
HETATM    1  C1  UNL     1     -34.494   5.210   5.106  1.00 20.00    -0.081 C 
HETATM    2  C2  UNL     1     -33.669   6.061   4.476  1.00 20.00    -0.078 C 
HETATM    3  C3  UNL     1     -34.579   5.517   6.572  1.00 20.00     0.034 C 
HETATM    4  C4  UNL     1     -33.084   7.061   5.427  1.00 20.00     0.034 C 
HETATM    5  C5  UNL     1     -33.950   6.902   6.673  1.00 20.00     0.009 C 
HETATM    6  C6  UNL     1     -35.254   4.055   4.557  1.00 20.00     0.043 C 
ENDROOT
BRANCH   2   7
HETATM    7  C8  UNL     1     -33.275   6.100   3.041  1.00 20.00     0.030 C 
HETATM    8  C7  UNL     1     -32.227   7.170   2.804  1.00 20.00     0.010 C 
ENDBRANCH   2   7
TORSDOF 1
ENDMDL
MODEL 4
REMARK VINA RESULT:      -4.6      0.903      3.335
REMARK  1 active torsions:
REMARK  status: ('A' for Active; 'I' for Inactive)
REMARK    1  A    between atoms: C2_2  and  C8_8 
ROOT
HETATM    1  C1  UNL     1     -34.462   5.261   4.240  1.00 20.00    -0.081 C 
HETATM    2  C2  UNL     1     -33.860   6.154   5.042  1.00 20.00    -0.078 C 
HETATM    3  C3  UNL     1     -33.958   5.364   2.832  1.00 20.00     0.034 C 
HETATM    4  C4  UNL     1     -32.866   6.985   4.286  1.00 20.00     0.034 C 
HETATM    5  C5  UNL     1     -32.706   6.223   2.974  1.00 20.00     0.009 C 
HETATM    6  C6  UNL     1     -35.524   4.270   4.565  1.00 20.00     0.043 C 
ENDROOT
BRANCH   2   7
HETATM    7  C8  UNL     1     -34.078   6.415   6.491  1.00 20.00     0.030 C 
HETATM    8  C7  UNL     1     -33.219   7.572   6.961  1.00 20.00     0.010 C 
ENDBRANCH   2   7
TORSDOF 1
ENDMDL
MODEL 5
REMARK VINA RESULT:      -4.4      1.033      3.137
REMARK  1 active torsions:
REMARK  status: ('A' for Active; 'I' for Inactive)
REMARK    1  A    between atoms: C2_2  and  C8_8 
ROOT
HETATM    1  C1  UNL     1     -32.809   6.537   3.674  1.00 20.00    -0.081 C 
HETATM    2  C2  UNL     1     -33.756   6.149   4.543  1.00 20.00    -0.078 C 
HETATM    3  C3  UNL     1     -32.993   5.879   2.338  1.00 20.00     0.034 C 
HETATM    4  C4  UNL     1     -34.711   5.178   3.916  1.00 20.00     0.034 C 
HETATM    5  C5  UNL     1     -34.401   5.302   2.427  1.00 20.00     0.009 C 
HETATM    6  C6  UNL     1     -31.658   7.455   3.884  1.00 20.00     0.043 C 
ENDROOT
BRANCH   2   7
HETATM    7  C8  UNL     1     -33.932   6.527   5.972  1.00 20.00     0.030 C 
HETATM    8  C7  UNL     1     -34.723   5.467   6.712  1.00 20.00     0.010 C 
ENDBRANCH   2   7
TORSDOF 1
ENDMDL
MODEL 6
REMARK VINA RESULT:      -4.4      0.831      2.861
REMARK  1 active torsions:
REMARK  status: ('A' for Active; 'I' for Inactive)
REMARK    1  A    between atoms: C2_2  and  C8_8 
ROOT
HETATM    1  C1  UNL     1     -33.547   6.210   4.002  1.00 20.00    -0.081 C 
HETATM    2  C2  UNL     1     -33.780   6.186   5.324  1.00 20.00    -0.078 C 
HETATM    3  C3  UNL     1     -34.443   5.255   3.272  1.00 20.00     0.034 C 
HETATM    4  C4  UNL     1     -34.865   5.212   5.671  1.00 20.00     0.034 C 
HETATM    5  C5  UNL     1     -35.497   4.901   4.317  1.00 20.00     0.009 C 
HETATM    6  C6  UNL     1     -32.545   7.001   3.237  1.00 20.00     0.043 C 
ENDROOT
BRANCH   2   7
HETATM    7  C8  UNL     1     -33.104   6.944   6.412  1.00 20.00     0.030 C 
HETATM    8  C7  UNL     1     -34.125   7.627   7.301  1.00 20.00     0.010 C 
ENDBRANCH   2   7
TORSDOF 1
ENDMDL
MODEL 7
REMARK VINA RESULT:      -4.2     11.906     12.591
REMARK  1 active torsions:
REMARK  status: ('A' for Active; 'I' for Inactive)
REMARK    1  A    between atoms: C2_2  and  C8_8 
ROOT
HETATM    1  C1  UNL     1     -34.231  14.299  -3.538  1.00 20.00    -0.081 C 
HETATM    2  C2  UNL     1     -34.730  15.410  -2.974  1.00 20.00    -0.078 C 
HETATM    3  C3  UNL     1     -35.308  13.494  -4.202  1.00 20.00     0.034 C 
HETATM    4  C4  UNL     1     -36.212  15.511  -3.179  1.00 20.00     0.034 C 
HETATM    5  C5  UNL     1     -36.483  14.464  -4.255  1.00 20.00     0.009 C 
HETATM    6  C6  UNL     1     -32.831  13.796  -3.548  1.00 20.00     0.043 C 
ENDROOT
BRANCH   2   7
HETATM    7  C8  UNL     1     -34.028  16.466  -2.193  1.00 20.00     0.030 C 
HETATM    8  C7  UNL     1     -34.641  16.608  -0.814  1.00 20.00     0.010 C 
ENDBRANCH   2   7
TORSDOF 1
ENDMDL
MODEL 8
REMARK VINA RESULT:      -4.1     11.895     12.682
REMARK  1 active torsions:
REMARK  status: ('A' for Active; 'I' for Inactive)
REMARK    1  A    between atoms: C2_2  and  C8_8 
ROOT
HETATM    1  C1  UNL     1     -35.271  14.799  -3.526  1.00 20.00    -0.081 C 
HETATM    2  C2  UNL     1     -34.241  15.533  -3.077  1.00 20.00    -0.078 C 
HETATM    3  C3  UNL     1     -34.795  13.575  -4.249  1.00 20.00     0.034 C 
HETATM    4  C4  UNL     1     -32.926  14.906  -3.433  1.00 20.00     0.034 C 
HETATM    5  C5  UNL     1     -33.321  13.497  -3.867  1.00 20.00     0.009 C 
HETATM    6  C6  UNL     1     -36.732  15.065  -3.422  1.00 20.00     0.043 C 
ENDROOT
BRANCH   2   7
HETATM    7  C8  UNL     1     -34.257  16.827  -2.342  1.00 20.00     0.030 C 
HETATM    8  C7  UNL     1     -34.598  16.608  -0.881  1.00 20.00     0.010 C 
ENDBRANCH   2   7
TORSDOF 1
ENDMDL
MODEL 9
REMARK VINA RESULT:      -4.1      9.450     10.772
REMARK  1 active torsions:
REMARK  status: ('A' for Active; 'I' for Inactive)
REMARK    1  A    between atoms: C2_2  and  C8_8 
ROOT
HETATM    1  C1  UNL     1     -41.648   4.737  -1.969  1.00 20.00    -0.081 C 
HETATM    2  C2  UNL     1     -42.004   6.005  -2.232  1.00 20.00    -0.078 C 
HETATM    3  C3  UNL     1     -40.659   4.671  -0.844  1.00 20.00     0.034 C 
HETATM    4  C4  UNL     1     -41.305   6.970  -1.322  1.00 20.00     0.034 C 
HETATM    5  C5  UNL     1     -40.734   6.066  -0.233  1.00 20.00     0.009 C 
HETATM    6  C6  UNL     1     -42.072   3.481  -2.645  1.00 20.00     0.043 C 
ENDROOT
BRANCH   2   7
HETATM    7  C8  UNL     1     -42.927   6.525  -3.277  1.00 20.00     0.030 C 
HETATM    8  C7  UNL     1     -42.479   7.892  -3.755  1.00 20.00     0.010 C 
ENDBRANCH   2   7
TORSDOF 1
ENDMDL
