MODEL 1
REMARK VINA RESULT:      -2.6      0.000      0.000
REMARK  0 active torsions:
REMARK  status: ('A' for Active; 'I' for Inactive)
ROOT
HETATM    1  C1  UNL     1     -33.334   6.154   3.465  1.00 20.00     0.016 C 
HETATM    2  C2  UNL     1     -34.672   5.482   3.715  1.00 20.00     0.075 C 
HETATM    3  I3  UNL     1     -34.774   4.708   5.698  1.00 20.00    -0.090 I 
ENDROOT
TORSDOF 0
ENDMDL
MODEL 2
REMARK VINA RESULT:      -2.5      2.194      2.580
REMARK  0 active torsions:
REMARK  status: ('A' for Active; 'I' for Inactive)
ROOT
HETATM    1  C1  UNL     1     -34.933   4.398   5.963  1.00 20.00     0.016 C 
HETATM    2  C2  UNL     1     -35.223   4.894   4.557  1.00 20.00     0.075 C 
HETATM    3  I3  UNL     1     -33.668   6.179   3.869  1.00 20.00    -0.090 I 
ENDROOT
TORSDOF 0
ENDMDL
MODEL 3
REMARK VINA RESULT:      -2.5      2.480      2.800
REMARK  0 active torsions:
REMARK  status: ('A' for Active; 'I' for Inactive)
ROOT
HETATM    1  C1  UNL     1     -34.976   4.224   5.914  1.00 20.00     0.016 C 
HETATM    2  C2  UNL     1     -34.418   5.636   5.896  1.00 20.00     0.075 C 
HETATM    3  I3  UNL     1     -33.751   6.165   3.942  1.00 20.00    -0.090 I 
ENDROOT
TORSDOF 0
ENDMDL
MODEL 4
REMARK VINA RESULT:      -2.4      2.537      2.537
REMARK  0 active torsions:
REMARK  status: ('A' for Active; 'I' for Inactive)
ROOT
HETATM    1  C1  UNL     1     -33.877   6.755   6.551  1.00 20.00     0.016 C 
HETATM    2  C2  UNL     1     -34.566   5.454   6.180  1.00 20.00     0.075 C 
HETATM    3  I3  UNL     1     -34.868   5.328   4.074  1.00 20.00    -0.090 I 
ENDROOT
TORSDOF 0
ENDMDL
MODEL 5
REMARK VINA RESULT:      -2.3      2.568      2.639
REMARK  0 active torsions:
REMARK  status: ('A' for Active; 'I' for Inactive)
ROOT
HETATM    1  C1  UNL     1     -34.132   6.153   6.004  1.00 20.00     0.016 C 
HETATM    2  C2  UNL     1     -34.298   5.732   4.555  1.00 20.00     0.075 C 
HETATM    3  I3  UNL     1     -32.693   6.469   3.361  1.00 20.00    -0.090 I 
ENDROOT
TORSDOF 0
ENDMDL
MODEL 6
REMARK VINA RESULT:      -2.2      2.023      2.254
REMARK  0 active torsions:
REMARK  status: ('A' for Active; 'I' for Inactive)
ROOT
HETATM    1  C1  UNL     1     -32.222   7.618   2.567  1.00 20.00     0.016 C 
HETATM    2  C2  UNL     1     -32.255   6.269   3.263  1.00 20.00     0.075 C 
HETATM    3  I3  UNL     1     -34.194   5.867   4.051  1.00 20.00    -0.090 I 
ENDROOT
TORSDOF 0
ENDMDL
MODEL 7
REMARK VINA RESULT:      -2.0      1.521      1.682
REMARK  0 active torsions:
REMARK  status: ('A' for Active; 'I' for Inactive)
ROOT
HETATM    1  C1  UNL     1     -35.252   5.469   3.467  1.00 20.00     0.016 C 
HETATM    2  C2  UNL     1     -35.169   4.789   4.822  1.00 20.00     0.075 C 
HETATM    3  I3  UNL     1     -34.100   6.000   6.214  1.00 20.00    -0.090 I 
ENDROOT
TORSDOF 0
ENDMDL
MODEL 8
REMARK VINA RESULT:      -1.9     12.297     12.436
REMARK  0 active torsions:
REMARK  status: ('A' for Active; 'I' for Inactive)
ROOT
HETATM    1  C1  UNL     1     -34.600  16.163  -1.768  1.00 20.00     0.016 C 
HETATM    2  C2  UNL     1     -33.721  15.909  -2.980  1.00 20.00     0.075 C 
HETATM    3  I3  UNL     1     -34.234  14.066  -3.919  1.00 20.00    -0.090 I 
ENDROOT
TORSDOF 0
ENDMDL
MODEL 9
REMARK VINA RESULT:      -1.8     12.150     12.401
REMARK  0 active torsions:
REMARK  status: ('A' for Active; 'I' for Inactive)
ROOT
HETATM    1  C1  UNL     1     -33.619  13.837  -3.788  1.00 20.00     0.016 C 
HETATM    2  C2  UNL     1     -33.187  15.281  -3.603  1.00 20.00     0.075 C 
HETATM    3  I3  UNL     1     -34.496  16.300  -2.265  1.00 20.00    -0.090 I 
ENDROOT
TORSDOF 0
ENDMDL
