MODEL 1
REMARK VINA RESULT:      -4.9      0.000      0.000
REMARK  2 active torsions:
REMARK  status: ('A' for Active; 'I' for Inactive)
REMARK    1  A    between atoms: C6_6  and  C7_7 
REMARK    2  A    between atoms: C7_7  and  S8_8 
ROOT
HETATM    1  C1  UNL     1     -35.108   4.736   6.198  1.00 20.00     0.000 A 
HETATM    2  C2  UNL     1     -35.319   4.302   4.890  1.00 20.00     0.001 A 
HETATM    3  C3  UNL     1     -34.301   5.847   6.443  1.00 20.00     0.001 A 
HETATM    4  C4  UNL     1     -34.723   4.980   3.825  1.00 20.00     0.008 A 
HETATM    5  C5  UNL     1     -33.705   6.524   5.379  1.00 20.00     0.008 A 
HETATM    6  C6  UNL     1     -33.917   6.091   4.071  1.00 20.00    -0.049 A 
ENDROOT
BRANCH   6   7
HETATM    7  C7  UNL     1     -33.280   6.815   2.933  1.00 20.00     0.109 C 
BRANCH   7   8
HETATM    8  S8  UNL     1     -31.643   7.482   3.362  1.00 20.00    -0.178 SA
HETATM    9  H16 UNL     1     -31.870   8.717   2.896  1.00 20.00     0.101 HD
ENDBRANCH   7   8
ENDBRANCH   6   7
TORSDOF 2
ENDMDL
MODEL 2
REMARK VINA RESULT:      -4.9      0.002      1.708
REMARK  2 active torsions:
REMARK  status: ('A' for Active; 'I' for Inactive)
REMARK    1  A    between atoms: C6_6  and  C7_7 
REMARK    2  A    between atoms: C7_7  and  S8_8 
ROOT
HETATM    1  C1  UNL     1     -35.109   4.736   6.198  1.00 20.00     0.000 A 
HETATM    2  C2  UNL     1     -34.301   5.846   6.442  1.00 20.00     0.001 A 
HETATM    3  C3  UNL     1     -35.320   4.302   4.889  1.00 20.00     0.001 A 
HETATM    4  C4  UNL     1     -33.705   6.524   5.378  1.00 20.00     0.008 A 
HETATM    5  C5  UNL     1     -34.725   4.979   3.825  1.00 20.00     0.008 A 
HETATM    6  C6  UNL     1     -33.917   6.090   4.070  1.00 20.00    -0.049 A 
ENDROOT
BRANCH   6   7
HETATM    7  C7  UNL     1     -33.280   6.814   2.932  1.00 20.00     0.109 C 
BRANCH   7   8
HETATM    8  S8  UNL     1     -31.642   7.479   3.362  1.00 20.00    -0.178 SA
HETATM    9  H16 UNL     1     -31.986   7.921   4.578  1.00 20.00     0.101 HD
ENDBRANCH   7   8
ENDBRANCH   6   7
TORSDOF 2
ENDMDL
MODEL 3
REMARK VINA RESULT:      -3.8     12.017     12.366
REMARK  2 active torsions:
REMARK  status: ('A' for Active; 'I' for Inactive)
REMARK    1  A    between atoms: C6_6  and  C7_7 
REMARK    2  A    between atoms: C7_7  and  S8_8 
ROOT
HETATM    1  C1  UNL     1     -35.193  13.464  -4.405  1.00 20.00     0.000 A 
HETATM    2  C2  UNL     1     -36.098  14.359  -3.836  1.00 20.00     0.001 A 
HETATM    3  C3  UNL     1     -33.822  13.645  -4.219  1.00 20.00     0.001 A 
HETATM    4  C4  UNL     1     -35.633  15.436  -3.081  1.00 20.00     0.008 A 
HETATM    5  C5  UNL     1     -33.358  14.722  -3.464  1.00 20.00     0.008 A 
HETATM    6  C6  UNL     1     -34.262  15.617  -2.895  1.00 20.00    -0.049 A 
ENDROOT
BRANCH   6   7
HETATM    7  C7  UNL     1     -33.765  16.768  -2.087  1.00 20.00     0.109 C 
BRANCH   7   8
HETATM    8  S8  UNL     1     -34.697  16.985  -0.540  1.00 20.00    -0.178 SA
HETATM    9  H16 UNL     1     -33.819  16.344   0.242  1.00 20.00     0.101 HD
ENDBRANCH   7   8
ENDBRANCH   6   7
TORSDOF 2
ENDMDL
MODEL 4
REMARK VINA RESULT:      -3.8      9.702     10.548
REMARK  2 active torsions:
REMARK  status: ('A' for Active; 'I' for Inactive)
REMARK    1  A    between atoms: C6_6  and  C7_7 
REMARK    2  A    between atoms: C7_7  and  S8_8 
ROOT
HETATM    1  C1  UNL     1     -41.221   7.153  -0.879  1.00 20.00     0.000 A 
HETATM    2  C2  UNL     1     -42.020   7.021  -2.014  1.00 20.00     0.001 A 
HETATM    3  C3  UNL     1     -40.631   6.027  -0.307  1.00 20.00     0.001 A 
HETATM    4  C4  UNL     1     -42.230   5.762  -2.577  1.00 20.00     0.008 A 
HETATM    5  C5  UNL     1     -40.841   4.768  -0.869  1.00 20.00     0.008 A 
HETATM    6  C6  UNL     1     -41.640   4.636  -2.004  1.00 20.00    -0.049 A 
ENDROOT
BRANCH   6   7
HETATM    7  C7  UNL     1     -41.865   3.290  -2.606  1.00 20.00     0.109 C 
BRANCH   7   8
HETATM    8  S8  UNL     1     -43.405   3.207  -3.570  1.00 20.00    -0.178 SA
HETATM    9  H16 UNL     1     -42.870   2.595  -4.635  1.00 20.00     0.101 HD
ENDBRANCH   7   8
ENDBRANCH   6   7
TORSDOF 2
ENDMDL
MODEL 5
REMARK VINA RESULT:      -3.7      9.702     10.517
REMARK  2 active torsions:
REMARK  status: ('A' for Active; 'I' for Inactive)
REMARK    1  A    between atoms: C6_6  and  C7_7 
REMARK    2  A    between atoms: C7_7  and  S8_8 
ROOT
HETATM    1  C1  UNL     1     -40.765   4.830  -0.841  1.00 20.00     0.000 A 
HETATM    2  C2  UNL     1     -40.637   6.122  -0.333  1.00 20.00     0.001 A 
HETATM    3  C3  UNL     1     -41.614   4.587  -1.921  1.00 20.00     0.001 A 
HETATM    4  C4  UNL     1     -41.357   7.172  -0.903  1.00 20.00     0.008 A 
HETATM    5  C5  UNL     1     -42.334   5.636  -2.491  1.00 20.00     0.008 A 
HETATM    6  C6  UNL     1     -42.206   6.928  -1.983  1.00 20.00    -0.049 A 
ENDROOT
BRANCH   6   7
HETATM    7  C7  UNL     1     -42.976   8.050  -2.593  1.00 20.00     0.109 C 
BRANCH   7   8
HETATM    8  S8  UNL     1     -42.545   8.320  -4.340  1.00 20.00    -0.178 SA
HETATM    9  H16 UNL     1     -43.743   8.793  -4.707  1.00 20.00     0.101 HD
ENDBRANCH   7   8
ENDBRANCH   6   7
TORSDOF 2
ENDMDL
MODEL 6
REMARK VINA RESULT:      -3.6     12.354     13.771
REMARK  2 active torsions:
REMARK  status: ('A' for Active; 'I' for Inactive)
REMARK    1  A    between atoms: C6_6  and  C7_7 
REMARK    2  A    between atoms: C7_7  and  S8_8 
ROOT
HETATM    1  C1  UNL     1     -33.054  15.082  -3.655  1.00 20.00     0.000 A 
HETATM    2  C2  UNL     1     -33.205  16.084  -4.613  1.00 20.00     0.001 A 
HETATM    3  C3  UNL     1     -33.670  13.844  -3.840  1.00 20.00     0.001 A 
HETATM    4  C4  UNL     1     -33.971  15.850  -5.755  1.00 20.00     0.008 A 
HETATM    5  C5  UNL     1     -34.436  13.610  -4.981  1.00 20.00     0.008 A 
HETATM    6  C6  UNL     1     -34.586  14.612  -5.938  1.00 20.00    -0.049 A 
ENDROOT
BRANCH   6   7
HETATM    7  C7  UNL     1     -35.405  14.361  -7.160  1.00 20.00     0.109 C 
BRANCH   7   8
HETATM    8  S8  UNL     1     -36.967  15.294  -7.154  1.00 20.00    -0.178 SA
HETATM    9  H16 UNL     1     -37.632  14.456  -7.960  1.00 20.00     0.101 HD
ENDBRANCH   7   8
ENDBRANCH   6   7
TORSDOF 2
ENDMDL
MODEL 7
REMARK VINA RESULT:      -3.5     12.384     13.822
REMARK  2 active torsions:
REMARK  status: ('A' for Active; 'I' for Inactive)
REMARK    1  A    between atoms: C6_6  and  C7_7 
REMARK    2  A    between atoms: C7_7  and  S8_8 
ROOT
HETATM    1  C1  UNL     1     -33.585  13.782  -3.804  1.00 20.00     0.000 A 
HETATM    2  C2  UNL     1     -34.409  13.502  -4.893  1.00 20.00     0.001 A 
HETATM    3  C3  UNL     1     -33.017  15.049  -3.667  1.00 20.00     0.001 A 
HETATM    4  C4  UNL     1     -34.666  14.488  -5.846  1.00 20.00     0.008 A 
HETATM    5  C5  UNL     1     -33.273  16.034  -4.620  1.00 20.00     0.008 A 
HETATM    6  C6  UNL     1     -34.097  15.754  -5.709  1.00 20.00    -0.049 A 
ENDROOT
BRANCH   6   7
HETATM    7  C7  UNL     1     -34.372  16.808  -6.728  1.00 20.00     0.109 C 
BRANCH   7   8
HETATM    8  S8  UNL     1     -33.901  18.469  -6.155  1.00 20.00    -0.178 SA
HETATM    9  H16 UNL     1     -32.613  18.178  -5.929  1.00 20.00     0.101 HD
ENDBRANCH   7   8
ENDBRANCH   6   7
TORSDOF 2
ENDMDL
MODEL 8
REMARK VINA RESULT:      -3.5     12.172     13.579
REMARK  2 active torsions:
REMARK  status: ('A' for Active; 'I' for Inactive)
REMARK    1  A    between atoms: C6_6  and  C7_7 
REMARK    2  A    between atoms: C7_7  and  S8_8 
ROOT
HETATM    1  C1  UNL     1     -34.476  13.206  -4.720  1.00 20.00     0.000 A 
HETATM    2  C2  UNL     1     -33.627  13.808  -3.792  1.00 20.00     0.001 A 
HETATM    3  C3  UNL     1     -34.977  13.947  -5.791  1.00 20.00     0.001 A 
HETATM    4  C4  UNL     1     -33.280  15.152  -3.933  1.00 20.00     0.008 A 
HETATM    5  C5  UNL     1     -34.630  15.290  -5.931  1.00 20.00     0.008 A 
HETATM    6  C6  UNL     1     -33.781  15.892  -5.003  1.00 20.00    -0.049 A 
ENDROOT
BRANCH   6   7
HETATM    7  C7  UNL     1     -33.409  17.329  -5.154  1.00 20.00     0.109 C 
BRANCH   7   8
HETATM    8  S8  UNL     1     -33.947  18.339  -3.740  1.00 20.00    -0.178 SA
HETATM    9  H16 UNL     1     -32.718  18.574  -3.262  1.00 20.00     0.101 HD
ENDBRANCH   7   8
ENDBRANCH   6   7
TORSDOF 2
ENDMDL
MODEL 9
REMARK VINA RESULT:      -3.4     12.336     12.927
REMARK  2 active torsions:
REMARK  status: ('A' for Active; 'I' for Inactive)
REMARK    1  A    between atoms: C6_6  and  C7_7 
REMARK    2  A    between atoms: C7_7  and  S8_8 
ROOT
HETATM    1  C1  UNL     1     -34.111  18.429   1.564  1.00 20.00     0.000 A 
HETATM    2  C2  UNL     1     -35.048  17.526   1.064  1.00 20.00     0.001 A 
HETATM    3  C3  UNL     1     -33.034  18.828   0.771  1.00 20.00     0.001 A 
HETATM    4  C4  UNL     1     -34.910  17.021  -0.229  1.00 20.00     0.008 A 
HETATM    5  C5  UNL     1     -32.896  18.322  -0.521  1.00 20.00     0.008 A 
HETATM    6  C6  UNL     1     -33.833  17.420  -1.021  1.00 20.00    -0.049 A 
ENDROOT
BRANCH   6   7
HETATM    7  C7  UNL     1     -33.686  16.880  -2.404  1.00 20.00     0.109 C 
BRANCH   7   8
HETATM    8  S8  UNL     1     -34.925  15.605  -2.789  1.00 20.00    -0.178 SA
HETATM    9  H16 UNL     1     -34.429  14.675  -1.963  1.00 20.00     0.101 HD
ENDBRANCH   7   8
ENDBRANCH   6   7
TORSDOF 2
ENDMDL
