MODEL 1
REMARK VINA RESULT:      -6.0      0.000      0.000
REMARK  5 active torsions:
REMARK  status: ('A' for Active; 'I' for Inactive)
REMARK    1  A    between atoms: C6_6  and  C8_8 
REMARK    2  A    between atoms: C8_8  and  C10_10 
REMARK    3  A    between atoms: C9_9  and  C11_11 
REMARK    4  A    between atoms: C10_10  and  C12_12 
REMARK    5  A    between atoms: C11_11  and  C12_12 
ROOT
HETATM    1  C1  UNL     1     -35.032   4.738   6.625  1.00 20.00     0.000 A 
HETATM    2  C2  UNL     1     -35.238   4.004   5.457  1.00 20.00     0.001 A 
HETATM    3  C3  UNL     1     -34.362   5.961   6.572  1.00 20.00     0.001 A 
HETATM    4  C4  UNL     1     -34.773   4.491   4.236  1.00 20.00     0.007 A 
HETATM    5  C5  UNL     1     -33.898   6.448   5.351  1.00 20.00     0.007 A 
HETATM    6  C6  UNL     1     -34.103   5.713   4.182  1.00 20.00    -0.058 A 
ENDROOT
BRANCH   6   7
HETATM    7  C8  UNL     1     -33.604   6.237   2.872  1.00 20.00     0.038 C 
BRANCH   7   8
HETATM    8  C10 UNL     1     -32.093   6.481   2.897  1.00 20.00     0.005 C 
BRANCH   8   9
HETATM    9  C12 UNL     1     -31.765   7.953   2.641  1.00 20.00     0.000 C 
BRANCH   9  10
HETATM   10  C11 UNL     1     -31.678   8.251   1.143  1.00 20.00    -0.000 C 
BRANCH  10  11
HETATM   11  C9  UNL     1     -32.399   9.552   0.792  1.00 20.00    -0.005 C 
HETATM   12  C7  UNL     1     -32.841  10.298   2.040  1.00 20.00     0.005 C 
ENDBRANCH  10  11
ENDBRANCH   9  10
ENDBRANCH   8   9
ENDBRANCH   7   8
ENDBRANCH   6   7
TORSDOF 5
ENDMDL
MODEL 2
REMARK VINA RESULT:      -6.0      0.073      1.396
REMARK  5 active torsions:
REMARK  status: ('A' for Active; 'I' for Inactive)
REMARK    1  A    between atoms: C6_6  and  C8_8 
REMARK    2  A    between atoms: C8_8  and  C10_10 
REMARK    3  A    between atoms: C9_9  and  C11_11 
REMARK    4  A    between atoms: C10_10  and  C12_12 
REMARK    5  A    between atoms: C11_11  and  C12_12 
ROOT
HETATM    1  C1  UNL     1     -35.022   4.675   6.611  1.00 20.00     0.000 A 
HETATM    2  C2  UNL     1     -34.382   5.914   6.610  1.00 20.00     0.001 A 
HETATM    3  C3  UNL     1     -35.207   3.984   5.413  1.00 20.00     0.001 A 
HETATM    4  C4  UNL     1     -33.927   6.463   5.412  1.00 20.00     0.007 A 
HETATM    5  C5  UNL     1     -34.752   4.533   4.215  1.00 20.00     0.007 A 
HETATM    6  C6  UNL     1     -34.112   5.774   4.214  1.00 20.00    -0.058 A 
ENDROOT
BRANCH   6   7
HETATM    7  C8  UNL     1     -33.623   6.361   2.926  1.00 20.00     0.038 C 
BRANCH   7   8
HETATM    8  C10 UNL     1     -32.101   6.512   2.914  1.00 20.00     0.005 C 
BRANCH   8   9
HETATM    9  C12 UNL     1     -31.689   7.961   2.646  1.00 20.00     0.000 C 
BRANCH   9  10
HETATM   10  C11 UNL     1     -31.686   8.270   1.148  1.00 20.00    -0.000 C 
BRANCH  10  11
HETATM   11  C9  UNL     1     -32.380   9.599   0.853  1.00 20.00    -0.005 C 
HETATM   12  C7  UNL     1     -32.845  10.280   2.130  1.00 20.00     0.005 C 
ENDBRANCH  10  11
ENDBRANCH   9  10
ENDBRANCH   8   9
ENDBRANCH   7   8
ENDBRANCH   6   7
TORSDOF 5
ENDMDL
MODEL 3
REMARK VINA RESULT:      -4.9     10.720     11.918
REMARK  5 active torsions:
REMARK  status: ('A' for Active; 'I' for Inactive)
REMARK    1  A    between atoms: C6_6  and  C8_8 
REMARK    2  A    between atoms: C8_8  and  C10_10 
REMARK    3  A    between atoms: C9_9  and  C11_11 
REMARK    4  A    between atoms: C10_10  and  C12_12 
REMARK    5  A    between atoms: C11_11  and  C12_12 
ROOT
HETATM    1  C1  UNL     1     -33.624  18.872   1.393  1.00 20.00     0.000 A 
HETATM    2  C2  UNL     1     -32.800  18.792   0.270  1.00 20.00     0.001 A 
HETATM    3  C3  UNL     1     -34.771  18.083   1.474  1.00 20.00     0.001 A 
HETATM    4  C4  UNL     1     -33.124  17.925  -0.773  1.00 20.00     0.007 A 
HETATM    5  C5  UNL     1     -35.095  17.215   0.431  1.00 20.00     0.007 A 
HETATM    6  C6  UNL     1     -34.272  17.136  -0.693  1.00 20.00    -0.058 A 
ENDROOT
BRANCH   6   7
HETATM    7  C8  UNL     1     -34.621  16.204  -1.811  1.00 20.00     0.038 C 
BRANCH   7   8
HETATM    8  C10 UNL     1     -33.743  16.443  -3.042  1.00 20.00     0.005 C 
BRANCH   8   9
HETATM    9  C12 UNL     1     -33.270  15.121  -3.650  1.00 20.00     0.000 C 
BRANCH   9  10
HETATM   10  C11 UNL     1     -34.309  14.016  -3.457  1.00 20.00    -0.000 C 
BRANCH  10  11
HETATM   11  C9  UNL     1     -34.598  13.289  -4.771  1.00 20.00    -0.005 C 
HETATM   12  C7  UNL     1     -34.775  14.267  -5.921  1.00 20.00     0.005 C 
ENDBRANCH  10  11
ENDBRANCH   9  10
ENDBRANCH   8   9
ENDBRANCH   7   8
ENDBRANCH   6   7
TORSDOF 5
ENDMDL
MODEL 4
REMARK VINA RESULT:      -4.9     10.679     11.828
REMARK  5 active torsions:
REMARK  status: ('A' for Active; 'I' for Inactive)
REMARK    1  A    between atoms: C6_6  and  C8_8 
REMARK    2  A    between atoms: C8_8  and  C10_10 
REMARK    3  A    between atoms: C9_9  and  C11_11 
REMARK    4  A    between atoms: C10_10  and  C12_12 
REMARK    5  A    between atoms: C11_11  and  C12_12 
ROOT
HETATM    1  C1  UNL     1     -33.723  18.732   1.360  1.00 20.00     0.000 A 
HETATM    2  C2  UNL     1     -34.853  17.915   1.399  1.00 20.00     0.001 A 
HETATM    3  C3  UNL     1     -32.885  18.712   0.244  1.00 20.00     0.001 A 
HETATM    4  C4  UNL     1     -35.144  17.077   0.323  1.00 20.00     0.007 A 
HETATM    5  C5  UNL     1     -33.178  17.874  -0.831  1.00 20.00     0.007 A 
HETATM    6  C6  UNL     1     -34.307  17.055  -0.792  1.00 20.00    -0.058 A 
ENDROOT
BRANCH   6   7
HETATM    7  C8  UNL     1     -34.620  16.156  -1.948  1.00 20.00     0.038 C 
BRANCH   7   8
HETATM    8  C10 UNL     1     -33.591  16.300  -3.071  1.00 20.00     0.005 C 
BRANCH   8   9
HETATM    9  C12 UNL     1     -33.252  14.943  -3.689  1.00 20.00     0.000 C 
BRANCH   9  10
HETATM   10  C11 UNL     1     -34.382  13.936  -3.474  1.00 20.00    -0.000 C 
BRANCH  10  11
HETATM   11  C9  UNL     1     -34.753  13.229  -4.778  1.00 20.00    -0.005 C 
HETATM   12  C7  UNL     1     -34.906  14.217  -5.923  1.00 20.00     0.005 C 
ENDBRANCH  10  11
ENDBRANCH   9  10
ENDBRANCH   8   9
ENDBRANCH   7   8
ENDBRANCH   6   7
TORSDOF 5
ENDMDL
MODEL 5
REMARK VINA RESULT:      -4.8      0.699      5.598
REMARK  5 active torsions:
REMARK  status: ('A' for Active; 'I' for Inactive)
REMARK    1  A    between atoms: C6_6  and  C8_8 
REMARK    2  A    between atoms: C8_8  and  C10_10 
REMARK    3  A    between atoms: C9_9  and  C11_11 
REMARK    4  A    between atoms: C10_10  and  C12_12 
REMARK    5  A    between atoms: C11_11  and  C12_12 
ROOT
HETATM    1  C1  UNL     1     -32.261   9.918   0.695  1.00 20.00     0.000 A 
HETATM    2  C2  UNL     1     -31.800   8.676   0.260  1.00 20.00     0.001 A 
HETATM    3  C3  UNL     1     -32.716  10.075   2.005  1.00 20.00     0.001 A 
HETATM    4  C4  UNL     1     -31.797   7.589   1.134  1.00 20.00     0.007 A 
HETATM    5  C5  UNL     1     -32.711   8.988   2.878  1.00 20.00     0.007 A 
HETATM    6  C6  UNL     1     -32.252   7.744   2.443  1.00 20.00    -0.058 A 
ENDROOT
BRANCH   6   7
HETATM    7  C8  UNL     1     -32.247   6.578   3.382  1.00 20.00     0.038 C 
BRANCH   7   8
HETATM    8  C10 UNL     1     -33.357   5.578   3.048  1.00 20.00     0.005 C 
BRANCH   8   9
HETATM    9  C12 UNL     1     -34.630   5.878   3.842  1.00 20.00     0.000 C 
BRANCH   9  10
HETATM   10  C11 UNL     1     -35.143   4.629   4.562  1.00 20.00    -0.000 C 
BRANCH  10  11
HETATM   11  C9  UNL     1     -34.837   4.686   6.059  1.00 20.00    -0.005 C 
HETATM   12  C7  UNL     1     -34.313   6.053   6.469  1.00 20.00     0.005 C 
ENDBRANCH  10  11
ENDBRANCH   9  10
ENDBRANCH   8   9
ENDBRANCH   7   8
ENDBRANCH   6   7
TORSDOF 5
ENDMDL
MODEL 6
REMARK VINA RESULT:      -4.8     10.732     12.100
REMARK  5 active torsions:
REMARK  status: ('A' for Active; 'I' for Inactive)
REMARK    1  A    between atoms: C6_6  and  C8_8 
REMARK    2  A    between atoms: C8_8  and  C10_10 
REMARK    3  A    between atoms: C9_9  and  C11_11 
REMARK    4  A    between atoms: C10_10  and  C12_12 
REMARK    5  A    between atoms: C11_11  and  C12_12 
ROOT
HETATM    1  C1  UNL     1     -32.326  19.100   2.948  1.00 20.00     0.000 A 
HETATM    2  C2  UNL     1     -33.621  18.594   2.837  1.00 20.00     0.001 A 
HETATM    3  C3  UNL     1     -31.528  19.231   1.812  1.00 20.00     0.001 A 
HETATM    4  C4  UNL     1     -34.118  18.218   1.589  1.00 20.00     0.007 A 
HETATM    5  C5  UNL     1     -32.025  18.856   0.564  1.00 20.00     0.007 A 
HETATM    6  C6  UNL     1     -33.320  18.349   0.452  1.00 20.00    -0.058 A 
ENDROOT
BRANCH   6   7
HETATM    7  C8  UNL     1     -33.853  17.946  -0.888  1.00 20.00     0.038 C 
BRANCH   7   8
HETATM    8  C10 UNL     1     -34.712  16.683  -0.800  1.00 20.00     0.005 C 
BRANCH   8   9
HETATM    9  C12 UNL     1     -34.803  15.979  -2.155  1.00 20.00     0.000 C 
BRANCH   9  10
HETATM   10  C11 UNL     1     -33.511  16.145  -2.956  1.00 20.00    -0.000 C 
BRANCH  10  11
HETATM   11  C9  UNL     1     -33.110  14.839  -3.642  1.00 20.00    -0.005 C 
HETATM   12  C7  UNL     1     -34.256  13.841  -3.652  1.00 20.00     0.005 C 
ENDBRANCH  10  11
ENDBRANCH   9  10
ENDBRANCH   8   9
ENDBRANCH   7   8
ENDBRANCH   6   7
TORSDOF 5
ENDMDL
MODEL 7
REMARK VINA RESULT:      -4.8     10.631     12.932
REMARK  5 active torsions:
REMARK  status: ('A' for Active; 'I' for Inactive)
REMARK    1  A    between atoms: C6_6  and  C8_8 
REMARK    2  A    between atoms: C8_8  and  C10_10 
REMARK    3  A    between atoms: C9_9  and  C11_11 
REMARK    4  A    between atoms: C10_10  and  C12_12 
REMARK    5  A    between atoms: C11_11  and  C12_12 
ROOT
HETATM    1  C1  UNL     1     -36.303  16.421  -7.301  1.00 20.00     0.000 A 
HETATM    2  C2  UNL     1     -36.908  16.052  -6.100  1.00 20.00     0.001 A 
HETATM    3  C3  UNL     1     -35.143  15.771  -7.727  1.00 20.00     0.001 A 
HETATM    4  C4  UNL     1     -36.355  15.035  -5.324  1.00 20.00     0.007 A 
HETATM    5  C5  UNL     1     -34.591  14.753  -6.950  1.00 20.00     0.007 A 
HETATM    6  C6  UNL     1     -35.196  14.385  -5.748  1.00 20.00    -0.058 A 
ENDROOT
BRANCH   6   7
HETATM    7  C8  UNL     1     -34.601  13.292  -4.915  1.00 20.00     0.038 C 
BRANCH   7   8
HETATM    8  C10 UNL     1     -34.142  13.807  -3.549  1.00 20.00     0.005 C 
BRANCH   8   9
HETATM    9  C12 UNL     1     -33.097  14.914  -3.697  1.00 20.00     0.000 C 
BRANCH   9  10
HETATM   10  C11 UNL     1     -33.528  16.187  -2.966  1.00 20.00    -0.000 C 
BRANCH  10  11
HETATM   11  C9  UNL     1     -34.745  15.932  -2.077  1.00 20.00    -0.005 C 
HETATM   12  C7  UNL     1     -34.654  16.708  -0.772  1.00 20.00     0.005 C 
ENDBRANCH  10  11
ENDBRANCH   9  10
ENDBRANCH   8   9
ENDBRANCH   7   8
ENDBRANCH   6   7
TORSDOF 5
ENDMDL
MODEL 8
REMARK VINA RESULT:      -4.8     10.870     12.303
REMARK  5 active torsions:
REMARK  status: ('A' for Active; 'I' for Inactive)
REMARK    1  A    between atoms: C6_6  and  C8_8 
REMARK    2  A    between atoms: C8_8  and  C10_10 
REMARK    3  A    between atoms: C9_9  and  C11_11 
REMARK    4  A    between atoms: C10_10  and  C12_12 
REMARK    5  A    between atoms: C11_11  and  C12_12 
ROOT
HETATM    1  C1  UNL     1     -35.124  13.419  -4.678  1.00 20.00     0.000 A 
HETATM    2  C2  UNL     1     -33.868  13.658  -4.120  1.00 20.00     0.001 A 
HETATM    3  C3  UNL     1     -36.229  14.155  -4.250  1.00 20.00     0.001 A 
HETATM    4  C4  UNL     1     -33.716  14.632  -3.134  1.00 20.00     0.007 A 
HETATM    5  C5  UNL     1     -36.077  15.130  -3.264  1.00 20.00     0.007 A 
HETATM    6  C6  UNL     1     -34.820  15.369  -2.705  1.00 20.00    -0.058 A 
ENDROOT
BRANCH   6   7
HETATM    7  C8  UNL     1     -34.659  16.415  -1.647  1.00 20.00     0.038 C 
BRANCH   7   8
HETATM    8  C10 UNL     1     -33.696  17.521  -2.087  1.00 20.00     0.005 C 
BRANCH   8   9
HETATM    9  C12 UNL     1     -34.329  18.413  -3.156  1.00 20.00     0.000 C 
BRANCH   9  10
HETATM   10  C11 UNL     1     -33.661  18.209  -4.517  1.00 20.00    -0.000 C 
BRANCH  10  11
HETATM   11  C9  UNL     1     -34.675  17.775  -5.575  1.00 20.00    -0.005 C 
HETATM   12  C7  UNL     1     -34.164  16.596  -6.386  1.00 20.00     0.005 C 
ENDBRANCH  10  11
ENDBRANCH   9  10
ENDBRANCH   8   9
ENDBRANCH   7   8
ENDBRANCH   6   7
TORSDOF 5
ENDMDL
MODEL 9
REMARK VINA RESULT:      -4.8     10.968     12.391
REMARK  5 active torsions:
REMARK  status: ('A' for Active; 'I' for Inactive)
REMARK    1  A    between atoms: C6_6  and  C8_8 
REMARK    2  A    between atoms: C8_8  and  C10_10 
REMARK    3  A    between atoms: C9_9  and  C11_11 
REMARK    4  A    between atoms: C10_10  and  C12_12 
REMARK    5  A    between atoms: C11_11  and  C12_12 
ROOT
HETATM    1  C1  UNL     1     -34.795  13.998  -6.112  1.00 20.00     0.000 A 
HETATM    2  C2  UNL     1     -34.380  15.325  -6.221  1.00 20.00     0.001 A 
HETATM    3  C3  UNL     1     -34.856  13.387  -4.859  1.00 20.00     0.001 A 
HETATM    4  C4  UNL     1     -34.025  16.041  -5.079  1.00 20.00     0.007 A 
HETATM    5  C5  UNL     1     -34.502  14.103  -3.717  1.00 20.00     0.007 A 
HETATM    6  C6  UNL     1     -34.085  15.431  -3.826  1.00 20.00    -0.058 A 
ENDROOT
BRANCH   6   7
HETATM    7  C8  UNL     1     -33.705  16.199  -2.599  1.00 20.00     0.038 C 
BRANCH   7   8
HETATM    8  C10 UNL     1     -34.827  16.194  -1.558  1.00 20.00     0.005 C 
BRANCH   8   9
HETATM    9  C12 UNL     1     -34.499  17.121  -0.386  1.00 20.00     0.000 C 
BRANCH   9  10
HETATM   10  C11 UNL     1     -33.278  17.991  -0.689  1.00 20.00    -0.000 C 
BRANCH  10  11
HETATM   11  C9  UNL     1     -33.113  19.100   0.350  1.00 20.00    -0.005 C 
HETATM   12  C7  UNL     1     -31.752  19.034   1.023  1.00 20.00     0.005 C 
ENDBRANCH  10  11
ENDBRANCH   9  10
ENDBRANCH   8   9
ENDBRANCH   7   8
ENDBRANCH   6   7
TORSDOF 5
ENDMDL
