MODEL 1
REMARK VINA RESULT:      -4.2      0.000      0.000
REMARK  4 active torsions:
REMARK  status: ('A' for Active; 'I' for Inactive)
REMARK    1  A    between atoms: C2_2  and  C4_4 
REMARK    2  A    between atoms: C4_4  and  O7_7 
REMARK    3  A    between atoms: C5_5  and  C6_6 
REMARK    4  A    between atoms: C6_6  and  O7_7 
ROOT
HETATM    1  O7  UNL     1     -33.767   6.384   4.023  1.00 20.00    -0.388 OA
ENDROOT
BRANCH   1   2
HETATM    2  C4  UNL     1     -32.607   6.189   3.226  1.00 20.00     0.194 C 
BRANCH   2   3
HETATM    3  C2  UNL     1     -31.922   7.502   3.043  1.00 20.00    -0.011 C 
HETATM    4  C1  UNL     1     -32.097   8.295   1.980  1.00 20.00     0.009 C 
ENDBRANCH   2   3
ENDBRANCH   1   2
BRANCH   1   5
HETATM    5  C6  UNL     1     -34.776   5.431   3.719  1.00 20.00     0.167 C 
BRANCH   5   6
HETATM    6  C5  UNL     1     -35.083   4.624   4.971  1.00 20.00     0.022 C 
HETATM    7  C3  UNL     1     -34.626   5.338   6.229  1.00 20.00     0.007 C 
ENDBRANCH   5   6
ENDBRANCH   1   5
TORSDOF 4
ENDMDL
MODEL 2
REMARK VINA RESULT:      -4.2      0.774      3.879
REMARK  4 active torsions:
REMARK  status: ('A' for Active; 'I' for Inactive)
REMARK    1  A    between atoms: C2_2  and  C4_4 
REMARK    2  A    between atoms: C4_4  and  O7_7 
REMARK    3  A    between atoms: C5_5  and  C6_6 
REMARK    4  A    between atoms: C6_6  and  O7_7 
ROOT
HETATM    1  O7  UNL     1     -34.699   5.966   3.840  1.00 20.00    -0.388 OA
ENDROOT
BRANCH   1   2
HETATM    2  C4  UNL     1     -35.180   4.807   4.507  1.00 20.00     0.194 C 
BRANCH   2   3
HETATM    3  C2  UNL     1     -34.838   4.909   5.956  1.00 20.00    -0.011 C 
HETATM    4  C1  UNL     1     -34.322   6.003   6.527  1.00 20.00     0.009 C 
ENDBRANCH   2   3
ENDBRANCH   1   2
BRANCH   1   5
HETATM    5  C6  UNL     1     -33.679   5.645   2.904  1.00 20.00     0.167 C 
BRANCH   5   6
HETATM    6  C5  UNL     1     -32.391   6.336   3.324  1.00 20.00     0.022 C 
HETATM    7  C3  UNL     1     -32.172   7.632   2.567  1.00 20.00     0.007 C 
ENDBRANCH   5   6
ENDBRANCH   1   5
TORSDOF 4
ENDMDL
MODEL 3
REMARK VINA RESULT:      -4.2      0.793      1.053
REMARK  4 active torsions:
REMARK  status: ('A' for Active; 'I' for Inactive)
REMARK    1  A    between atoms: C2_2  and  C4_4 
REMARK    2  A    between atoms: C4_4  and  O7_7 
REMARK    3  A    between atoms: C5_5  and  C6_6 
REMARK    4  A    between atoms: C6_6  and  O7_7 
ROOT
HETATM    1  O7  UNL     1     -34.702   5.941   3.966  1.00 20.00    -0.388 OA
ENDROOT
BRANCH   1   2
HETATM    2  C4  UNL     1     -33.715   5.701   2.972  1.00 20.00     0.194 C 
BRANCH   2   3
HETATM    3  C2  UNL     1     -32.502   6.508   3.293  1.00 20.00    -0.011 C 
HETATM    4  C1  UNL     1     -32.120   7.590   2.605  1.00 20.00     0.009 C 
ENDBRANCH   2   3
ENDBRANCH   1   2
BRANCH   1   5
HETATM    5  C6  UNL     1     -35.216   4.727   4.496  1.00 20.00     0.167 C 
BRANCH   5   6
HETATM    6  C5  UNL     1     -34.826   4.627   5.963  1.00 20.00     0.022 C 
HETATM    7  C3  UNL     1     -34.348   5.958   6.512  1.00 20.00     0.007 C 
ENDBRANCH   5   6
ENDBRANCH   1   5
TORSDOF 4
ENDMDL
MODEL 4
REMARK VINA RESULT:      -4.2      0.178      4.203
REMARK  4 active torsions:
REMARK  status: ('A' for Active; 'I' for Inactive)
REMARK    1  A    between atoms: C2_2  and  C4_4 
REMARK    2  A    between atoms: C4_4  and  O7_7 
REMARK    3  A    between atoms: C5_5  and  C6_6 
REMARK    4  A    between atoms: C6_6  and  O7_7 
ROOT
HETATM    1  O7  UNL     1     -33.820   6.396   3.976  1.00 20.00    -0.388 OA
ENDROOT
BRANCH   1   2
HETATM    2  C4  UNL     1     -34.805   5.427   3.641  1.00 20.00     0.194 C 
BRANCH   2   3
HETATM    3  C2  UNL     1     -35.148   4.647   4.867  1.00 20.00    -0.011 C 
HETATM    4  C1  UNL     1     -34.791   5.005   6.105  1.00 20.00     0.009 C 
ENDBRANCH   2   3
ENDBRANCH   1   2
BRANCH   1   5
HETATM    5  C6  UNL     1     -32.622   6.201   3.237  1.00 20.00     0.167 C 
BRANCH   5   6
HETATM    6  C5  UNL     1     -31.840   7.505   3.215  1.00 20.00     0.022 C 
HETATM    7  C3  UNL     1     -32.059   8.273   1.925  1.00 20.00     0.007 C 
ENDBRANCH   5   6
ENDBRANCH   1   5
TORSDOF 4
ENDMDL
MODEL 5
REMARK VINA RESULT:      -4.2      0.899      4.069
REMARK  4 active torsions:
REMARK  status: ('A' for Active; 'I' for Inactive)
REMARK    1  A    between atoms: C2_2  and  C4_4 
REMARK    2  A    between atoms: C4_4  and  O7_7 
REMARK    3  A    between atoms: C5_5  and  C6_6 
REMARK    4  A    between atoms: C6_6  and  O7_7 
ROOT
HETATM    1  O7  UNL     1     -34.404   6.065   3.962  1.00 20.00    -0.388 OA
ENDROOT
BRANCH   1   2
HETATM    2  C4  UNL     1     -33.949   6.333   5.282  1.00 20.00     0.194 C 
BRANCH   2   3
HETATM    3  C2  UNL     1     -34.535   5.320   6.207  1.00 20.00    -0.011 C 
HETATM    4  C1  UNL     1     -35.050   4.151   5.808  1.00 20.00     0.009 C 
ENDBRANCH   2   3
ENDBRANCH   1   2
BRANCH   1   5
HETATM    5  C6  UNL     1     -33.319   5.890   3.061  1.00 20.00     0.167 C 
BRANCH   5   6
HETATM    6  C5  UNL     1     -32.230   6.896   3.401  1.00 20.00     0.022 C 
HETATM    7  C3  UNL     1     -32.069   7.942   2.314  1.00 20.00     0.007 C 
ENDBRANCH   5   6
ENDBRANCH   1   5
TORSDOF 4
ENDMDL
MODEL 6
REMARK VINA RESULT:      -4.1      0.909      1.220
REMARK  4 active torsions:
REMARK  status: ('A' for Active; 'I' for Inactive)
REMARK    1  A    between atoms: C2_2  and  C4_4 
REMARK    2  A    between atoms: C4_4  and  O7_7 
REMARK    3  A    between atoms: C5_5  and  C6_6 
REMARK    4  A    between atoms: C6_6  and  O7_7 
ROOT
HETATM    1  O7  UNL     1     -34.328   5.945   3.958  1.00 20.00    -0.388 OA
ENDROOT
BRANCH   1   2
HETATM    2  C4  UNL     1     -33.282   5.860   2.999  1.00 20.00     0.194 C 
BRANCH   2   3
HETATM    3  C2  UNL     1     -32.324   6.980   3.234  1.00 20.00    -0.011 C 
HETATM    4  C1  UNL     1     -32.052   7.932   2.335  1.00 20.00     0.009 C 
ENDBRANCH   2   3
ENDBRANCH   1   2
BRANCH   1   5
HETATM    5  C6  UNL     1     -33.839   6.345   5.231  1.00 20.00     0.167 C 
BRANCH   5   6
HETATM    6  C5  UNL     1     -34.550   5.539   6.306  1.00 20.00     0.022 C 
HETATM    7  C3  UNL     1     -34.945   4.160   5.810  1.00 20.00     0.007 C 
ENDBRANCH   5   6
ENDBRANCH   1   5
TORSDOF 4
ENDMDL
MODEL 7
REMARK VINA RESULT:      -4.0      0.963      1.587
REMARK  4 active torsions:
REMARK  status: ('A' for Active; 'I' for Inactive)
REMARK    1  A    between atoms: C2_2  and  C4_4 
REMARK    2  A    between atoms: C4_4  and  O7_7 
REMARK    3  A    between atoms: C5_5  and  C6_6 
REMARK    4  A    between atoms: C6_6  and  O7_7 
ROOT
HETATM    1  O7  UNL     1     -32.759   6.504   2.811  1.00 20.00    -0.388 OA
ENDROOT
BRANCH   1   2
HETATM    2  C4  UNL     1     -31.905   7.638   2.880  1.00 20.00     0.194 C 
BRANCH   2   3
HETATM    3  C2  UNL     1     -31.992   8.384   1.591  1.00 20.00    -0.011 C 
HETATM    4  C1  UNL     1     -32.444   9.639   1.483  1.00 20.00     0.009 C 
ENDBRANCH   2   3
ENDBRANCH   1   2
BRANCH   1   5
HETATM    5  C6  UNL     1     -33.466   6.308   4.028  1.00 20.00     0.167 C 
BRANCH   5   6
HETATM    6  C5  UNL     1     -34.725   5.503   3.741  1.00 20.00     0.022 C 
HETATM    7  C3  UNL     1     -35.160   4.687   4.943  1.00 20.00     0.007 C 
ENDBRANCH   5   6
ENDBRANCH   1   5
TORSDOF 4
ENDMDL
MODEL 8
REMARK VINA RESULT:      -3.3     11.151     11.753
REMARK  4 active torsions:
REMARK  status: ('A' for Active; 'I' for Inactive)
REMARK    1  A    between atoms: C2_2  and  C4_4 
REMARK    2  A    between atoms: C4_4  and  O7_7 
REMARK    3  A    between atoms: C5_5  and  C6_6 
REMARK    4  A    between atoms: C6_6  and  O7_7 
ROOT
HETATM    1  O7  UNL     1     -33.912  15.988  -3.769  1.00 20.00    -0.388 OA
ENDROOT
BRANCH   1   2
HETATM    2  C4  UNL     1     -32.890  15.007  -3.665  1.00 20.00     0.194 C 
BRANCH   2   3
HETATM    3  C2  UNL     1     -33.500  13.656  -3.835  1.00 20.00    -0.011 C 
HETATM    4  C1  UNL     1     -34.786  13.449  -4.139  1.00 20.00     0.009 C 
ENDBRANCH   2   3
ENDBRANCH   1   2
BRANCH   1   5
HETATM    5  C6  UNL     1     -33.904  16.872  -2.657  1.00 20.00     0.167 C 
BRANCH   5   6
HETATM    6  C5  UNL     1     -34.676  16.231  -1.514  1.00 20.00     0.022 C 
HETATM    7  C3  UNL     1     -34.662  17.097  -0.268  1.00 20.00     0.007 C 
ENDBRANCH   5   6
ENDBRANCH   1   5
TORSDOF 4
ENDMDL
MODEL 9
REMARK VINA RESULT:      -3.3     11.143     11.886
REMARK  4 active torsions:
REMARK  status: ('A' for Active; 'I' for Inactive)
REMARK    1  A    between atoms: C2_2  and  C4_4 
REMARK    2  A    between atoms: C4_4  and  O7_7 
REMARK    3  A    between atoms: C5_5  and  C6_6 
REMARK    4  A    between atoms: C6_6  and  O7_7 
ROOT
HETATM    1  O7  UNL     1     -34.290  15.945  -3.722  1.00 20.00    -0.388 OA
ENDROOT
BRANCH   1   2
HETATM    2  C4  UNL     1     -34.267  16.958  -2.726  1.00 20.00     0.194 C 
BRANCH   2   3
HETATM    3  C2  UNL     1     -34.631  16.349  -1.413  1.00 20.00    -0.011 C 
HETATM    4  C1  UNL     1     -34.695  17.032  -0.265  1.00 20.00     0.009 C 
ENDBRANCH   2   3
ENDBRANCH   1   2
BRANCH   1   5
HETATM    5  C6  UNL     1     -33.088  15.186  -3.723  1.00 20.00     0.167 C 
BRANCH   5   6
HETATM    6  C5  UNL     1     -33.439  13.708  -3.775  1.00 20.00     0.022 C 
HETATM    7  C3  UNL     1     -34.891  13.486  -4.156  1.00 20.00     0.007 C 
ENDBRANCH   5   6
ENDBRANCH   1   5
TORSDOF 4
ENDMDL
