MODEL 1
REMARK VINA RESULT:      -3.5      0.000      0.000
REMARK  3 active torsions:
REMARK  status: ('A' for Active; 'I' for Inactive)
REMARK    1  A    between atoms: C5_5  and  S7_7 
REMARK    2  A    between atoms: C6_6  and  S8_8 
REMARK    3  A    between atoms: S7_7  and  S8_8 
ROOT
HETATM    1  S7  UNL     1     -34.530   5.741   3.715  1.00 20.00    -0.093 SA
ENDROOT
BRANCH   1   2
HETATM    2  C5  UNL     1     -34.097   5.254   5.419  1.00 20.00     0.050 C 
HETATM    3  C1  UNL     1     -34.049   6.490   6.310  1.00 20.00     0.022 C 
HETATM    4  C2  UNL     1     -35.105   4.235   5.935  1.00 20.00     0.022 C 
ENDBRANCH   1   2
BRANCH   1   5
HETATM    5  S8  UNL     1     -32.672   5.894   2.855  1.00 20.00    -0.093 SA
BRANCH   5   6
HETATM    6  C6  UNL     1     -32.324   7.660   3.039  1.00 20.00     0.050 C 
HETATM    7  C3  UNL     1     -31.200   7.861   4.048  1.00 20.00     0.022 C 
HETATM    8  C4  UNL     1     -31.968   8.258   1.683  1.00 20.00     0.022 C 
ENDBRANCH   5   6
ENDBRANCH   1   5
TORSDOF 3
ENDMDL
MODEL 2
REMARK VINA RESULT:      -3.5      0.041      4.427
REMARK  3 active torsions:
REMARK  status: ('A' for Active; 'I' for Inactive)
REMARK    1  A    between atoms: C5_5  and  S7_7 
REMARK    2  A    between atoms: C6_6  and  S8_8 
REMARK    3  A    between atoms: S7_7  and  S8_8 
ROOT
HETATM    1  S7  UNL     1     -32.651   5.871   2.902  1.00 20.00    -0.093 SA
ENDROOT
BRANCH   1   2
HETATM    2  C5  UNL     1     -32.310   7.657   3.041  1.00 20.00     0.050 C 
HETATM    3  C1  UNL     1     -31.181   7.890   4.038  1.00 20.00     0.022 C 
HETATM    4  C2  UNL     1     -31.965   8.223   1.668  1.00 20.00     0.022 C 
ENDBRANCH   1   2
BRANCH   1   5
HETATM    5  S8  UNL     1     -34.512   5.748   3.760  1.00 20.00    -0.093 SA
BRANCH   5   6
HETATM    6  C6  UNL     1     -34.106   5.254   5.453  1.00 20.00     0.050 C 
HETATM    7  C3  UNL     1     -34.042   6.487   6.347  1.00 20.00     0.022 C 
HETATM    8  C4  UNL     1     -35.140   4.253   5.958  1.00 20.00     0.022 C 
ENDBRANCH   5   6
ENDBRANCH   1   5
TORSDOF 3
ENDMDL
MODEL 3
REMARK VINA RESULT:      -3.2     11.667     12.737
REMARK  3 active torsions:
REMARK  status: ('A' for Active; 'I' for Inactive)
REMARK    1  A    between atoms: C5_5  and  S7_7 
REMARK    2  A    between atoms: C6_6  and  S8_8 
REMARK    3  A    between atoms: S7_7  and  S8_8 
ROOT
HETATM    1  S7  UNL     1     -35.856  14.834  -3.646  1.00 20.00    -0.093 SA
ENDROOT
BRANCH   1   2
HETATM    2  C5  UNL     1     -34.527  15.978  -3.141  1.00 20.00     0.050 C 
HETATM    3  C1  UNL     1     -34.611  16.235  -1.641  1.00 20.00     0.022 C 
HETATM    4  C2  UNL     1     -33.173  15.397  -3.531  1.00 20.00     0.022 C 
ENDBRANCH   1   2
BRANCH   1   5
HETATM    5  S8  UNL     1     -34.865  13.627  -4.978  1.00 20.00    -0.093 SA
BRANCH   5   6
HETATM    6  C6  UNL     1     -35.387  14.321  -6.565  1.00 20.00     0.050 C 
HETATM    7  C3  UNL     1     -36.647  15.157  -6.371  1.00 20.00     0.022 C 
HETATM    8  C4  UNL     1     -34.256  15.150  -7.161  1.00 20.00     0.022 C 
ENDBRANCH   5   6
ENDBRANCH   1   5
TORSDOF 3
ENDMDL
MODEL 4
REMARK VINA RESULT:      -3.2     11.655     12.921
REMARK  3 active torsions:
REMARK  status: ('A' for Active; 'I' for Inactive)
REMARK    1  A    between atoms: C5_5  and  S7_7 
REMARK    2  A    between atoms: C6_6  and  S8_8 
REMARK    3  A    between atoms: S7_7  and  S8_8 
ROOT
HETATM    1  S7  UNL     1     -34.901  13.633  -4.918  1.00 20.00    -0.093 SA
ENDROOT
BRANCH   1   2
HETATM    2  C5  UNL     1     -35.390  14.325  -6.534  1.00 20.00     0.050 C 
HETATM    3  C1  UNL     1     -36.659  15.154  -6.375  1.00 20.00     0.022 C 
HETATM    4  C2  UNL     1     -34.248  15.158  -7.103  1.00 20.00     0.022 C 
ENDBRANCH   1   2
BRANCH   1   5
HETATM    5  S8  UNL     1     -35.881  14.894  -3.627  1.00 20.00    -0.093 SA
BRANCH   5   6
HETATM    6  C6  UNL     1     -34.547  16.001  -3.109  1.00 20.00     0.050 C 
HETATM    7  C3  UNL     1     -34.639  16.250  -1.608  1.00 20.00     0.022 C 
HETATM    8  C4  UNL     1     -33.200  15.399  -3.492  1.00 20.00     0.022 C 
ENDBRANCH   5   6
ENDBRANCH   1   5
TORSDOF 3
ENDMDL
MODEL 5
REMARK VINA RESULT:      -3.2     11.420     12.206
REMARK  3 active torsions:
REMARK  status: ('A' for Active; 'I' for Inactive)
REMARK    1  A    between atoms: C5_5  and  S7_7 
REMARK    2  A    between atoms: C6_6  and  S8_8 
REMARK    3  A    between atoms: S7_7  and  S8_8 
ROOT
HETATM    1  S7  UNL     1     -34.027  17.210  -3.112  1.00 20.00    -0.093 SA
ENDROOT
BRANCH   1   2
HETATM    2  C5  UNL     1     -33.593  17.352  -1.346  1.00 20.00     0.050 C 
HETATM    3  C1  UNL     1     -33.260  18.801  -1.012  1.00 20.00     0.022 C 
HETATM    4  C2  UNL     1     -34.743  16.835  -0.490  1.00 20.00     0.022 C 
ENDBRANCH   1   2
BRANCH   1   5
HETATM    5  S8  UNL     1     -35.416  15.699  -3.066  1.00 20.00    -0.093 SA
BRANCH   5   6
HETATM    6  C6  UNL     1     -34.384  14.240  -3.348  1.00 20.00     0.050 C 
HETATM    7  C3  UNL     1     -35.037  13.343  -4.393  1.00 20.00     0.022 C 
HETATM    8  C4  UNL     1     -32.988  14.673  -3.781  1.00 20.00     0.022 C 
ENDBRANCH   5   6
ENDBRANCH   1   5
TORSDOF 3
ENDMDL
MODEL 6
REMARK VINA RESULT:      -3.2     11.749     12.934
REMARK  3 active torsions:
REMARK  status: ('A' for Active; 'I' for Inactive)
REMARK    1  A    between atoms: C5_5  and  S7_7 
REMARK    2  A    between atoms: C6_6  and  S8_8 
REMARK    3  A    between atoms: S7_7  and  S8_8 
ROOT
HETATM    1  S7  UNL     1     -35.824  16.072  -5.090  1.00 20.00    -0.093 SA
ENDROOT
BRANCH   1   2
HETATM    2  C5  UNL     1     -35.404  14.589  -6.066  1.00 20.00     0.050 C 
HETATM    3  C1  UNL     1     -34.424  14.962  -7.173  1.00 20.00     0.022 C 
HETATM    4  C2  UNL     1     -34.827  13.517  -5.150  1.00 20.00     0.022 C 
ENDBRANCH   1   2
BRANCH   1   5
HETATM    5  S8  UNL     1     -35.871  15.302  -3.188  1.00 20.00    -0.093 SA
BRANCH   5   6
HETATM    6  C6  UNL     1     -34.345  15.968  -2.482  1.00 20.00     0.050 C 
HETATM    7  C3  UNL     1     -33.750  17.005  -3.428  1.00 20.00     0.022 C 
HETATM    8  C4  UNL     1     -34.631  16.567  -1.109  1.00 20.00     0.022 C 
ENDBRANCH   5   6
ENDBRANCH   1   5
TORSDOF 3
ENDMDL
MODEL 7
REMARK VINA RESULT:      -3.1     11.539     12.746
REMARK  3 active torsions:
REMARK  status: ('A' for Active; 'I' for Inactive)
REMARK    1  A    between atoms: C5_5  and  S7_7 
REMARK    2  A    between atoms: C6_6  and  S8_8 
REMARK    3  A    between atoms: S7_7  and  S8_8 
ROOT
HETATM    1  S7  UNL     1     -33.149  15.040  -3.707  1.00 20.00    -0.093 SA
ENDROOT
BRANCH   1   2
HETATM    2  C5  UNL     1     -34.156  14.086  -4.891  1.00 20.00     0.050 C 
HETATM    3  C1  UNL     1     -35.388  13.529  -4.186  1.00 20.00     0.022 C 
HETATM    4  C2  UNL     1     -34.542  14.972  -6.069  1.00 20.00     0.022 C 
ENDBRANCH   1   2
BRANCH   1   5
HETATM    5  S8  UNL     1     -33.781  16.955  -4.092  1.00 20.00    -0.093 SA
BRANCH   5   6
HETATM    6  C6  UNL     1     -34.960  17.232  -2.748  1.00 20.00     0.050 C 
HETATM    7  C3  UNL     1     -36.382  17.035  -3.263  1.00 20.00     0.022 C 
HETATM    8  C4  UNL     1     -34.652  16.288  -1.591  1.00 20.00     0.022 C 
ENDBRANCH   5   6
ENDBRANCH   1   5
TORSDOF 3
ENDMDL
MODEL 8
REMARK VINA RESULT:      -3.1     11.675     12.349
REMARK  3 active torsions:
REMARK  status: ('A' for Active; 'I' for Inactive)
REMARK    1  A    between atoms: C5_5  and  S7_7 
REMARK    2  A    between atoms: C6_6  and  S8_8 
REMARK    3  A    between atoms: S7_7  and  S8_8 
ROOT
HETATM    1  S7  UNL     1     -33.509  16.244  -3.995  1.00 20.00    -0.093 SA
ENDROOT
BRANCH   1   2
HETATM    2  C5  UNL     1     -34.408  14.801  -3.333  1.00 20.00     0.050 C 
HETATM    3  C1  UNL     1     -35.909  15.062  -3.384  1.00 20.00     0.022 C 
HETATM    4  C2  UNL     1     -34.033  13.554  -4.124  1.00 20.00     0.022 C 
ENDBRANCH   1   2
BRANCH   1   5
HETATM    5  S8  UNL     1     -34.318  17.767  -2.882  1.00 20.00    -0.093 SA
BRANCH   5   6
HETATM    6  C6  UNL     1     -33.645  17.421  -1.238  1.00 20.00     0.050 C 
HETATM    7  C3  UNL     1     -32.973  18.671  -0.684  1.00 20.00     0.022 C 
HETATM    8  C4  UNL     1     -34.758  16.933  -0.318  1.00 20.00     0.022 C 
ENDBRANCH   5   6
ENDBRANCH   1   5
TORSDOF 3
ENDMDL
MODEL 9
REMARK VINA RESULT:      -3.1     11.408     12.353
REMARK  3 active torsions:
REMARK  status: ('A' for Active; 'I' for Inactive)
REMARK    1  A    between atoms: C5_5  and  S7_7 
REMARK    2  A    between atoms: C6_6  and  S8_8 
REMARK    3  A    between atoms: S7_7  and  S8_8 
ROOT
HETATM    1  S7  UNL     1     -35.616  15.312  -3.248  1.00 20.00    -0.093 SA
ENDROOT
BRANCH   1   2
HETATM    2  C5  UNL     1     -34.264  14.125  -3.550  1.00 20.00     0.050 C 
HETATM    3  C1  UNL     1     -34.582  13.286  -4.783  1.00 20.00     0.022 C 
HETATM    4  C2  UNL     1     -32.947  14.875  -3.711  1.00 20.00     0.022 C 
ENDBRANCH   1   2
BRANCH   1   5
HETATM    5  S8  UNL     1     -34.653  17.102  -3.542  1.00 20.00    -0.093 SA
BRANCH   5   6
HETATM    6  C6  UNL     1     -34.648  17.797  -1.871  1.00 20.00     0.050 C 
HETATM    7  C3  UNL     1     -34.576  16.671  -0.846  1.00 20.00     0.022 C 
HETATM    8  C4  UNL     1     -33.478  18.762  -1.719  1.00 20.00     0.022 C 
ENDBRANCH   5   6
ENDBRANCH   1   5
TORSDOF 3
ENDMDL
