MODEL 1
REMARK VINA RESULT:      -4.7      0.000      0.000
REMARK  5 active torsions:
REMARK  status: ('A' for Active; 'I' for Inactive)
REMARK    1  A    between atoms: C1_1  and  C5_5 
REMARK    2  A    between atoms: C2_2  and  C6_6 
REMARK    3  A    between atoms: C3_3  and  O9_9 
REMARK    4  A    between atoms: C6_6  and  C7_7 
REMARK    5  A    between atoms: C7_7  and  O9_9 
ROOT
HETATM    1  C6  UNL     1     -32.332   6.200   3.217  1.00 20.00     0.053 C 
ENDROOT
BRANCH   1   2
HETATM    2  C2  UNL     1     -33.758   5.846   2.900  1.00 20.00    -0.029 C 
HETATM    3  C1  UNL     1     -34.682   5.570   3.831  1.00 20.00    -0.031 C 
BRANCH   3   4
HETATM    4  C5  UNL     1     -34.410   5.580   5.306  1.00 20.00     0.022 C 
HETATM    5  C4  UNL     1     -34.856   4.282   5.961  1.00 20.00     0.009 C 
ENDBRANCH   3   4
ENDBRANCH   1   2
BRANCH   1   6
HETATM    6  C7  UNL     1     -32.056   7.683   2.998  1.00 20.00     0.181 C 
BRANCH   6   7
HETATM    7  O9  UNL     1     -31.788   7.921   1.623  1.00 20.00    -0.328 OA
BRANCH   7   8
HETATM    8  C3  UNL     1     -32.204   9.125   1.141  1.00 20.00     0.398 C 
HETATM    9  O8  UNL     1     -32.578  10.091   1.787  1.00 20.00    -0.276 OA
ENDBRANCH   7   8
ENDBRANCH   6   7
ENDBRANCH   1   6
TORSDOF 5
ENDMDL
MODEL 2
REMARK VINA RESULT:      -4.5      2.794      5.214
REMARK  5 active torsions:
REMARK  status: ('A' for Active; 'I' for Inactive)
REMARK    1  A    between atoms: C1_1  and  C5_5 
REMARK    2  A    between atoms: C2_2  and  C6_6 
REMARK    3  A    between atoms: C3_3  and  O9_9 
REMARK    4  A    between atoms: C6_6  and  C7_7 
REMARK    5  A    between atoms: C7_7  and  O9_9 
ROOT
HETATM    1  C6  UNL     1     -33.353   5.825   2.984  1.00 20.00     0.053 C 
ENDROOT
BRANCH   1   2
HETATM    2  C2  UNL     1     -32.369   6.742   3.654  1.00 20.00    -0.029 C 
HETATM    3  C1  UNL     1     -31.786   7.784   3.045  1.00 20.00    -0.031 C 
BRANCH   3   4
HETATM    4  C5  UNL     1     -32.043   8.167   1.617  1.00 20.00     0.022 C 
HETATM    5  C4  UNL     1     -32.412   9.637   1.495  1.00 20.00     0.009 C 
ENDBRANCH   3   4
ENDBRANCH   1   2
BRANCH   1   6
HETATM    6  C7  UNL     1     -34.666   5.745   3.755  1.00 20.00     0.181 C 
BRANCH   6   7
HETATM    7  O9  UNL     1     -34.399   5.735   5.152  1.00 20.00    -0.328 OA
BRANCH   7   8
HETATM    8  C3  UNL     1     -34.742   4.592   5.809  1.00 20.00     0.398 C 
HETATM    9  O8  UNL     1     -35.063   3.523   5.315  1.00 20.00    -0.276 OA
ENDBRANCH   7   8
ENDBRANCH   6   7
ENDBRANCH   1   6
TORSDOF 5
ENDMDL
MODEL 3
REMARK VINA RESULT:      -4.4      1.069      1.641
REMARK  5 active torsions:
REMARK  status: ('A' for Active; 'I' for Inactive)
REMARK    1  A    between atoms: C1_1  and  C5_5 
REMARK    2  A    between atoms: C2_2  and  C6_6 
REMARK    3  A    between atoms: C3_3  and  O9_9 
REMARK    4  A    between atoms: C6_6  and  C7_7 
REMARK    5  A    between atoms: C7_7  and  O9_9 
ROOT
HETATM    1  C6  UNL     1     -33.838   6.472   3.880  1.00 20.00     0.053 C 
ENDROOT
BRANCH   1   2
HETATM    2  C2  UNL     1     -33.586   6.710   5.343  1.00 20.00    -0.029 C 
HETATM    3  C1  UNL     1     -34.204   6.039   6.325  1.00 20.00    -0.031 C 
BRANCH   3   4
HETATM    4  C5  UNL     1     -35.223   4.965   6.089  1.00 20.00     0.022 C 
HETATM    5  C4  UNL     1     -34.570   3.673   5.626  1.00 20.00     0.009 C 
ENDBRANCH   3   4
ENDBRANCH   1   2
BRANCH   1   6
HETATM    6  C7  UNL     1     -32.537   6.355   3.095  1.00 20.00     0.181 C 
BRANCH   6   7
HETATM    7  O9  UNL     1     -31.893   7.621   3.046  1.00 20.00    -0.328 OA
BRANCH   7   8
HETATM    8  C3  UNL     1     -32.028   8.306   1.877  1.00 20.00     0.398 C 
HETATM    9  O8  UNL     1     -32.466   9.437   1.729  1.00 20.00    -0.276 OA
ENDBRANCH   7   8
ENDBRANCH   6   7
ENDBRANCH   1   6
TORSDOF 5
ENDMDL
MODEL 4
REMARK VINA RESULT:      -4.3      1.711      2.780
REMARK  5 active torsions:
REMARK  status: ('A' for Active; 'I' for Inactive)
REMARK    1  A    between atoms: C1_1  and  C5_5 
REMARK    2  A    between atoms: C2_2  and  C6_6 
REMARK    3  A    between atoms: C3_3  and  O9_9 
REMARK    4  A    between atoms: C6_6  and  C7_7 
REMARK    5  A    between atoms: C7_7  and  O9_9 
ROOT
HETATM    1  C6  UNL     1     -35.295   5.405   3.786  1.00 20.00     0.053 C 
ENDROOT
BRANCH   1   2
HETATM    2  C2  UNL     1     -34.930   4.318   4.758  1.00 20.00    -0.029 C 
HETATM    3  C1  UNL     1     -34.682   4.531   6.058  1.00 20.00    -0.031 C 
BRANCH   3   4
HETATM    4  C5  UNL     1     -34.738   5.882   6.707  1.00 20.00     0.022 C 
HETATM    5  C4  UNL     1     -33.484   6.690   6.414  1.00 20.00     0.009 C 
ENDBRANCH   3   4
ENDBRANCH   1   2
BRANCH   1   6
HETATM    6  C7  UNL     1     -34.244   5.562   2.694  1.00 20.00     0.181 C 
BRANCH   6   7
HETATM    7  O9  UNL     1     -32.970   5.783   3.286  1.00 20.00    -0.328 OA
BRANCH   7   8
HETATM    8  C3  UNL     1     -32.339   6.931   2.916  1.00 20.00     0.398 C 
HETATM    9  O8  UNL     1     -31.558   7.594   3.581  1.00 20.00    -0.276 OA
ENDBRANCH   7   8
ENDBRANCH   6   7
ENDBRANCH   1   6
TORSDOF 5
ENDMDL
MODEL 5
REMARK VINA RESULT:      -4.3      2.748      4.822
REMARK  5 active torsions:
REMARK  status: ('A' for Active; 'I' for Inactive)
REMARK    1  A    between atoms: C1_1  and  C5_5 
REMARK    2  A    between atoms: C2_2  and  C6_6 
REMARK    3  A    between atoms: C3_3  and  O9_9 
REMARK    4  A    between atoms: C6_6  and  C7_7 
REMARK    5  A    between atoms: C7_7  and  O9_9 
ROOT
HETATM    1  C6  UNL     1     -34.083   5.832   2.908  1.00 20.00     0.053 C 
ENDROOT
BRANCH   1   2
HETATM    2  C2  UNL     1     -32.655   6.022   3.332  1.00 20.00    -0.029 C 
HETATM    3  C1  UNL     1     -31.943   7.130   3.080  1.00 20.00    -0.031 C 
BRANCH   3   4
HETATM    4  C5  UNL     1     -32.483   8.319   2.342  1.00 20.00     0.022 C 
HETATM    5  C4  UNL     1     -31.745   8.540   1.031  1.00 20.00     0.009 C 
ENDBRANCH   3   4
ENDBRANCH   1   2
BRANCH   1   6
HETATM    6  C7  UNL     1     -34.922   5.203   4.015  1.00 20.00     0.181 C 
BRANCH   6   7
HETATM    7  O9  UNL     1     -34.118   5.009   5.171  1.00 20.00    -0.328 OA
BRANCH   7   8
HETATM    8  C3  UNL     1     -34.489   5.717   6.274  1.00 20.00     0.398 C 
HETATM    9  O8  UNL     1     -34.026   6.777   6.663  1.00 20.00    -0.276 OA
ENDBRANCH   7   8
ENDBRANCH   6   7
ENDBRANCH   1   6
TORSDOF 5
ENDMDL
MODEL 6
REMARK VINA RESULT:      -4.0     10.330     11.444
REMARK  5 active torsions:
REMARK  status: ('A' for Active; 'I' for Inactive)
REMARK    1  A    between atoms: C1_1  and  C5_5 
REMARK    2  A    between atoms: C2_2  and  C6_6 
REMARK    3  A    between atoms: C3_3  and  O9_9 
REMARK    4  A    between atoms: C6_6  and  C7_7 
REMARK    5  A    between atoms: C7_7  and  O9_9 
ROOT
HETATM    1  C6  UNL     1     -34.034  16.369  -2.082  1.00 20.00     0.053 C 
ENDROOT
BRANCH   1   2
HETATM    2  C2  UNL     1     -34.538  16.775  -0.725  1.00 20.00    -0.029 C 
HETATM    3  C1  UNL     1     -34.050  17.811  -0.028  1.00 20.00    -0.031 C 
BRANCH   3   4
HETATM    4  C5  UNL     1     -32.941  18.696  -0.514  1.00 20.00     0.022 C 
HETATM    5  C4  UNL     1     -31.893  18.916   0.566  1.00 20.00     0.009 C 
ENDBRANCH   3   4
ENDBRANCH   1   2
BRANCH   1   6
HETATM    6  C7  UNL     1     -35.047  15.505  -2.824  1.00 20.00     0.181 C 
BRANCH   6   7
HETATM    7  O9  UNL     1     -34.418  14.313  -3.276  1.00 20.00    -0.328 OA
BRANCH   7   8
HETATM    8  C3  UNL     1     -35.161  13.533  -4.108  1.00 20.00     0.398 C 
HETATM    9  O8  UNL     1     -34.772  12.595  -4.787  1.00 20.00    -0.276 OA
ENDBRANCH   7   8
ENDBRANCH   6   7
ENDBRANCH   1   6
TORSDOF 5
ENDMDL
MODEL 7
REMARK VINA RESULT:      -3.9     10.027     11.008
REMARK  5 active torsions:
REMARK  status: ('A' for Active; 'I' for Inactive)
REMARK    1  A    between atoms: C1_1  and  C5_5 
REMARK    2  A    between atoms: C2_2  and  C6_6 
REMARK    3  A    between atoms: C3_3  and  O9_9 
REMARK    4  A    between atoms: C6_6  and  C7_7 
REMARK    5  A    between atoms: C7_7  and  O9_9 
ROOT
HETATM    1  C6  UNL     1     -34.058  15.742  -3.253  1.00 20.00     0.053 C 
ENDROOT
BRANCH   1   2
HETATM    2  C2  UNL     1     -33.621  17.075  -2.714  1.00 20.00    -0.029 C 
HETATM    3  C1  UNL     1     -33.909  17.511  -1.480  1.00 20.00    -0.031 C 
BRANCH   3   4
HETATM    4  C5  UNL     1     -34.705  16.725  -0.481  1.00 20.00     0.022 C 
HETATM    5  C4  UNL     1     -35.056  17.567   0.735  1.00 20.00     0.009 C 
ENDBRANCH   3   4
ENDBRANCH   1   2
BRANCH   1   6
HETATM    6  C7  UNL     1     -32.869  14.873  -3.643  1.00 20.00     0.181 C 
BRANCH   6   7
HETATM    7  O9  UNL     1     -33.268  13.509  -3.687  1.00 20.00    -0.328 OA
BRANCH   7   8
HETATM    8  C3  UNL     1     -34.556  13.284  -4.069  1.00 20.00     0.398 C 
HETATM    9  O8  UNL     1     -34.951  12.483  -4.902  1.00 20.00    -0.276 OA
ENDBRANCH   7   8
ENDBRANCH   6   7
ENDBRANCH   1   6
TORSDOF 5
ENDMDL
MODEL 8
REMARK VINA RESULT:      -3.6     10.764     11.759
REMARK  5 active torsions:
REMARK  status: ('A' for Active; 'I' for Inactive)
REMARK    1  A    between atoms: C1_1  and  C5_5 
REMARK    2  A    between atoms: C2_2  and  C6_6 
REMARK    3  A    between atoms: C3_3  and  O9_9 
REMARK    4  A    between atoms: C6_6  and  C7_7 
REMARK    5  A    between atoms: C7_7  and  O9_9 
ROOT
HETATM    1  C6  UNL     1     -34.877  16.903  -4.669  1.00 20.00     0.053 C 
ENDROOT
BRANCH   1   2
HETATM    2  C2  UNL     1     -33.606  16.755  -3.880  1.00 20.00    -0.029 C 
HETATM    3  C1  UNL     1     -33.569  16.423  -2.582  1.00 20.00    -0.031 C 
BRANCH   3   4
HETATM    4  C5  UNL     1     -34.790  16.158  -1.752  1.00 20.00     0.022 C 
HETATM    5  C4  UNL     1     -34.722  16.882  -0.417  1.00 20.00     0.009 C 
ENDBRANCH   3   4
ENDBRANCH   1   2
BRANCH   1   6
HETATM    6  C7  UNL     1     -34.997  15.837  -5.752  1.00 20.00     0.181 C 
BRANCH   6   7
HETATM    7  O9  UNL     1     -35.632  14.683  -5.217  1.00 20.00    -0.328 OA
BRANCH   7   8
HETATM    8  C3  UNL     1     -34.845  13.578  -5.100  1.00 20.00     0.398 C 
HETATM    9  O8  UNL     1     -35.012  12.627  -4.352  1.00 20.00    -0.276 OA
ENDBRANCH   7   8
ENDBRANCH   6   7
ENDBRANCH   1   6
TORSDOF 5
ENDMDL
MODEL 9
REMARK VINA RESULT:      -3.6     10.454     11.505
REMARK  5 active torsions:
REMARK  status: ('A' for Active; 'I' for Inactive)
REMARK    1  A    between atoms: C1_1  and  C5_5 
REMARK    2  A    between atoms: C2_2  and  C6_6 
REMARK    3  A    between atoms: C3_3  and  O9_9 
REMARK    4  A    between atoms: C6_6  and  C7_7 
REMARK    5  A    between atoms: C7_7  and  O9_9 
ROOT
HETATM    1  C6  UNL     1     -34.839  16.116  -2.093  1.00 20.00     0.053 C 
ENDROOT
BRANCH   1   2
HETATM    2  C2  UNL     1     -33.589  16.186  -2.924  1.00 20.00    -0.029 C 
HETATM    3  C1  UNL     1     -33.096  15.151  -3.618  1.00 20.00    -0.031 C 
BRANCH   3   4
HETATM    4  C5  UNL     1     -33.730  13.792  -3.655  1.00 20.00     0.022 C 
HETATM    5  C4  UNL     1     -34.470  13.560  -4.963  1.00 20.00     0.009 C 
ENDBRANCH   3   4
ENDBRANCH   1   2
BRANCH   1   6
HETATM    6  C7  UNL     1     -35.979  16.912  -2.720  1.00 20.00     0.181 C 
BRANCH   6   7
HETATM    7  O9  UNL     1     -36.591  16.141  -3.746  1.00 20.00    -0.328 OA
BRANCH   7   8
HETATM    8  C3  UNL     1     -37.497  15.215  -3.326  1.00 20.00     0.398 C 
HETATM    9  O8  UNL     1     -37.811  14.179  -3.891  1.00 20.00    -0.276 OA
ENDBRANCH   7   8
ENDBRANCH   6   7
ENDBRANCH   1   6
TORSDOF 5
ENDMDL
