MODEL 1
REMARK VINA RESULT:      -5.8      0.000      0.000
REMARK  0 active torsions:
REMARK  status: ('A' for Active; 'I' for Inactive)
ROOT
HETATM    1  C1  UNL     1     -32.968   7.132   4.777  1.00 20.00     0.091 A 
HETATM    2  C2  UNL     1     -33.666   6.660   5.888  1.00 20.00     0.161 A 
HETATM    3  C3  UNL     1     -33.162   6.541   3.528  1.00 20.00     0.161 A 
HETATM    4  C4  UNL     1     -34.558   5.597   5.750  1.00 20.00     0.196 A 
HETATM    5  C5  UNL     1     -34.055   5.478   3.391  1.00 20.00     0.196 A 
HETATM    6  C6  UNL     1     -34.752   5.006   4.502  1.00 20.00     0.199 A 
HETATM    7  F7  UNL     1     -33.479   7.228   7.086  1.00 20.00    -0.203 F 
HETATM    8  F8  UNL     1     -32.491   6.994   2.461  1.00 20.00    -0.203 F 
HETATM    9  F9  UNL     1     -35.228   5.142   6.818  1.00 20.00    -0.199 F 
HETATM   10  F10 UNL     1     -34.240   4.911   2.192  1.00 20.00    -0.199 F 
HETATM   11  F11 UNL     1     -35.608   3.985   4.370  1.00 20.00    -0.199 F 
ENDROOT
TORSDOF 0
ENDMDL
MODEL 2
REMARK VINA RESULT:      -5.8      0.007      3.206
REMARK  0 active torsions:
REMARK  status: ('A' for Active; 'I' for Inactive)
ROOT
HETATM    1  C1  UNL     1     -32.976   7.135   4.774  1.00 20.00     0.091 A 
HETATM    2  C2  UNL     1     -33.168   6.542   3.526  1.00 20.00     0.161 A 
HETATM    3  C3  UNL     1     -33.672   6.659   5.886  1.00 20.00     0.161 A 
HETATM    4  C4  UNL     1     -34.056   5.476   3.389  1.00 20.00     0.196 A 
HETATM    5  C5  UNL     1     -34.560   5.591   5.749  1.00 20.00     0.196 A 
HETATM    6  C6  UNL     1     -34.752   5.001   4.501  1.00 20.00     0.199 A 
HETATM    7  F7  UNL     1     -32.499   6.999   2.459  1.00 20.00    -0.203 F 
HETATM    8  F8  UNL     1     -33.488   7.227   7.085  1.00 20.00    -0.203 F 
HETATM    9  F9  UNL     1     -34.241   4.908   2.190  1.00 20.00    -0.199 F 
HETATM   10  F10 UNL     1     -35.228   5.136   6.816  1.00 20.00    -0.199 F 
HETATM   11  F11 UNL     1     -35.605   3.976   4.369  1.00 20.00    -0.199 F 
ENDROOT
TORSDOF 0
ENDMDL
MODEL 3
REMARK VINA RESULT:      -5.6      0.855      4.201
REMARK  0 active torsions:
REMARK  status: ('A' for Active; 'I' for Inactive)
ROOT
HETATM    1  C1  UNL     1     -35.000   4.955   4.150  1.00 20.00     0.091 A 
HETATM    2  C2  UNL     1     -34.196   5.388   3.095  1.00 20.00     0.161 A 
HETATM    3  C3  UNL     1     -34.770   5.429   5.442  1.00 20.00     0.161 A 
HETATM    4  C4  UNL     1     -33.164   6.295   3.332  1.00 20.00     0.196 A 
HETATM    5  C5  UNL     1     -33.737   6.336   5.679  1.00 20.00     0.196 A 
HETATM    6  C6  UNL     1     -32.934   6.768   4.624  1.00 20.00     0.199 A 
HETATM    7  F7  UNL     1     -34.418   4.933   1.855  1.00 20.00    -0.203 F 
HETATM    8  F8  UNL     1     -35.542   5.013   6.455  1.00 20.00    -0.203 F 
HETATM    9  F9  UNL     1     -32.391   6.710   2.320  1.00 20.00    -0.199 F 
HETATM   10  F10 UNL     1     -33.517   6.790   6.919  1.00 20.00    -0.199 F 
HETATM   11  F11 UNL     1     -31.941   7.638   4.852  1.00 20.00    -0.199 F 
ENDROOT
TORSDOF 0
ENDMDL
MODEL 4
REMARK VINA RESULT:      -5.6      0.855      2.716
REMARK  0 active torsions:
REMARK  status: ('A' for Active; 'I' for Inactive)
ROOT
HETATM    1  C1  UNL     1     -35.000   4.956   4.150  1.00 20.00     0.091 A 
HETATM    2  C2  UNL     1     -34.770   5.429   5.442  1.00 20.00     0.161 A 
HETATM    3  C3  UNL     1     -34.196   5.388   3.095  1.00 20.00     0.161 A 
HETATM    4  C4  UNL     1     -33.736   6.335   5.678  1.00 20.00     0.196 A 
HETATM    5  C5  UNL     1     -33.162   6.294   3.332  1.00 20.00     0.196 A 
HETATM    6  C6  UNL     1     -32.933   6.767   4.623  1.00 20.00     0.199 A 
HETATM    7  F7  UNL     1     -35.542   5.013   6.454  1.00 20.00    -0.203 F 
HETATM    8  F8  UNL     1     -34.417   4.934   1.854  1.00 20.00    -0.203 F 
HETATM    9  F9  UNL     1     -33.516   6.791   6.919  1.00 20.00    -0.199 F 
HETATM   10  F10 UNL     1     -32.391   6.709   2.319  1.00 20.00    -0.199 F 
HETATM   11  F11 UNL     1     -31.941   7.638   4.851  1.00 20.00    -0.199 F 
ENDROOT
TORSDOF 0
ENDMDL
MODEL 5
REMARK VINA RESULT:      -5.5      0.828      3.076
REMARK  0 active torsions:
REMARK  status: ('A' for Active; 'I' for Inactive)
ROOT
HETATM    1  C1  UNL     1     -32.984   6.325   3.172  1.00 20.00     0.091 A 
HETATM    2  C2  UNL     1     -34.093   5.479   3.200  1.00 20.00     0.161 A 
HETATM    3  C3  UNL     1     -32.555   6.951   4.343  1.00 20.00     0.161 A 
HETATM    4  C4  UNL     1     -34.771   5.258   4.398  1.00 20.00     0.196 A 
HETATM    5  C5  UNL     1     -33.235   6.730   5.541  1.00 20.00     0.196 A 
HETATM    6  C6  UNL     1     -34.343   5.884   5.568  1.00 20.00     0.199 A 
HETATM    7  F7  UNL     1     -34.503   4.878   2.075  1.00 20.00    -0.203 F 
HETATM    8  F8  UNL     1     -31.491   7.765   4.316  1.00 20.00    -0.203 F 
HETATM    9  F9  UNL     1     -35.837   4.446   4.424  1.00 20.00    -0.199 F 
HETATM   10  F10 UNL     1     -32.823   7.332   6.664  1.00 20.00    -0.199 F 
HETATM   11  F11 UNL     1     -34.995   5.673   6.718  1.00 20.00    -0.199 F 
ENDROOT
TORSDOF 0
ENDMDL
MODEL 6
REMARK VINA RESULT:      -5.5      0.831      2.387
REMARK  0 active torsions:
REMARK  status: ('A' for Active; 'I' for Inactive)
ROOT
HETATM    1  C1  UNL     1     -32.982   6.352   3.147  1.00 20.00     0.091 A 
HETATM    2  C2  UNL     1     -32.557   6.965   4.326  1.00 20.00     0.161 A 
HETATM    3  C3  UNL     1     -34.090   5.505   3.163  1.00 20.00     0.161 A 
HETATM    4  C4  UNL     1     -33.239   6.730   5.519  1.00 20.00     0.196 A 
HETATM    5  C5  UNL     1     -34.772   5.269   4.357  1.00 20.00     0.196 A 
HETATM    6  C6  UNL     1     -34.346   5.882   5.534  1.00 20.00     0.199 A 
HETATM    7  F7  UNL     1     -31.493   7.779   4.310  1.00 20.00    -0.203 F 
HETATM    8  F8  UNL     1     -34.499   4.916   2.031  1.00 20.00    -0.203 F 
HETATM    9  F9  UNL     1     -32.829   7.317   6.652  1.00 20.00    -0.199 F 
HETATM   10  F10 UNL     1     -35.835   4.455   4.370  1.00 20.00    -0.199 F 
HETATM   11  F11 UNL     1     -35.000   5.655   6.681  1.00 20.00    -0.199 F 
ENDROOT
TORSDOF 0
ENDMDL
MODEL 7
REMARK VINA RESULT:      -5.3      0.819      2.692
REMARK  0 active torsions:
REMARK  status: ('A' for Active; 'I' for Inactive)
ROOT
HETATM    1  C1  UNL     1     -34.206   5.918   6.576  1.00 20.00     0.091 A 
HETATM    2  C2  UNL     1     -34.971   4.899   6.009  1.00 20.00     0.161 A 
HETATM    3  C3  UNL     1     -33.403   6.721   5.766  1.00 20.00     0.161 A 
HETATM    4  C4  UNL     1     -34.931   4.682   4.632  1.00 20.00     0.196 A 
HETATM    5  C5  UNL     1     -33.364   6.504   4.388  1.00 20.00     0.196 A 
HETATM    6  C6  UNL     1     -34.128   5.484   3.822  1.00 20.00     0.199 A 
HETATM    7  F7  UNL     1     -35.742   4.129   6.787  1.00 20.00    -0.203 F 
HETATM    8  F8  UNL     1     -32.669   7.700   6.311  1.00 20.00    -0.203 F 
HETATM    9  F9  UNL     1     -35.664   3.702   4.087  1.00 20.00    -0.199 F 
HETATM   10  F10 UNL     1     -32.591   7.274   3.612  1.00 20.00    -0.199 F 
HETATM   11  F11 UNL     1     -34.089   5.275   2.500  1.00 20.00    -0.199 F 
ENDROOT
TORSDOF 0
ENDMDL
MODEL 8
REMARK VINA RESULT:      -5.3      0.855      3.604
REMARK  0 active torsions:
REMARK  status: ('A' for Active; 'I' for Inactive)
ROOT
HETATM    1  C1  UNL     1     -34.439   5.838   5.785  1.00 20.00     0.091 A 
HETATM    2  C2  UNL     1     -34.760   5.254   4.560  1.00 20.00     0.161 A 
HETATM    3  C3  UNL     1     -33.381   6.745   5.870  1.00 20.00     0.161 A 
HETATM    4  C4  UNL     1     -34.023   5.575   3.420  1.00 20.00     0.196 A 
HETATM    5  C5  UNL     1     -32.644   7.065   4.729  1.00 20.00     0.196 A 
HETATM    6  C6  UNL     1     -32.966   6.480   3.505  1.00 20.00     0.199 A 
HETATM    7  F7  UNL     1     -35.776   4.385   4.480  1.00 20.00    -0.203 F 
HETATM    8  F8  UNL     1     -33.073   7.306   7.046  1.00 20.00    -0.203 F 
HETATM    9  F9  UNL     1     -34.331   5.012   2.244  1.00 20.00    -0.199 F 
HETATM   10  F10 UNL     1     -31.629   7.934   4.812  1.00 20.00    -0.199 F 
HETATM   11  F11 UNL     1     -32.257   6.787   2.411  1.00 20.00    -0.199 F 
ENDROOT
TORSDOF 0
ENDMDL
MODEL 9
REMARK VINA RESULT:      -5.3      0.856      2.908
REMARK  0 active torsions:
REMARK  status: ('A' for Active; 'I' for Inactive)
ROOT
HETATM    1  C1  UNL     1     -34.439   5.841   5.785  1.00 20.00     0.091 A 
HETATM    2  C2  UNL     1     -33.381   6.746   5.870  1.00 20.00     0.161 A 
HETATM    3  C3  UNL     1     -34.760   5.256   4.560  1.00 20.00     0.161 A 
HETATM    4  C4  UNL     1     -32.644   7.065   4.731  1.00 20.00     0.196 A 
HETATM    5  C5  UNL     1     -34.022   5.576   3.420  1.00 20.00     0.196 A 
HETATM    6  C6  UNL     1     -32.964   6.481   3.506  1.00 20.00     0.199 A 
HETATM    7  F7  UNL     1     -33.073   7.306   7.047  1.00 20.00    -0.203 F 
HETATM    8  F8  UNL     1     -35.776   4.387   4.478  1.00 20.00    -0.203 F 
HETATM    9  F9  UNL     1     -31.628   7.935   4.812  1.00 20.00    -0.199 F 
HETATM   10  F10 UNL     1     -34.331   5.014   2.244  1.00 20.00    -0.199 F 
HETATM   11  F11 UNL     1     -32.257   6.788   2.411  1.00 20.00    -0.199 F 
ENDROOT
TORSDOF 0
ENDMDL
