MODEL 1
REMARK VINA RESULT:      -5.6      0.000      0.000
REMARK  4 active torsions:
REMARK  status: ('A' for Active; 'I' for Inactive)
REMARK    1  A    between atoms: C6_6  and  C7_7 
REMARK    2  A    between atoms: C7_7  and  C8_8 
REMARK    3  A    between atoms: C8_8  and  C9_9 
REMARK    4  A    between atoms: C9_9  and  O10_10 
ROOT
HETATM    1  C1  UNL     1     -35.100   4.372   5.980  1.00 20.00     0.000 C 
HETATM    2  C2  UNL     1     -35.146   4.169   4.469  1.00 20.00     0.000 C 
HETATM    3  C3  UNL     1     -33.953   5.287   6.396  1.00 20.00     0.000 C 
HETATM    4  C4  UNL     1     -35.191   5.501   3.722  1.00 20.00     0.004 C 
HETATM    5  C5  UNL     1     -33.998   6.621   5.650  1.00 20.00     0.004 C 
HETATM    6  C6  UNL     1     -34.057   6.455   4.124  1.00 20.00    -0.014 C 
ENDROOT
BRANCH   6   7
HETATM    7  C7  UNL     1     -32.710   6.004   3.552  1.00 20.00     0.007 C 
BRANCH   7   8
HETATM    8  C8  UNL     1     -31.817   7.196   3.235  1.00 20.00     0.026 C 
BRANCH   8   9
HETATM    9  C9  UNL     1     -32.483   8.140   2.244  1.00 20.00     0.164 C 
BRANCH   9  10
HETATM   10  O10 UNL     1     -31.559   8.444   1.208  1.00 20.00    -0.401 OA
HETATM   11  H28 UNL     1     -32.076   8.801   0.467  1.00 20.00     0.209 HD
ENDBRANCH   9  10
ENDBRANCH   8   9
ENDBRANCH   7   8
ENDBRANCH   6   7
TORSDOF 4
ENDMDL
MODEL 2
REMARK VINA RESULT:      -4.5     11.179     12.654
REMARK  4 active torsions:
REMARK  status: ('A' for Active; 'I' for Inactive)
REMARK    1  A    between atoms: C6_6  and  C7_7 
REMARK    2  A    between atoms: C7_7  and  C8_8 
REMARK    3  A    between atoms: C8_8  and  C9_9 
REMARK    4  A    between atoms: C9_9  and  O10_10 
ROOT
HETATM    1  C1  UNL     1     -34.004  18.634  -1.873  1.00 20.00     0.000 C 
HETATM    2  C2  UNL     1     -33.713  17.361  -1.086  1.00 20.00     0.000 C 
HETATM    3  C3  UNL     1     -33.902  18.407  -3.378  1.00 20.00     0.000 C 
HETATM    4  C4  UNL     1     -34.597  16.201  -1.541  1.00 20.00     0.004 C 
HETATM    5  C5  UNL     1     -34.787  17.247  -3.834  1.00 20.00     0.004 C 
HETATM    6  C6  UNL     1     -34.529  15.950  -3.054  1.00 20.00    -0.014 C 
ENDROOT
BRANCH   6   7
HETATM    7  C7  UNL     1     -33.203  15.301  -3.460  1.00 20.00     0.007 C 
BRANCH   7   8
HETATM    8  C8  UNL     1     -33.380  13.815  -3.745  1.00 20.00     0.026 C 
BRANCH   8   9
HETATM    9  C9  UNL     1     -34.551  13.565  -4.685  1.00 20.00     0.164 C 
BRANCH   9  10
HETATM   10  O10 UNL     1     -35.378  12.552  -4.129  1.00 20.00    -0.401 OA
HETATM   11  H28 UNL     1     -36.075  13.004  -3.626  1.00 20.00     0.209 HD
ENDBRANCH   9  10
ENDBRANCH   8   9
ENDBRANCH   7   8
ENDBRANCH   6   7
TORSDOF 4
ENDMDL
MODEL 3
REMARK VINA RESULT:      -4.4     11.410     12.613
REMARK  4 active torsions:
REMARK  status: ('A' for Active; 'I' for Inactive)
REMARK    1  A    between atoms: C6_6  and  C7_7 
REMARK    2  A    between atoms: C7_7  and  C8_8 
REMARK    3  A    between atoms: C8_8  and  C9_9 
REMARK    4  A    between atoms: C9_9  and  O10_10 
ROOT
HETATM    1  C1  UNL     1     -34.621  14.407  -6.035  1.00 20.00     0.000 C 
HETATM    2  C2  UNL     1     -34.714  13.533  -4.788  1.00 20.00     0.000 C 
HETATM    3  C3  UNL     1     -34.469  15.883  -5.684  1.00 20.00     0.000 C 
HETATM    4  C4  UNL     1     -33.534  13.768  -3.846  1.00 20.00     0.004 C 
HETATM    5  C5  UNL     1     -33.288  16.119  -4.742  1.00 20.00     0.004 C 
HETATM    6  C6  UNL     1     -33.342  15.246  -3.479  1.00 20.00    -0.014 C 
ENDROOT
BRANCH   6   7
HETATM    7  C7  UNL     1     -34.418  15.730  -2.503  1.00 20.00     0.007 C 
BRANCH   7   8
HETATM    8  C8  UNL     1     -33.906  16.878  -1.642  1.00 20.00     0.026 C 
BRANCH   8   9
HETATM    9  C9  UNL     1     -34.695  16.995  -0.346  1.00 20.00     0.164 C 
BRANCH   9  10
HETATM   10  O10 UNL     1     -35.998  17.478  -0.643  1.00 20.00    -0.401 OA
HETATM   11  H28 UNL     1     -35.911  18.058  -1.417  1.00 20.00     0.209 HD
ENDBRANCH   9  10
ENDBRANCH   8   9
ENDBRANCH   7   8
ENDBRANCH   6   7
TORSDOF 4
ENDMDL
MODEL 4
REMARK VINA RESULT:      -4.2     11.485     12.371
REMARK  4 active torsions:
REMARK  status: ('A' for Active; 'I' for Inactive)
REMARK    1  A    between atoms: C6_6  and  C7_7 
REMARK    2  A    between atoms: C7_7  and  C8_8 
REMARK    3  A    between atoms: C8_8  and  C9_9 
REMARK    4  A    between atoms: C9_9  and  O10_10 
ROOT
HETATM    1  C1  UNL     1     -35.893  18.095  -0.882  1.00 20.00     0.000 C 
HETATM    2  C2  UNL     1     -36.390  17.733  -2.278  1.00 20.00     0.000 C 
HETATM    3  C3  UNL     1     -34.835  17.116  -0.384  1.00 20.00     0.000 C 
HETATM    4  C4  UNL     1     -35.236  17.600  -3.270  1.00 20.00     0.004 C 
HETATM    5  C5  UNL     1     -33.679  16.984  -1.376  1.00 20.00     0.004 C 
HETATM    6  C6  UNL     1     -34.143  16.631  -2.797  1.00 20.00    -0.014 C 
ENDROOT
BRANCH   6   7
HETATM    7  C7  UNL     1     -34.601  15.173  -2.896  1.00 20.00     0.007 C 
BRANCH   7   8
HETATM    8  C8  UNL     1     -33.621  14.342  -3.715  1.00 20.00     0.026 C 
BRANCH   8   9
HETATM    9  C9  UNL     1     -34.337  13.539  -4.791  1.00 20.00     0.164 C 
BRANCH   9  10
HETATM   10  O10 UNL     1     -35.181  12.582  -4.165  1.00 20.00    -0.401 OA
HETATM   11  H28 UNL     1     -36.012  13.038  -3.952  1.00 20.00     0.209 HD
ENDBRANCH   9  10
ENDBRANCH   8   9
ENDBRANCH   7   8
ENDBRANCH   6   7
TORSDOF 4
ENDMDL
MODEL 5
REMARK VINA RESULT:      -4.0      1.222      2.323
REMARK  4 active torsions:
REMARK  status: ('A' for Active; 'I' for Inactive)
REMARK    1  A    between atoms: C6_6  and  C7_7 
REMARK    2  A    between atoms: C7_7  and  C8_8 
REMARK    3  A    between atoms: C8_8  and  C9_9 
REMARK    4  A    between atoms: C9_9  and  O10_10 
ROOT
HETATM    1  C1  UNL     1     -34.927   5.452   5.120  1.00 20.00     0.000 C 
HETATM    2  C2  UNL     1     -33.837   6.461   5.465  1.00 20.00     0.000 C 
HETATM    3  C3  UNL     1     -35.254   5.456   3.630  1.00 20.00     0.000 C 
HETATM    4  C4  UNL     1     -32.585   6.253   4.615  1.00 20.00     0.004 C 
HETATM    5  C5  UNL     1     -34.002   5.247   2.779  1.00 20.00     0.004 C 
HETATM    6  C6  UNL     1     -32.877   6.239   3.107  1.00 20.00    -0.014 C 
ENDROOT
BRANCH   6   7
HETATM    7  C7  UNL     1     -33.190   7.643   2.580  1.00 20.00     0.007 C 
BRANCH   7   8
HETATM    8  C8  UNL     1     -31.986   8.246   1.868  1.00 20.00     0.026 C 
BRANCH   8   9
HETATM    9  C9  UNL     1     -32.355   9.532   1.144  1.00 20.00     0.164 C 
BRANCH   9  10
HETATM   10  O10 UNL     1     -32.747   9.214  -0.185  1.00 20.00    -0.401 OA
HETATM   11  H28 UNL     1     -32.402   8.326  -0.373  1.00 20.00     0.209 HD
ENDBRANCH   9  10
ENDBRANCH   8   9
ENDBRANCH   7   8
ENDBRANCH   6   7
TORSDOF 4
ENDMDL
MODEL 6
REMARK VINA RESULT:      -4.0     11.128     12.434
REMARK  4 active torsions:
REMARK  status: ('A' for Active; 'I' for Inactive)
REMARK    1  A    between atoms: C6_6  and  C7_7 
REMARK    2  A    between atoms: C7_7  and  C8_8 
REMARK    3  A    between atoms: C8_8  and  C9_9 
REMARK    4  A    between atoms: C9_9  and  O10_10 
ROOT
HETATM    1  C1  UNL     1     -33.950  18.430   0.432  1.00 20.00     0.000 C 
HETATM    2  C2  UNL     1     -34.957  17.299   0.250  1.00 20.00     0.000 C 
HETATM    3  C3  UNL     1     -32.907  18.447  -0.680  1.00 20.00     0.000 C 
HETATM    4  C4  UNL     1     -35.608  17.340  -1.131  1.00 20.00     0.004 C 
HETATM    5  C5  UNL     1     -33.558  18.489  -2.063  1.00 20.00     0.004 C 
HETATM    6  C6  UNL     1     -34.587  17.370  -2.278  1.00 20.00    -0.014 C 
ENDROOT
BRANCH   6   7
HETATM    7  C7  UNL     1     -33.911  16.009  -2.467  1.00 20.00     0.007 C 
BRANCH   7   8
HETATM    8  C8  UNL     1     -34.799  15.058  -3.260  1.00 20.00     0.026 C 
BRANCH   8   9
HETATM    9  C9  UNL     1     -34.032  13.818  -3.698  1.00 20.00     0.164 C 
BRANCH   9  10
HETATM   10  O10 UNL     1     -34.956  12.759  -3.910  1.00 20.00    -0.401 OA
HETATM   11  H28 UNL     1     -34.894  12.174  -3.138  1.00 20.00     0.209 HD
ENDBRANCH   9  10
ENDBRANCH   8   9
ENDBRANCH   7   8
ENDBRANCH   6   7
TORSDOF 4
ENDMDL
MODEL 7
REMARK VINA RESULT:      -4.0      9.561     11.118
REMARK  4 active torsions:
REMARK  status: ('A' for Active; 'I' for Inactive)
REMARK    1  A    between atoms: C6_6  and  C7_7 
REMARK    2  A    between atoms: C7_7  and  C8_8 
REMARK    3  A    between atoms: C8_8  and  C9_9 
REMARK    4  A    between atoms: C9_9  and  O10_10 
ROOT
HETATM    1  C1  UNL     1     -41.167   7.166  -0.969  1.00 20.00     0.000 C 
HETATM    2  C2  UNL     1     -40.648   5.924  -0.253  1.00 20.00     0.000 C 
HETATM    3  C3  UNL     1     -41.805   6.824  -2.311  1.00 20.00     0.000 C 
HETATM    4  C4  UNL     1     -41.737   4.862  -0.104  1.00 20.00     0.004 C 
HETATM    5  C5  UNL     1     -42.895   5.763  -2.163  1.00 20.00     0.004 C 
HETATM    6  C6  UNL     1     -42.411   4.500  -1.435  1.00 20.00    -0.014 C 
ENDROOT
BRANCH   6   7
HETATM    7  C7  UNL     1     -41.492   3.654  -2.322  1.00 20.00     0.007 C 
BRANCH   7   8
HETATM    8  C8  UNL     1     -42.262   2.528  -2.999  1.00 20.00     0.026 C 
BRANCH   8   9
HETATM    9  C9  UNL     1     -41.376   1.751  -3.963  1.00 20.00     0.164 C 
BRANCH   9  10
HETATM   10  O10 UNL     1     -42.086   1.552  -5.178  1.00 20.00    -0.401 OA
HETATM   11  H28 UNL     1     -41.764   2.221  -5.804  1.00 20.00     0.209 HD
ENDBRANCH   9  10
ENDBRANCH   8   9
ENDBRANCH   7   8
ENDBRANCH   6   7
TORSDOF 4
ENDMDL
MODEL 8
REMARK VINA RESULT:      -4.0     11.337     13.064
REMARK  4 active torsions:
REMARK  status: ('A' for Active; 'I' for Inactive)
REMARK    1  A    between atoms: C6_6  and  C7_7 
REMARK    2  A    between atoms: C7_7  and  C8_8 
REMARK    3  A    between atoms: C8_8  and  C9_9 
REMARK    4  A    between atoms: C9_9  and  O10_10 
ROOT
HETATM    1  C1  UNL     1     -33.355  13.746  -3.780  1.00 20.00     0.000 C 
HETATM    2  C2  UNL     1     -33.261  15.257  -3.593  1.00 20.00     0.000 C 
HETATM    3  C3  UNL     1     -34.672  13.335  -4.430  1.00 20.00     0.000 C 
HETATM    4  C4  UNL     1     -33.499  16.004  -4.904  1.00 20.00     0.004 C 
HETATM    5  C5  UNL     1     -34.911  14.081  -5.742  1.00 20.00     0.004 C 
HETATM    6  C6  UNL     1     -34.812  15.607  -5.594  1.00 20.00    -0.014 C 
ENDROOT
BRANCH   6   7
HETATM    7  C7  UNL     1     -36.029  16.183  -4.865  1.00 20.00     0.007 C 
BRANCH   7   8
HETATM    8  C8  UNL     1     -37.329  15.655  -5.458  1.00 20.00     0.026 C 
BRANCH   8   9
HETATM    9  C9  UNL     1     -38.370  15.402  -4.377  1.00 20.00     0.164 C 
BRANCH   9  10
HETATM   10  O10 UNL     1     -38.077  14.166  -3.739  1.00 20.00    -0.401 OA
HETATM   11  H28 UNL     1     -38.196  14.308  -2.786  1.00 20.00     0.209 HD
ENDBRANCH   9  10
ENDBRANCH   8   9
ENDBRANCH   7   8
ENDBRANCH   6   7
TORSDOF 4
ENDMDL
MODEL 9
REMARK VINA RESULT:      -3.9     11.650     12.741
REMARK  4 active torsions:
REMARK  status: ('A' for Active; 'I' for Inactive)
REMARK    1  A    between atoms: C6_6  and  C7_7 
REMARK    2  A    between atoms: C7_7  and  C8_8 
REMARK    3  A    between atoms: C8_8  and  C9_9 
REMARK    4  A    between atoms: C9_9  and  O10_10 
ROOT
HETATM    1  C1  UNL     1     -34.806  14.439  -6.387  1.00 20.00     0.000 C 
HETATM    2  C2  UNL     1     -34.508  15.867  -5.942  1.00 20.00     0.000 C 
HETATM    3  C3  UNL     1     -34.717  13.452  -5.227  1.00 20.00     0.000 C 
HETATM    4  C4  UNL     1     -35.397  16.291  -4.774  1.00 20.00     0.004 C 
HETATM    5  C5  UNL     1     -35.607  13.875  -4.059  1.00 20.00     0.004 C 
HETATM    6  C6  UNL     1     -35.343  15.314  -3.591  1.00 20.00    -0.014 C 
ENDROOT
BRANCH   6   7
HETATM    7  C7  UNL     1     -34.021  15.426  -2.826  1.00 20.00     0.007 C 
BRANCH   7   8
HETATM    8  C8  UNL     1     -33.926  16.750  -2.080  1.00 20.00     0.026 C 
BRANCH   8   9
HETATM    9  C9  UNL     1     -34.614  16.674  -0.724  1.00 20.00     0.164 C 
BRANCH   9  10
HETATM   10  O10 UNL     1     -35.859  17.355  -0.803  1.00 20.00    -0.401 OA
HETATM   11  H28 UNL     1     -36.075  17.649   0.096  1.00 20.00     0.209 HD
ENDBRANCH   9  10
ENDBRANCH   8   9
ENDBRANCH   7   8
ENDBRANCH   6   7
TORSDOF 4
ENDMDL
