MODEL 1
REMARK VINA RESULT:      -4.1      0.000      0.000
REMARK  4 active torsions:
REMARK  status: ('A' for Active; 'I' for Inactive)
REMARK    1  A    between atoms: C3_3  and  C5_5 
REMARK    2  A    between atoms: C4_4  and  C6_6 
REMARK    3  A    between atoms: C5_5  and  S7_7 
REMARK    4  A    between atoms: C6_6  and  S7_7 
ROOT
HETATM    1  S7  UNL     1     -34.082   6.091   3.746  1.00 20.00    -0.162 SA
ENDROOT
BRANCH   1   2
HETATM    2  C5  UNL     1     -33.848   6.356   5.524  1.00 20.00     0.100 C 
BRANCH   2   3
HETATM    3  C3  UNL     1     -34.626   5.344   6.302  1.00 20.00    -0.027 C 
HETATM    4  C1  UNL     1     -34.964   4.139   5.830  1.00 20.00     0.007 C 
ENDBRANCH   2   3
ENDBRANCH   1   2
BRANCH   1   5
HETATM    5  C6  UNL     1     -32.348   6.148   3.238  1.00 20.00     0.100 C 
BRANCH   5   6
HETATM    6  C4  UNL     1     -31.905   7.566   3.075  1.00 20.00    -0.027 C 
HETATM    7  C2  UNL     1     -32.076   8.277   1.955  1.00 20.00     0.007 C 
ENDBRANCH   5   6
ENDBRANCH   1   5
TORSDOF 4
ENDMDL
MODEL 2
REMARK VINA RESULT:      -4.0      1.028      1.195
REMARK  4 active torsions:
REMARK  status: ('A' for Active; 'I' for Inactive)
REMARK    1  A    between atoms: C3_3  and  C5_5 
REMARK    2  A    between atoms: C4_4  and  C6_6 
REMARK    3  A    between atoms: C5_5  and  S7_7 
REMARK    4  A    between atoms: C6_6  and  S7_7 
ROOT
HETATM    1  S7  UNL     1     -33.701   6.497   4.419  1.00 20.00    -0.162 SA
ENDROOT
BRANCH   1   2
HETATM    2  C5  UNL     1     -34.906   5.299   3.786  1.00 20.00     0.100 C 
BRANCH   2   3
HETATM    3  C3  UNL     1     -35.198   4.265   4.826  1.00 20.00    -0.027 C 
HETATM    4  C1  UNL     1     -34.953   4.429   6.131  1.00 20.00     0.007 C 
ENDBRANCH   2   3
ENDBRANCH   1   2
BRANCH   1   5
HETATM    5  C6  UNL     1     -32.429   6.289   3.152  1.00 20.00     0.100 C 
BRANCH   5   6
HETATM    6  C4  UNL     1     -31.779   7.601   2.853  1.00 20.00    -0.027 C 
HETATM    7  C2  UNL     1     -32.113   8.379   1.818  1.00 20.00     0.007 C 
ENDBRANCH   5   6
ENDBRANCH   1   5
TORSDOF 4
ENDMDL
MODEL 3
REMARK VINA RESULT:      -4.0      1.020      4.610
REMARK  4 active torsions:
REMARK  status: ('A' for Active; 'I' for Inactive)
REMARK    1  A    between atoms: C3_3  and  C5_5 
REMARK    2  A    between atoms: C4_4  and  C6_6 
REMARK    3  A    between atoms: C5_5  and  S7_7 
REMARK    4  A    between atoms: C6_6  and  S7_7 
ROOT
HETATM    1  S7  UNL     1     -33.698   6.477   4.449  1.00 20.00    -0.162 SA
ENDROOT
BRANCH   1   2
HETATM    2  C5  UNL     1     -32.420   6.280   3.178  1.00 20.00     0.100 C 
BRANCH   2   3
HETATM    3  C3  UNL     1     -31.787   7.600   2.875  1.00 20.00    -0.027 C 
HETATM    4  C1  UNL     1     -32.099   8.351   1.812  1.00 20.00     0.007 C 
ENDBRANCH   2   3
ENDBRANCH   1   2
BRANCH   1   5
HETATM    5  C6  UNL     1     -34.890   5.275   3.815  1.00 20.00     0.100 C 
BRANCH   5   6
HETATM    6  C4  UNL     1     -35.211   4.263   4.868  1.00 20.00    -0.027 C 
HETATM    7  C2  UNL     1     -34.955   4.435   6.169  1.00 20.00     0.007 C 
ENDBRANCH   5   6
ENDBRANCH   1   5
TORSDOF 4
ENDMDL
MODEL 4
REMARK VINA RESULT:      -3.9      0.981      1.277
REMARK  4 active torsions:
REMARK  status: ('A' for Active; 'I' for Inactive)
REMARK    1  A    between atoms: C3_3  and  C5_5 
REMARK    2  A    between atoms: C4_4  and  C6_6 
REMARK    3  A    between atoms: C5_5  and  S7_7 
REMARK    4  A    between atoms: C6_6  and  S7_7 
ROOT
HETATM    1  S7  UNL     1     -32.904   6.051   3.075  1.00 20.00    -0.162 SA
ENDROOT
BRANCH   1   2
HETATM    2  C5  UNL     1     -33.845   6.264   4.610  1.00 20.00     0.100 C 
BRANCH   2   3
HETATM    3  C3  UNL     1     -34.836   5.156   4.765  1.00 20.00    -0.027 C 
HETATM    4  C1  UNL     1     -34.894   4.350   5.832  1.00 20.00     0.007 C 
ENDBRANCH   2   3
ENDBRANCH   1   2
BRANCH   1   5
HETATM    5  C6  UNL     1     -31.981   7.605   3.112  1.00 20.00     0.100 C 
BRANCH   5   6
HETATM    6  C4  UNL     1     -31.994   8.244   1.761  1.00 20.00    -0.027 C 
HETATM    7  C2  UNL     1     -32.437   9.485   1.528  1.00 20.00     0.007 C 
ENDBRANCH   5   6
ENDBRANCH   1   5
TORSDOF 4
ENDMDL
MODEL 5
REMARK VINA RESULT:      -3.3     11.622     12.292
REMARK  4 active torsions:
REMARK  status: ('A' for Active; 'I' for Inactive)
REMARK    1  A    between atoms: C3_3  and  C5_5 
REMARK    2  A    between atoms: C4_4  and  C6_6 
REMARK    3  A    between atoms: C5_5  and  S7_7 
REMARK    4  A    between atoms: C6_6  and  S7_7 
ROOT
HETATM    1  S7  UNL     1     -33.434  16.298  -4.580  1.00 20.00    -0.162 SA
ENDROOT
BRANCH   1   2
HETATM    2  C5  UNL     1     -32.850  14.877  -3.618  1.00 20.00     0.100 C 
BRANCH   2   3
HETATM    3  C3  UNL     1     -33.595  13.644  -4.016  1.00 20.00    -0.027 C 
HETATM    4  C1  UNL     1     -34.929  13.551  -4.034  1.00 20.00     0.007 C 
ENDBRANCH   2   3
ENDBRANCH   1   2
BRANCH   1   5
HETATM    5  C6  UNL     1     -34.298  17.177  -3.258  1.00 20.00     0.100 C 
BRANCH   5   6
HETATM    6  C4  UNL     1     -33.848  16.673  -1.924  1.00 20.00    -0.027 C 
HETATM    7  C2  UNL     1     -34.609  16.694  -0.824  1.00 20.00     0.007 C 
ENDBRANCH   5   6
ENDBRANCH   1   5
TORSDOF 4
ENDMDL
MODEL 6
REMARK VINA RESULT:      -3.3     11.568     12.282
REMARK  4 active torsions:
REMARK  status: ('A' for Active; 'I' for Inactive)
REMARK    1  A    between atoms: C3_3  and  C5_5 
REMARK    2  A    between atoms: C4_4  and  C6_6 
REMARK    3  A    between atoms: C5_5  and  S7_7 
REMARK    4  A    between atoms: C6_6  and  S7_7 
ROOT
HETATM    1  S7  UNL     1     -33.575  16.296  -4.583  1.00 20.00    -0.162 SA
ENDROOT
BRANCH   1   2
HETATM    2  C5  UNL     1     -33.946  17.415  -3.206  1.00 20.00     0.100 C 
BRANCH   2   3
HETATM    3  C3  UNL     1     -33.747  16.712  -1.902  1.00 20.00    -0.027 C 
HETATM    4  C1  UNL     1     -34.686  16.619  -0.954  1.00 20.00     0.007 C 
ENDBRANCH   2   3
ENDBRANCH   1   2
BRANCH   1   5
HETATM    5  C6  UNL     1     -32.793  14.966  -3.640  1.00 20.00     0.100 C 
BRANCH   5   6
HETATM    6  C4  UNL     1     -33.519  13.678  -3.866  1.00 20.00    -0.027 C 
HETATM    7  C2  UNL     1     -34.847  13.582  -3.983  1.00 20.00     0.007 C 
ENDBRANCH   5   6
ENDBRANCH   1   5
TORSDOF 4
ENDMDL
MODEL 7
REMARK VINA RESULT:      -3.2     11.725     12.624
REMARK  4 active torsions:
REMARK  status: ('A' for Active; 'I' for Inactive)
REMARK    1  A    between atoms: C3_3  and  C5_5 
REMARK    2  A    between atoms: C4_4  and  C6_6 
REMARK    3  A    between atoms: C5_5  and  S7_7 
REMARK    4  A    between atoms: C6_6  and  S7_7 
ROOT
HETATM    1  S7  UNL     1     -33.631  14.171  -3.848  1.00 20.00    -0.162 SA
ENDROOT
BRANCH   1   2
HETATM    2  C5  UNL     1     -34.736  13.326  -5.012  1.00 20.00     0.100 C 
BRANCH   2   3
HETATM    3  C3  UNL     1     -35.220  14.285  -6.052  1.00 20.00    -0.027 C 
HETATM    4  C1  UNL     1     -34.411  14.983  -6.857  1.00 20.00     0.007 C 
ENDBRANCH   2   3
ENDBRANCH   1   2
BRANCH   1   5
HETATM    5  C6  UNL     1     -34.853  15.237  -3.049  1.00 20.00     0.100 C 
BRANCH   5   6
HETATM    6  C4  UNL     1     -34.170  16.232  -2.167  1.00 20.00    -0.027 C 
HETATM    7  C2  UNL     1     -34.619  16.590  -0.959  1.00 20.00     0.007 C 
ENDBRANCH   5   6
ENDBRANCH   1   5
TORSDOF 4
ENDMDL
MODEL 8
REMARK VINA RESULT:      -3.1      1.469      4.861
REMARK  4 active torsions:
REMARK  status: ('A' for Active; 'I' for Inactive)
REMARK    1  A    between atoms: C3_3  and  C5_5 
REMARK    2  A    between atoms: C4_4  and  C6_6 
REMARK    3  A    between atoms: C5_5  and  S7_7 
REMARK    4  A    between atoms: C6_6  and  S7_7 
ROOT
HETATM    1  S7  UNL     1     -31.954   6.863   3.433  1.00 20.00    -0.162 SA
ENDROOT
BRANCH   1   2
HETATM    2  C5  UNL     1     -32.489   8.397   2.630  1.00 20.00     0.100 C 
BRANCH   2   3
HETATM    3  C3  UNL     1     -31.870   8.512   1.274  1.00 20.00    -0.027 C 
HETATM    4  C1  UNL     1     -32.436   9.157   0.248  1.00 20.00     0.007 C 
ENDBRANCH   2   3
ENDBRANCH   1   2
BRANCH   1   5
HETATM    5  C6  UNL     1     -33.460   5.893   3.184  1.00 20.00     0.100 C 
BRANCH   5   6
HETATM    6  C4  UNL     1     -34.263   5.856   4.444  1.00 20.00    -0.027 C 
HETATM    7  C2  UNL     1     -35.202   4.939   4.702  1.00 20.00     0.007 C 
ENDBRANCH   5   6
ENDBRANCH   1   5
TORSDOF 4
ENDMDL
MODEL 9
REMARK VINA RESULT:      -3.1     11.655     12.213
REMARK  4 active torsions:
REMARK  status: ('A' for Active; 'I' for Inactive)
REMARK    1  A    between atoms: C3_3  and  C5_5 
REMARK    2  A    between atoms: C4_4  and  C6_6 
REMARK    3  A    between atoms: C5_5  and  S7_7 
REMARK    4  A    between atoms: C6_6  and  S7_7 
ROOT
HETATM    1  S7  UNL     1     -35.292  16.484  -3.835  1.00 20.00    -0.162 SA
ENDROOT
BRANCH   1   2
HETATM    2  C5  UNL     1     -33.738  16.265  -2.926  1.00 20.00     0.100 C 
BRANCH   2   3
HETATM    3  C3  UNL     1     -33.799  16.990  -1.620  1.00 20.00    -0.027 C 
HETATM    4  C1  UNL     1     -34.673  16.704  -0.648  1.00 20.00     0.007 C 
ENDBRANCH   2   3
ENDBRANCH   1   2
BRANCH   1   5
HETATM    5  C6  UNL     1     -35.955  14.814  -3.632  1.00 20.00     0.100 C 
BRANCH   5   6
HETATM    6  C4  UNL     1     -34.866  13.804  -3.798  1.00 20.00    -0.027 C 
HETATM    7  C2  UNL     1     -34.581  13.199  -4.957  1.00 20.00     0.007 C 
ENDBRANCH   5   6
ENDBRANCH   1   5
TORSDOF 4
ENDMDL
