MODEL 1
REMARK VINA RESULT:      -4.3      0.000      0.000
REMARK  3 active torsions:
REMARK  status: ('A' for Active; 'I' for Inactive)
REMARK    1  A    between atoms: C4_4  and  S10_10 
REMARK    2  A    between atoms: C5_5  and  C7_7 
REMARK    3  A    between atoms: C7_7  and  S10_10 
ROOT
HETATM    1  C1  UNL     1     -34.758  17.041  -0.373  1.00 20.00     0.009 A 
HETATM    2  C2  UNL     1     -34.544  16.220  -1.517  1.00 20.00     0.026 A 
HETATM    3  C3  UNL     1     -34.327  18.334  -0.576  1.00 20.00     0.051 A 
HETATM    4  C4  UNL     1     -33.955  16.915  -2.550  1.00 20.00     0.041 A 
HETATM    5  S9  UNL     1     -33.666  18.552  -2.140  1.00 20.00    -0.095 SA
ENDROOT
BRANCH   4   6
HETATM    6  S10 UNL     1     -33.529  16.258  -4.134  1.00 20.00    -0.115 SA
BRANCH   6   7
HETATM    7  C7  UNL     1     -33.574  14.489  -3.768  1.00 20.00     0.157 C 
BRANCH   7   8
HETATM    8  C5  UNL     1     -34.440  13.737  -4.751  1.00 20.00     0.132 C 
HETATM    9  C6  UNL     1     -34.709  14.461  -6.029  1.00 20.00     0.091 C 
HETATM   10  O8  UNL     1     -34.914  12.622  -4.578  1.00 20.00    -0.298 OA
ENDBRANCH   7   8
ENDBRANCH   6   7
ENDBRANCH   4   6
TORSDOF 3
ENDMDL
MODEL 2
REMARK VINA RESULT:      -4.3      0.782      1.129
REMARK  3 active torsions:
REMARK  status: ('A' for Active; 'I' for Inactive)
REMARK    1  A    between atoms: C4_4  and  S10_10 
REMARK    2  A    between atoms: C5_5  and  C7_7 
REMARK    3  A    between atoms: C7_7  and  S10_10 
ROOT
HETATM    1  C1  UNL     1     -34.675  17.083  -0.198  1.00 20.00     0.009 A 
HETATM    2  C2  UNL     1     -34.658  16.300  -1.388  1.00 20.00     0.026 A 
HETATM    3  C3  UNL     1     -34.192  18.356  -0.409  1.00 20.00     0.051 A 
HETATM    4  C4  UNL     1     -34.160  17.002  -2.463  1.00 20.00     0.041 A 
HETATM    5  S9  UNL     1     -33.718  18.601  -2.036  1.00 20.00    -0.095 SA
ENDROOT
BRANCH   4   6
HETATM    6  S10 UNL     1     -33.978  16.389  -4.110  1.00 20.00    -0.115 SA
BRANCH   6   7
HETATM    7  C7  UNL     1     -35.198  15.056  -4.092  1.00 20.00     0.157 C 
BRANCH   7   8
HETATM    8  C5  UNL     1     -34.541  13.697  -4.091  1.00 20.00     0.132 C 
HETATM    9  C6  UNL     1     -33.113  13.693  -3.654  1.00 20.00     0.091 C 
HETATM   10  O8  UNL     1     -35.078  12.644  -4.410  1.00 20.00    -0.298 OA
ENDBRANCH   7   8
ENDBRANCH   6   7
ENDBRANCH   4   6
TORSDOF 3
ENDMDL
MODEL 3
REMARK VINA RESULT:      -4.0     11.249     11.847
REMARK  3 active torsions:
REMARK  status: ('A' for Active; 'I' for Inactive)
REMARK    1  A    between atoms: C4_4  and  S10_10 
REMARK    2  A    between atoms: C5_5  and  C7_7 
REMARK    3  A    between atoms: C7_7  and  S10_10 
ROOT
HETATM    1  C1  UNL     1     -34.302   6.049   6.464  1.00 20.00     0.009 A 
HETATM    2  C2  UNL     1     -33.499   6.525   5.387  1.00 20.00     0.026 A 
HETATM    3  C3  UNL     1     -35.147   5.034   6.069  1.00 20.00     0.051 A 
HETATM    4  C4  UNL     1     -33.762   5.858   4.211  1.00 20.00     0.041 A 
HETATM    5  S9  UNL     1     -34.971   4.662   4.408  1.00 20.00    -0.095 SA
ENDROOT
BRANCH   4   6
HETATM    6  S10 UNL     1     -32.979   6.150   2.654  1.00 20.00    -0.115 SA
BRANCH   6   7
HETATM    7  C7  UNL     1     -32.101   7.686   3.021  1.00 20.00     0.157 C 
BRANCH   7   8
HETATM    8  C5  UNL     1     -32.048   8.599   1.819  1.00 20.00     0.132 C 
HETATM    9  C6  UNL     1     -32.754   9.903   1.993  1.00 20.00     0.091 C 
HETATM   10  O8  UNL     1     -31.486   8.354   0.760  1.00 20.00    -0.298 OA
ENDBRANCH   7   8
ENDBRANCH   6   7
ENDBRANCH   4   6
TORSDOF 3
ENDMDL
MODEL 4
REMARK VINA RESULT:      -3.7     13.169     14.301
REMARK  3 active torsions:
REMARK  status: ('A' for Active; 'I' for Inactive)
REMARK    1  A    between atoms: C4_4  and  S10_10 
REMARK    2  A    between atoms: C5_5  and  C7_7 
REMARK    3  A    between atoms: C7_7  and  S10_10 
ROOT
HETATM    1  C1  UNL     1     -40.651   5.801  -0.491  1.00 20.00     0.009 A 
HETATM    2  C2  UNL     1     -41.180   4.613  -1.074  1.00 20.00     0.026 A 
HETATM    3  C3  UNL     1     -41.130   6.937  -1.107  1.00 20.00     0.051 A 
HETATM    4  C4  UNL     1     -42.040   4.886  -2.114  1.00 20.00     0.041 A 
HETATM    5  S9  UNL     1     -42.210   6.569  -2.383  1.00 20.00    -0.095 SA
ENDROOT
BRANCH   4   6
HETATM    6  S10 UNL     1     -42.902   3.691  -3.091  1.00 20.00    -0.115 SA
BRANCH   6   7
HETATM    7  C7  UNL     1     -41.613   2.437  -3.269  1.00 20.00     0.157 C 
BRANCH   7   8
HETATM    8  C5  UNL     1     -41.948   1.443  -4.356  1.00 20.00     0.132 C 
HETATM    9  C6  UNL     1     -41.650   0.020  -4.016  1.00 20.00     0.091 C 
HETATM   10  O8  UNL     1     -42.428   1.715  -5.449  1.00 20.00    -0.298 OA
ENDBRANCH   7   8
ENDBRANCH   6   7
ENDBRANCH   4   6
TORSDOF 3
ENDMDL
MODEL 5
REMARK VINA RESULT:      -3.7      2.049      4.677
REMARK  3 active torsions:
REMARK  status: ('A' for Active; 'I' for Inactive)
REMARK    1  A    between atoms: C4_4  and  S10_10 
REMARK    2  A    between atoms: C5_5  and  C7_7 
REMARK    3  A    between atoms: C7_7  and  S10_10 
ROOT
HETATM    1  C1  UNL     1     -35.455  14.531  -7.767  1.00 20.00     0.009 A 
HETATM    2  C2  UNL     1     -34.315  15.004  -7.056  1.00 20.00     0.026 A 
HETATM    3  C3  UNL     1     -36.619  15.130  -7.335  1.00 20.00     0.051 A 
HETATM    4  C4  UNL     1     -34.650  15.944  -6.106  1.00 20.00     0.041 A 
HETATM    5  S9  UNL     1     -36.334  16.254  -6.076  1.00 20.00    -0.095 SA
ENDROOT
BRANCH   4   6
HETATM    6  S10 UNL     1     -33.526  16.771  -5.021  1.00 20.00    -0.115 SA
BRANCH   6   7
HETATM    7  C7  UNL     1     -32.924  15.368  -4.056  1.00 20.00     0.157 C 
BRANCH   7   8
HETATM    8  C5  UNL     1     -34.046  14.667  -3.329  1.00 20.00     0.132 C 
HETATM    9  C6  UNL     1     -34.850  15.544  -2.427  1.00 20.00     0.091 C 
HETATM   10  O8  UNL     1     -34.330  13.480  -3.427  1.00 20.00    -0.298 OA
ENDBRANCH   7   8
ENDBRANCH   6   7
ENDBRANCH   4   6
TORSDOF 3
ENDMDL
MODEL 6
REMARK VINA RESULT:      -3.7      2.128      2.402
REMARK  3 active torsions:
REMARK  status: ('A' for Active; 'I' for Inactive)
REMARK    1  A    between atoms: C4_4  and  S10_10 
REMARK    2  A    between atoms: C5_5  and  C7_7 
REMARK    3  A    between atoms: C7_7  and  S10_10 
ROOT
HETATM    1  C1  UNL     1     -34.319  17.415  -1.482  1.00 20.00     0.009 A 
HETATM    2  C2  UNL     1     -34.600  16.038  -1.718  1.00 20.00     0.026 A 
HETATM    3  C3  UNL     1     -33.822  18.041  -2.605  1.00 20.00     0.051 A 
HETATM    4  C4  UNL     1     -34.306  15.664  -3.010  1.00 20.00     0.041 A 
HETATM    5  S9  UNL     1     -33.694  16.970  -3.934  1.00 20.00    -0.095 SA
ENDROOT
BRANCH   4   6
HETATM    6  S10 UNL     1     -34.514  14.049  -3.697  1.00 20.00    -0.115 SA
BRANCH   6   7
HETATM    7  C7  UNL     1     -35.727  14.405  -4.988  1.00 20.00     0.157 C 
BRANCH   7   8
HETATM    8  C5  UNL     1     -37.047  14.851  -4.406  1.00 20.00     0.132 C 
HETATM    9  C6  UNL     1     -37.463  16.234  -4.786  1.00 20.00     0.091 C 
HETATM   10  O8  UNL     1     -37.769  14.182  -3.678  1.00 20.00    -0.298 OA
ENDBRANCH   7   8
ENDBRANCH   6   7
ENDBRANCH   4   6
TORSDOF 3
ENDMDL
MODEL 7
REMARK VINA RESULT:      -3.7      2.370      3.700
REMARK  3 active torsions:
REMARK  status: ('A' for Active; 'I' for Inactive)
REMARK    1  A    between atoms: C4_4  and  S10_10 
REMARK    2  A    between atoms: C5_5  and  C7_7 
REMARK    3  A    between atoms: C7_7  and  S10_10 
ROOT
HETATM    1  C1  UNL     1     -34.481  17.078  -7.269  1.00 20.00     0.009 A 
HETATM    2  C2  UNL     1     -34.057  15.963  -6.491  1.00 20.00     0.026 A 
HETATM    3  C3  UNL     1     -34.330  18.269  -6.592  1.00 20.00     0.051 A 
HETATM    4  C4  UNL     1     -33.601  16.342  -5.248  1.00 20.00     0.041 A 
HETATM    5  S9  UNL     1     -33.682  18.038  -5.024  1.00 20.00    -0.095 SA
ENDROOT
BRANCH   4   6
HETATM    6  S10 UNL     1     -32.988  15.261  -3.991  1.00 20.00    -0.115 SA
BRANCH   6   7
HETATM    7  C7  UNL     1     -34.527  14.870  -3.129  1.00 20.00     0.157 C 
BRANCH   7   8
HETATM    8  C5  UNL     1     -35.372  13.893  -3.912  1.00 20.00     0.132 C 
HETATM    9  C6  UNL     1     -36.735  14.390  -4.265  1.00 20.00     0.091 C 
HETATM   10  O8  UNL     1     -35.029  12.772  -4.262  1.00 20.00    -0.298 OA
ENDBRANCH   7   8
ENDBRANCH   6   7
ENDBRANCH   4   6
TORSDOF 3
ENDMDL
MODEL 8
REMARK VINA RESULT:      -3.6      2.307      4.526
REMARK  3 active torsions:
REMARK  status: ('A' for Active; 'I' for Inactive)
REMARK    1  A    between atoms: C4_4  and  S10_10 
REMARK    2  A    between atoms: C5_5  and  C7_7 
REMARK    3  A    between atoms: C7_7  and  S10_10 
ROOT
HETATM    1  C1  UNL     1     -33.770  13.584  -3.790  1.00 20.00     0.009 A 
HETATM    2  C2  UNL     1     -33.254  14.912  -3.789  1.00 20.00     0.026 A 
HETATM    3  C3  UNL     1     -35.070  13.535  -4.244  1.00 20.00     0.051 A 
HETATM    4  C4  UNL     1     -34.179  15.827  -4.239  1.00 20.00     0.041 A 
HETATM    5  S9  UNL     1     -35.663  15.085  -4.664  1.00 20.00    -0.095 SA
ENDROOT
BRANCH   4   6
HETATM    6  S10 UNL     1     -33.927  17.570  -4.390  1.00 20.00    -0.115 SA
BRANCH   6   7
HETATM    7  C7  UNL     1     -33.773  18.022  -2.647  1.00 20.00     0.157 C 
BRANCH   7   8
HETATM    8  C5  UNL     1     -34.973  17.576  -1.847  1.00 20.00     0.132 C 
HETATM    9  C6  UNL     1     -34.653  16.734  -0.656  1.00 20.00     0.091 C 
HETATM   10  O8  UNL     1     -36.140  17.848  -2.097  1.00 20.00    -0.298 OA
ENDBRANCH   7   8
ENDBRANCH   6   7
ENDBRANCH   4   6
TORSDOF 3
ENDMDL
MODEL 9
REMARK VINA RESULT:      -3.6      1.332      1.508
REMARK  3 active torsions:
REMARK  status: ('A' for Active; 'I' for Inactive)
REMARK    1  A    between atoms: C4_4  and  S10_10 
REMARK    2  A    between atoms: C5_5  and  C7_7 
REMARK    3  A    between atoms: C7_7  and  S10_10 
ROOT
HETATM    1  C1  UNL     1     -34.892  17.721   0.985  1.00 20.00     0.009 A 
HETATM    2  C2  UNL     1     -34.890  16.945  -0.210  1.00 20.00     0.026 A 
HETATM    3  C3  UNL     1     -33.960  18.734   0.946  1.00 20.00     0.051 A 
HETATM    4  C4  UNL     1     -33.955  17.394  -1.116  1.00 20.00     0.041 A 
HETATM    5  S9  UNL     1     -33.086  18.746  -0.526  1.00 20.00    -0.095 SA
ENDROOT
BRANCH   4   6
HETATM    6  S10 UNL     1     -33.642  16.705  -2.713  1.00 20.00    -0.115 SA
BRANCH   6   7
HETATM    7  C7  UNL     1     -34.867  15.377  -2.734  1.00 20.00     0.157 C 
BRANCH   7   8
HETATM    8  C5  UNL     1     -34.493  14.287  -3.709  1.00 20.00     0.132 C 
HETATM    9  C6  UNL     1     -34.523  14.696  -5.145  1.00 20.00     0.091 C 
HETATM   10  O8  UNL     1     -34.179  13.141  -3.414  1.00 20.00    -0.298 OA
ENDBRANCH   7   8
ENDBRANCH   6   7
ENDBRANCH   4   6
TORSDOF 3
ENDMDL
