MODEL 1
REMARK VINA RESULT:      -5.2      0.000      0.000
REMARK  0 active torsions:
REMARK  status: ('A' for Active; 'I' for Inactive)
ROOT
HETATM    1  C1  UNL     1     -35.070   4.511   5.933  1.00 20.00     0.000 A 
HETATM    2  C2  UNL     1     -35.267   4.363   4.560  1.00 20.00     0.000 A 
HETATM    3  C3  UNL     1     -34.354   5.605   6.421  1.00 20.00     0.000 A 
HETATM    4  C4  UNL     1     -34.748   5.308   3.675  1.00 20.00     0.000 A 
HETATM    5  C5  UNL     1     -33.835   6.550   5.535  1.00 20.00     0.000 A 
HETATM    6  C6  UNL     1     -34.032   6.401   4.162  1.00 20.00     0.000 A 
ENDROOT
TORSDOF 0
ENDMDL
MODEL 2
REMARK VINA RESULT:      -5.2      0.020      1.393
REMARK  0 active torsions:
REMARK  status: ('A' for Active; 'I' for Inactive)
ROOT
HETATM    1  C1  UNL     1     -34.350   5.592   6.432  1.00 20.00     0.000 A 
HETATM    2  C2  UNL     1     -35.065   4.499   5.943  1.00 20.00     0.000 A 
HETATM    3  C3  UNL     1     -33.827   6.536   5.549  1.00 20.00     0.000 A 
HETATM    4  C4  UNL     1     -35.257   4.350   4.569  1.00 20.00     0.000 A 
HETATM    5  C5  UNL     1     -34.020   6.387   4.175  1.00 20.00     0.000 A 
HETATM    6  C6  UNL     1     -34.735   5.294   3.685  1.00 20.00     0.000 A 
ENDROOT
TORSDOF 0
ENDMDL
MODEL 3
REMARK VINA RESULT:      -5.2      0.017      1.973
REMARK  0 active torsions:
REMARK  status: ('A' for Active; 'I' for Inactive)
ROOT
HETATM    1  C1  UNL     1     -34.340   5.595   6.428  1.00 20.00     0.000 A 
HETATM    2  C2  UNL     1     -33.823   6.539   5.540  1.00 20.00     0.000 A 
HETATM    3  C3  UNL     1     -35.058   4.502   5.944  1.00 20.00     0.000 A 
HETATM    4  C4  UNL     1     -34.024   6.389   4.168  1.00 20.00     0.000 A 
HETATM    5  C5  UNL     1     -35.259   4.352   4.571  1.00 20.00     0.000 A 
HETATM    6  C6  UNL     1     -34.741   5.295   3.683  1.00 20.00     0.000 A 
ENDROOT
TORSDOF 0
ENDMDL
MODEL 4
REMARK VINA RESULT:      -5.2      0.061      1.974
REMARK  0 active torsions:
REMARK  status: ('A' for Active; 'I' for Inactive)
ROOT
HETATM    1  C1  UNL     1     -34.046   6.368   4.203  1.00 20.00     0.000 A 
HETATM    2  C2  UNL     1     -34.744   5.269   3.702  1.00 20.00     0.000 A 
HETATM    3  C3  UNL     1     -33.855   6.506   5.578  1.00 20.00     0.000 A 
HETATM    4  C4  UNL     1     -35.251   4.308   4.576  1.00 20.00     0.000 A 
HETATM    5  C5  UNL     1     -34.363   5.544   6.452  1.00 20.00     0.000 A 
HETATM    6  C6  UNL     1     -35.061   4.445   5.951  1.00 20.00     0.000 A 
ENDROOT
TORSDOF 0
ENDMDL
MODEL 5
REMARK VINA RESULT:      -5.2      0.079      1.973
REMARK  0 active torsions:
REMARK  status: ('A' for Active; 'I' for Inactive)
ROOT
HETATM    1  C1  UNL     1     -35.267   4.379   4.492  1.00 20.00     0.000 A 
HETATM    2  C2  UNL     1     -35.096   4.456   5.874  1.00 20.00     0.000 A 
HETATM    3  C3  UNL     1     -34.718   5.360   3.665  1.00 20.00     0.000 A 
HETATM    4  C4  UNL     1     -34.377   5.515   6.430  1.00 20.00     0.000 A 
HETATM    5  C5  UNL     1     -33.999   6.418   4.221  1.00 20.00     0.000 A 
HETATM    6  C6  UNL     1     -33.828   6.495   5.603  1.00 20.00     0.000 A 
ENDROOT
TORSDOF 0
ENDMDL
MODEL 6
REMARK VINA RESULT:      -5.1      0.252      2.786
REMARK  0 active torsions:
REMARK  status: ('A' for Active; 'I' for Inactive)
ROOT
HETATM    1  C1  UNL     1     -33.676   6.403   4.289  1.00 20.00     0.000 A 
HETATM    2  C2  UNL     1     -33.674   6.524   5.678  1.00 20.00     0.000 A 
HETATM    3  C3  UNL     1     -34.423   5.396   3.677  1.00 20.00     0.000 A 
HETATM    4  C4  UNL     1     -34.417   5.638   6.457  1.00 20.00     0.000 A 
HETATM    5  C5  UNL     1     -35.167   4.509   4.457  1.00 20.00     0.000 A 
HETATM    6  C6  UNL     1     -35.165   4.631   5.847  1.00 20.00     0.000 A 
ENDROOT
TORSDOF 0
ENDMDL
MODEL 7
REMARK VINA RESULT:      -3.5      8.654      9.770
REMARK  0 active torsions:
REMARK  status: ('A' for Active; 'I' for Inactive)
ROOT
HETATM    1  C1  UNL     1     -41.111   7.073  -0.885  1.00 20.00     0.000 A 
HETATM    2  C2  UNL     1     -41.963   7.128  -1.988  1.00 20.00     0.000 A 
HETATM    3  C3  UNL     1     -40.643   5.841  -0.425  1.00 20.00     0.000 A 
HETATM    4  C4  UNL     1     -42.348   5.952  -2.631  1.00 20.00     0.000 A 
HETATM    5  C5  UNL     1     -41.028   4.665  -1.069  1.00 20.00     0.000 A 
HETATM    6  C6  UNL     1     -41.880   4.720  -2.172  1.00 20.00     0.000 A 
ENDROOT
TORSDOF 0
ENDMDL
MODEL 8
REMARK VINA RESULT:      -3.5      8.671      9.707
REMARK  0 active torsions:
REMARK  status: ('A' for Active; 'I' for Inactive)
ROOT
HETATM    1  C1  UNL     1     -40.643   5.822  -0.451  1.00 20.00     0.000 A 
HETATM    2  C2  UNL     1     -41.036   4.652  -1.101  1.00 20.00     0.000 A 
HETATM    3  C3  UNL     1     -41.111   7.059  -0.895  1.00 20.00     0.000 A 
HETATM    4  C4  UNL     1     -41.898   4.719  -2.196  1.00 20.00     0.000 A 
HETATM    5  C5  UNL     1     -41.974   7.125  -1.990  1.00 20.00     0.000 A 
HETATM    6  C6  UNL     1     -42.367   5.956  -2.640  1.00 20.00     0.000 A 
ENDROOT
TORSDOF 0
ENDMDL
MODEL 9
REMARK VINA RESULT:      -3.4      8.683      9.895
REMARK  0 active torsions:
REMARK  status: ('A' for Active; 'I' for Inactive)
ROOT
HETATM    1  C1  UNL     1     -42.354   6.047  -2.657  1.00 20.00     0.000 A 
HETATM    2  C2  UNL     1     -41.947   7.190  -1.969  1.00 20.00     0.000 A 
HETATM    3  C3  UNL     1     -41.917   4.790  -2.242  1.00 20.00     0.000 A 
HETATM    4  C4  UNL     1     -41.102   7.075  -0.865  1.00 20.00     0.000 A 
HETATM    5  C5  UNL     1     -41.072   4.675  -1.137  1.00 20.00     0.000 A 
HETATM    6  C6  UNL     1     -40.665   5.818  -0.449  1.00 20.00     0.000 A 
ENDROOT
TORSDOF 0
ENDMDL
