MODEL 1
REMARK VINA RESULT:      -2.6      0.000      0.000
REMARK  0 active torsions:
REMARK  status: ('A' for Active; 'I' for Inactive)
ROOT
HETATM    1  C1  UNL     1     -34.174   6.203   6.430  1.00 20.00     0.016 C 
HETATM    2  C2  UNL     1     -34.883   5.049   5.761  1.00 20.00     0.081 C 
HETATM    3 BR3  UNL     1     -34.947   5.337   3.838  1.00 20.00    -0.097 Br
ENDROOT
TORSDOF 0
ENDMDL
MODEL 2
REMARK VINA RESULT:      -2.6      2.237      2.254
REMARK  0 active torsions:
REMARK  status: ('A' for Active; 'I' for Inactive)
ROOT
HETATM    1  C1  UNL     1     -33.776   6.005   3.719  1.00 20.00     0.016 C 
HETATM    2  C2  UNL     1     -35.039   5.247   4.054  1.00 20.00     0.081 C 
HETATM    3 BR3  UNL     1     -34.890   4.463   5.827  1.00 20.00    -0.097 Br
ENDROOT
TORSDOF 0
ENDMDL
MODEL 3
REMARK VINA RESULT:      -2.6      1.393      1.542
REMARK  0 active torsions:
REMARK  status: ('A' for Active; 'I' for Inactive)
ROOT
HETATM    1  C1  UNL     1     -34.945   4.535   5.970  1.00 20.00     0.016 C 
HETATM    2  C2  UNL     1     -35.207   4.931   4.536  1.00 20.00     0.081 C 
HETATM    3 BR3  UNL     1     -33.778   6.083   3.895  1.00 20.00    -0.097 Br
ENDROOT
TORSDOF 0
ENDMDL
MODEL 4
REMARK VINA RESULT:      -2.5      2.175      2.403
REMARK  0 active torsions:
REMARK  status: ('A' for Active; 'I' for Inactive)
ROOT
HETATM    1  C1  UNL     1     -34.658   5.484   3.448  1.00 20.00     0.016 C 
HETATM    2  C2  UNL     1     -35.195   4.711   4.629  1.00 20.00     0.081 C 
HETATM    3 BR3  UNL     1     -34.507   5.468   6.283  1.00 20.00    -0.097 Br
ENDROOT
TORSDOF 0
ENDMDL
MODEL 5
REMARK VINA RESULT:      -2.4      2.291      2.584
REMARK  0 active torsions:
REMARK  status: ('A' for Active; 'I' for Inactive)
ROOT
HETATM    1  C1  UNL     1     -34.994   5.387   3.793  1.00 20.00     0.016 C 
HETATM    2  C2  UNL     1     -33.873   6.115   4.497  1.00 20.00     0.081 C 
HETATM    3 BR3  UNL     1     -32.445   6.507   3.237  1.00 20.00    -0.097 Br
ENDROOT
TORSDOF 0
ENDMDL
MODEL 6
REMARK VINA RESULT:      -2.4      2.302      2.363
REMARK  0 active torsions:
REMARK  status: ('A' for Active; 'I' for Inactive)
ROOT
HETATM    1  C1  UNL     1     -32.957   6.184   3.256  1.00 20.00     0.016 C 
HETATM    2  C2  UNL     1     -33.766   6.312   4.525  1.00 20.00     0.081 C 
HETATM    3 BR3  UNL     1     -35.084   4.884   4.615  1.00 20.00    -0.097 Br
ENDROOT
TORSDOF 0
ENDMDL
MODEL 7
REMARK VINA RESULT:      -2.2      3.430      3.464
REMARK  0 active torsions:
REMARK  status: ('A' for Active; 'I' for Inactive)
ROOT
HETATM    1  C1  UNL     1     -32.217   7.601   2.594  1.00 20.00     0.016 C 
HETATM    2  C2  UNL     1     -32.322   6.237   3.233  1.00 20.00     0.081 C 
HETATM    3 BR3  UNL     1     -34.104   5.987   3.970  1.00 20.00    -0.097 Br
ENDROOT
TORSDOF 0
ENDMDL
MODEL 8
REMARK VINA RESULT:      -2.0      3.558      3.641
REMARK  0 active torsions:
REMARK  status: ('A' for Active; 'I' for Inactive)
ROOT
HETATM    1  C1  UNL     1     -33.723   6.180   3.723  1.00 20.00     0.016 C 
HETATM    2  C2  UNL     1     -32.295   6.354   3.264  1.00 20.00     0.081 C 
HETATM    3 BR3  UNL     1     -32.122   8.002   2.247  1.00 20.00    -0.097 Br
ENDROOT
TORSDOF 0
ENDMDL
MODEL 9
REMARK VINA RESULT:      -1.9      5.398      5.499
REMARK  0 active torsions:
REMARK  status: ('A' for Active; 'I' for Inactive)
ROOT
HETATM    1  C1  UNL     1     -32.504   9.771   1.568  1.00 20.00     0.016 C 
HETATM    2  C2  UNL     1     -31.833   8.429   1.389  1.00 20.00     0.081 C 
HETATM    3 BR3  UNL     1     -32.284   7.260   2.876  1.00 20.00    -0.097 Br
ENDROOT
TORSDOF 0
ENDMDL
