MODEL 1
REMARK VINA RESULT:      -5.3      0.000      0.000
REMARK  0 active torsions:
REMARK  status: ('A' for Active; 'I' for Inactive)
ROOT
HETATM    1  C1  UNL     1     -34.768   5.266   4.459  1.00 20.00     0.199 A 
HETATM    2  C2  UNL     1     -34.394   5.858   5.666  1.00 20.00     0.198 A 
HETATM    3  C3  UNL     1     -34.059   5.552   3.293  1.00 20.00     0.198 A 
HETATM    4  C4  UNL     1     -33.310   6.736   5.704  1.00 20.00     0.182 A 
HETATM    5  C5  UNL     1     -32.976   6.430   3.332  1.00 20.00     0.182 A 
HETATM    6  C6  UNL     1     -32.603   7.023   4.537  1.00 20.00     0.117 A 
HETATM    7  F7  UNL     1     -35.808   4.424   4.422  1.00 20.00    -0.199 F 
HETATM    8  F8  UNL     1     -35.073   5.584   6.786  1.00 20.00    -0.199 F 
HETATM    9  F9  UNL     1     -34.420   4.983   2.135  1.00 20.00    -0.199 F 
HETATM   10  F10 UNL     1     -32.963   7.298   6.872  1.00 20.00    -0.201 F 
HETATM   11  F11 UNL     1     -32.306   6.696   2.201  1.00 20.00    -0.201 F 
HETATM   12 CL12 UNL     1     -31.265   8.106   4.586  1.00 20.00    -0.077 Cl
ENDROOT
TORSDOF 0
ENDMDL
MODEL 2
REMARK VINA RESULT:      -5.3      0.002      3.074
REMARK  0 active torsions:
REMARK  status: ('A' for Active; 'I' for Inactive)
ROOT
HETATM    1  C1  UNL     1     -34.769   5.265   4.460  1.00 20.00     0.199 A 
HETATM    2  C2  UNL     1     -34.061   5.550   3.293  1.00 20.00     0.198 A 
HETATM    3  C3  UNL     1     -34.394   5.858   5.665  1.00 20.00     0.198 A 
HETATM    4  C4  UNL     1     -32.977   6.428   3.332  1.00 20.00     0.182 A 
HETATM    5  C5  UNL     1     -33.311   6.735   5.705  1.00 20.00     0.182 A 
HETATM    6  C6  UNL     1     -32.602   7.020   4.538  1.00 20.00     0.117 A 
HETATM    7  F7  UNL     1     -35.808   4.422   4.422  1.00 20.00    -0.199 F 
HETATM    8  F8  UNL     1     -34.420   4.982   2.135  1.00 20.00    -0.199 F 
HETATM    9  F9  UNL     1     -35.075   5.582   6.786  1.00 20.00    -0.199 F 
HETATM   10  F10 UNL     1     -32.306   6.692   2.201  1.00 20.00    -0.201 F 
HETATM   11  F11 UNL     1     -32.962   7.296   6.872  1.00 20.00    -0.201 F 
HETATM   12 CL12 UNL     1     -31.265   8.105   4.584  1.00 20.00    -0.077 Cl
ENDROOT
TORSDOF 0
ENDMDL
MODEL 3
REMARK VINA RESULT:      -5.3      1.103      3.103
REMARK  0 active torsions:
REMARK  status: ('A' for Active; 'I' for Inactive)
ROOT
HETATM    1  C1  UNL     1     -34.429   5.788   5.777  1.00 20.00     0.199 A 
HETATM    2  C2  UNL     1     -34.729   5.248   4.526  1.00 20.00     0.198 A 
HETATM    3  C3  UNL     1     -33.409   6.730   5.903  1.00 20.00     0.198 A 
HETATM    4  C4  UNL     1     -34.006   5.649   3.403  1.00 20.00     0.182 A 
HETATM    5  C5  UNL     1     -32.686   7.131   4.780  1.00 20.00     0.182 A 
HETATM    6  C6  UNL     1     -32.984   6.590   3.529  1.00 20.00     0.117 A 
HETATM    7  F7  UNL     1     -35.123   5.403   6.855  1.00 20.00    -0.199 F 
HETATM    8  F8  UNL     1     -35.709   4.344   4.404  1.00 20.00    -0.199 F 
HETATM    9  F9  UNL     1     -33.122   7.249   7.105  1.00 20.00    -0.199 F 
HETATM   10  F10 UNL     1     -34.305   5.120   2.208  1.00 20.00    -0.201 F 
HETATM   11  F11 UNL     1     -31.706   8.037   4.918  1.00 20.00    -0.201 F 
HETATM   12 CL12 UNL     1     -32.093   7.085   2.141  1.00 20.00    -0.077 Cl
ENDROOT
TORSDOF 0
ENDMDL
MODEL 4
REMARK VINA RESULT:      -5.3      1.103      2.077
REMARK  0 active torsions:
REMARK  status: ('A' for Active; 'I' for Inactive)
ROOT
HETATM    1  C1  UNL     1     -34.430   5.788   5.776  1.00 20.00     0.199 A 
HETATM    2  C2  UNL     1     -33.409   6.729   5.904  1.00 20.00     0.198 A 
HETATM    3  C3  UNL     1     -34.728   5.248   4.526  1.00 20.00     0.198 A 
HETATM    4  C4  UNL     1     -32.686   7.130   4.780  1.00 20.00     0.182 A 
HETATM    5  C5  UNL     1     -34.006   5.649   3.402  1.00 20.00     0.182 A 
HETATM    6  C6  UNL     1     -32.986   6.591   3.529  1.00 20.00     0.117 A 
HETATM    7  F7  UNL     1     -35.124   5.403   6.855  1.00 20.00    -0.199 F 
HETATM    8  F8  UNL     1     -33.121   7.248   7.104  1.00 20.00    -0.199 F 
HETATM    9  F9  UNL     1     -35.710   4.344   4.404  1.00 20.00    -0.199 F 
HETATM   10  F10 UNL     1     -31.708   8.036   4.919  1.00 20.00    -0.201 F 
HETATM   11  F11 UNL     1     -34.306   5.121   2.206  1.00 20.00    -0.201 F 
HETATM   12 CL12 UNL     1     -32.092   7.086   2.142  1.00 20.00    -0.077 Cl
ENDROOT
TORSDOF 0
ENDMDL
MODEL 5
REMARK VINA RESULT:      -5.2      1.217      3.106
REMARK  0 active torsions:
REMARK  status: ('A' for Active; 'I' for Inactive)
ROOT
HETATM    1  C1  UNL     1     -33.959   5.485   3.229  1.00 20.00     0.199 A 
HETATM    2  C2  UNL     1     -32.922   6.414   3.313  1.00 20.00     0.198 A 
HETATM    3  C3  UNL     1     -34.724   5.190   4.356  1.00 20.00     0.198 A 
HETATM    4  C4  UNL     1     -32.651   7.047   4.526  1.00 20.00     0.182 A 
HETATM    5  C5  UNL     1     -34.453   5.823   5.569  1.00 20.00     0.182 A 
HETATM    6  C6  UNL     1     -33.416   6.751   5.654  1.00 20.00     0.117 A 
HETATM    7  F7  UNL     1     -34.218   4.876   2.064  1.00 20.00    -0.199 F 
HETATM    8  F8  UNL     1     -32.187   6.698   2.231  1.00 20.00    -0.199 F 
HETATM    9  F9  UNL     1     -35.720   4.296   4.274  1.00 20.00    -0.199 F 
HETATM   10  F10 UNL     1     -31.651   7.938   4.591  1.00 20.00    -0.201 F 
HETATM   11  F11 UNL     1     -35.198   5.528   6.645  1.00 20.00    -0.201 F 
HETATM   12 CL12 UNL     1     -33.082   7.535   7.150  1.00 20.00    -0.077 Cl
ENDROOT
TORSDOF 0
ENDMDL
MODEL 6
REMARK VINA RESULT:      -5.2      1.217      2.296
REMARK  0 active torsions:
REMARK  status: ('A' for Active; 'I' for Inactive)
ROOT
HETATM    1  C1  UNL     1     -33.957   5.486   3.228  1.00 20.00     0.199 A 
HETATM    2  C2  UNL     1     -34.723   5.190   4.356  1.00 20.00     0.198 A 
HETATM    3  C3  UNL     1     -32.920   6.414   3.314  1.00 20.00     0.198 A 
HETATM    4  C4  UNL     1     -34.452   5.824   5.569  1.00 20.00     0.182 A 
HETATM    5  C5  UNL     1     -32.649   7.048   4.527  1.00 20.00     0.182 A 
HETATM    6  C6  UNL     1     -33.416   6.753   5.654  1.00 20.00     0.117 A 
HETATM    7  F7  UNL     1     -34.218   4.878   2.064  1.00 20.00    -0.199 F 
HETATM    8  F8  UNL     1     -35.719   4.298   4.275  1.00 20.00    -0.199 F 
HETATM    9  F9  UNL     1     -32.186   6.698   2.230  1.00 20.00    -0.199 F 
HETATM   10  F10 UNL     1     -35.197   5.529   6.644  1.00 20.00    -0.201 F 
HETATM   11  F11 UNL     1     -31.650   7.940   4.592  1.00 20.00    -0.201 F 
HETATM   12 CL12 UNL     1     -33.081   7.534   7.152  1.00 20.00    -0.077 Cl
ENDROOT
TORSDOF 0
ENDMDL
MODEL 7
REMARK VINA RESULT:      -5.0     12.216     13.671
REMARK  0 active torsions:
REMARK  status: ('A' for Active; 'I' for Inactive)
ROOT
HETATM    1  C1  UNL     1     -33.630  15.683  -3.747  1.00 20.00     0.199 A 
HETATM    2  C2  UNL     1     -34.086  14.395  -4.025  1.00 20.00     0.198 A 
HETATM    3  C3  UNL     1     -33.608  16.647  -4.755  1.00 20.00     0.198 A 
HETATM    4  C4  UNL     1     -34.519  14.070  -5.311  1.00 20.00     0.182 A 
HETATM    5  C5  UNL     1     -34.041  16.323  -6.041  1.00 20.00     0.182 A 
HETATM    6  C6  UNL     1     -34.496  15.034  -6.319  1.00 20.00     0.117 A 
HETATM    7  F7  UNL     1     -33.214  15.994  -2.513  1.00 20.00    -0.199 F 
HETATM    8  F8  UNL     1     -34.107  13.468  -3.058  1.00 20.00    -0.199 F 
HETATM    9  F9  UNL     1     -33.170  17.885  -4.487  1.00 20.00    -0.199 F 
HETATM   10  F10 UNL     1     -34.953  12.827  -5.561  1.00 20.00    -0.201 F 
HETATM   11  F11 UNL     1     -34.013  17.260  -6.999  1.00 20.00    -0.201 F 
HETATM   12 CL12 UNL     1     -35.032  14.633  -7.905  1.00 20.00    -0.077 Cl
ENDROOT
TORSDOF 0
ENDMDL
MODEL 8
REMARK VINA RESULT:      -5.0     12.217     13.743
REMARK  0 active torsions:
REMARK  status: ('A' for Active; 'I' for Inactive)
ROOT
HETATM    1  C1  UNL     1     -33.630  15.683  -3.748  1.00 20.00     0.199 A 
HETATM    2  C2  UNL     1     -33.608  16.648  -4.755  1.00 20.00     0.198 A 
HETATM    3  C3  UNL     1     -34.085  14.395  -4.027  1.00 20.00     0.198 A 
HETATM    4  C4  UNL     1     -34.042  16.324  -6.041  1.00 20.00     0.182 A 
HETATM    5  C5  UNL     1     -34.518  14.070  -5.313  1.00 20.00     0.182 A 
HETATM    6  C6  UNL     1     -34.497  15.035  -6.320  1.00 20.00     0.117 A 
HETATM    7  F7  UNL     1     -33.214  15.995  -2.514  1.00 20.00    -0.199 F 
HETATM    8  F8  UNL     1     -33.171  17.885  -4.489  1.00 20.00    -0.199 F 
HETATM    9  F9  UNL     1     -34.106  13.468  -3.059  1.00 20.00    -0.199 F 
HETATM   10  F10 UNL     1     -34.014  17.263  -6.998  1.00 20.00    -0.201 F 
HETATM   11  F11 UNL     1     -34.954  12.827  -5.565  1.00 20.00    -0.201 F 
HETATM   12 CL12 UNL     1     -35.031  14.636  -7.907  1.00 20.00    -0.077 Cl
ENDROOT
TORSDOF 0
ENDMDL
MODEL 9
REMARK VINA RESULT:      -4.9      1.755      3.164
REMARK  0 active torsions:
REMARK  status: ('A' for Active; 'I' for Inactive)
ROOT
HETATM    1  C1  UNL     1     -32.861   6.519   3.188  1.00 20.00     0.199 A 
HETATM    2  C2  UNL     1     -32.544   7.056   4.436  1.00 20.00     0.198 A 
HETATM    3  C3  UNL     1     -33.898   5.594   3.071  1.00 20.00     0.198 A 
HETATM    4  C4  UNL     1     -33.264   6.667   5.566  1.00 20.00     0.182 A 
HETATM    5  C5  UNL     1     -34.618   5.204   4.200  1.00 20.00     0.182 A 
HETATM    6  C6  UNL     1     -34.300   5.741   5.448  1.00 20.00     0.117 A 
HETATM    7  F7  UNL     1     -32.169   6.892   2.104  1.00 20.00    -0.199 F 
HETATM    8  F8  UNL     1     -31.548   7.944   4.550  1.00 20.00    -0.199 F 
HETATM    9  F9  UNL     1     -34.201   5.078   1.872  1.00 20.00    -0.199 F 
HETATM   10  F10 UNL     1     -32.947   7.192   6.758  1.00 20.00    -0.201 F 
HETATM   11  F11 UNL     1     -35.611   4.313   4.071  1.00 20.00    -0.201 F 
HETATM   12 CL12 UNL     1     -35.189   5.262   6.843  1.00 20.00    -0.077 Cl
ENDROOT
TORSDOF 0
ENDMDL
