MODEL 1
REMARK VINA RESULT:      -4.1      0.000      0.000
REMARK  0 active torsions:
REMARK  status: ('A' for Active; 'I' for Inactive)
ROOT
HETATM    1  C1  UNL     1     -33.771   6.808   6.593  1.00 20.00     0.002 A 
HETATM    2  C2  UNL     1     -34.519   5.644   6.421  1.00 20.00     0.007 A 
HETATM    3  C3  UNL     1     -33.071   7.354   5.517  1.00 20.00     0.018 A 
HETATM    4  C4  UNL     1     -33.869   5.570   4.095  1.00 20.00     0.025 A 
HETATM    5  C5  UNL     1     -34.569   5.025   5.172  1.00 20.00    -0.061 A 
HETATM    6  C6  UNL     1     -33.120   6.735   4.268  1.00 20.00     0.006 A 
HETATM    7  C7  UNL     1     -35.368   3.780   4.989  1.00 20.00     0.048 C 
HETATM    8  I8  UNL     1     -32.079   7.548   2.664  1.00 20.00    -0.045 I 
ENDROOT
TORSDOF 0
ENDMDL
MODEL 2
REMARK VINA RESULT:      -4.0     10.214     11.101
REMARK  0 active torsions:
REMARK  status: ('A' for Active; 'I' for Inactive)
ROOT
HETATM    1  C1  UNL     1     -40.706   5.767  -0.663  1.00 20.00     0.002 A 
HETATM    2  C2  UNL     1     -41.259   6.923  -1.212  1.00 20.00     0.007 A 
HETATM    3  C3  UNL     1     -41.037   4.518  -1.188  1.00 20.00     0.018 A 
HETATM    4  C4  UNL     1     -42.474   5.582  -2.812  1.00 20.00     0.025 A 
HETATM    5  C5  UNL     1     -42.143   6.831  -2.287  1.00 20.00    -0.061 A 
HETATM    6  C6  UNL     1     -41.921   4.425  -2.263  1.00 20.00     0.006 A 
HETATM    7  C7  UNL     1     -42.735   8.068  -2.873  1.00 20.00     0.048 C 
HETATM    8  I8  UNL     1     -42.412   2.565  -3.046  1.00 20.00    -0.045 I 
ENDROOT
TORSDOF 0
ENDMDL
MODEL 3
REMARK VINA RESULT:      -3.9     12.249     12.819
REMARK  0 active torsions:
REMARK  status: ('A' for Active; 'I' for Inactive)
ROOT
HETATM    1  C1  UNL     1     -34.465  13.682  -4.072  1.00 20.00     0.002 A 
HETATM    2  C2  UNL     1     -33.819  14.612  -3.258  1.00 20.00     0.007 A 
HETATM    3  C3  UNL     1     -35.833  13.799  -4.315  1.00 20.00     0.018 A 
HETATM    4  C4  UNL     1     -35.910  15.776  -2.928  1.00 20.00     0.025 A 
HETATM    5  C5  UNL     1     -34.541  15.659  -2.686  1.00 20.00    -0.061 A 
HETATM    6  C6  UNL     1     -36.556  14.846  -3.743  1.00 20.00     0.006 A 
HETATM    7  C7  UNL     1     -33.850  16.652  -1.814  1.00 20.00     0.048 C 
HETATM    8  I8  UNL     1     -38.594  15.022  -4.107  1.00 20.00    -0.045 I 
ENDROOT
TORSDOF 0
ENDMDL
MODEL 4
REMARK VINA RESULT:      -3.9      9.892     10.663
REMARK  0 active torsions:
REMARK  status: ('A' for Active; 'I' for Inactive)
ROOT
HETATM    1  C1  UNL     1     -40.793   6.297  -0.455  1.00 20.00     0.002 A 
HETATM    2  C2  UNL     1     -40.793   4.962  -0.856  1.00 20.00     0.007 A 
HETATM    3  C3  UNL     1     -41.545   7.237  -1.160  1.00 20.00     0.018 A 
HETATM    4  C4  UNL     1     -42.295   5.506  -2.669  1.00 20.00     0.025 A 
HETATM    5  C5  UNL     1     -41.543   4.565  -1.964  1.00 20.00    -0.061 A 
HETATM    6  C6  UNL     1     -42.296   6.842  -2.266  1.00 20.00     0.006 A 
HETATM    7  C7  UNL     1     -41.541   3.138  -2.393  1.00 20.00     0.048 C 
HETATM    8  I8  UNL     1     -43.417   8.241  -3.315  1.00 20.00    -0.045 I 
ENDROOT
TORSDOF 0
ENDMDL
MODEL 5
REMARK VINA RESULT:      -3.9      0.973      2.335
REMARK  0 active torsions:
REMARK  status: ('A' for Active; 'I' for Inactive)
ROOT
HETATM    1  C1  UNL     1     -35.033   4.852   3.281  1.00 20.00     0.002 A 
HETATM    2  C2  UNL     1     -35.188   4.861   4.667  1.00 20.00     0.007 A 
HETATM    3  C3  UNL     1     -34.090   5.686   2.680  1.00 20.00     0.018 A 
HETATM    4  C4  UNL     1     -33.459   6.538   4.851  1.00 20.00     0.025 A 
HETATM    5  C5  UNL     1     -34.401   5.704   5.452  1.00 20.00    -0.061 A 
HETATM    6  C6  UNL     1     -33.303   6.529   3.464  1.00 20.00     0.006 A 
HETATM    7  C7  UNL     1     -34.569   5.714   6.934  1.00 20.00     0.048 C 
HETATM    8  I8  UNL     1     -31.898   7.769   2.568  1.00 20.00    -0.045 I 
ENDROOT
TORSDOF 0
ENDMDL
MODEL 6
REMARK VINA RESULT:      -3.9     12.127     13.249
REMARK  0 active torsions:
REMARK  status: ('A' for Active; 'I' for Inactive)
ROOT
HETATM    1  C1  UNL     1     -33.665  17.756  -3.742  1.00 20.00     0.002 A 
HETATM    2  C2  UNL     1     -33.933  17.928  -2.384  1.00 20.00     0.007 A 
HETATM    3  C3  UNL     1     -33.900  16.521  -4.347  1.00 20.00     0.018 A 
HETATM    4  C4  UNL     1     -34.671  15.633  -2.237  1.00 20.00     0.025 A 
HETATM    5  C5  UNL     1     -34.436  16.867  -1.631  1.00 20.00    -0.061 A 
HETATM    6  C6  UNL     1     -34.403  15.460  -3.596  1.00 20.00     0.006 A 
HETATM    7  C7  UNL     1     -34.721  17.053  -0.180  1.00 20.00     0.048 C 
HETATM    8  I8  UNL     1     -34.756  13.622  -4.498  1.00 20.00    -0.045 I 
ENDROOT
TORSDOF 0
ENDMDL
MODEL 7
REMARK VINA RESULT:      -3.9     12.233     13.316
REMARK  0 active torsions:
REMARK  status: ('A' for Active; 'I' for Inactive)
ROOT
HETATM    1  C1  UNL     1     -33.516  16.832  -4.988  1.00 20.00     0.002 A 
HETATM    2  C2  UNL     1     -33.823  15.509  -5.305  1.00 20.00     0.007 A 
HETATM    3  C3  UNL     1     -33.727  17.306  -3.693  1.00 20.00     0.018 A 
HETATM    4  C4  UNL     1     -34.552  15.133  -3.033  1.00 20.00     0.025 A 
HETATM    5  C5  UNL     1     -34.341  14.659  -4.328  1.00 20.00    -0.061 A 
HETATM    6  C6  UNL     1     -34.245  16.456  -2.715  1.00 20.00     0.006 A 
HETATM    7  C7  UNL     1     -34.670  13.246  -4.669  1.00 20.00     0.048 C 
HETATM    8  I8  UNL     1     -34.557  17.160  -0.786  1.00 20.00    -0.045 I 
ENDROOT
TORSDOF 0
ENDMDL
MODEL 8
REMARK VINA RESULT:      -3.8     12.411     13.699
REMARK  0 active torsions:
REMARK  status: ('A' for Active; 'I' for Inactive)
ROOT
HETATM    1  C1  UNL     1     -34.724  13.444  -4.644  1.00 20.00     0.002 A 
HETATM    2  C2  UNL     1     -34.669  14.101  -5.873  1.00 20.00     0.007 A 
HETATM    3  C3  UNL     1     -34.683  14.178  -3.459  1.00 20.00     0.018 A 
HETATM    4  C4  UNL     1     -34.533  16.226  -4.732  1.00 20.00     0.025 A 
HETATM    5  C5  UNL     1     -34.574  15.492  -5.917  1.00 20.00    -0.061 A 
HETATM    6  C6  UNL     1     -34.587  15.569  -3.502  1.00 20.00     0.006 A 
HETATM    7  C7  UNL     1     -34.514  16.193  -7.232  1.00 20.00     0.048 C 
HETATM    8  I8  UNL     1     -34.529  16.662  -1.737  1.00 20.00    -0.045 I 
ENDROOT
TORSDOF 0
ENDMDL
MODEL 9
REMARK VINA RESULT:      -3.8     12.399     12.969
REMARK  0 active torsions:
REMARK  status: ('A' for Active; 'I' for Inactive)
ROOT
HETATM    1  C1  UNL     1     -32.736  18.860   0.441  1.00 20.00     0.002 A 
HETATM    2  C2  UNL     1     -33.126  18.011  -0.595  1.00 20.00     0.007 A 
HETATM    3  C3  UNL     1     -33.515  18.956   1.594  1.00 20.00     0.018 A 
HETATM    4  C4  UNL     1     -35.073  17.354   0.676  1.00 20.00     0.025 A 
HETATM    5  C5  UNL     1     -34.294  17.258  -0.478  1.00 20.00    -0.061 A 
HETATM    6  C6  UNL     1     -34.683  18.204   1.712  1.00 20.00     0.006 A 
HETATM    7  C7  UNL     1     -34.711  16.351  -1.586  1.00 20.00     0.048 C 
HETATM    8  I8  UNL     1     -35.842  18.345   3.430  1.00 20.00    -0.045 I 
ENDROOT
TORSDOF 0
ENDMDL
