MODEL 1
REMARK VINA RESULT:      -5.9      0.000      0.000
REMARK  2 active torsions:
REMARK  status: ('A' for Active; 'I' for Inactive)
REMARK    1  A    between atoms: C6_6  and  C9_9 
REMARK    2  A    between atoms: C9_9  and  C10_10 
ROOT
HETATM    1  C1  UNL     1     -35.125   4.887   6.312  1.00 20.00     0.000 A 
HETATM    2  C2  UNL     1     -34.322   6.022   6.418  1.00 20.00     0.001 A 
HETATM    3  C3  UNL     1     -35.245   4.227   5.089  1.00 20.00     0.001 A 
HETATM    4  C4  UNL     1     -33.639   6.499   5.299  1.00 20.00     0.007 A 
HETATM    5  C5  UNL     1     -34.560   4.705   3.970  1.00 20.00     0.007 A 
HETATM    6  C6  UNL     1     -33.757   5.840   4.076  1.00 20.00    -0.058 A 
ENDROOT
BRANCH   6   7
HETATM    7  C9  UNL     1     -33.019   6.356   2.865  1.00 20.00     0.042 C 
BRANCH   7   8
HETATM    8  C10 UNL     1     -32.346   7.726   3.082  1.00 20.00    -0.019 C 
HETATM    9  C7  UNL     1     -31.015   7.599   3.827  1.00 20.00     0.010 C 
HETATM   10  C8  UNL     1     -32.118   8.411   1.732  1.00 20.00     0.010 C 
ENDBRANCH   7   8
ENDBRANCH   6   7
TORSDOF 2
ENDMDL
MODEL 2
REMARK VINA RESULT:      -5.9      0.016      1.528
REMARK  2 active torsions:
REMARK  status: ('A' for Active; 'I' for Inactive)
REMARK    1  A    between atoms: C6_6  and  C9_9 
REMARK    2  A    between atoms: C9_9  and  C10_10 
ROOT
HETATM    1  C1  UNL     1     -35.132   4.889   6.300  1.00 20.00     0.000 A 
HETATM    2  C2  UNL     1     -35.257   4.236   5.075  1.00 20.00     0.001 A 
HETATM    3  C3  UNL     1     -34.319   6.017   6.411  1.00 20.00     0.001 A 
HETATM    4  C4  UNL     1     -34.569   4.712   3.958  1.00 20.00     0.007 A 
HETATM    5  C5  UNL     1     -33.630   6.492   5.294  1.00 20.00     0.007 A 
HETATM    6  C6  UNL     1     -33.756   5.840   4.068  1.00 20.00    -0.058 A 
ENDROOT
BRANCH   6   7
HETATM    7  C9  UNL     1     -33.010   6.353   2.861  1.00 20.00     0.042 C 
BRANCH   7   8
HETATM    8  C10 UNL     1     -32.354   7.732   3.072  1.00 20.00    -0.019 C 
HETATM    9  C7  UNL     1     -31.026   7.625   3.825  1.00 20.00     0.010 C 
HETATM   10  C8  UNL     1     -32.127   8.411   1.719  1.00 20.00     0.010 C 
ENDBRANCH   7   8
ENDBRANCH   6   7
TORSDOF 2
ENDMDL
MODEL 3
REMARK VINA RESULT:      -4.9     11.467     12.140
REMARK  2 active torsions:
REMARK  status: ('A' for Active; 'I' for Inactive)
REMARK    1  A    between atoms: C6_6  and  C9_9 
REMARK    2  A    between atoms: C9_9  and  C10_10 
ROOT
HETATM    1  C1  UNL     1     -34.379  13.520  -4.320  1.00 20.00     0.000 A 
HETATM    2  C2  UNL     1     -33.310  14.245  -3.793  1.00 20.00     0.001 A 
HETATM    3  C3  UNL     1     -35.689  13.931  -4.076  1.00 20.00     0.001 A 
HETATM    4  C4  UNL     1     -33.552  15.382  -3.022  1.00 20.00     0.007 A 
HETATM    5  C5  UNL     1     -35.930  15.069  -3.305  1.00 20.00     0.007 A 
HETATM    6  C6  UNL     1     -34.862  15.794  -2.779  1.00 20.00    -0.058 A 
ENDROOT
BRANCH   6   7
HETATM    7  C9  UNL     1     -35.124  17.023  -1.943  1.00 20.00     0.042 C 
BRANCH   7   8
HETATM    8  C10 UNL     1     -34.251  17.113  -0.676  1.00 20.00    -0.019 C 
HETATM    9  C7  UNL     1     -33.202  18.222  -0.780  1.00 20.00     0.010 C 
HETATM   10  C8  UNL     1     -35.139  17.356   0.548  1.00 20.00     0.010 C 
ENDBRANCH   7   8
ENDBRANCH   6   7
TORSDOF 2
ENDMDL
MODEL 4
REMARK VINA RESULT:      -4.9     11.441     12.169
REMARK  2 active torsions:
REMARK  status: ('A' for Active; 'I' for Inactive)
REMARK    1  A    between atoms: C6_6  and  C9_9 
REMARK    2  A    between atoms: C9_9  and  C10_10 
ROOT
HETATM    1  C1  UNL     1     -34.545  13.490  -4.339  1.00 20.00     0.000 A 
HETATM    2  C2  UNL     1     -35.836  13.963  -4.108  1.00 20.00     0.001 A 
HETATM    3  C3  UNL     1     -33.448  14.158  -3.792  1.00 20.00     0.001 A 
HETATM    4  C4  UNL     1     -36.032  15.104  -3.331  1.00 20.00     0.007 A 
HETATM    5  C5  UNL     1     -33.645  15.300  -3.014  1.00 20.00     0.007 A 
HETATM    6  C6  UNL     1     -34.936  15.772  -2.784  1.00 20.00    -0.058 A 
ENDROOT
BRANCH   6   7
HETATM    7  C9  UNL     1     -35.148  17.008  -1.943  1.00 20.00     0.042 C 
BRANCH   7   8
HETATM    8  C10 UNL     1     -34.269  17.060  -0.678  1.00 20.00    -0.019 C 
HETATM    9  C7  UNL     1     -33.205  18.157  -0.764  1.00 20.00     0.010 C 
HETATM   10  C8  UNL     1     -35.147  17.289   0.554  1.00 20.00     0.010 C 
ENDBRANCH   7   8
ENDBRANCH   6   7
TORSDOF 2
ENDMDL
MODEL 5
REMARK VINA RESULT:      -4.8     11.275     12.597
REMARK  2 active torsions:
REMARK  status: ('A' for Active; 'I' for Inactive)
REMARK    1  A    between atoms: C6_6  and  C9_9 
REMARK    2  A    between atoms: C9_9  and  C10_10 
ROOT
HETATM    1  C1  UNL     1     -34.803  13.747  -5.785  1.00 20.00     0.000 A 
HETATM    2  C2  UNL     1     -34.414  15.064  -6.023  1.00 20.00     0.001 A 
HETATM    3  C3  UNL     1     -34.841  13.254  -4.481  1.00 20.00     0.001 A 
HETATM    4  C4  UNL     1     -34.063  15.890  -4.955  1.00 20.00     0.007 A 
HETATM    5  C5  UNL     1     -34.490  14.080  -3.413  1.00 20.00     0.007 A 
HETATM    6  C6  UNL     1     -34.101  15.398  -3.650  1.00 20.00    -0.058 A 
ENDROOT
BRANCH   6   7
HETATM    7  C9  UNL     1     -33.719  16.292  -2.495  1.00 20.00     0.042 C 
BRANCH   7   8
HETATM    8  C10 UNL     1     -34.866  16.544  -1.496  1.00 20.00    -0.019 C 
HETATM    9  C7  UNL     1     -34.389  17.300  -0.255  1.00 20.00     0.010 C 
HETATM   10  C8  UNL     1     -35.986  17.332  -2.181  1.00 20.00     0.010 C 
ENDBRANCH   7   8
ENDBRANCH   6   7
TORSDOF 2
ENDMDL
MODEL 6
REMARK VINA RESULT:      -4.8     11.283     12.626
REMARK  2 active torsions:
REMARK  status: ('A' for Active; 'I' for Inactive)
REMARK    1  A    between atoms: C6_6  and  C9_9 
REMARK    2  A    between atoms: C9_9  and  C10_10 
ROOT
HETATM    1  C1  UNL     1     -34.808  13.760  -5.794  1.00 20.00     0.000 A 
HETATM    2  C2  UNL     1     -34.872  13.266  -4.492  1.00 20.00     0.001 A 
HETATM    3  C3  UNL     1     -34.390  15.071  -6.024  1.00 20.00     0.001 A 
HETATM    4  C4  UNL     1     -34.518  14.084  -3.418  1.00 20.00     0.007 A 
HETATM    5  C5  UNL     1     -34.036  15.888  -4.950  1.00 20.00     0.007 A 
HETATM    6  C6  UNL     1     -34.100  15.394  -3.647  1.00 20.00    -0.058 A 
ENDROOT
BRANCH   6   7
HETATM    7  C9  UNL     1     -33.719  16.279  -2.486  1.00 20.00     0.042 C 
BRANCH   7   8
HETATM    8  C10 UNL     1     -34.872  16.544  -1.498  1.00 20.00    -0.019 C 
HETATM    9  C7  UNL     1     -34.399  17.294  -0.251  1.00 20.00     0.010 C 
HETATM   10  C8  UNL     1     -35.976  17.344  -2.193  1.00 20.00     0.010 C 
ENDBRANCH   7   8
ENDBRANCH   6   7
TORSDOF 2
ENDMDL
MODEL 7
REMARK VINA RESULT:      -4.8      9.883     11.387
REMARK  2 active torsions:
REMARK  status: ('A' for Active; 'I' for Inactive)
REMARK    1  A    between atoms: C6_6  and  C9_9 
REMARK    2  A    between atoms: C9_9  and  C10_10 
ROOT
HETATM    1  C1  UNL     1     -40.988   6.881  -0.888  1.00 20.00     0.000 A 
HETATM    2  C2  UNL     1     -41.851   7.173  -1.943  1.00 20.00     0.001 A 
HETATM    3  C3  UNL     1     -40.682   5.555  -0.583  1.00 20.00     0.001 A 
HETATM    4  C4  UNL     1     -42.408   6.138  -2.695  1.00 20.00     0.007 A 
HETATM    5  C5  UNL     1     -41.239   4.520  -1.335  1.00 20.00     0.007 A 
HETATM    6  C6  UNL     1     -42.102   4.812  -2.390  1.00 20.00    -0.058 A 
ENDROOT
BRANCH   6   7
HETATM    7  C9  UNL     1     -42.706   3.692  -3.203  1.00 20.00     0.042 C 
BRANCH   7   8
HETATM    8  C10 UNL     1     -42.130   2.301  -2.872  1.00 20.00    -0.019 C 
HETATM    9  C7  UNL     1     -43.232   1.273  -2.608  1.00 20.00     0.010 C 
HETATM   10  C8  UNL     1     -41.242   1.821  -4.023  1.00 20.00     0.010 C 
ENDBRANCH   7   8
ENDBRANCH   6   7
TORSDOF 2
ENDMDL
MODEL 8
REMARK VINA RESULT:      -4.6     11.297     12.486
REMARK  2 active torsions:
REMARK  status: ('A' for Active; 'I' for Inactive)
REMARK    1  A    between atoms: C6_6  and  C9_9 
REMARK    2  A    between atoms: C9_9  and  C10_10 
ROOT
HETATM    1  C1  UNL     1     -34.086  18.423   0.525  1.00 20.00     0.000 A 
HETATM    2  C2  UNL     1     -33.326  18.922  -0.532  1.00 20.00     0.001 A 
HETATM    3  C3  UNL     1     -34.800  17.235   0.373  1.00 20.00     0.001 A 
HETATM    4  C4  UNL     1     -33.282  18.232  -1.744  1.00 20.00     0.007 A 
HETATM    5  C5  UNL     1     -34.755  16.546  -0.840  1.00 20.00     0.007 A 
HETATM    6  C6  UNL     1     -33.996  17.044  -1.898  1.00 20.00    -0.058 A 
ENDROOT
BRANCH   6   7
HETATM    7  C9  UNL     1     -33.949  16.299  -3.209  1.00 20.00     0.042 C 
BRANCH   7   8
HETATM    8  C10 UNL     1     -34.429  14.837  -3.114  1.00 20.00    -0.019 C 
HETATM    9  C7  UNL     1     -35.760  14.623  -3.839  1.00 20.00     0.010 C 
HETATM   10  C8  UNL     1     -33.367  13.903  -3.699  1.00 20.00     0.010 C 
ENDBRANCH   7   8
ENDBRANCH   6   7
TORSDOF 2
ENDMDL
MODEL 9
REMARK VINA RESULT:      -4.6     11.185     12.625
REMARK  2 active torsions:
REMARK  status: ('A' for Active; 'I' for Inactive)
REMARK    1  A    between atoms: C6_6  and  C9_9 
REMARK    2  A    between atoms: C9_9  and  C10_10 
ROOT
HETATM    1  C1  UNL     1     -34.159  18.458  -0.028  1.00 20.00     0.000 A 
HETATM    2  C2  UNL     1     -34.709  17.177  -0.007  1.00 20.00     0.001 A 
HETATM    3  C3  UNL     1     -33.601  18.959  -1.204  1.00 20.00     0.001 A 
HETATM    4  C4  UNL     1     -34.699  16.395  -1.162  1.00 20.00     0.007 A 
HETATM    5  C5  UNL     1     -33.591  18.177  -2.359  1.00 20.00     0.007 A 
HETATM    6  C6  UNL     1     -34.140  16.895  -2.338  1.00 20.00    -0.058 A 
ENDROOT
BRANCH   6   7
HETATM    7  C9  UNL     1     -34.128  16.049  -3.587  1.00 20.00     0.042 C 
BRANCH   7   8
HETATM    8  C10 UNL     1     -34.478  14.568  -3.341  1.00 20.00    -0.019 C 
HETATM    9  C7  UNL     1     -35.721  14.135  -4.122  1.00 20.00     0.010 C 
HETATM   10  C8  UNL     1     -33.291  13.683  -3.729  1.00 20.00     0.010 C 
ENDBRANCH   7   8
ENDBRANCH   6   7
TORSDOF 2
ENDMDL
