MODEL 1
REMARK VINA RESULT:      -5.3      0.000      0.000
REMARK  0 active torsions:
REMARK  status: ('A' for Active; 'I' for Inactive)
ROOT
HETATM    1  C1  UNL     1     -34.625   5.609   6.668  1.00 20.00     0.001 A 
HETATM    2  C2  UNL     1     -35.289   4.669   5.873  1.00 20.00     0.003 A 
HETATM    3  C3  UNL     1     -33.682   6.488   6.118  1.00 20.00     0.016 A 
HETATM    4  C4  UNL     1     -35.035   4.569   4.502  1.00 20.00     0.040 A 
HETATM    5  C5  UNL     1     -32.589   7.042   3.804  1.00 20.00     0.161 A 
HETATM    6  C6  UNL     1     -33.417   6.399   4.743  1.00 20.00     0.019 A 
HETATM    7  C7  UNL     1     -34.093   5.455   3.989  1.00 20.00     0.113 A 
HETATM    8  N8  UNL     1     -32.735   6.545   2.572  1.00 20.00    -0.140 NA
HETATM    9  O9  UNL     1     -33.686   5.540   2.692  1.00 20.00    -0.213 OA
ENDROOT
TORSDOF 0
ENDMDL
MODEL 2
REMARK VINA RESULT:      -5.3      0.957      1.931
REMARK  0 active torsions:
REMARK  status: ('A' for Active; 'I' for Inactive)
ROOT
HETATM    1  C1  UNL     1     -35.293   4.611   5.845  1.00 20.00     0.001 A 
HETATM    2  C2  UNL     1     -34.669   5.540   6.684  1.00 20.00     0.003 A 
HETATM    3  C3  UNL     1     -35.001   4.558   4.476  1.00 20.00     0.016 A 
HETATM    4  C4  UNL     1     -33.731   6.452   6.187  1.00 20.00     0.040 A 
HETATM    5  C5  UNL     1     -33.486   5.766   2.714  1.00 20.00     0.161 A 
HETATM    6  C6  UNL     1     -34.063   5.466   3.963  1.00 20.00     0.019 A 
HETATM    7  C7  UNL     1     -33.465   6.372   4.824  1.00 20.00     0.113 A 
HETATM    8  N8  UNL     1     -32.607   6.770   2.788  1.00 20.00    -0.140 NA
HETATM    9  O9  UNL     1     -32.596   7.152   4.123  1.00 20.00    -0.213 OA
ENDROOT
TORSDOF 0
ENDMDL
MODEL 3
REMARK VINA RESULT:      -4.6      9.925     10.806
REMARK  0 active torsions:
REMARK  status: ('A' for Active; 'I' for Inactive)
ROOT
HETATM    1  C1  UNL     1     -40.656   6.011  -0.422  1.00 20.00     0.001 A 
HETATM    2  C2  UNL     1     -41.182   7.167  -1.007  1.00 20.00     0.003 A 
HETATM    3  C3  UNL     1     -41.000   4.737  -0.895  1.00 20.00     0.016 A 
HETATM    4  C4  UNL     1     -42.071   7.096  -2.084  1.00 20.00     0.040 A 
HETATM    5  C5  UNL     1     -42.491   3.635  -2.745  1.00 20.00     0.161 A 
HETATM    6  C6  UNL     1     -41.891   4.650  -1.975  1.00 20.00     0.019 A 
HETATM    7  C7  UNL     1     -42.391   5.817  -2.528  1.00 20.00     0.113 A 
HETATM    8  N8  UNL     1     -43.295   4.123  -3.694  1.00 20.00    -0.140 NA
HETATM    9  O9  UNL     1     -43.231   5.504  -3.554  1.00 20.00    -0.213 OA
ENDROOT
TORSDOF 0
ENDMDL
MODEL 4
REMARK VINA RESULT:      -4.6     10.002     10.696
REMARK  0 active torsions:
REMARK  status: ('A' for Active; 'I' for Inactive)
ROOT
HETATM    1  C1  UNL     1     -40.690   6.023  -0.382  1.00 20.00     0.001 A 
HETATM    2  C2  UNL     1     -40.991   4.722  -0.797  1.00 20.00     0.003 A 
HETATM    3  C3  UNL     1     -41.210   7.138  -1.054  1.00 20.00     0.016 A 
HETATM    4  C4  UNL     1     -41.820   4.484  -1.898  1.00 20.00     0.040 A 
HETATM    5  C5  UNL     1     -42.755   7.691  -3.095  1.00 20.00     0.161 A 
HETATM    6  C6  UNL     1     -42.042   6.915  -2.161  1.00 20.00     0.019 A 
HETATM    7  C7  UNL     1     -42.318   5.612  -2.542  1.00 20.00     0.113 A 
HETATM    8  N8  UNL     1     -43.416   6.941  -3.981  1.00 20.00    -0.140 NA
HETATM    9  O9  UNL     1     -43.137   5.626  -3.630  1.00 20.00    -0.213 OA
ENDROOT
TORSDOF 0
ENDMDL
MODEL 5
REMARK VINA RESULT:      -4.5     12.177     13.257
REMARK  0 active torsions:
REMARK  status: ('A' for Active; 'I' for Inactive)
ROOT
HETATM    1  C1  UNL     1     -33.770  17.135  -5.050  1.00 20.00     0.001 A 
HETATM    2  C2  UNL     1     -33.551  16.986  -3.677  1.00 20.00     0.003 A 
HETATM    3  C3  UNL     1     -34.193  16.057  -5.839  1.00 20.00     0.016 A 
HETATM    4  C4  UNL     1     -33.743  15.755  -3.041  1.00 20.00     0.040 A 
HETATM    5  C5  UNL     1     -34.789  13.519  -5.590  1.00 20.00     0.161 A 
HETATM    6  C6  UNL     1     -34.390  14.817  -5.215  1.00 20.00     0.019 A 
HETATM    7  C7  UNL     1     -34.162  14.707  -3.854  1.00 20.00     0.113 A 
HETATM    8  N8  UNL     1     -34.808  12.674  -4.555  1.00 20.00    -0.140 NA
HETATM    9  O9  UNL     1     -34.410  13.427  -3.458  1.00 20.00    -0.213 OA
ENDROOT
TORSDOF 0
ENDMDL
MODEL 6
REMARK VINA RESULT:      -4.5     12.141     13.615
REMARK  0 active torsions:
REMARK  status: ('A' for Active; 'I' for Inactive)
ROOT
HETATM    1  C1  UNL     1     -34.295  16.364  -6.786  1.00 20.00     0.001 A 
HETATM    2  C2  UNL     1     -35.028  15.363  -7.431  1.00 20.00     0.003 A 
HETATM    3  C3  UNL     1     -33.764  16.164  -5.505  1.00 20.00     0.016 A 
HETATM    4  C4  UNL     1     -35.261  14.126  -6.821  1.00 20.00     0.040 A 
HETATM    5  C5  UNL     1     -33.666  14.311  -3.657  1.00 20.00     0.161 A 
HETATM    6  C6  UNL     1     -33.990  14.929  -4.880  1.00 20.00     0.019 A 
HETATM    7  C7  UNL     1     -34.721  13.962  -5.549  1.00 20.00     0.113 A 
HETATM    8  N8  UNL     1     -34.152  13.069  -3.569  1.00 20.00    -0.140 NA
HETATM    9  O9  UNL     1     -34.820  12.851  -4.767  1.00 20.00    -0.213 OA
ENDROOT
TORSDOF 0
ENDMDL
MODEL 7
REMARK VINA RESULT:      -4.3      2.169      3.638
REMARK  0 active torsions:
REMARK  status: ('A' for Active; 'I' for Inactive)
ROOT
HETATM    1  C1  UNL     1     -33.420   5.724   2.308  1.00 20.00     0.001 A 
HETATM    2  C2  UNL     1     -32.577   6.696   2.858  1.00 20.00     0.003 A 
HETATM    3  C3  UNL     1     -34.354   5.042   3.098  1.00 20.00     0.016 A 
HETATM    4  C4  UNL     1     -32.636   7.021   4.217  1.00 20.00     0.040 A 
HETATM    5  C5  UNL     1     -35.170   4.949   5.584  1.00 20.00     0.161 A 
HETATM    6  C6  UNL     1     -34.424   5.357   4.463  1.00 20.00     0.019 A 
HETATM    7  C7  UNL     1     -33.574   6.325   4.972  1.00 20.00     0.113 A 
HETATM    8  N8  UNL     1     -34.818   5.602   6.696  1.00 20.00    -0.140 NA
HETATM    9  O9  UNL     1     -33.807   6.471   6.306  1.00 20.00    -0.213 OA
ENDROOT
TORSDOF 0
ENDMDL
MODEL 8
REMARK VINA RESULT:      -4.3      2.107      3.101
REMARK  0 active torsions:
REMARK  status: ('A' for Active; 'I' for Inactive)
ROOT
HETATM    1  C1  UNL     1     -32.661   6.572   2.837  1.00 20.00     0.001 A 
HETATM    2  C2  UNL     1     -33.596   5.665   2.327  1.00 20.00     0.003 A 
HETATM    3  C3  UNL     1     -32.641   6.907   4.198  1.00 20.00     0.016 A 
HETATM    4  C4  UNL     1     -34.547   5.061   3.156  1.00 20.00     0.040 A 
HETATM    5  C5  UNL     1     -33.929   6.342   6.407  1.00 20.00     0.161 A 
HETATM    6  C6  UNL     1     -33.589   6.308   5.041  1.00 20.00     0.019 A 
HETATM    7  C7  UNL     1     -34.499   5.415   4.501  1.00 20.00     0.113 A 
HETATM    8  N8  UNL     1     -34.961   5.543   6.694  1.00 20.00    -0.140 NA
HETATM    9  O9  UNL     1     -35.320   4.958   5.486  1.00 20.00    -0.213 OA
ENDROOT
TORSDOF 0
ENDMDL
MODEL 9
REMARK VINA RESULT:      -4.3     11.948     12.539
REMARK  0 active torsions:
REMARK  status: ('A' for Active; 'I' for Inactive)
ROOT
HETATM    1  C1  UNL     1     -33.477  15.750  -3.203  1.00 20.00     0.001 A 
HETATM    2  C2  UNL     1     -33.279  14.456  -3.694  1.00 20.00     0.003 A 
HETATM    3  C3  UNL     1     -34.766  16.268  -3.020  1.00 20.00     0.016 A 
HETATM    4  C4  UNL     1     -34.360  13.631  -4.023  1.00 20.00     0.040 A 
HETATM    5  C5  UNL     1     -37.265  15.546  -3.328  1.00 20.00     0.161 A 
HETATM    6  C6  UNL     1     -35.860  15.453  -3.346  1.00 20.00     0.019 A 
HETATM    7  C7  UNL     1     -35.625  14.176  -3.830  1.00 20.00     0.113 A 
HETATM    8  N8  UNL     1     -37.855  14.429  -3.763  1.00 20.00    -0.140 NA
HETATM    9  O9  UNL     1     -36.816  13.564  -4.081  1.00 20.00    -0.213 OA
ENDROOT
TORSDOF 0
ENDMDL
