MODEL 1
REMARK VINA RESULT:      -6.3      0.000      0.000
REMARK  3 active torsions:
REMARK  status: ('A' for Active; 'I' for Inactive)
REMARK    1  A    between atoms: C6_6  and  C8_8 
REMARK    2  A    between atoms: C8_8  and  C10_10 
REMARK    3  A    between atoms: C9_9  and  C10_10 
ROOT
HETATM    1  C1  UNL     1     -34.928   5.291   6.362  1.00 20.00     0.000 A 
HETATM    2  C2  UNL     1     -35.242   4.611   5.185  1.00 20.00     0.001 A 
HETATM    3  C3  UNL     1     -33.991   6.323   6.341  1.00 20.00     0.001 A 
HETATM    4  C4  UNL     1     -34.619   4.965   3.988  1.00 20.00     0.007 A 
HETATM    5  C5  UNL     1     -33.367   6.676   5.144  1.00 20.00     0.007 A 
HETATM    6  C6  UNL     1     -33.682   5.997   3.968  1.00 20.00    -0.058 A 
ENDROOT
BRANCH   6   7
HETATM    7  C8  UNL     1     -33.007   6.379   2.675  1.00 20.00     0.038 C 
BRANCH   7   8
HETATM    8  C10 UNL     1     -32.073   7.578   2.861  1.00 20.00     0.004 C 
BRANCH   8   9
HETATM    9  C9  UNL     1     -31.870   8.333   1.547  1.00 20.00    -0.004 C 
HETATM   10  C7  UNL     1     -32.521   9.706   1.586  1.00 20.00     0.005 C 
ENDBRANCH   8   9
ENDBRANCH   7   8
ENDBRANCH   6   7
TORSDOF 3
ENDMDL
MODEL 2
REMARK VINA RESULT:      -6.3      0.141      1.533
REMARK  3 active torsions:
REMARK  status: ('A' for Active; 'I' for Inactive)
REMARK    1  A    between atoms: C6_6  and  C8_8 
REMARK    2  A    between atoms: C8_8  and  C10_10 
REMARK    3  A    between atoms: C9_9  and  C10_10 
ROOT
HETATM    1  C1  UNL     1     -34.990   5.092   6.312  1.00 20.00     0.000 A 
HETATM    2  C2  UNL     1     -34.106   6.170   6.333  1.00 20.00     0.001 A 
HETATM    3  C3  UNL     1     -35.262   4.436   5.111  1.00 20.00     0.001 A 
HETATM    4  C4  UNL     1     -33.494   6.593   5.153  1.00 20.00     0.007 A 
HETATM    5  C5  UNL     1     -34.650   4.860   3.932  1.00 20.00     0.007 A 
HETATM    6  C6  UNL     1     -33.765   5.937   3.952  1.00 20.00    -0.058 A 
ENDROOT
BRANCH   6   7
HETATM    7  C8  UNL     1     -33.105   6.394   2.676  1.00 20.00     0.038 C 
BRANCH   7   8
HETATM    8  C10 UNL     1     -32.151   7.565   2.925  1.00 20.00     0.004 C 
BRANCH   8   9
HETATM    9  C9  UNL     1     -31.827   8.304   1.626  1.00 20.00    -0.004 C 
HETATM   10  C7  UNL     1     -32.473   9.680   1.592  1.00 20.00     0.005 C 
ENDBRANCH   8   9
ENDBRANCH   7   8
ENDBRANCH   6   7
TORSDOF 3
ENDMDL
MODEL 3
REMARK VINA RESULT:      -4.8     11.010     11.724
REMARK  3 active torsions:
REMARK  status: ('A' for Active; 'I' for Inactive)
REMARK    1  A    between atoms: C6_6  and  C8_8 
REMARK    2  A    between atoms: C8_8  and  C10_10 
REMARK    3  A    between atoms: C9_9  and  C10_10 
ROOT
HETATM    1  C1  UNL     1     -35.075  13.334  -4.535  1.00 20.00     0.000 A 
HETATM    2  C2  UNL     1     -33.726  13.545  -4.247  1.00 20.00     0.001 A 
HETATM    3  C3  UNL     1     -36.041  14.201  -4.023  1.00 20.00     0.001 A 
HETATM    4  C4  UNL     1     -33.344  14.622  -3.448  1.00 20.00     0.007 A 
HETATM    5  C5  UNL     1     -35.658  15.277  -3.222  1.00 20.00     0.007 A 
HETATM    6  C6  UNL     1     -34.310  15.488  -2.935  1.00 20.00    -0.058 A 
ENDROOT
BRANCH   6   7
HETATM    7  C8  UNL     1     -33.897  16.652  -2.070  1.00 20.00     0.038 C 
BRANCH   7   8
HETATM    8  C10 UNL     1     -34.640  16.648  -0.732  1.00 20.00     0.004 C 
BRANCH   8   9
HETATM    9  C9  UNL     1     -34.229  17.840   0.135  1.00 20.00    -0.004 C 
HETATM   10  C7  UNL     1     -32.922  18.451  -0.342  1.00 20.00     0.005 C 
ENDBRANCH   8   9
ENDBRANCH   7   8
ENDBRANCH   6   7
TORSDOF 3
ENDMDL
MODEL 4
REMARK VINA RESULT:      -4.7     10.968     11.684
REMARK  3 active torsions:
REMARK  status: ('A' for Active; 'I' for Inactive)
REMARK    1  A    between atoms: C6_6  and  C8_8 
REMARK    2  A    between atoms: C8_8  and  C10_10 
REMARK    3  A    between atoms: C9_9  and  C10_10 
ROOT
HETATM    1  C1  UNL     1     -35.109  13.393  -4.427  1.00 20.00     0.000 A 
HETATM    2  C2  UNL     1     -36.053  14.289  -3.924  1.00 20.00     0.001 A 
HETATM    3  C3  UNL     1     -33.758  13.562  -4.125  1.00 20.00     0.001 A 
HETATM    4  C4  UNL     1     -35.646  15.353  -3.121  1.00 20.00     0.007 A 
HETATM    5  C5  UNL     1     -33.351  14.628  -3.322  1.00 20.00     0.007 A 
HETATM    6  C6  UNL     1     -34.294  15.523  -2.820  1.00 20.00    -0.058 A 
ENDROOT
BRANCH   6   7
HETATM    7  C8  UNL     1     -33.853  16.674  -1.952  1.00 20.00     0.038 C 
BRANCH   7   8
HETATM    8  C10 UNL     1     -34.715  16.792  -0.692  1.00 20.00     0.004 C 
BRANCH   8   9
HETATM    9  C9  UNL     1     -34.183  17.876   0.246  1.00 20.00    -0.004 C 
HETATM   10  C7  UNL     1     -32.924  18.523  -0.308  1.00 20.00     0.005 C 
ENDBRANCH   8   9
ENDBRANCH   7   8
ENDBRANCH   6   7
TORSDOF 3
ENDMDL
MODEL 5
REMARK VINA RESULT:      -4.6     10.930     12.236
REMARK  3 active torsions:
REMARK  status: ('A' for Active; 'I' for Inactive)
REMARK    1  A    between atoms: C6_6  and  C8_8 
REMARK    2  A    between atoms: C8_8  and  C10_10 
REMARK    3  A    between atoms: C9_9  and  C10_10 
ROOT
HETATM    1  C1  UNL     1     -34.801  13.860  -5.899  1.00 20.00     0.000 A 
HETATM    2  C2  UNL     1     -34.833  13.308  -4.618  1.00 20.00     0.001 A 
HETATM    3  C3  UNL     1     -34.416  15.189  -6.076  1.00 20.00     0.001 A 
HETATM    4  C4  UNL     1     -34.479  14.086  -3.515  1.00 20.00     0.007 A 
HETATM    5  C5  UNL     1     -34.063  15.966  -4.973  1.00 20.00     0.007 A 
HETATM    6  C6  UNL     1     -34.094  15.414  -3.692  1.00 20.00    -0.058 A 
ENDROOT
BRANCH   6   7
HETATM    7  C8  UNL     1     -33.712  16.255  -2.500  1.00 20.00     0.038 C 
BRANCH   7   8
HETATM    8  C10 UNL     1     -34.833  16.294  -1.458  1.00 20.00     0.004 C 
BRANCH   8   9
HETATM    9  C9  UNL     1     -34.476  17.219  -0.294  1.00 20.00    -0.004 C 
HETATM   10  C7  UNL     1     -33.296  18.115  -0.635  1.00 20.00     0.005 C 
ENDBRANCH   8   9
ENDBRANCH   7   8
ENDBRANCH   6   7
TORSDOF 3
ENDMDL
MODEL 6
REMARK VINA RESULT:      -4.5     11.097     12.393
REMARK  3 active torsions:
REMARK  status: ('A' for Active; 'I' for Inactive)
REMARK    1  A    between atoms: C6_6  and  C8_8 
REMARK    2  A    between atoms: C8_8  and  C10_10 
REMARK    3  A    between atoms: C9_9  and  C10_10 
ROOT
HETATM    1  C1  UNL     1     -34.784  14.056  -6.127  1.00 20.00     0.000 A 
HETATM    2  C2  UNL     1     -34.330  15.373  -6.210  1.00 20.00     0.001 A 
HETATM    3  C3  UNL     1     -34.883  13.430  -4.885  1.00 20.00     0.001 A 
HETATM    4  C4  UNL     1     -33.975  16.062  -5.051  1.00 20.00     0.007 A 
HETATM    5  C5  UNL     1     -34.528  14.120  -3.726  1.00 20.00     0.007 A 
HETATM    6  C6  UNL     1     -34.074  15.436  -3.809  1.00 20.00    -0.058 A 
ENDROOT
BRANCH   6   7
HETATM    7  C8  UNL     1     -33.690  16.181  -2.555  1.00 20.00     0.038 C 
BRANCH   7   8
HETATM    8  C10 UNL     1     -34.845  16.222  -1.550  1.00 20.00     0.004 C 
BRANCH   8   9
HETATM    9  C9  UNL     1     -34.516  17.130  -0.364  1.00 20.00    -0.004 C 
HETATM   10  C7  UNL     1     -33.323  18.024  -0.661  1.00 20.00     0.005 C 
ENDBRANCH   8   9
ENDBRANCH   7   8
ENDBRANCH   6   7
TORSDOF 3
ENDMDL
MODEL 7
REMARK VINA RESULT:      -4.5     10.977     11.933
REMARK  3 active torsions:
REMARK  status: ('A' for Active; 'I' for Inactive)
REMARK    1  A    between atoms: C6_6  and  C8_8 
REMARK    2  A    between atoms: C8_8  and  C10_10 
REMARK    3  A    between atoms: C9_9  and  C10_10 
ROOT
HETATM    1  C1  UNL     1     -34.059  18.462   1.389  1.00 20.00     0.000 A 
HETATM    2  C2  UNL     1     -33.011  18.813   0.537  1.00 20.00     0.001 A 
HETATM    3  C3  UNL     1     -34.996  17.511   0.987  1.00 20.00     0.001 A 
HETATM    4  C4  UNL     1     -32.903  18.213  -0.717  1.00 20.00     0.007 A 
HETATM    5  C5  UNL     1     -34.887  16.912  -0.268  1.00 20.00     0.007 A 
HETATM    6  C6  UNL     1     -33.840  17.262  -1.120  1.00 20.00    -0.058 A 
ENDROOT
BRANCH   6   7
HETATM    7  C8  UNL     1     -33.724  16.614  -2.476  1.00 20.00     0.038 C 
BRANCH   7   8
HETATM    8  C10 UNL     1     -34.713  15.455  -2.632  1.00 20.00     0.004 C 
BRANCH   8   9
HETATM    9  C9  UNL     1     -34.108  14.315  -3.452  1.00 20.00    -0.004 C 
HETATM   10  C7  UNL     1     -35.179  13.537  -4.199  1.00 20.00     0.005 C 
ENDBRANCH   8   9
ENDBRANCH   7   8
ENDBRANCH   6   7
TORSDOF 3
ENDMDL
MODEL 8
REMARK VINA RESULT:      -4.5     10.989     11.870
REMARK  3 active torsions:
REMARK  status: ('A' for Active; 'I' for Inactive)
REMARK    1  A    between atoms: C6_6  and  C8_8 
REMARK    2  A    between atoms: C8_8  and  C10_10 
REMARK    3  A    between atoms: C9_9  and  C10_10 
ROOT
HETATM    1  C1  UNL     1     -34.087  18.484   1.383  1.00 20.00     0.000 A 
HETATM    2  C2  UNL     1     -35.013  17.520   0.985  1.00 20.00     0.001 A 
HETATM    3  C3  UNL     1     -33.039  18.837   0.533  1.00 20.00     0.001 A 
HETATM    4  C4  UNL     1     -34.890  16.909  -0.263  1.00 20.00     0.007 A 
HETATM    5  C5  UNL     1     -32.916  18.226  -0.714  1.00 20.00     0.007 A 
HETATM    6  C6  UNL     1     -33.842  17.262  -1.113  1.00 20.00    -0.058 A 
ENDROOT
BRANCH   6   7
HETATM    7  C8  UNL     1     -33.708  16.601  -2.462  1.00 20.00     0.038 C 
BRANCH   7   8
HETATM    8  C10 UNL     1     -34.717  15.463  -2.633  1.00 20.00     0.004 C 
BRANCH   8   9
HETATM    9  C9  UNL     1     -34.128  14.319  -3.459  1.00 20.00    -0.004 C 
HETATM   10  C7  UNL     1     -35.211  13.557  -4.206  1.00 20.00     0.005 C 
ENDBRANCH   8   9
ENDBRANCH   7   8
ENDBRANCH   6   7
TORSDOF 3
ENDMDL
MODEL 9
REMARK VINA RESULT:      -4.4      9.985     11.315
REMARK  3 active torsions:
REMARK  status: ('A' for Active; 'I' for Inactive)
REMARK    1  A    between atoms: C6_6  and  C8_8 
REMARK    2  A    between atoms: C8_8  and  C10_10 
REMARK    3  A    between atoms: C9_9  and  C10_10 
ROOT
HETATM    1  C1  UNL     1     -41.095   7.081  -0.872  1.00 20.00     0.000 A 
HETATM    2  C2  UNL     1     -40.677   5.808  -0.485  1.00 20.00     0.001 A 
HETATM    3  C3  UNL     1     -41.973   7.230  -1.946  1.00 20.00     0.001 A 
HETATM    4  C4  UNL     1     -41.137   4.684  -1.171  1.00 20.00     0.007 A 
HETATM    5  C5  UNL     1     -42.433   6.106  -2.632  1.00 20.00     0.007 A 
HETATM    6  C6  UNL     1     -42.016   4.833  -2.244  1.00 20.00    -0.058 A 
ENDROOT
BRANCH   6   7
HETATM    7  C8  UNL     1     -42.514   3.619  -2.987  1.00 20.00     0.038 C 
BRANCH   7   8
HETATM    8  C10 UNL     1     -41.413   2.566  -3.144  1.00 20.00     0.004 C 
BRANCH   8   9
HETATM    9  C9  UNL     1     -41.731   1.596  -4.282  1.00 20.00    -0.004 C 
HETATM   10  C7  UNL     1     -43.043   1.949  -4.965  1.00 20.00     0.005 C 
ENDBRANCH   8   9
ENDBRANCH   7   8
ENDBRANCH   6   7
TORSDOF 3
ENDMDL
