MODEL 1
REMARK VINA RESULT:      -4.0      0.000      0.000
REMARK  5 active torsions:
REMARK  status: ('A' for Active; 'I' for Inactive)
REMARK    1  A    between atoms: C3_3  and  C5_5 
REMARK    2  A    between atoms: C4_4  and  C6_6 
REMARK    3  A    between atoms: C5_5  and  S7_7 
REMARK    4  A    between atoms: C6_6  and  S8_8 
REMARK    5  A    between atoms: S7_7  and  S8_8 
ROOT
HETATM    1  S7  UNL     1     -34.203   5.961   3.798  1.00 20.00    -0.098 SA
ENDROOT
BRANCH   1   2
HETATM    2  C5  UNL     1     -33.921   6.359   5.547  1.00 20.00     0.086 C 
BRANCH   2   3
HETATM    3  C3  UNL     1     -34.648   5.363   6.445  1.00 20.00     0.006 C 
HETATM    4  C1  UNL     1     -34.926   4.062   5.707  1.00 20.00     0.006 C 
ENDBRANCH   2   3
ENDBRANCH   1   2
BRANCH   1   5
HETATM    5  S8  UNL     1     -32.303   6.109   3.029  1.00 20.00    -0.098 SA
BRANCH   5   6
HETATM    6  C6  UNL     1     -32.087   7.901   2.924  1.00 20.00     0.086 C 
BRANCH   6   7
HETATM    7  C4  UNL     1     -31.878   8.330   1.476  1.00 20.00     0.006 C 
HETATM    8  C2  UNL     1     -32.400   9.740   1.241  1.00 20.00     0.006 C 
ENDBRANCH   6   7
ENDBRANCH   5   6
ENDBRANCH   1   5
TORSDOF 5
ENDMDL
MODEL 2
REMARK VINA RESULT:      -4.0      0.055      5.390
REMARK  5 active torsions:
REMARK  status: ('A' for Active; 'I' for Inactive)
REMARK    1  A    between atoms: C3_3  and  C5_5 
REMARK    2  A    between atoms: C4_4  and  C6_6 
REMARK    3  A    between atoms: C5_5  and  S7_7 
REMARK    4  A    between atoms: C6_6  and  S8_8 
REMARK    5  A    between atoms: S7_7  and  S8_8 
ROOT
HETATM    1  S7  UNL     1     -32.365   6.086   2.999  1.00 20.00    -0.098 SA
ENDROOT
BRANCH   1   2
HETATM    2  C5  UNL     1     -32.053   7.873   2.935  1.00 20.00     0.086 C 
BRANCH   2   3
HETATM    3  C3  UNL     1     -31.837   8.326   1.494  1.00 20.00     0.006 C 
HETATM    4  C1  UNL     1     -32.436   9.705   1.259  1.00 20.00     0.006 C 
ENDBRANCH   2   3
ENDBRANCH   1   2
BRANCH   1   5
HETATM    5  S8  UNL     1     -34.248   6.025   3.821  1.00 20.00    -0.098 SA
BRANCH   5   6
HETATM    6  C6  UNL     1     -33.898   6.342   5.567  1.00 20.00     0.086 C 
BRANCH   6   7
HETATM    7  C4  UNL     1     -34.625   5.333   6.449  1.00 20.00     0.006 C 
HETATM    8  C2  UNL     1     -34.964   4.069   5.671  1.00 20.00     0.006 C 
ENDBRANCH   6   7
ENDBRANCH   5   6
ENDBRANCH   1   5
TORSDOF 5
ENDMDL
MODEL 3
REMARK VINA RESULT:      -4.0      0.935      5.495
REMARK  5 active torsions:
REMARK  status: ('A' for Active; 'I' for Inactive)
REMARK    1  A    between atoms: C3_3  and  C5_5 
REMARK    2  A    between atoms: C4_4  and  C6_6 
REMARK    3  A    between atoms: C5_5  and  S7_7 
REMARK    4  A    between atoms: C6_6  and  S8_8 
REMARK    5  A    between atoms: S7_7  and  S8_8 
ROOT
HETATM    1  S7  UNL     1     -32.405   6.230   2.996  1.00 20.00    -0.098 SA
ENDROOT
BRANCH   1   2
HETATM    2  C5  UNL     1     -31.829   7.944   2.838  1.00 20.00     0.086 C 
BRANCH   2   3
HETATM    3  C3  UNL     1     -31.872   8.390   1.379  1.00 20.00     0.006 C 
HETATM    4  C1  UNL     1     -32.444   9.794   1.253  1.00 20.00     0.006 C 
ENDBRANCH   2   3
ENDBRANCH   1   2
BRANCH   1   5
HETATM    5  S8  UNL     1     -33.808   6.402   4.488  1.00 20.00    -0.098 SA
BRANCH   5   6
HETATM    6  C6  UNL     1     -35.062   5.214   3.954  1.00 20.00     0.086 C 
BRANCH   6   7
HETATM    7  C4  UNL     1     -35.202   4.090   4.974  1.00 20.00     0.006 C 
HETATM    8  C2  UNL     1     -34.877   4.581   6.378  1.00 20.00     0.006 C 
ENDBRANCH   6   7
ENDBRANCH   5   6
ENDBRANCH   1   5
TORSDOF 5
ENDMDL
MODEL 4
REMARK VINA RESULT:      -3.9      0.818      1.151
REMARK  5 active torsions:
REMARK  status: ('A' for Active; 'I' for Inactive)
REMARK    1  A    between atoms: C3_3  and  C5_5 
REMARK    2  A    between atoms: C4_4  and  C6_6 
REMARK    3  A    between atoms: C5_5  and  S7_7 
REMARK    4  A    between atoms: C6_6  and  S8_8 
REMARK    5  A    between atoms: S7_7  and  S8_8 
ROOT
HETATM    1  S7  UNL     1     -33.951   6.483   4.375  1.00 20.00    -0.098 SA
ENDROOT
BRANCH   1   2
HETATM    2  C5  UNL     1     -35.040   5.077   4.014  1.00 20.00     0.086 C 
BRANCH   2   3
HETATM    3  C3  UNL     1     -35.118   4.140   5.216  1.00 20.00     0.006 C 
HETATM    4  C1  UNL     1     -34.598   4.819   6.474  1.00 20.00     0.006 C 
ENDBRANCH   2   3
ENDBRANCH   1   2
BRANCH   1   5
HETATM    5  S8  UNL     1     -32.444   6.201   3.006  1.00 20.00    -0.098 SA
BRANCH   5   6
HETATM    6  C6  UNL     1     -31.759   7.868   2.862  1.00 20.00     0.086 C 
BRANCH   6   7
HETATM    7  C4  UNL     1     -31.910   8.387   1.436  1.00 20.00     0.006 C 
HETATM    8  C2  UNL     1     -32.482   9.798   1.424  1.00 20.00     0.006 C 
ENDBRANCH   6   7
ENDBRANCH   5   6
ENDBRANCH   1   5
TORSDOF 5
ENDMDL
MODEL 5
REMARK VINA RESULT:      -3.4     11.335     11.946
REMARK  5 active torsions:
REMARK  status: ('A' for Active; 'I' for Inactive)
REMARK    1  A    between atoms: C3_3  and  C5_5 
REMARK    2  A    between atoms: C4_4  and  C6_6 
REMARK    3  A    between atoms: C5_5  and  S7_7 
REMARK    4  A    between atoms: C6_6  and  S8_8 
REMARK    5  A    between atoms: S7_7  and  S8_8 
ROOT
HETATM    1  S7  UNL     1     -33.543  16.227  -4.829  1.00 20.00    -0.098 SA
ENDROOT
BRANCH   1   2
HETATM    2  C5  UNL     1     -32.743  15.043  -3.709  1.00 20.00     0.086 C 
BRANCH   2   3
HETATM    3  C3  UNL     1     -33.440  13.688  -3.779  1.00 20.00     0.006 C 
HETATM    4  C1  UNL     1     -34.939  13.853  -3.980  1.00 20.00     0.006 C 
ENDBRANCH   2   3
ENDBRANCH   1   2
BRANCH   1   5
HETATM    5  S8  UNL     1     -34.310  17.597  -3.502  1.00 20.00    -0.098 SA
BRANCH   5   6
HETATM    6  C6  UNL     1     -33.642  17.002  -1.930  1.00 20.00     0.086 C 
BRANCH   6   7
HETATM    7  C4  UNL     1     -34.765  16.514  -1.022  1.00 20.00     0.006 C 
HETATM    8  C2  UNL     1     -34.847  17.353   0.246  1.00 20.00     0.006 C 
ENDBRANCH   6   7
ENDBRANCH   5   6
ENDBRANCH   1   5
TORSDOF 5
ENDMDL
MODEL 6
REMARK VINA RESULT:      -3.3     11.331     11.805
REMARK  5 active torsions:
REMARK  status: ('A' for Active; 'I' for Inactive)
REMARK    1  A    between atoms: C3_3  and  C5_5 
REMARK    2  A    between atoms: C4_4  and  C6_6 
REMARK    3  A    between atoms: C5_5  and  S7_7 
REMARK    4  A    between atoms: C6_6  and  S8_8 
REMARK    5  A    between atoms: S7_7  and  S8_8 
ROOT
HETATM    1  S7  UNL     1     -34.436  17.546  -3.542  1.00 20.00    -0.098 SA
ENDROOT
BRANCH   1   2
HETATM    2  C5  UNL     1     -33.699  16.996  -1.977  1.00 20.00     0.086 C 
BRANCH   2   3
HETATM    3  C3  UNL     1     -34.778  16.481  -1.031  1.00 20.00     0.006 C 
HETATM    4  C1  UNL     1     -34.869  17.346   0.218  1.00 20.00     0.006 C 
ENDBRANCH   2   3
ENDBRANCH   1   2
BRANCH   1   5
HETATM    5  S8  UNL     1     -33.664  16.177  -4.867  1.00 20.00    -0.098 SA
BRANCH   5   6
HETATM    6  C6  UNL     1     -32.813  15.031  -3.757  1.00 20.00     0.086 C 
BRANCH   6   7
HETATM    7  C4  UNL     1     -33.466  13.654  -3.807  1.00 20.00     0.006 C 
HETATM    8  C2  UNL     1     -34.970  13.768  -4.018  1.00 20.00     0.006 C 
ENDBRANCH   6   7
ENDBRANCH   5   6
ENDBRANCH   1   5
TORSDOF 5
ENDMDL
MODEL 7
REMARK VINA RESULT:      -3.3     11.133     12.336
REMARK  5 active torsions:
REMARK  status: ('A' for Active; 'I' for Inactive)
REMARK    1  A    between atoms: C3_3  and  C5_5 
REMARK    2  A    between atoms: C4_4  and  C6_6 
REMARK    3  A    between atoms: C5_5  and  S7_7 
REMARK    4  A    between atoms: C6_6  and  S8_8 
REMARK    5  A    between atoms: S7_7  and  S8_8 
ROOT
HETATM    1  S7  UNL     1     -33.908  13.991  -3.720  1.00 20.00    -0.098 SA
ENDROOT
BRANCH   1   2
HETATM    2  C5  UNL     1     -34.848  13.469  -5.183  1.00 20.00     0.086 C 
BRANCH   2   3
HETATM    3  C3  UNL     1     -35.399  14.683  -5.924  1.00 20.00     0.006 C 
HETATM    4  C1  UNL     1     -35.162  14.563  -7.422  1.00 20.00     0.006 C 
ENDBRANCH   2   3
ENDBRANCH   1   2
BRANCH   1   5
HETATM    5  S8  UNL     1     -33.243  15.849  -4.298  1.00 20.00    -0.098 SA
BRANCH   5   6
HETATM    6  C6  UNL     1     -33.955  16.910  -3.018  1.00 20.00     0.086 C 
BRANCH   6   7
HETATM    7  C4  UNL     1     -34.637  16.068  -1.945  1.00 20.00     0.006 C 
HETATM    8  C2  UNL     1     -34.630  16.784  -0.601  1.00 20.00     0.006 C 
ENDBRANCH   6   7
ENDBRANCH   5   6
ENDBRANCH   1   5
TORSDOF 5
ENDMDL
MODEL 8
REMARK VINA RESULT:      -3.3     11.169     12.113
REMARK  5 active torsions:
REMARK  status: ('A' for Active; 'I' for Inactive)
REMARK    1  A    between atoms: C3_3  and  C5_5 
REMARK    2  A    between atoms: C4_4  and  C6_6 
REMARK    3  A    between atoms: C5_5  and  S7_7 
REMARK    4  A    between atoms: C6_6  and  S8_8 
REMARK    5  A    between atoms: S7_7  and  S8_8 
ROOT
HETATM    1  S7  UNL     1     -33.263  16.008  -4.400  1.00 20.00    -0.098 SA
ENDROOT
BRANCH   1   2
HETATM    2  C5  UNL     1     -34.113  16.978  -3.122  1.00 20.00     0.086 C 
BRANCH   2   3
HETATM    3  C3  UNL     1     -34.639  16.064  -2.020  1.00 20.00     0.006 C 
HETATM    4  C1  UNL     1     -34.582  16.753  -0.664  1.00 20.00     0.006 C 
ENDBRANCH   2   3
ENDBRANCH   1   2
BRANCH   1   5
HETATM    5  S8  UNL     1     -33.688  14.086  -3.810  1.00 20.00    -0.098 SA
BRANCH   5   6
HETATM    6  C6  UNL     1     -34.819  13.542  -5.112  1.00 20.00     0.086 C 
BRANCH   6   7
HETATM    7  C4  UNL     1     -35.341  14.738  -5.900  1.00 20.00     0.006 C 
HETATM    8  C2  UNL     1     -35.228  14.498  -7.399  1.00 20.00     0.006 C 
ENDBRANCH   6   7
ENDBRANCH   5   6
ENDBRANCH   1   5
TORSDOF 5
ENDMDL
MODEL 9
REMARK VINA RESULT:      -3.3     11.763     12.393
REMARK  5 active torsions:
REMARK  status: ('A' for Active; 'I' for Inactive)
REMARK    1  A    between atoms: C3_3  and  C5_5 
REMARK    2  A    between atoms: C4_4  and  C6_6 
REMARK    3  A    between atoms: C5_5  and  S7_7 
REMARK    4  A    between atoms: C6_6  and  S8_8 
REMARK    5  A    between atoms: S7_7  and  S8_8 
ROOT
HETATM    1  S7  UNL     1     -33.442  16.760  -5.033  1.00 20.00    -0.098 SA
ENDROOT
BRANCH   1   2
HETATM    2  C5  UNL     1     -34.161  17.303  -3.457  1.00 20.00     0.086 C 
BRANCH   2   3
HETATM    3  C3  UNL     1     -33.756  16.357  -2.331  1.00 20.00     0.006 C 
HETATM    4  C1  UNL     1     -34.685  16.500  -1.135  1.00 20.00     0.006 C 
ENDBRANCH   2   3
ENDBRANCH   1   2
BRANCH   1   5
HETATM    5  S8  UNL     1     -35.012  15.731  -5.871  1.00 20.00    -0.098 SA
BRANCH   5   6
HETATM    6  C6  UNL     1     -34.593  14.021  -5.460  1.00 20.00     0.086 C 
BRANCH   6   7
HETATM    7  C4  UNL     1     -35.366  13.563  -4.228  1.00 20.00     0.006 C 
HETATM    8  C2  UNL     1     -36.588  14.440  -3.991  1.00 20.00     0.006 C 
ENDBRANCH   6   7
ENDBRANCH   5   6
ENDBRANCH   1   5
TORSDOF 5
ENDMDL
