MODEL 1
REMARK VINA RESULT:      -5.7      0.000      0.000
REMARK  3 active torsions:
REMARK  status: ('A' for Active; 'I' for Inactive)
REMARK    1  A    between atoms: C6_6  and  O9_9 
REMARK    2  A    between atoms: C7_7  and  C8_8 
REMARK    3  A    between atoms: C7_7  and  O9_9 
ROOT
HETATM    1  C1  UNL     1     -34.924   5.023   6.224  1.00 20.00     0.000 A 
HETATM    2  C2  UNL     1     -35.226   4.476   4.977  1.00 20.00     0.003 A 
HETATM    3  C3  UNL     1     -34.075   6.126   6.314  1.00 20.00     0.003 A 
HETATM    4  C4  UNL     1     -34.679   5.031   3.820  1.00 20.00     0.037 A 
HETATM    5  C5  UNL     1     -33.527   6.681   5.157  1.00 20.00     0.037 A 
HETATM    6  C6  UNL     1     -33.830   6.134   3.911  1.00 20.00     0.068 A 
ENDROOT
BRANCH   6   7
HETATM    7  O9  UNL     1     -33.294   6.675   2.782  1.00 20.00    -0.350 OA
BRANCH   7   8
HETATM    8  C7  UNL     1     -32.148   7.507   2.941  1.00 20.00     0.190 C 
BRANCH   8   9
HETATM    9  C8  UNL     1     -31.890   8.274   1.657  1.00 20.00     0.141 C 
HETATM   10 CL10 UNL     1     -32.596   9.908   1.742  1.00 20.00    -0.128 Cl
ENDBRANCH   8   9
ENDBRANCH   7   8
ENDBRANCH   6   7
TORSDOF 3
ENDMDL
MODEL 2
REMARK VINA RESULT:      -5.7      0.032      1.529
REMARK  3 active torsions:
REMARK  status: ('A' for Active; 'I' for Inactive)
REMARK    1  A    between atoms: C6_6  and  O9_9 
REMARK    2  A    between atoms: C7_7  and  C8_8 
REMARK    3  A    between atoms: C7_7  and  O9_9 
ROOT
HETATM    1  C1  UNL     1     -34.904   5.032   6.227  1.00 20.00     0.000 A 
HETATM    2  C2  UNL     1     -34.070   6.146   6.315  1.00 20.00     0.003 A 
HETATM    3  C3  UNL     1     -35.196   4.475   4.981  1.00 20.00     0.003 A 
HETATM    4  C4  UNL     1     -33.526   6.704   5.158  1.00 20.00     0.037 A 
HETATM    5  C5  UNL     1     -34.652   5.034   3.824  1.00 20.00     0.037 A 
HETATM    6  C6  UNL     1     -33.817   6.147   3.912  1.00 20.00     0.068 A 
ENDROOT
BRANCH   6   7
HETATM    7  O9  UNL     1     -33.287   6.693   2.783  1.00 20.00    -0.350 OA
BRANCH   7   8
HETATM    8  C7  UNL     1     -32.118   7.495   2.936  1.00 20.00     0.190 C 
BRANCH   8   9
HETATM    9  C8  UNL     1     -31.880   8.300   1.671  1.00 20.00     0.141 C 
HETATM   10 CL10 UNL     1     -32.640   9.907   1.791  1.00 20.00    -0.128 Cl
ENDBRANCH   8   9
ENDBRANCH   7   8
ENDBRANCH   6   7
TORSDOF 3
ENDMDL
MODEL 3
REMARK VINA RESULT:      -4.1     10.064     11.195
REMARK  3 active torsions:
REMARK  status: ('A' for Active; 'I' for Inactive)
REMARK    1  A    between atoms: C6_6  and  O9_9 
REMARK    2  A    between atoms: C7_7  and  C8_8 
REMARK    3  A    between atoms: C7_7  and  O9_9 
ROOT
HETATM    1  C1  UNL     1     -41.048   7.054  -0.829  1.00 20.00     0.000 A 
HETATM    2  C2  UNL     1     -40.677   5.744  -0.528  1.00 20.00     0.003 A 
HETATM    3  C3  UNL     1     -41.932   7.305  -1.879  1.00 20.00     0.003 A 
HETATM    4  C4  UNL     1     -41.187   4.684  -1.277  1.00 20.00     0.037 A 
HETATM    5  C5  UNL     1     -42.442   6.246  -2.629  1.00 20.00     0.037 A 
HETATM    6  C6  UNL     1     -42.070   4.936  -2.328  1.00 20.00     0.068 A 
ENDROOT
BRANCH   6   7
HETATM    7  O9  UNL     1     -42.567   3.901  -3.060  1.00 20.00    -0.350 OA
BRANCH   7   8
HETATM    8  C7  UNL     1     -43.030   2.760  -2.342  1.00 20.00     0.190 C 
BRANCH   8   9
HETATM    9  C8  UNL     1     -42.630   1.494  -3.078  1.00 20.00     0.141 C 
HETATM   10 CL10 UNL     1     -41.140   1.754  -4.020  1.00 20.00    -0.128 Cl
ENDBRANCH   8   9
ENDBRANCH   7   8
ENDBRANCH   6   7
TORSDOF 3
ENDMDL
MODEL 4
REMARK VINA RESULT:      -4.0     11.142     12.136
REMARK  3 active torsions:
REMARK  status: ('A' for Active; 'I' for Inactive)
REMARK    1  A    between atoms: C6_6  and  O9_9 
REMARK    2  A    between atoms: C7_7  and  C8_8 
REMARK    3  A    between atoms: C7_7  and  O9_9 
ROOT
HETATM    1  C1  UNL     1     -34.772  13.425  -4.149  1.00 20.00     0.000 A 
HETATM    2  C2  UNL     1     -35.680  14.471  -4.306  1.00 20.00     0.003 A 
HETATM    3  C3  UNL     1     -33.443  13.698  -3.822  1.00 20.00     0.003 A 
HETATM    4  C4  UNL     1     -35.262  15.790  -4.138  1.00 20.00     0.037 A 
HETATM    5  C5  UNL     1     -33.024  15.018  -3.654  1.00 20.00     0.037 A 
HETATM    6  C6  UNL     1     -33.933  16.064  -3.811  1.00 20.00     0.068 A 
ENDROOT
BRANCH   6   7
HETATM    7  O9  UNL     1     -33.524  17.352  -3.648  1.00 20.00    -0.350 OA
BRANCH   7   8
HETATM    8  C7  UNL     1     -34.214  18.135  -2.676  1.00 20.00     0.190 C 
BRANCH   8   9
HETATM    9  C8  UNL     1     -33.657  17.844  -1.295  1.00 20.00     0.141 C 
HETATM   10 CL10 UNL     1     -34.703  16.700  -0.417  1.00 20.00    -0.128 Cl
ENDBRANCH   8   9
ENDBRANCH   7   8
ENDBRANCH   6   7
TORSDOF 3
ENDMDL
MODEL 5
REMARK VINA RESULT:      -4.0     11.107     12.125
REMARK  3 active torsions:
REMARK  status: ('A' for Active; 'I' for Inactive)
REMARK    1  A    between atoms: C6_6  and  O9_9 
REMARK    2  A    between atoms: C7_7  and  C8_8 
REMARK    3  A    between atoms: C7_7  and  O9_9 
ROOT
HETATM    1  C1  UNL     1     -34.948  13.367  -4.147  1.00 20.00     0.000 A 
HETATM    2  C2  UNL     1     -33.601  13.593  -3.863  1.00 20.00     0.003 A 
HETATM    3  C3  UNL     1     -35.821  14.446  -4.291  1.00 20.00     0.003 A 
HETATM    4  C4  UNL     1     -33.127  14.896  -3.722  1.00 20.00     0.037 A 
HETATM    5  C5  UNL     1     -35.347  15.750  -4.150  1.00 20.00     0.037 A 
HETATM    6  C6  UNL     1     -34.000  15.975  -3.866  1.00 20.00     0.068 A 
ENDROOT
BRANCH   6   7
HETATM    7  O9  UNL     1     -33.537  17.248  -3.726  1.00 20.00    -0.350 OA
BRANCH   7   8
HETATM    8  C7  UNL     1     -34.162  18.062  -2.736  1.00 20.00     0.190 C 
BRANCH   8   9
HETATM    9  C8  UNL     1     -33.607  17.719  -1.366  1.00 20.00     0.141 C 
HETATM   10 CL10 UNL     1     -34.731  16.663  -0.474  1.00 20.00    -0.128 Cl
ENDBRANCH   8   9
ENDBRANCH   7   8
ENDBRANCH   6   7
TORSDOF 3
ENDMDL
MODEL 6
REMARK VINA RESULT:      -4.0     11.030     12.125
REMARK  3 active torsions:
REMARK  status: ('A' for Active; 'I' for Inactive)
REMARK    1  A    between atoms: C6_6  and  O9_9 
REMARK    2  A    between atoms: C7_7  and  C8_8 
REMARK    3  A    between atoms: C7_7  and  O9_9 
ROOT
HETATM    1  C1  UNL     1     -34.827  13.864  -5.890  1.00 20.00     0.000 A 
HETATM    2  C2  UNL     1     -34.840  13.281  -4.623  1.00 20.00     0.003 A 
HETATM    3  C3  UNL     1     -34.406  15.185  -6.046  1.00 20.00     0.003 A 
HETATM    4  C4  UNL     1     -34.432  14.018  -3.512  1.00 20.00     0.037 A 
HETATM    5  C5  UNL     1     -33.998  15.923  -4.935  1.00 20.00     0.037 A 
HETATM    6  C6  UNL     1     -34.010  15.339  -3.668  1.00 20.00     0.068 A 
ENDROOT
BRANCH   6   7
HETATM    7  O9  UNL     1     -33.613  16.059  -2.583  1.00 20.00    -0.350 OA
BRANCH   7   8
HETATM    8  C7  UNL     1     -34.581  16.275  -1.557  1.00 20.00     0.190 C 
BRANCH   8   9
HETATM    9  C8  UNL     1     -34.092  17.357  -0.612  1.00 20.00     0.141 C 
HETATM   10 CL10 UNL     1     -35.110  17.430   0.848  1.00 20.00    -0.128 Cl
ENDBRANCH   8   9
ENDBRANCH   7   8
ENDBRANCH   6   7
TORSDOF 3
ENDMDL
MODEL 7
REMARK VINA RESULT:      -4.0     11.108     12.246
REMARK  3 active torsions:
REMARK  status: ('A' for Active; 'I' for Inactive)
REMARK    1  A    between atoms: C6_6  and  O9_9 
REMARK    2  A    between atoms: C7_7  and  C8_8 
REMARK    3  A    between atoms: C7_7  and  O9_9 
ROOT
HETATM    1  C1  UNL     1     -34.793  14.016  -6.104  1.00 20.00     0.000 A 
HETATM    2  C2  UNL     1     -34.355  15.339  -6.147  1.00 20.00     0.003 A 
HETATM    3  C3  UNL     1     -34.830  13.332  -4.889  1.00 20.00     0.003 A 
HETATM    4  C4  UNL     1     -33.954  15.980  -4.975  1.00 20.00     0.037 A 
HETATM    5  C5  UNL     1     -34.428  13.972  -3.716  1.00 20.00     0.037 A 
HETATM    6  C6  UNL     1     -33.991  15.296  -3.759  1.00 20.00     0.068 A 
ENDROOT
BRANCH   6   7
HETATM    7  O9  UNL     1     -33.598  15.920  -2.615  1.00 20.00    -0.350 OA
BRANCH   7   8
HETATM    8  C7  UNL     1     -34.614  16.237  -1.666  1.00 20.00     0.190 C 
BRANCH   8   9
HETATM    9  C8  UNL     1     -34.106  17.299  -0.707  1.00 20.00     0.141 C 
HETATM   10 CL10 UNL     1     -35.114  17.362   0.760  1.00 20.00    -0.128 Cl
ENDBRANCH   8   9
ENDBRANCH   7   8
ENDBRANCH   6   7
TORSDOF 3
ENDMDL
MODEL 8
REMARK VINA RESULT:      -3.9     11.390     12.208
REMARK  3 active torsions:
REMARK  status: ('A' for Active; 'I' for Inactive)
REMARK    1  A    between atoms: C6_6  and  O9_9 
REMARK    2  A    between atoms: C7_7  and  C8_8 
REMARK    3  A    between atoms: C7_7  and  O9_9 
ROOT
HETATM    1  C1  UNL     1     -33.254  14.820  -3.551  1.00 20.00     0.000 A 
HETATM    2  C2  UNL     1     -33.714  13.644  -4.145  1.00 20.00     0.003 A 
HETATM    3  C3  UNL     1     -34.165  15.749  -3.047  1.00 20.00     0.003 A 
HETATM    4  C4  UNL     1     -35.083  13.397  -4.235  1.00 20.00     0.037 A 
HETATM    5  C5  UNL     1     -35.535  15.502  -3.138  1.00 20.00     0.037 A 
HETATM    6  C6  UNL     1     -35.994  14.326  -3.731  1.00 20.00     0.068 A 
ENDROOT
BRANCH   6   7
HETATM    7  O9  UNL     1     -37.331  14.085  -3.821  1.00 20.00    -0.350 OA
BRANCH   7   8
HETATM    8  C7  UNL     1     -38.184  15.214  -4.002  1.00 20.00     0.190 C 
BRANCH   8   9
HETATM    9  C8  UNL     1     -38.658  15.271  -5.443  1.00 20.00     0.141 C 
HETATM   10 CL10 UNL     1     -37.366  15.876  -6.512  1.00 20.00    -0.128 Cl
ENDBRANCH   8   9
ENDBRANCH   7   8
ENDBRANCH   6   7
TORSDOF 3
ENDMDL
MODEL 9
REMARK VINA RESULT:      -3.9     11.486     11.956
REMARK  3 active torsions:
REMARK  status: ('A' for Active; 'I' for Inactive)
REMARK    1  A    between atoms: C6_6  and  O9_9 
REMARK    2  A    between atoms: C7_7  and  C8_8 
REMARK    3  A    between atoms: C7_7  and  O9_9 
ROOT
HETATM    1  C1  UNL     1     -34.154  18.421   1.775  1.00 20.00     0.000 A 
HETATM    2  C2  UNL     1     -35.016  17.497   1.183  1.00 20.00     0.003 A 
HETATM    3  C3  UNL     1     -33.089  18.949   1.045  1.00 20.00     0.003 A 
HETATM    4  C4  UNL     1     -34.813  17.102  -0.139  1.00 20.00     0.037 A 
HETATM    5  C5  UNL     1     -32.886  18.552  -0.278  1.00 20.00     0.037 A 
HETATM    6  C6  UNL     1     -33.748  17.630  -0.869  1.00 20.00     0.068 A 
ENDROOT
BRANCH   6   7
HETATM    7  O9  UNL     1     -33.550  17.242  -2.159  1.00 20.00    -0.350 OA
BRANCH   7   8
HETATM    8  C7  UNL     1     -34.026  15.950  -2.530  1.00 20.00     0.190 C 
BRANCH   8   9
HETATM    9  C8  UNL     1     -33.129  15.361  -3.603  1.00 20.00     0.141 C 
HETATM   10 CL10 UNL     1     -33.409  13.610  -3.773  1.00 20.00    -0.128 Cl
ENDBRANCH   8   9
ENDBRANCH   7   8
ENDBRANCH   6   7
TORSDOF 3
ENDMDL
