MODEL 1
REMARK VINA RESULT:      -5.2      0.000      0.000
REMARK  0 active torsions:
REMARK  status: ('A' for Active; 'I' for Inactive)
ROOT
HETATM    1  C1  UNL     1     -35.191   4.891   5.960  1.00 20.00     0.001 A 
HETATM    2  C2  UNL     1     -34.333   5.850   6.499  1.00 20.00     0.001 A 
HETATM    3  C3  UNL     1     -35.198   4.657   4.585  1.00 20.00     0.008 A 
HETATM    4  C4  UNL     1     -33.482   6.574   5.664  1.00 20.00     0.019 A 
HETATM    5  C5  UNL     1     -34.348   5.381   3.750  1.00 20.00    -0.045 A 
HETATM    6  C6  UNL     1     -33.489   6.340   4.289  1.00 20.00     0.012 A 
HETATM    7  C7  UNL     1     -34.399   5.086   2.284  1.00 20.00     0.049 C 
HETATM    8  I8  UNL     1     -32.189   7.459   3.093  1.00 20.00    -0.044 I 
ENDROOT
TORSDOF 0
ENDMDL
MODEL 2
REMARK VINA RESULT:      -5.1      0.668      2.486
REMARK  0 active torsions:
REMARK  status: ('A' for Active; 'I' for Inactive)
ROOT
HETATM    1  C1  UNL     1     -35.320   4.375   5.854  1.00 20.00     0.001 A 
HETATM    2  C2  UNL     1     -35.143   4.200   4.481  1.00 20.00     0.001 A 
HETATM    3  C3  UNL     1     -34.664   5.415   6.513  1.00 20.00     0.008 A 
HETATM    4  C4  UNL     1     -34.311   5.063   3.769  1.00 20.00     0.019 A 
HETATM    5  C5  UNL     1     -33.832   6.278   5.801  1.00 20.00    -0.045 A 
HETATM    6  C6  UNL     1     -33.655   6.103   4.428  1.00 20.00     0.012 A 
HETATM    7  C7  UNL     1     -33.156   7.374   6.562  1.00 20.00     0.049 C 
HETATM    8  I8  UNL     1     -32.422   7.361   3.301  1.00 20.00    -0.044 I 
ENDROOT
TORSDOF 0
ENDMDL
MODEL 3
REMARK VINA RESULT:      -3.9     12.524     13.575
REMARK  0 active torsions:
REMARK  status: ('A' for Active; 'I' for Inactive)
ROOT
HETATM    1  C1  UNL     1     -33.558  13.732  -3.881  1.00 20.00     0.001 A 
HETATM    2  C2  UNL     1     -33.023  14.988  -3.594  1.00 20.00     0.001 A 
HETATM    3  C3  UNL     1     -34.370  13.561  -5.002  1.00 20.00     0.008 A 
HETATM    4  C4  UNL     1     -33.299  16.072  -4.427  1.00 20.00     0.019 A 
HETATM    5  C5  UNL     1     -34.646  14.645  -5.835  1.00 20.00    -0.045 A 
HETATM    6  C6  UNL     1     -34.111  15.900  -5.548  1.00 20.00     0.012 A 
HETATM    7  C7  UNL     1     -35.522  14.401  -7.023  1.00 20.00     0.049 C 
HETATM    8  I8  UNL     1     -34.484  17.566  -6.756  1.00 20.00    -0.044 I 
ENDROOT
TORSDOF 0
ENDMDL
MODEL 4
REMARK VINA RESULT:      -3.9      9.115     10.293
REMARK  0 active torsions:
REMARK  status: ('A' for Active; 'I' for Inactive)
ROOT
HETATM    1  C1  UNL     1     -40.914   7.082  -0.639  1.00 20.00     0.001 A 
HETATM    2  C2  UNL     1     -40.545   5.806  -0.215  1.00 20.00     0.001 A 
HETATM    3  C3  UNL     1     -41.781   7.234  -1.722  1.00 20.00     0.008 A 
HETATM    4  C4  UNL     1     -41.042   4.681  -0.874  1.00 20.00     0.019 A 
HETATM    5  C5  UNL     1     -42.277   6.109  -2.381  1.00 20.00    -0.045 A 
HETATM    6  C6  UNL     1     -41.908   4.832  -1.957  1.00 20.00     0.012 A 
HETATM    7  C7  UNL     1     -43.202   6.333  -3.534  1.00 20.00     0.049 C 
HETATM    8  I8  UNL     1     -42.615   3.104  -2.899  1.00 20.00    -0.044 I 
ENDROOT
TORSDOF 0
ENDMDL
MODEL 5
REMARK VINA RESULT:      -3.9     12.170     13.374
REMARK  0 active torsions:
REMARK  status: ('A' for Active; 'I' for Inactive)
ROOT
HETATM    1  C1  UNL     1     -34.716  13.293  -4.542  1.00 20.00     0.001 A 
HETATM    2  C2  UNL     1     -34.788  13.846  -5.821  1.00 20.00     0.001 A 
HETATM    3  C3  UNL     1     -34.392  14.101  -3.452  1.00 20.00     0.008 A 
HETATM    4  C4  UNL     1     -34.536  15.204  -6.010  1.00 20.00     0.019 A 
HETATM    5  C5  UNL     1     -34.140  15.459  -3.641  1.00 20.00    -0.045 A 
HETATM    6  C6  UNL     1     -34.212  16.012  -4.919  1.00 20.00     0.012 A 
HETATM    7  C7  UNL     1     -33.798  16.275  -2.434  1.00 20.00     0.049 C 
HETATM    8  I8  UNL     1     -33.846  18.041  -5.272  1.00 20.00    -0.044 I 
ENDROOT
TORSDOF 0
ENDMDL
MODEL 6
REMARK VINA RESULT:      -3.9     12.702     13.837
REMARK  0 active torsions:
REMARK  status: ('A' for Active; 'I' for Inactive)
ROOT
HETATM    1  C1  UNL     1     -33.174  14.878  -3.517  1.00 20.00     0.001 A 
HETATM    2  C2  UNL     1     -33.831  13.726  -3.948  1.00 20.00     0.001 A 
HETATM    3  C3  UNL     1     -33.209  16.034  -4.297  1.00 20.00     0.008 A 
HETATM    4  C4  UNL     1     -34.523  13.729  -5.159  1.00 20.00     0.019 A 
HETATM    5  C5  UNL     1     -33.901  16.037  -5.508  1.00 20.00    -0.045 A 
HETATM    6  C6  UNL     1     -34.558  14.884  -5.940  1.00 20.00     0.012 A 
HETATM    7  C7  UNL     1     -33.905  17.305  -6.301  1.00 20.00     0.049 C 
HETATM    8  I8  UNL     1     -35.614  14.821  -7.744  1.00 20.00    -0.044 I 
ENDROOT
TORSDOF 0
ENDMDL
MODEL 7
REMARK VINA RESULT:      -3.9      9.095     10.203
REMARK  0 active torsions:
REMARK  status: ('A' for Active; 'I' for Inactive)
ROOT
HETATM    1  C1  UNL     1     -40.719   5.031  -0.413  1.00 20.00     0.001 A 
HETATM    2  C2  UNL     1     -40.631   6.422  -0.373  1.00 20.00     0.001 A 
HETATM    3  C3  UNL     1     -41.514   4.411  -1.378  1.00 20.00     0.008 A 
HETATM    4  C4  UNL     1     -41.336   7.193  -1.297  1.00 20.00     0.019 A 
HETATM    5  C5  UNL     1     -42.219   5.182  -2.302  1.00 20.00    -0.045 A 
HETATM    6  C6  UNL     1     -42.130   6.574  -2.262  1.00 20.00     0.012 A 
HETATM    7  C7  UNL     1     -43.052   4.462  -3.313  1.00 20.00     0.049 C 
HETATM    8  I8  UNL     1     -43.160   7.789  -3.617  1.00 20.00    -0.044 I 
ENDROOT
TORSDOF 0
ENDMDL
MODEL 8
REMARK VINA RESULT:      -3.8     11.889     12.354
REMARK  0 active torsions:
REMARK  status: ('A' for Active; 'I' for Inactive)
ROOT
HETATM    1  C1  UNL     1     -34.735  13.276  -4.641  1.00 20.00     0.001 A 
HETATM    2  C2  UNL     1     -33.551  13.629  -3.994  1.00 20.00     0.001 A 
HETATM    3  C3  UNL     1     -35.904  13.996  -4.395  1.00 20.00     0.008 A 
HETATM    4  C4  UNL     1     -33.535  14.700  -3.101  1.00 20.00     0.019 A 
HETATM    5  C5  UNL     1     -35.889  15.068  -3.502  1.00 20.00    -0.045 A 
HETATM    6  C6  UNL     1     -34.704  15.420  -2.855  1.00 20.00     0.012 A 
HETATM    7  C7  UNL     1     -37.172  15.803  -3.278  1.00 20.00     0.049 C 
HETATM    8  I8  UNL     1     -34.611  17.015  -1.505  1.00 20.00    -0.044 I 
ENDROOT
TORSDOF 0
ENDMDL
MODEL 9
REMARK VINA RESULT:      -3.8     12.244     13.412
REMARK  0 active torsions:
REMARK  status: ('A' for Active; 'I' for Inactive)
ROOT
HETATM    1  C1  UNL     1     -34.777  13.960  -5.819  1.00 20.00     0.001 A 
HETATM    2  C2  UNL     1     -35.093  13.512  -4.536  1.00 20.00     0.001 A 
HETATM    3  C3  UNL     1     -34.277  15.250  -6.003  1.00 20.00     0.008 A 
HETATM    4  C4  UNL     1     -34.911  14.353  -3.438  1.00 20.00     0.019 A 
HETATM    5  C5  UNL     1     -34.095  16.090  -4.905  1.00 20.00    -0.045 A 
HETATM    6  C6  UNL     1     -34.411  15.642  -3.622  1.00 20.00     0.012 A 
HETATM    7  C7  UNL     1     -33.555  17.461  -5.163  1.00 20.00     0.049 C 
HETATM    8  I8  UNL     1     -34.161  16.851  -1.934  1.00 20.00    -0.044 I 
ENDROOT
TORSDOF 0
ENDMDL
