MODEL 1
REMARK VINA RESULT:      -4.8      0.000      0.000
REMARK  1 active torsions:
REMARK  status: ('A' for Active; 'I' for Inactive)
REMARK    1  A    between atoms: C4_4  and  C6_6 
ROOT
HETATM    1  C1  UNL     1     -35.151   4.748   6.105  1.00 20.00     0.027 A 
HETATM    2  C2  UNL     1     -34.954   4.595   4.712  1.00 20.00     0.034 A 
HETATM    3  C3  UNL     1     -34.414   5.849   6.476  1.00 20.00     0.142 A 
HETATM    4  C4  UNL     1     -34.111   5.613   4.331  1.00 20.00     0.052 A 
HETATM    5  O7  UNL     1     -33.778   6.383   5.400  1.00 20.00    -0.327 OA
ENDROOT
BRANCH   4   6
HETATM    6  C6  UNL     1     -33.530   6.006   3.040  1.00 20.00     0.060 C 
HETATM    7  C5  UNL     1     -32.241   6.828   3.184  1.00 20.00     0.012 C 
ENDBRANCH   4   6
TORSDOF 1
ENDMDL
MODEL 2
REMARK VINA RESULT:      -4.5      1.046      1.449
REMARK  1 active torsions:
REMARK  status: ('A' for Active; 'I' for Inactive)
REMARK    1  A    between atoms: C4_4  and  C6_6 
ROOT
HETATM    1  C1  UNL     1     -34.772   5.134   6.332  1.00 20.00     0.027 A 
HETATM    2  C2  UNL     1     -34.042   6.144   5.662  1.00 20.00     0.034 A 
HETATM    3  C3  UNL     1     -35.168   4.241   5.363  1.00 20.00     0.142 A 
HETATM    4  C4  UNL     1     -34.043   5.796   4.331  1.00 20.00     0.052 A 
HETATM    5  O7  UNL     1     -34.727   4.638   4.140  1.00 20.00    -0.327 OA
ENDROOT
BRANCH   4   6
HETATM    6  C6  UNL     1     -33.469   6.418   3.130  1.00 20.00     0.060 C 
HETATM    7  C5  UNL     1     -32.026   6.902   3.332  1.00 20.00     0.012 C 
ENDBRANCH   4   6
TORSDOF 1
ENDMDL
MODEL 3
REMARK VINA RESULT:      -4.2      0.855      3.169
REMARK  1 active torsions:
REMARK  status: ('A' for Active; 'I' for Inactive)
REMARK    1  A    between atoms: C4_4  and  C6_6 
ROOT
HETATM    1  C1  UNL     1     -33.459   5.920   2.556  1.00 20.00     0.027 A 
HETATM    2  C2  UNL     1     -34.385   5.444   3.514  1.00 20.00     0.034 A 
HETATM    3  C3  UNL     1     -32.527   6.651   3.255  1.00 20.00     0.142 A 
HETATM    4  C4  UNL     1     -33.952   5.918   4.731  1.00 20.00     0.052 A 
HETATM    5  O7  UNL     1     -32.820   6.654   4.582  1.00 20.00    -0.327 OA
ENDROOT
BRANCH   4   6
HETATM    6  C6  UNL     1     -34.464   5.782   6.102  1.00 20.00     0.060 C 
HETATM    7  C5  UNL     1     -35.102   4.413   6.375  1.00 20.00     0.012 C 
ENDBRANCH   4   6
TORSDOF 1
ENDMDL
MODEL 4
REMARK VINA RESULT:      -4.1      1.336      3.387
REMARK  1 active torsions:
REMARK  status: ('A' for Active; 'I' for Inactive)
REMARK    1  A    between atoms: C4_4  and  C6_6 
ROOT
HETATM    1  C1  UNL     1     -32.323   6.949   3.692  1.00 20.00     0.027 A 
HETATM    2  C2  UNL     1     -33.260   6.585   4.688  1.00 20.00     0.034 A 
HETATM    3  C3  UNL     1     -32.674   6.244   2.563  1.00 20.00     0.142 A 
HETATM    4  C4  UNL     1     -34.117   5.686   4.098  1.00 20.00     0.052 A 
HETATM    5  O7  UNL     1     -33.767   5.472   2.802  1.00 20.00    -0.327 OA
ENDROOT
BRANCH   4   6
HETATM    6  C6  UNL     1     -35.288   4.944   4.585  1.00 20.00     0.060 C 
HETATM    7  C5  UNL     1     -35.065   4.302   5.962  1.00 20.00     0.012 C 
ENDBRANCH   4   6
TORSDOF 1
ENDMDL
MODEL 5
REMARK VINA RESULT:      -4.0      1.154      3.416
REMARK  1 active torsions:
REMARK  status: ('A' for Active; 'I' for Inactive)
REMARK    1  A    between atoms: C4_4  and  C6_6 
ROOT
HETATM    1  C1  UNL     1     -32.926   6.317   2.831  1.00 20.00     0.027 A 
HETATM    2  C2  UNL     1     -32.891   6.583   4.220  1.00 20.00     0.034 A 
HETATM    3  C3  UNL     1     -34.004   5.488   2.627  1.00 20.00     0.142 A 
HETATM    4  C4  UNL     1     -33.952   5.899   4.767  1.00 20.00     0.052 A 
HETATM    5  O7  UNL     1     -34.636   5.229   3.803  1.00 20.00    -0.327 OA
ENDROOT
BRANCH   4   6
HETATM    6  C6  UNL     1     -34.460   5.763   6.139  1.00 20.00     0.060 C 
HETATM    7  C5  UNL     1     -35.116   4.401   6.406  1.00 20.00     0.012 C 
ENDBRANCH   4   6
TORSDOF 1
ENDMDL
MODEL 6
REMARK VINA RESULT:      -3.7     12.059     12.438
REMARK  1 active torsions:
REMARK  status: ('A' for Active; 'I' for Inactive)
REMARK    1  A    between atoms: C4_4  and  C6_6 
ROOT
HETATM    1  C1  UNL     1     -34.795  13.326  -4.372  1.00 20.00     0.027 A 
HETATM    2  C2  UNL     1     -33.759  14.047  -3.732  1.00 20.00     0.034 A 
HETATM    3  C3  UNL     1     -35.954  14.027  -4.131  1.00 20.00     0.142 A 
HETATM    4  C4  UNL     1     -34.358  15.139  -3.148  1.00 20.00     0.052 A 
HETATM    5  O7  UNL     1     -35.696  15.135  -3.386  1.00 20.00    -0.327 OA
ENDROOT
BRANCH   4   6
HETATM    6  C6  UNL     1     -33.844  16.259  -2.348  1.00 20.00     0.060 C 
HETATM    7  C5  UNL     1     -34.643  16.497  -1.060  1.00 20.00     0.012 C 
ENDBRANCH   4   6
TORSDOF 1
ENDMDL
MODEL 7
REMARK VINA RESULT:      -3.3      9.850     10.375
REMARK  1 active torsions:
REMARK  status: ('A' for Active; 'I' for Inactive)
REMARK    1  A    between atoms: C4_4  and  C6_6 
ROOT
HETATM    1  C1  UNL     1     -40.699   6.145  -0.280  1.00 20.00     0.027 A 
HETATM    2  C2  UNL     1     -41.431   7.062  -1.070  1.00 20.00     0.034 A 
HETATM    3  C3  UNL     1     -40.810   4.926  -0.907  1.00 20.00     0.142 A 
HETATM    4  C4  UNL     1     -41.937   6.339  -2.125  1.00 20.00     0.052 A 
HETATM    5  O7  UNL     1     -41.563   5.036  -2.034  1.00 20.00    -0.327 OA
ENDROOT
BRANCH   4   6
HETATM    6  C6  UNL     1     -42.771   6.697  -3.281  1.00 20.00     0.060 C 
HETATM    7  C5  UNL     1     -42.453   8.088  -3.846  1.00 20.00     0.012 C 
ENDBRANCH   4   6
TORSDOF 1
ENDMDL
MODEL 8
REMARK VINA RESULT:      -3.3      9.604     10.269
REMARK  1 active torsions:
REMARK  status: ('A' for Active; 'I' for Inactive)
REMARK    1  A    between atoms: C4_4  and  C6_6 
ROOT
HETATM    1  C1  UNL     1     -41.085   6.904  -1.133  1.00 20.00     0.027 A 
HETATM    2  C2  UNL     1     -41.860   6.392  -2.201  1.00 20.00     0.034 A 
HETATM    3  C3  UNL     1     -40.701   5.817  -0.383  1.00 20.00     0.142 A 
HETATM    4  C4  UNL     1     -41.893   5.027  -2.028  1.00 20.00     0.052 A 
HETATM    5  O7  UNL     1     -41.189   4.668  -0.922  1.00 20.00    -0.327 OA
ENDROOT
BRANCH   4   6
HETATM    6  C6  UNL     1     -42.522   3.934  -2.782  1.00 20.00     0.060 C 
HETATM    7  C5  UNL     1     -41.568   2.762  -3.053  1.00 20.00     0.012 C 
ENDBRANCH   4   6
TORSDOF 1
ENDMDL
MODEL 9
REMARK VINA RESULT:      -3.2      9.789     10.478
REMARK  1 active torsions:
REMARK  status: ('A' for Active; 'I' for Inactive)
REMARK    1  A    between atoms: C4_4  and  C6_6 
ROOT
HETATM    1  C1  UNL     1     -40.790   6.135  -0.566  1.00 20.00     0.027 A 
HETATM    2  C2  UNL     1     -40.813   4.735  -0.770  1.00 20.00     0.034 A 
HETATM    3  C3  UNL     1     -41.488   6.685  -1.616  1.00 20.00     0.142 A 
HETATM    4  C4  UNL     1     -41.525   4.529  -1.930  1.00 20.00     0.052 A 
HETATM    5  O7  UNL     1     -41.940   5.713  -2.451  1.00 20.00    -0.327 OA
ENDROOT
BRANCH   4   6
HETATM    6  C6  UNL     1     -41.902   3.322  -2.676  1.00 20.00     0.060 C 
HETATM    7  C5  UNL     1     -43.216   3.479  -3.453  1.00 20.00     0.012 C 
ENDBRANCH   4   6
TORSDOF 1
ENDMDL
