MODEL 1
REMARK VINA RESULT:      -4.8      0.000      0.000
REMARK  1 active torsions:
REMARK  status: ('A' for Active; 'I' for Inactive)
REMARK    1  A    between atoms: C6_6  and  S8_8 
ROOT
HETATM    1  C1  UNL     1     -35.138   4.818   6.064  1.00 20.00     0.000 A 
HETATM    2  C2  UNL     1     -34.306   5.879   6.420  1.00 20.00     0.001 A 
HETATM    3  C3  UNL     1     -35.253   4.440   4.726  1.00 20.00     0.001 A 
HETATM    4  C4  UNL     1     -33.587   6.561   5.438  1.00 20.00     0.018 A 
HETATM    5  C5  UNL     1     -34.533   5.123   3.745  1.00 20.00     0.018 A 
HETATM    6  C6  UNL     1     -33.701   6.184   4.101  1.00 20.00    -0.000 A 
ENDROOT
BRANCH   6   7
HETATM    7  S8  UNL     1     -32.784   7.057   2.847  1.00 20.00    -0.134 SA
HETATM    8  C7  UNL     1     -31.365   7.591   3.829  1.00 20.00     0.095 C 
ENDBRANCH   6   7
TORSDOF 1
ENDMDL
MODEL 2
REMARK VINA RESULT:      -4.8      0.006      1.708
REMARK  1 active torsions:
REMARK  status: ('A' for Active; 'I' for Inactive)
REMARK    1  A    between atoms: C6_6  and  S8_8 
ROOT
HETATM    1  C1  UNL     1     -35.140   4.816   6.064  1.00 20.00     0.000 A 
HETATM    2  C2  UNL     1     -35.250   4.438   4.726  1.00 20.00     0.001 A 
HETATM    3  C3  UNL     1     -34.309   5.878   6.423  1.00 20.00     0.001 A 
HETATM    4  C4  UNL     1     -34.531   5.123   3.746  1.00 20.00     0.018 A 
HETATM    5  C5  UNL     1     -33.589   6.562   5.443  1.00 20.00     0.018 A 
HETATM    6  C6  UNL     1     -33.700   6.184   4.104  1.00 20.00    -0.000 A 
ENDROOT
BRANCH   6   7
HETATM    7  S8  UNL     1     -32.780   7.057   2.853  1.00 20.00    -0.134 SA
HETATM    8  C7  UNL     1     -31.366   7.596   3.839  1.00 20.00     0.095 C 
ENDBRANCH   6   7
TORSDOF 1
ENDMDL
MODEL 3
REMARK VINA RESULT:      -3.7      9.650     10.849
REMARK  1 active torsions:
REMARK  status: ('A' for Active; 'I' for Inactive)
REMARK    1  A    between atoms: C6_6  and  S8_8 
ROOT
HETATM    1  C1  UNL     1     -40.994   6.954  -0.975  1.00 20.00     0.000 A 
HETATM    2  C2  UNL     1     -41.888   7.180  -2.021  1.00 20.00     0.001 A 
HETATM    3  C3  UNL     1     -40.692   5.649  -0.585  1.00 20.00     0.001 A 
HETATM    4  C4  UNL     1     -42.479   6.101  -2.679  1.00 20.00     0.018 A 
HETATM    5  C5  UNL     1     -41.283   4.570  -1.244  1.00 20.00     0.018 A 
HETATM    6  C6  UNL     1     -42.177   4.797  -2.290  1.00 20.00    -0.000 A 
ENDROOT
BRANCH   6   7
HETATM    7  S8  UNL     1     -42.934   3.419  -3.130  1.00 20.00    -0.134 SA
HETATM    8  C7  UNL     1     -41.486   2.358  -3.333  1.00 20.00     0.095 C 
ENDBRANCH   6   7
TORSDOF 1
ENDMDL
MODEL 4
REMARK VINA RESULT:      -3.7     11.984     12.323
REMARK  1 active torsions:
REMARK  status: ('A' for Active; 'I' for Inactive)
REMARK    1  A    between atoms: C6_6  and  S8_8 
ROOT
HETATM    1  C1  UNL     1     -35.183  13.420  -4.359  1.00 20.00     0.000 A 
HETATM    2  C2  UNL     1     -33.829  13.669  -4.135  1.00 20.00     0.001 A 
HETATM    3  C3  UNL     1     -36.145  14.314  -3.886  1.00 20.00     0.001 A 
HETATM    4  C4  UNL     1     -33.436  14.813  -3.440  1.00 20.00     0.018 A 
HETATM    5  C5  UNL     1     -35.751  15.458  -3.191  1.00 20.00     0.018 A 
HETATM    6  C6  UNL     1     -34.397  15.707  -2.968  1.00 20.00    -0.000 A 
ENDROOT
BRANCH   6   7
HETATM    7  S8  UNL     1     -33.894  17.167  -2.079  1.00 20.00    -0.134 SA
HETATM    8  C7  UNL     1     -34.687  16.841  -0.490  1.00 20.00     0.095 C 
ENDBRANCH   6   7
TORSDOF 1
ENDMDL
MODEL 5
REMARK VINA RESULT:      -3.7     11.992     12.346
REMARK  1 active torsions:
REMARK  status: ('A' for Active; 'I' for Inactive)
REMARK    1  A    between atoms: C6_6  and  S8_8 
ROOT
HETATM    1  C1  UNL     1     -35.201  13.416  -4.359  1.00 20.00     0.000 A 
HETATM    2  C2  UNL     1     -36.159  14.308  -3.878  1.00 20.00     0.001 A 
HETATM    3  C3  UNL     1     -33.845  13.671  -4.152  1.00 20.00     0.001 A 
HETATM    4  C4  UNL     1     -35.762  15.454  -3.189  1.00 20.00     0.018 A 
HETATM    5  C5  UNL     1     -33.448  14.817  -3.463  1.00 20.00     0.018 A 
HETATM    6  C6  UNL     1     -34.407  15.709  -2.982  1.00 20.00    -0.000 A 
ENDROOT
BRANCH   6   7
HETATM    7  S8  UNL     1     -33.901  17.174  -2.102  1.00 20.00    -0.134 SA
HETATM    8  C7  UNL     1     -34.680  16.851  -0.505  1.00 20.00     0.095 C 
ENDBRANCH   6   7
TORSDOF 1
ENDMDL
MODEL 6
REMARK VINA RESULT:      -3.6     12.188     13.720
REMARK  1 active torsions:
REMARK  status: ('A' for Active; 'I' for Inactive)
REMARK    1  A    between atoms: C6_6  and  S8_8 
ROOT
HETATM    1  C1  UNL     1     -33.075  15.032  -3.613  1.00 20.00     0.000 A 
HETATM    2  C2  UNL     1     -33.158  16.086  -4.523  1.00 20.00     0.001 A 
HETATM    3  C3  UNL     1     -33.728  13.828  -3.879  1.00 20.00     0.001 A 
HETATM    4  C4  UNL     1     -33.892  15.935  -5.699  1.00 20.00     0.018 A 
HETATM    5  C5  UNL     1     -34.463  13.678  -5.055  1.00 20.00     0.018 A 
HETATM    6  C6  UNL     1     -34.545  14.732  -5.965  1.00 20.00    -0.000 A 
ENDROOT
BRANCH   6   7
HETATM    7  S8  UNL     1     -35.484  14.541  -7.468  1.00 20.00    -0.134 SA
HETATM    8  C7  UNL     1     -37.061  15.238  -6.928  1.00 20.00     0.095 C 
ENDBRANCH   6   7
TORSDOF 1
ENDMDL
MODEL 7
REMARK VINA RESULT:      -3.6     12.184     13.768
REMARK  1 active torsions:
REMARK  status: ('A' for Active; 'I' for Inactive)
REMARK    1  A    between atoms: C6_6  and  S8_8 
ROOT
HETATM    1  C1  UNL     1     -33.033  15.033  -3.639  1.00 20.00     0.000 A 
HETATM    2  C2  UNL     1     -33.668  13.817  -3.896  1.00 20.00     0.001 A 
HETATM    3  C3  UNL     1     -33.161  16.090  -4.540  1.00 20.00     0.001 A 
HETATM    4  C4  UNL     1     -34.431  13.660  -5.053  1.00 20.00     0.018 A 
HETATM    5  C5  UNL     1     -33.924  15.933  -5.697  1.00 20.00     0.018 A 
HETATM    6  C6  UNL     1     -34.559  14.717  -5.954  1.00 20.00    -0.000 A 
ENDROOT
BRANCH   6   7
HETATM    7  S8  UNL     1     -35.532  14.516  -7.432  1.00 20.00    -0.134 SA
HETATM    8  C7  UNL     1     -37.069  15.295  -6.891  1.00 20.00     0.095 C 
ENDBRANCH   6   7
TORSDOF 1
ENDMDL
MODEL 8
REMARK VINA RESULT:      -3.6      9.776     10.681
REMARK  1 active torsions:
REMARK  status: ('A' for Active; 'I' for Inactive)
REMARK    1  A    between atoms: C6_6  and  S8_8 
ROOT
HETATM    1  C1  UNL     1     -40.772   5.027  -0.841  1.00 20.00     0.000 A 
HETATM    2  C2  UNL     1     -40.751   6.364  -0.442  1.00 20.00     0.001 A 
HETATM    3  C3  UNL     1     -41.593   4.627  -1.896  1.00 20.00     0.001 A 
HETATM    4  C4  UNL     1     -41.550   7.300  -1.099  1.00 20.00     0.018 A 
HETATM    5  C5  UNL     1     -42.392   5.565  -2.552  1.00 20.00     0.018 A 
HETATM    6  C6  UNL     1     -42.371   6.901  -2.153  1.00 20.00    -0.000 A 
ENDROOT
BRANCH   6   7
HETATM    7  S8  UNL     1     -43.392   8.098  -2.990  1.00 20.00    -0.134 SA
HETATM    8  C7  UNL     1     -42.351   8.428  -4.428  1.00 20.00     0.095 C 
ENDBRANCH   6   7
TORSDOF 1
ENDMDL
MODEL 9
REMARK VINA RESULT:      -3.5     12.323     13.770
REMARK  1 active torsions:
REMARK  status: ('A' for Active; 'I' for Inactive)
REMARK    1  A    between atoms: C6_6  and  S8_8 
ROOT
HETATM    1  C1  UNL     1     -33.530  13.758  -3.820  1.00 20.00     0.000 A 
HETATM    2  C2  UNL     1     -32.996  15.037  -3.666  1.00 20.00     0.001 A 
HETATM    3  C3  UNL     1     -34.367  13.476  -4.900  1.00 20.00     0.001 A 
HETATM    4  C4  UNL     1     -33.298  16.035  -4.594  1.00 20.00     0.018 A 
HETATM    5  C5  UNL     1     -34.669  14.474  -5.827  1.00 20.00     0.018 A 
HETATM    6  C6  UNL     1     -34.134  15.754  -5.673  1.00 20.00    -0.000 A 
ENDROOT
BRANCH   6   7
HETATM    7  S8  UNL     1     -34.521  17.029  -6.857  1.00 20.00    -0.134 SA
HETATM    8  C7  UNL     1     -33.772  18.447  -6.027  1.00 20.00     0.095 C 
ENDBRANCH   6   7
TORSDOF 1
ENDMDL
