MODEL 1
REMARK VINA RESULT:      -3.8      0.000      0.000
REMARK  3 active torsions:
REMARK  status: ('A' for Active; 'I' for Inactive)
REMARK    1  A    between atoms: C2_2  and  C4_4 
REMARK    2  A    between atoms: C4_4  and  S8_8 
REMARK    3  A    between atoms: C5_5  and  S8_8 
ROOT
HETATM    1  O6  UNL     1     -36.871  14.088  -3.766  1.00 20.00    -0.228 OA
HETATM    2  O7  UNL     1     -34.993  12.558  -4.477  1.00 20.00    -0.228 OA
HETATM    3  S8  UNL     1     -35.553  13.894  -4.350  1.00 20.00     0.147 S 
ENDROOT
BRANCH   3   4
HETATM    4  C4  UNL     1     -34.403  14.895  -3.466  1.00 20.00     0.166 C 
BRANCH   4   5
HETATM    5  C2  UNL     1     -35.187  15.766  -2.545  1.00 20.00    -0.022 C 
HETATM    6  C1  UNL     1     -34.677  16.338  -1.448  1.00 20.00     0.008 C 
ENDBRANCH   4   5
ENDBRANCH   3   4
BRANCH   3   7
HETATM    7  C5  UNL     1     -35.574  14.622  -5.972  1.00 20.00     0.136 C 
HETATM    8  C3  UNL     1     -34.304  15.395  -6.250  1.00 20.00     0.021 C 
ENDBRANCH   3   7
TORSDOF 3
ENDMDL
MODEL 2
REMARK VINA RESULT:      -3.8      1.208      1.480
REMARK  3 active torsions:
REMARK  status: ('A' for Active; 'I' for Inactive)
REMARK    1  A    between atoms: C2_2  and  C4_4 
REMARK    2  A    between atoms: C4_4  and  S8_8 
REMARK    3  A    between atoms: C5_5  and  S8_8 
ROOT
HETATM    1  O6  UNL     1     -34.998  12.689  -4.187  1.00 20.00    -0.228 OA
HETATM    2  O7  UNL     1     -32.961  14.139  -3.839  1.00 20.00    -0.228 OA
HETATM    3  S8  UNL     1     -34.358  13.995  -4.215  1.00 20.00     0.147 S 
ENDROOT
BRANCH   3   4
HETATM    4  C4  UNL     1     -35.314  15.102  -3.231  1.00 20.00     0.166 C 
BRANCH   4   5
HETATM    5  C2  UNL     1     -34.368  15.844  -2.351  1.00 20.00    -0.022 C 
HETATM    6  C1  UNL     1     -34.738  16.490  -1.239  1.00 20.00     0.008 C 
ENDBRANCH   4   5
ENDBRANCH   3   4
BRANCH   3   7
HETATM    7  C5  UNL     1     -34.539  14.643  -5.862  1.00 20.00     0.136 C 
HETATM    8  C3  UNL     1     -33.901  16.008  -5.993  1.00 20.00     0.021 C 
ENDBRANCH   3   7
TORSDOF 3
ENDMDL
MODEL 3
REMARK VINA RESULT:      -3.6     11.636     12.432
REMARK  3 active torsions:
REMARK  status: ('A' for Active; 'I' for Inactive)
REMARK    1  A    between atoms: C2_2  and  C4_4 
REMARK    2  A    between atoms: C4_4  and  S8_8 
REMARK    3  A    between atoms: C5_5  and  S8_8 
ROOT
HETATM    1  O6  UNL     1     -34.200   4.797   2.434  1.00 20.00    -0.228 OA
HETATM    2  O7  UNL     1     -36.146   5.963   3.543  1.00 20.00    -0.228 OA
HETATM    3  S8  UNL     1     -34.821   5.367   3.619  1.00 20.00     0.147 S 
ENDROOT
BRANCH   3   4
HETATM    4  C4  UNL     1     -33.717   6.558   4.304  1.00 20.00     0.166 C 
BRANCH   4   5
HETATM    5  C2  UNL     1     -32.489   6.564   3.460  1.00 20.00    -0.022 C 
HETATM    6  C1  UNL     1     -32.122   7.594   2.688  1.00 20.00     0.008 C 
ENDBRANCH   4   5
ENDBRANCH   3   4
BRANCH   3   7
HETATM    7  C5  UNL     1     -34.877   4.094   4.859  1.00 20.00     0.136 C 
HETATM    8  C3  UNL     1     -34.879   4.678   6.254  1.00 20.00     0.021 C 
ENDBRANCH   3   7
TORSDOF 3
ENDMDL
MODEL 4
REMARK VINA RESULT:      -3.5      1.288      3.261
REMARK  3 active torsions:
REMARK  status: ('A' for Active; 'I' for Inactive)
REMARK    1  A    between atoms: C2_2  and  C4_4 
REMARK    2  A    between atoms: C4_4  and  S8_8 
REMARK    3  A    between atoms: C5_5  and  S8_8 
ROOT
HETATM    1  O6  UNL     1     -33.093  14.136  -3.834  1.00 20.00    -0.228 OA
HETATM    2  O7  UNL     1     -35.078  12.644  -4.289  1.00 20.00    -0.228 OA
HETATM    3  S8  UNL     1     -34.454  13.957  -4.316  1.00 20.00     0.147 S 
ENDROOT
BRANCH   3   4
HETATM    4  C4  UNL     1     -34.546  14.580  -5.962  1.00 20.00     0.166 C 
BRANCH   4   5
HETATM    5  C2  UNL     1     -33.901  15.923  -5.966  1.00 20.00    -0.022 C 
HETATM    6  C1  UNL     1     -34.394  16.983  -6.616  1.00 20.00     0.008 C 
ENDBRANCH   4   5
ENDBRANCH   3   4
BRANCH   3   7
HETATM    7  C5  UNL     1     -35.498  15.064  -3.395  1.00 20.00     0.136 C 
HETATM    8  C3  UNL     1     -34.721  15.797  -2.324  1.00 20.00     0.021 C 
ENDBRANCH   3   7
TORSDOF 3
ENDMDL
MODEL 5
REMARK VINA RESULT:      -3.4      2.364      2.736
REMARK  3 active torsions:
REMARK  status: ('A' for Active; 'I' for Inactive)
REMARK    1  A    between atoms: C2_2  and  C4_4 
REMARK    2  A    between atoms: C4_4  and  S8_8 
REMARK    3  A    between atoms: C5_5  and  S8_8 
ROOT
HETATM    1  O6  UNL     1     -32.675  16.101  -4.658  1.00 20.00    -0.228 OA
HETATM    2  O7  UNL     1     -35.025  16.974  -4.957  1.00 20.00    -0.228 OA
HETATM    3  S8  UNL     1     -34.114  15.906  -4.575  1.00 20.00     0.147 S 
ENDROOT
BRANCH   3   4
HETATM    4  C4  UNL     1     -34.512  15.399  -2.935  1.00 20.00     0.166 C 
BRANCH   4   5
HETATM    5  C2  UNL     1     -34.112  16.504  -2.018  1.00 20.00    -0.022 C 
HETATM    6  C1  UNL     1     -34.597  16.656  -0.781  1.00 20.00     0.008 C 
ENDBRANCH   4   5
ENDBRANCH   3   4
BRANCH   3   7
HETATM    7  C5  UNL     1     -34.519  14.481  -5.558  1.00 20.00     0.136 C 
HETATM    8  C3  UNL     1     -34.620  13.233  -4.710  1.00 20.00     0.021 C 
ENDBRANCH   3   7
TORSDOF 3
ENDMDL
MODEL 6
REMARK VINA RESULT:      -3.3      1.088      1.385
REMARK  3 active torsions:
REMARK  status: ('A' for Active; 'I' for Inactive)
REMARK    1  A    between atoms: C2_2  and  C4_4 
REMARK    2  A    between atoms: C4_4  and  S8_8 
REMARK    3  A    between atoms: C5_5  and  S8_8 
ROOT
HETATM    1  O6  UNL     1     -35.978  16.161  -4.786  1.00 20.00    -0.228 OA
HETATM    2  O7  UNL     1     -36.872  13.978  -3.885  1.00 20.00    -0.228 OA
HETATM    3  S8  UNL     1     -35.758  14.793  -4.344  1.00 20.00     0.147 S 
ENDROOT
BRANCH   3   4
HETATM    4  C4  UNL     1     -34.527  14.810  -3.082  1.00 20.00     0.166 C 
BRANCH   4   5
HETATM    5  C2  UNL     1     -34.503  16.182  -2.503  1.00 20.00    -0.022 C 
HETATM    6  C1  UNL     1     -34.616  16.440  -1.195  1.00 20.00     0.008 C 
ENDBRANCH   4   5
ENDBRANCH   3   4
BRANCH   3   7
HETATM    7  C5  UNL     1     -34.970  13.919  -5.678  1.00 20.00     0.136 C 
HETATM    8  C3  UNL     1     -34.540  14.861  -6.780  1.00 20.00     0.021 C 
ENDBRANCH   3   7
TORSDOF 3
ENDMDL
MODEL 7
REMARK VINA RESULT:      -3.3      2.544      3.808
REMARK  3 active torsions:
REMARK  status: ('A' for Active; 'I' for Inactive)
REMARK    1  A    between atoms: C2_2  and  C4_4 
REMARK    2  A    between atoms: C4_4  and  S8_8 
REMARK    3  A    between atoms: C5_5  and  S8_8 
ROOT
HETATM    1  O6  UNL     1     -35.204  16.761  -4.847  1.00 20.00    -0.228 OA
HETATM    2  O7  UNL     1     -32.740  16.237  -4.674  1.00 20.00    -0.228 OA
HETATM    3  S8  UNL     1     -34.037  16.427  -4.045  1.00 20.00     0.147 S 
ENDROOT
BRANCH   3   4
HETATM    4  C4  UNL     1     -34.410  14.987  -3.099  1.00 20.00     0.166 C 
BRANCH   4   5
HETATM    5  C2  UNL     1     -33.936  13.808  -3.877  1.00 20.00    -0.022 C 
HETATM    6  C1  UNL     1     -34.660  13.204  -4.827  1.00 20.00     0.008 C 
ENDBRANCH   4   5
ENDBRANCH   3   4
BRANCH   3   7
HETATM    7  C5  UNL     1     -33.853  17.696  -2.813  1.00 20.00     0.136 C 
HETATM    8  C3  UNL     1     -33.862  17.117  -1.415  1.00 20.00     0.021 C 
ENDBRANCH   3   7
TORSDOF 3
ENDMDL
MODEL 8
REMARK VINA RESULT:      -3.2     11.342     11.931
REMARK  3 active torsions:
REMARK  status: ('A' for Active; 'I' for Inactive)
REMARK    1  A    between atoms: C2_2  and  C4_4 
REMARK    2  A    between atoms: C4_4  and  S8_8 
REMARK    3  A    between atoms: C5_5  and  S8_8 
ROOT
HETATM    1  O6  UNL     1     -34.180   5.380   2.532  1.00 20.00    -0.228 OA
HETATM    2  O7  UNL     1     -31.816   5.686   3.365  1.00 20.00    -0.228 OA
HETATM    3  S8  UNL     1     -33.206   6.115   3.323  1.00 20.00     0.147 S 
ENDROOT
BRANCH   3   4
HETATM    4  C4  UNL     1     -33.803   6.220   4.978  1.00 20.00     0.166 C 
BRANCH   4   5
HETATM    5  C2  UNL     1     -34.926   5.250   5.109  1.00 20.00    -0.022 C 
HETATM    6  C1  UNL     1     -34.873   4.150   5.869  1.00 20.00     0.008 C 
ENDBRANCH   4   5
ENDBRANCH   3   4
BRANCH   3   7
HETATM    7  C5  UNL     1     -33.228   7.803   2.766  1.00 20.00     0.136 C 
HETATM    8  C3  UNL     1     -31.982   8.145   1.980  1.00 20.00     0.021 C 
ENDBRANCH   3   7
TORSDOF 3
ENDMDL
MODEL 9
REMARK VINA RESULT:      -3.2      2.373      4.060
REMARK  3 active torsions:
REMARK  status: ('A' for Active; 'I' for Inactive)
REMARK    1  A    between atoms: C2_2  and  C4_4 
REMARK    2  A    between atoms: C4_4  and  S8_8 
REMARK    3  A    between atoms: C5_5  and  S8_8 
ROOT
HETATM    1  O6  UNL     1     -33.213  16.671  -4.609  1.00 20.00    -0.228 OA
HETATM    2  O7  UNL     1     -32.291  14.610  -3.480  1.00 20.00    -0.228 OA
HETATM    3  S8  UNL     1     -33.421  15.375  -3.983  1.00 20.00     0.147 S 
ENDROOT
BRANCH   3   4
HETATM    4  C4  UNL     1     -34.323  14.357  -5.104  1.00 20.00     0.166 C 
BRANCH   4   5
HETATM    5  C2  UNL     1     -34.776  15.225  -6.228  1.00 20.00    -0.022 C 
HETATM    6  C1  UNL     1     -34.617  14.913  -7.519  1.00 20.00     0.008 C 
ENDBRANCH   4   5
ENDBRANCH   3   4
BRANCH   3   7
HETATM    7  C5  UNL     1     -34.554  15.608  -2.633  1.00 20.00     0.136 C 
HETATM    8  C3  UNL     1     -34.061  16.667  -1.672  1.00 20.00     0.021 C 
ENDBRANCH   3   7
TORSDOF 3
ENDMDL
