MODEL 1
REMARK VINA RESULT:      -6.5      0.000      0.000
REMARK  1 active torsions:
REMARK  status: ('A' for Active; 'I' for Inactive)
REMARK    1  A    between atoms: C1_1  and  C8_8 
ROOT
HETATM    1  C1  UNL     1     -33.008   7.041   3.180  1.00 20.00    -0.067 C 
HETATM    2  C2  UNL     1     -32.411   7.701   2.374  1.00 20.00    -0.105 C 
HETATM    3  C9  UNL     1     -31.685   8.506   1.392  1.00 20.00     0.112 C 
ENDROOT
BRANCH   1   4
HETATM    4  C8  UNL     1     -33.719   6.256   4.139  1.00 20.00     0.017 A 
HETATM    5  C6  UNL     1     -34.515   5.191   3.716  1.00 20.00     0.020 A 
HETATM    6  C4  UNL     1     -35.210   4.426   4.652  1.00 20.00     0.001 A 
HETATM    7  C3  UNL     1     -35.110   4.724   6.011  1.00 20.00     0.000 A 
HETATM    8  C5  UNL     1     -34.314   5.789   6.434  1.00 20.00     0.001 A 
HETATM    9  C7  UNL     1     -33.619   6.555   5.497  1.00 20.00     0.020 A 
ENDBRANCH   1   4
TORSDOF 1
ENDMDL
MODEL 2
REMARK VINA RESULT:      -4.7     11.373     11.914
REMARK  1 active torsions:
REMARK  status: ('A' for Active; 'I' for Inactive)
REMARK    1  A    between atoms: C1_1  and  C8_8 
ROOT
HETATM    1  C1  UNL     1     -34.535  16.267  -1.649  1.00 20.00    -0.067 C 
HETATM    2  C2  UNL     1     -34.356  17.052  -0.758  1.00 20.00    -0.105 C 
HETATM    3  C9  UNL     1     -34.139  18.007   0.329  1.00 20.00     0.112 C 
ENDROOT
BRANCH   1   4
HETATM    4  C8  UNL     1     -34.749  15.334  -2.709  1.00 20.00     0.017 A 
HETATM    5  C6  UNL     1     -36.029  15.158  -3.236  1.00 20.00     0.020 A 
HETATM    6  C4  UNL     1     -36.238  14.246  -4.270  1.00 20.00     0.001 A 
HETATM    7  C3  UNL     1     -35.168  13.509  -4.779  1.00 20.00     0.000 A 
HETATM    8  C5  UNL     1     -33.888  13.685  -4.251  1.00 20.00     0.001 A 
HETATM    9  C7  UNL     1     -33.679  14.597  -3.216  1.00 20.00     0.020 A 
ENDBRANCH   1   4
TORSDOF 1
ENDMDL
MODEL 3
REMARK VINA RESULT:      -4.7     11.373     11.941
REMARK  1 active torsions:
REMARK  status: ('A' for Active; 'I' for Inactive)
REMARK    1  A    between atoms: C1_1  and  C8_8 
ROOT
HETATM    1  C1  UNL     1     -34.533  16.272  -1.647  1.00 20.00    -0.067 C 
HETATM    2  C2  UNL     1     -34.353  17.057  -0.755  1.00 20.00    -0.105 C 
HETATM    3  C9  UNL     1     -34.132  18.012   0.330  1.00 20.00     0.112 C 
ENDROOT
BRANCH   1   4
HETATM    4  C8  UNL     1     -34.747  15.338  -2.706  1.00 20.00     0.017 A 
HETATM    5  C6  UNL     1     -33.676  14.601  -3.213  1.00 20.00     0.020 A 
HETATM    6  C4  UNL     1     -33.885  13.690  -4.247  1.00 20.00     0.001 A 
HETATM    7  C3  UNL     1     -35.165  13.512  -4.775  1.00 20.00     0.000 A 
HETATM    8  C5  UNL     1     -36.236  14.249  -4.267  1.00 20.00     0.001 A 
HETATM    9  C7  UNL     1     -36.026  15.161  -3.232  1.00 20.00     0.020 A 
ENDBRANCH   1   4
TORSDOF 1
ENDMDL
MODEL 4
REMARK VINA RESULT:      -4.7      9.377     10.688
REMARK  1 active torsions:
REMARK  status: ('A' for Active; 'I' for Inactive)
REMARK    1  A    between atoms: C1_1  and  C8_8 
ROOT
HETATM    1  C1  UNL     1     -41.716   3.425  -2.609  1.00 20.00    -0.067 C 
HETATM    2  C2  UNL     1     -41.836   2.344  -3.119  1.00 20.00    -0.105 C 
HETATM    3  C9  UNL     1     -41.981   1.027  -3.740  1.00 20.00     0.112 C 
ENDROOT
BRANCH   1   4
HETATM    4  C8  UNL     1     -41.572   4.710  -2.004  1.00 20.00     0.017 A 
HETATM    5  C6  UNL     1     -42.199   5.822  -2.568  1.00 20.00     0.020 A 
HETATM    6  C4  UNL     1     -42.058   7.077  -1.977  1.00 20.00     0.001 A 
HETATM    7  C3  UNL     1     -41.290   7.222  -0.821  1.00 20.00     0.000 A 
HETATM    8  C5  UNL     1     -40.662   6.110  -0.257  1.00 20.00     0.001 A 
HETATM    9  C7  UNL     1     -40.804   4.855  -0.849  1.00 20.00     0.020 A 
ENDBRANCH   1   4
TORSDOF 1
ENDMDL
MODEL 5
REMARK VINA RESULT:      -4.6     11.135     12.401
REMARK  1 active torsions:
REMARK  status: ('A' for Active; 'I' for Inactive)
REMARK    1  A    between atoms: C1_1  and  C8_8 
ROOT
HETATM    1  C1  UNL     1     -34.761  15.959  -2.189  1.00 20.00    -0.067 C 
HETATM    2  C2  UNL     1     -34.713  16.550  -1.145  1.00 20.00    -0.105 C 
HETATM    3  C9  UNL     1     -34.655  17.270   0.127  1.00 20.00     0.112 C 
ENDROOT
BRANCH   1   4
HETATM    4  C8  UNL     1     -34.815  15.257  -3.432  1.00 20.00     0.017 A 
HETATM    5  C6  UNL     1     -35.342  15.881  -4.564  1.00 20.00     0.020 A 
HETATM    6  C4  UNL     1     -35.396  15.195  -5.776  1.00 20.00     0.001 A 
HETATM    7  C3  UNL     1     -34.922  13.885  -5.860  1.00 20.00     0.000 A 
HETATM    8  C5  UNL     1     -34.396  13.261  -4.728  1.00 20.00     0.001 A 
HETATM    9  C7  UNL     1     -34.343  13.947  -3.515  1.00 20.00     0.020 A 
ENDBRANCH   1   4
TORSDOF 1
ENDMDL
MODEL 6
REMARK VINA RESULT:      -4.5     11.134     12.440
REMARK  1 active torsions:
REMARK  status: ('A' for Active; 'I' for Inactive)
REMARK    1  A    between atoms: C1_1  and  C8_8 
ROOT
HETATM    1  C1  UNL     1     -34.723  15.973  -2.205  1.00 20.00    -0.067 C 
HETATM    2  C2  UNL     1     -34.696  16.550  -1.152  1.00 20.00    -0.105 C 
HETATM    3  C9  UNL     1     -34.664  17.254   0.131  1.00 20.00     0.112 C 
ENDROOT
BRANCH   1   4
HETATM    4  C8  UNL     1     -34.757  15.286  -3.457  1.00 20.00     0.017 A 
HETATM    5  C6  UNL     1     -34.424  13.933  -3.520  1.00 20.00     0.020 A 
HETATM    6  C4  UNL     1     -34.456  13.264  -4.743  1.00 20.00     0.001 A 
HETATM    7  C3  UNL     1     -34.822  13.946  -5.903  1.00 20.00     0.000 A 
HETATM    8  C5  UNL     1     -35.155  15.299  -5.840  1.00 20.00     0.001 A 
HETATM    9  C7  UNL     1     -35.122  15.969  -4.617  1.00 20.00     0.020 A 
ENDBRANCH   1   4
TORSDOF 1
ENDMDL
MODEL 7
REMARK VINA RESULT:      -4.3     11.667     12.421
REMARK  1 active torsions:
REMARK  status: ('A' for Active; 'I' for Inactive)
REMARK    1  A    between atoms: C1_1  and  C8_8 
ROOT
HETATM    1  C1  UNL     1     -34.524  16.431  -1.499  1.00 20.00    -0.067 C 
HETATM    2  C2  UNL     1     -34.777  15.689  -2.409  1.00 20.00    -0.105 C 
HETATM    3  C9  UNL     1     -35.084  14.787  -3.519  1.00 20.00     0.112 C 
ENDROOT
BRANCH   1   4
HETATM    4  C8  UNL     1     -34.222  17.313  -0.417  1.00 20.00     0.017 A 
HETATM    5  C6  UNL     1     -33.092  18.131  -0.477  1.00 20.00     0.020 A 
HETATM    6  C4  UNL     1     -32.797  18.991   0.579  1.00 20.00     0.001 A 
HETATM    7  C3  UNL     1     -33.631  19.036   1.697  1.00 20.00     0.000 A 
HETATM    8  C5  UNL     1     -34.760  18.219   1.758  1.00 20.00     0.001 A 
HETATM    9  C7  UNL     1     -35.055  17.357   0.701  1.00 20.00     0.020 A 
ENDBRANCH   1   4
TORSDOF 1
ENDMDL
MODEL 8
REMARK VINA RESULT:      -4.3     11.275     12.581
REMARK  1 active torsions:
REMARK  status: ('A' for Active; 'I' for Inactive)
REMARK    1  A    between atoms: C1_1  and  C8_8 
ROOT
HETATM    1  C1  UNL     1     -34.478  15.515  -2.714  1.00 20.00    -0.067 C 
HETATM    2  C2  UNL     1     -34.664  14.546  -3.399  1.00 20.00    -0.105 C 
HETATM    3  C9  UNL     1     -34.890  13.366  -4.233  1.00 20.00     0.112 C 
ENDROOT
BRANCH   1   4
HETATM    4  C8  UNL     1     -34.254  16.668  -1.900  1.00 20.00     0.017 A 
HETATM    5  C6  UNL     1     -34.653  16.667  -0.563  1.00 20.00     0.020 A 
HETATM    6  C4  UNL     1     -34.435  17.792   0.230  1.00 20.00     0.001 A 
HETATM    7  C3  UNL     1     -33.818  18.920  -0.311  1.00 20.00     0.000 A 
HETATM    8  C5  UNL     1     -33.419  18.922  -1.648  1.00 20.00     0.001 A 
HETATM    9  C7  UNL     1     -33.637  17.795  -2.443  1.00 20.00     0.020 A 
ENDBRANCH   1   4
TORSDOF 1
ENDMDL
MODEL 9
REMARK VINA RESULT:      -4.2      9.873     10.646
REMARK  1 active torsions:
REMARK  status: ('A' for Active; 'I' for Inactive)
REMARK    1  A    between atoms: C1_1  and  C8_8 
ROOT
HETATM    1  C1  UNL     1     -42.290   7.581  -3.276  1.00 20.00    -0.067 C 
HETATM    2  C2  UNL     1     -42.635   8.382  -4.102  1.00 20.00    -0.105 C 
HETATM    3  C9  UNL     1     -43.054   9.358  -5.109  1.00 20.00     0.112 C 
ENDROOT
BRANCH   1   4
HETATM    4  C8  UNL     1     -41.878   6.629  -2.294  1.00 20.00     0.017 A 
HETATM    5  C6  UNL     1     -41.186   7.052  -1.159  1.00 20.00     0.020 A 
HETATM    6  C4  UNL     1     -40.783   6.123  -0.201  1.00 20.00     0.001 A 
HETATM    7  C3  UNL     1     -41.073   4.769  -0.377  1.00 20.00     0.000 A 
HETATM    8  C5  UNL     1     -41.764   4.346  -1.512  1.00 20.00     0.001 A 
HETATM    9  C7  UNL     1     -42.167   5.276  -2.471  1.00 20.00     0.020 A 
ENDBRANCH   1   4
TORSDOF 1
ENDMDL
