MODEL 1
REMARK VINA RESULT:      -6.4      0.000      0.000
REMARK  0 active torsions:
REMARK  status: ('A' for Active; 'I' for Inactive)
ROOT
HETATM    1  C1  UNL     1     -32.145   7.640   2.498  1.00 20.00     0.018 C 
HETATM    2  C2  UNL     1     -32.818   7.009   3.267  1.00 20.00    -0.078 C 
HETATM    3  C3  UNL     1     -35.183   4.790   5.965  1.00 20.00     0.000 A 
HETATM    4  C4  UNL     1     -34.341   5.795   6.440  1.00 20.00     0.001 A 
HETATM    5  C5  UNL     1     -35.245   4.518   4.599  1.00 20.00     0.001 A 
HETATM    6  C6  UNL     1     -33.559   6.528   5.548  1.00 20.00     0.020 A 
HETATM    7  C7  UNL     1     -34.463   5.252   3.706  1.00 20.00     0.020 A 
HETATM    8  C8  UNL     1     -33.620   6.257   4.180  1.00 20.00     0.016 A 
ENDROOT
TORSDOF 0
ENDMDL
MODEL 2
REMARK VINA RESULT:      -6.4      0.027      1.708
REMARK  0 active torsions:
REMARK  status: ('A' for Active; 'I' for Inactive)
ROOT
HETATM    1  C1  UNL     1     -32.153   7.638   2.516  1.00 20.00     0.018 C 
HETATM    2  C2  UNL     1     -32.825   7.004   3.284  1.00 20.00    -0.078 C 
HETATM    3  C3  UNL     1     -35.184   4.778   5.981  1.00 20.00     0.000 A 
HETATM    4  C4  UNL     1     -35.226   4.491   4.617  1.00 20.00     0.001 A 
HETATM    5  C5  UNL     1     -34.362   5.800   6.455  1.00 20.00     0.001 A 
HETATM    6  C6  UNL     1     -34.447   5.227   3.726  1.00 20.00     0.020 A 
HETATM    7  C7  UNL     1     -33.582   6.536   5.563  1.00 20.00     0.020 A 
HETATM    8  C8  UNL     1     -33.624   6.250   4.198  1.00 20.00     0.016 A 
ENDROOT
TORSDOF 0
ENDMDL
MODEL 3
REMARK VINA RESULT:      -4.7      1.379      2.820
REMARK  0 active torsions:
REMARK  status: ('A' for Active; 'I' for Inactive)
ROOT
HETATM    1  C1  UNL     1     -33.249   7.997   7.459  1.00 20.00     0.018 C 
HETATM    2  C2  UNL     1     -33.661   7.148   6.716  1.00 20.00    -0.078 C 
HETATM    3  C3  UNL     1     -35.111   4.166   4.108  1.00 20.00     0.000 A 
HETATM    4  C4  UNL     1     -34.594   5.354   3.591  1.00 20.00     0.001 A 
HETATM    5  C5  UNL     1     -35.150   3.964   5.487  1.00 20.00     0.001 A 
HETATM    6  C6  UNL     1     -34.115   6.339   4.453  1.00 20.00     0.020 A 
HETATM    7  C7  UNL     1     -34.670   4.950   6.350  1.00 20.00     0.020 A 
HETATM    8  C8  UNL     1     -34.152   6.138   5.833  1.00 20.00     0.016 A 
ENDROOT
TORSDOF 0
ENDMDL
MODEL 4
REMARK VINA RESULT:      -4.5      9.140     10.410
REMARK  0 active torsions:
REMARK  status: ('A' for Active; 'I' for Inactive)
ROOT
HETATM    1  C1  UNL     1     -41.966   2.346  -3.148  1.00 20.00     0.018 C 
HETATM    2  C2  UNL     1     -41.802   3.419  -2.634  1.00 20.00    -0.078 C 
HETATM    3  C3  UNL     1     -41.226   7.187  -0.826  1.00 20.00     0.000 A 
HETATM    4  C4  UNL     1     -41.996   7.079  -1.984  1.00 20.00     0.001 A 
HETATM    5  C5  UNL     1     -40.646   6.049  -0.265  1.00 20.00     0.001 A 
HETATM    6  C6  UNL     1     -42.186   5.834  -2.581  1.00 20.00     0.020 A 
HETATM    7  C7  UNL     1     -40.836   4.803  -0.863  1.00 20.00     0.020 A 
HETATM    8  C8  UNL     1     -41.607   4.695  -2.021  1.00 20.00     0.016 A 
ENDROOT
TORSDOF 0
ENDMDL
MODEL 5
REMARK VINA RESULT:      -4.5      9.138     10.334
REMARK  0 active torsions:
REMARK  status: ('A' for Active; 'I' for Inactive)
ROOT
HETATM    1  C1  UNL     1     -41.977   2.347  -3.147  1.00 20.00     0.018 C 
HETATM    2  C2  UNL     1     -41.808   3.418  -2.631  1.00 20.00    -0.078 C 
HETATM    3  C3  UNL     1     -41.219   7.182  -0.819  1.00 20.00     0.000 A 
HETATM    4  C4  UNL     1     -40.633   6.043  -0.267  1.00 20.00     0.001 A 
HETATM    5  C5  UNL     1     -41.999   7.078  -1.970  1.00 20.00     0.001 A 
HETATM    6  C6  UNL     1     -40.829   4.799  -0.866  1.00 20.00     0.020 A 
HETATM    7  C7  UNL     1     -42.194   5.833  -2.570  1.00 20.00     0.020 A 
HETATM    8  C8  UNL     1     -41.609   4.693  -2.018  1.00 20.00     0.016 A 
ENDROOT
TORSDOF 0
ENDMDL
MODEL 6
REMARK VINA RESULT:      -4.4     11.741     12.154
REMARK  0 active torsions:
REMARK  status: ('A' for Active; 'I' for Inactive)
ROOT
HETATM    1  C1  UNL     1     -34.434  17.069  -0.698  1.00 20.00     0.018 C 
HETATM    2  C2  UNL     1     -34.591  16.288  -1.598  1.00 20.00    -0.078 C 
HETATM    3  C3  UNL     1     -35.141  13.547  -4.757  1.00 20.00     0.000 A 
HETATM    4  C4  UNL     1     -33.872  13.735  -4.209  1.00 20.00     0.001 A 
HETATM    5  C5  UNL     1     -36.229  14.265  -4.261  1.00 20.00     0.001 A 
HETATM    6  C6  UNL     1     -33.691  14.641  -3.166  1.00 20.00     0.020 A 
HETATM    7  C7  UNL     1     -36.047  15.172  -3.216  1.00 20.00     0.020 A 
HETATM    8  C8  UNL     1     -34.778  15.360  -2.668  1.00 20.00     0.016 A 
ENDROOT
TORSDOF 0
ENDMDL
MODEL 7
REMARK VINA RESULT:      -4.4     11.737     12.181
REMARK  0 active torsions:
REMARK  status: ('A' for Active; 'I' for Inactive)
ROOT
HETATM    1  C1  UNL     1     -34.432  17.052  -0.689  1.00 20.00     0.018 C 
HETATM    2  C2  UNL     1     -34.592  16.275  -1.592  1.00 20.00    -0.078 C 
HETATM    3  C3  UNL     1     -35.152  13.548  -4.761  1.00 20.00     0.000 A 
HETATM    4  C4  UNL     1     -36.236  14.268  -4.261  1.00 20.00     0.001 A 
HETATM    5  C5  UNL     1     -33.881  13.729  -4.215  1.00 20.00     0.001 A 
HETATM    6  C6  UNL     1     -36.051  15.169  -3.213  1.00 20.00     0.020 A 
HETATM    7  C7  UNL     1     -33.696  14.632  -3.166  1.00 20.00     0.020 A 
HETATM    8  C8  UNL     1     -34.781  15.352  -2.666  1.00 20.00     0.016 A 
ENDROOT
TORSDOF 0
ENDMDL
MODEL 8
REMARK VINA RESULT:      -4.2     11.493     12.811
REMARK  0 active torsions:
REMARK  status: ('A' for Active; 'I' for Inactive)
ROOT
HETATM    1  C1  UNL     1     -34.504  16.642  -0.929  1.00 20.00     0.018 C 
HETATM    2  C2  UNL     1     -34.513  16.107  -2.004  1.00 20.00    -0.078 C 
HETATM    3  C3  UNL     1     -34.544  14.227  -5.781  1.00 20.00     0.000 A 
HETATM    4  C4  UNL     1     -34.553  15.619  -5.694  1.00 20.00     0.001 A 
HETATM    5  C5  UNL     1     -34.524  13.456  -4.619  1.00 20.00     0.001 A 
HETATM    6  C6  UNL     1     -34.543  16.240  -4.446  1.00 20.00     0.020 A 
HETATM    7  C7  UNL     1     -34.514  14.077  -3.369  1.00 20.00     0.020 A 
HETATM    8  C8  UNL     1     -34.523  15.470  -3.283  1.00 20.00     0.016 A 
ENDROOT
TORSDOF 0
ENDMDL
MODEL 9
REMARK VINA RESULT:      -4.2     11.592     12.905
REMARK  0 active torsions:
REMARK  status: ('A' for Active; 'I' for Inactive)
ROOT
HETATM    1  C1  UNL     1     -34.482  16.589  -0.914  1.00 20.00     0.018 C 
HETATM    2  C2  UNL     1     -34.494  16.097  -2.010  1.00 20.00    -0.078 C 
HETATM    3  C3  UNL     1     -34.533  14.370  -5.859  1.00 20.00     0.000 A 
HETATM    4  C4  UNL     1     -34.597  13.556  -4.728  1.00 20.00     0.001 A 
HETATM    5  C5  UNL     1     -34.456  15.755  -5.718  1.00 20.00     0.001 A 
HETATM    6  C6  UNL     1     -34.584  14.127  -3.456  1.00 20.00     0.020 A 
HETATM    7  C7  UNL     1     -34.443  16.327  -4.445  1.00 20.00     0.020 A 
HETATM    8  C8  UNL     1     -34.507  15.512  -3.314  1.00 20.00     0.016 A 
ENDROOT
TORSDOF 0
ENDMDL
