MODEL 1
REMARK VINA RESULT:      -5.9      0.000      0.000
REMARK  1 active torsions:
REMARK  status: ('A' for Active; 'I' for Inactive)
REMARK    1  A    between atoms: C6_6  and  C8_8 
ROOT
HETATM    1  C1  UNL     1     -35.126   4.803   6.085  1.00 20.00     0.000 A 
HETATM    2  C2  UNL     1     -34.305   5.884   6.410  1.00 20.00     0.001 A 
HETATM    3  C3  UNL     1     -35.262   4.406   4.755  1.00 20.00     0.001 A 
HETATM    4  C4  UNL     1     -33.622   6.568   5.404  1.00 20.00     0.007 A 
HETATM    5  C5  UNL     1     -34.579   5.090   3.749  1.00 20.00     0.007 A 
HETATM    6  C6  UNL     1     -33.758   6.170   4.074  1.00 20.00    -0.059 A 
ENDROOT
BRANCH   6   7
HETATM    7  C8  UNL     1     -33.029   6.901   2.997  1.00 20.00     0.034 C 
HETATM    8  C7  UNL     1     -31.674   7.425   3.466  1.00 20.00     0.010 C 
ENDBRANCH   6   7
TORSDOF 1
ENDMDL
MODEL 2
REMARK VINA RESULT:      -5.9      0.009      1.708
REMARK  1 active torsions:
REMARK  status: ('A' for Active; 'I' for Inactive)
REMARK    1  A    between atoms: C6_6  and  C8_8 
ROOT
HETATM    1  C1  UNL     1     -35.123   4.803   6.086  1.00 20.00     0.000 A 
HETATM    2  C2  UNL     1     -35.267   4.407   4.756  1.00 20.00     0.001 A 
HETATM    3  C3  UNL     1     -34.299   5.881   6.407  1.00 20.00     0.001 A 
HETATM    4  C4  UNL     1     -34.584   5.088   3.748  1.00 20.00     0.007 A 
HETATM    5  C5  UNL     1     -33.616   6.562   5.399  1.00 20.00     0.007 A 
HETATM    6  C6  UNL     1     -33.760   6.166   4.070  1.00 20.00    -0.059 A 
ENDROOT
BRANCH   6   7
HETATM    7  C8  UNL     1     -33.030   6.895   2.992  1.00 20.00     0.034 C 
HETATM    8  C7  UNL     1     -31.670   7.410   3.458  1.00 20.00     0.010 C 
ENDBRANCH   6   7
TORSDOF 1
ENDMDL
MODEL 3
REMARK VINA RESULT:      -4.5      0.850      3.333
REMARK  1 active torsions:
REMARK  status: ('A' for Active; 'I' for Inactive)
REMARK    1  A    between atoms: C6_6  and  C8_8 
ROOT
HETATM    1  C1  UNL     1     -32.908   6.210   2.422  1.00 20.00     0.000 A 
HETATM    2  C2  UNL     1     -32.317   6.840   3.518  1.00 20.00     0.001 A 
HETATM    3  C3  UNL     1     -34.051   5.431   2.599  1.00 20.00     0.001 A 
HETATM    4  C4  UNL     1     -32.868   6.688   4.790  1.00 20.00     0.007 A 
HETATM    5  C5  UNL     1     -34.602   5.279   3.872  1.00 20.00     0.007 A 
HETATM    6  C6  UNL     1     -34.011   5.908   4.967  1.00 20.00    -0.059 A 
ENDROOT
BRANCH   6   7
HETATM    7  C8  UNL     1     -34.600   5.745   6.328  1.00 20.00     0.034 C 
HETATM    8  C7  UNL     1     -35.228   4.368   6.528  1.00 20.00     0.010 C 
ENDBRANCH   6   7
TORSDOF 1
ENDMDL
MODEL 4
REMARK VINA RESULT:      -4.5      0.848      3.706
REMARK  1 active torsions:
REMARK  status: ('A' for Active; 'I' for Inactive)
REMARK    1  A    between atoms: C6_6  and  C8_8 
ROOT
HETATM    1  C1  UNL     1     -32.933   6.190   2.419  1.00 20.00     0.000 A 
HETATM    2  C2  UNL     1     -34.053   5.380   2.607  1.00 20.00     0.001 A 
HETATM    3  C3  UNL     1     -32.359   6.849   3.506  1.00 20.00     0.001 A 
HETATM    4  C4  UNL     1     -34.600   5.230   3.882  1.00 20.00     0.007 A 
HETATM    5  C5  UNL     1     -32.906   6.699   4.781  1.00 20.00     0.007 A 
HETATM    6  C6  UNL     1     -34.026   5.889   4.969  1.00 20.00    -0.059 A 
ENDROOT
BRANCH   6   7
HETATM    7  C8  UNL     1     -34.610   5.729   6.332  1.00 20.00     0.034 C 
HETATM    8  C7  UNL     1     -35.219   4.346   6.545  1.00 20.00     0.010 C 
ENDBRANCH   6   7
TORSDOF 1
ENDMDL
MODEL 5
REMARK VINA RESULT:      -4.5      1.274      2.626
REMARK  1 active torsions:
REMARK  status: ('A' for Active; 'I' for Inactive)
REMARK    1  A    between atoms: C6_6  and  C8_8 
ROOT
HETATM    1  C1  UNL     1     -35.272   4.278   4.354  1.00 20.00     0.000 A 
HETATM    2  C2  UNL     1     -35.135   4.163   5.737  1.00 20.00     0.001 A 
HETATM    3  C3  UNL     1     -34.732   5.379   3.689  1.00 20.00     0.001 A 
HETATM    4  C4  UNL     1     -34.460   5.150   6.455  1.00 20.00     0.007 A 
HETATM    5  C5  UNL     1     -34.057   6.366   4.407  1.00 20.00     0.007 A 
HETATM    6  C6  UNL     1     -33.921   6.251   5.790  1.00 20.00    -0.059 A 
ENDROOT
BRANCH   6   7
HETATM    7  C8  UNL     1     -33.199   7.307   6.558  1.00 20.00     0.034 C 
HETATM    8  C7  UNL     1     -34.074   7.944   7.634  1.00 20.00     0.010 C 
ENDBRANCH   6   7
TORSDOF 1
ENDMDL
MODEL 6
REMARK VINA RESULT:      -4.4      1.078      3.157
REMARK  1 active torsions:
REMARK  status: ('A' for Active; 'I' for Inactive)
REMARK    1  A    between atoms: C6_6  and  C8_8 
ROOT
HETATM    1  C1  UNL     1     -33.945   5.485   2.440  1.00 20.00     0.000 A 
HETATM    2  C2  UNL     1     -35.017   4.998   3.188  1.00 20.00     0.001 A 
HETATM    3  C3  UNL     1     -32.944   6.232   3.061  1.00 20.00     0.001 A 
HETATM    4  C4  UNL     1     -35.089   5.260   4.556  1.00 20.00     0.007 A 
HETATM    5  C5  UNL     1     -33.016   6.494   4.429  1.00 20.00     0.007 A 
HETATM    6  C6  UNL     1     -34.088   6.007   5.177  1.00 20.00    -0.059 A 
ENDROOT
BRANCH   6   7
HETATM    7  C8  UNL     1     -34.164   6.288   6.640  1.00 20.00     0.034 C 
HETATM    8  C7  UNL     1     -33.351   7.516   7.039  1.00 20.00     0.010 C 
ENDBRANCH   6   7
TORSDOF 1
ENDMDL
MODEL 7
REMARK VINA RESULT:      -4.4     11.844     12.255
REMARK  1 active torsions:
REMARK  status: ('A' for Active; 'I' for Inactive)
REMARK    1  A    between atoms: C6_6  and  C8_8 
ROOT
HETATM    1  C1  UNL     1     -35.197  13.463  -4.456  1.00 20.00     0.000 A 
HETATM    2  C2  UNL     1     -33.836  13.634  -4.200  1.00 20.00     0.001 A 
HETATM    3  C3  UNL     1     -36.127  14.344  -3.905  1.00 20.00     0.001 A 
HETATM    4  C4  UNL     1     -33.406  14.686  -3.391  1.00 20.00     0.007 A 
HETATM    5  C5  UNL     1     -35.696  15.397  -3.096  1.00 20.00     0.007 A 
HETATM    6  C6  UNL     1     -34.336  15.568  -2.840  1.00 20.00    -0.059 A 
ENDROOT
BRANCH   6   7
HETATM    7  C8  UNL     1     -33.877  16.693  -1.975  1.00 20.00     0.034 C 
HETATM    8  C7  UNL     1     -34.629  16.751  -0.648  1.00 20.00     0.010 C 
ENDBRANCH   6   7
TORSDOF 1
ENDMDL
MODEL 8
REMARK VINA RESULT:      -4.3     11.768     12.234
REMARK  1 active torsions:
REMARK  status: ('A' for Active; 'I' for Inactive)
REMARK    1  A    between atoms: C6_6  and  C8_8 
ROOT
HETATM    1  C1  UNL     1     -35.091  13.373  -4.419  1.00 20.00     0.000 A 
HETATM    2  C2  UNL     1     -36.059  14.250  -3.929  1.00 20.00     0.001 A 
HETATM    3  C3  UNL     1     -33.745  13.584  -4.123  1.00 20.00     0.001 A 
HETATM    4  C4  UNL     1     -35.679  15.339  -3.144  1.00 20.00     0.007 A 
HETATM    5  C5  UNL     1     -33.365  14.672  -3.337  1.00 20.00     0.007 A 
HETATM    6  C6  UNL     1     -34.333  15.549  -2.847  1.00 20.00    -0.059 A 
ENDROOT
BRANCH   6   7
HETATM    7  C8  UNL     1     -33.926  16.713  -2.007  1.00 20.00     0.034 C 
HETATM    8  C7  UNL     1     -34.627  16.725  -0.651  1.00 20.00     0.010 C 
ENDBRANCH   6   7
TORSDOF 1
ENDMDL
MODEL 9
REMARK VINA RESULT:      -4.1      9.304     10.619
REMARK  1 active torsions:
REMARK  status: ('A' for Active; 'I' for Inactive)
REMARK    1  A    between atoms: C6_6  and  C8_8 
ROOT
HETATM    1  C1  UNL     1     -41.046   7.031  -0.887  1.00 20.00     0.000 A 
HETATM    2  C2  UNL     1     -41.934   7.220  -1.946  1.00 20.00     0.001 A 
HETATM    3  C3  UNL     1     -40.656   5.742  -0.526  1.00 20.00     0.001 A 
HETATM    4  C4  UNL     1     -42.433   6.119  -2.643  1.00 20.00     0.007 A 
HETATM    5  C5  UNL     1     -41.155   4.641  -1.222  1.00 20.00     0.007 A 
HETATM    6  C6  UNL     1     -42.043   4.830  -2.281  1.00 20.00    -0.059 A 
ENDROOT
BRANCH   6   7
HETATM    7  C8  UNL     1     -42.577   3.652  -3.025  1.00 20.00     0.034 C 
HETATM    8  C7  UNL     1     -41.544   2.538  -3.167  1.00 20.00     0.010 C 
ENDBRANCH   6   7
TORSDOF 1
ENDMDL
