MODEL 1
REMARK VINA RESULT:      -6.1      0.000      0.000
REMARK  2 active torsions:
REMARK  status: ('A' for Active; 'I' for Inactive)
REMARK    1  A    between atoms: C6_6  and  C8_8 
REMARK    2  A    between atoms: C8_8  and  C9_9 
ROOT
HETATM    1  C1  UNL     1     -35.059   5.050   6.392  1.00 20.00     0.000 A 
HETATM    2  C2  UNL     1     -35.289   4.352   5.208  1.00 20.00     0.001 A 
HETATM    3  C3  UNL     1     -34.190   6.141   6.402  1.00 20.00     0.001 A 
HETATM    4  C4  UNL     1     -34.650   4.744   4.031  1.00 20.00     0.007 A 
HETATM    5  C5  UNL     1     -33.551   6.533   5.226  1.00 20.00     0.007 A 
HETATM    6  C6  UNL     1     -33.780   5.835   4.041  1.00 20.00    -0.058 A 
ENDROOT
BRANCH   6   7
HETATM    7  C8  UNL     1     -33.096   6.255   2.784  1.00 20.00     0.038 C 
BRANCH   7   8
HETATM    8  C9  UNL     1     -32.040   7.341   3.037  1.00 20.00     0.000 C 
HETATM    9  C7  UNL     1     -32.027   8.390   1.936  1.00 20.00     0.005 C 
ENDBRANCH   7   8
ENDBRANCH   6   7
TORSDOF 2
ENDMDL
MODEL 2
REMARK VINA RESULT:      -6.1      0.011      1.610
REMARK  2 active torsions:
REMARK  status: ('A' for Active; 'I' for Inactive)
REMARK    1  A    between atoms: C6_6  and  C8_8 
REMARK    2  A    between atoms: C8_8  and  C9_9 
ROOT
HETATM    1  C1  UNL     1     -35.059   5.058   6.385  1.00 20.00     0.000 A 
HETATM    2  C2  UNL     1     -34.187   6.146   6.396  1.00 20.00     0.001 A 
HETATM    3  C3  UNL     1     -35.288   4.360   5.200  1.00 20.00     0.001 A 
HETATM    4  C4  UNL     1     -33.542   6.535   5.222  1.00 20.00     0.007 A 
HETATM    5  C5  UNL     1     -34.645   4.749   4.025  1.00 20.00     0.007 A 
HETATM    6  C6  UNL     1     -33.772   5.837   4.036  1.00 20.00    -0.058 A 
ENDROOT
BRANCH   6   7
HETATM    7  C8  UNL     1     -33.083   6.253   2.780  1.00 20.00     0.038 C 
BRANCH   7   8
HETATM    8  C9  UNL     1     -32.038   7.351   3.031  1.00 20.00     0.000 C 
HETATM    9  C7  UNL     1     -32.037   8.399   1.930  1.00 20.00     0.005 C 
ENDBRANCH   7   8
ENDBRANCH   6   7
TORSDOF 2
ENDMDL
MODEL 3
REMARK VINA RESULT:      -4.6     11.546     12.145
REMARK  2 active torsions:
REMARK  status: ('A' for Active; 'I' for Inactive)
REMARK    1  A    between atoms: C6_6  and  C8_8 
REMARK    2  A    between atoms: C8_8  and  C9_9 
ROOT
HETATM    1  C1  UNL     1     -35.151  13.373  -4.454  1.00 20.00     0.000 A 
HETATM    2  C2  UNL     1     -33.797  13.573  -4.189  1.00 20.00     0.001 A 
HETATM    3  C3  UNL     1     -36.100  14.252  -3.933  1.00 20.00     0.001 A 
HETATM    4  C4  UNL     1     -33.391  14.652  -3.404  1.00 20.00     0.007 A 
HETATM    5  C5  UNL     1     -35.695  15.330  -3.147  1.00 20.00     0.007 A 
HETATM    6  C6  UNL     1     -34.340  15.530  -2.882  1.00 20.00    -0.058 A 
ENDROOT
BRANCH   6   7
HETATM    7  C8  UNL     1     -33.907  16.684  -2.042  1.00 20.00     0.038 C 
BRANCH   7   8
HETATM    8  C9  UNL     1     -34.639  16.722  -0.692  1.00 20.00     0.000 C 
HETATM    9  C7  UNL     1     -34.181  17.886   0.171  1.00 20.00     0.005 C 
ENDBRANCH   7   8
ENDBRANCH   6   7
TORSDOF 2
ENDMDL
MODEL 4
REMARK VINA RESULT:      -4.5     11.517     12.104
REMARK  2 active torsions:
REMARK  status: ('A' for Active; 'I' for Inactive)
REMARK    1  A    between atoms: C6_6  and  C8_8 
REMARK    2  A    between atoms: C8_8  and  C9_9 
ROOT
HETATM    1  C1  UNL     1     -35.052  13.334  -4.437  1.00 20.00     0.000 A 
HETATM    2  C2  UNL     1     -36.031  14.191  -3.937  1.00 20.00     0.001 A 
HETATM    3  C3  UNL     1     -33.707  13.573  -4.156  1.00 20.00     0.001 A 
HETATM    4  C4  UNL     1     -35.666  15.287  -3.155  1.00 20.00     0.007 A 
HETATM    5  C5  UNL     1     -33.342  14.668  -3.375  1.00 20.00     0.007 A 
HETATM    6  C6  UNL     1     -34.321  15.526  -2.875  1.00 20.00    -0.058 A 
ENDROOT
BRANCH   6   7
HETATM    7  C8  UNL     1     -33.930  16.698  -2.040  1.00 20.00     0.038 C 
BRANCH   7   8
HETATM    8  C9  UNL     1     -34.642  16.701  -0.678  1.00 20.00     0.000 C 
HETATM    9  C7  UNL     1     -34.201  17.865   0.193  1.00 20.00     0.005 C 
ENDBRANCH   7   8
ENDBRANCH   6   7
TORSDOF 2
ENDMDL
MODEL 5
REMARK VINA RESULT:      -4.3     11.442     12.735
REMARK  2 active torsions:
REMARK  status: ('A' for Active; 'I' for Inactive)
REMARK    1  A    between atoms: C6_6  and  C8_8 
REMARK    2  A    between atoms: C8_8  and  C9_9 
ROOT
HETATM    1  C1  UNL     1     -34.841  13.826  -5.795  1.00 20.00     0.000 A 
HETATM    2  C2  UNL     1     -34.433  15.138  -6.027  1.00 20.00     0.001 A 
HETATM    3  C3  UNL     1     -34.875  13.327  -4.493  1.00 20.00     0.001 A 
HETATM    4  C4  UNL     1     -34.059  15.953  -4.959  1.00 20.00     0.007 A 
HETATM    5  C5  UNL     1     -34.500  14.140  -3.424  1.00 20.00     0.007 A 
HETATM    6  C6  UNL     1     -34.092  15.453  -3.657  1.00 20.00    -0.058 A 
ENDROOT
BRANCH   6   7
HETATM    7  C8  UNL     1     -33.691  16.323  -2.514  1.00 20.00     0.038 C 
BRANCH   7   8
HETATM    8  C9  UNL     1     -34.742  16.323  -1.392  1.00 20.00     0.000 C 
HETATM    9  C7  UNL     1     -34.399  17.312  -0.290  1.00 20.00     0.005 C 
ENDBRANCH   7   8
ENDBRANCH   6   7
TORSDOF 2
ENDMDL
MODEL 6
REMARK VINA RESULT:      -4.3     11.454     12.723
REMARK  2 active torsions:
REMARK  status: ('A' for Active; 'I' for Inactive)
REMARK    1  A    between atoms: C6_6  and  C8_8 
REMARK    2  A    between atoms: C8_8  and  C9_9 
ROOT
HETATM    1  C1  UNL     1     -34.805  13.840  -5.905  1.00 20.00     0.000 A 
HETATM    2  C2  UNL     1     -34.823  13.289  -4.625  1.00 20.00     0.001 A 
HETATM    3  C3  UNL     1     -34.418  15.168  -6.087  1.00 20.00     0.001 A 
HETATM    4  C4  UNL     1     -34.454  14.063  -3.526  1.00 20.00     0.007 A 
HETATM    5  C5  UNL     1     -34.050  15.943  -4.988  1.00 20.00     0.007 A 
HETATM    6  C6  UNL     1     -34.068  15.391  -3.707  1.00 20.00    -0.058 A 
ENDROOT
BRANCH   6   7
HETATM    7  C8  UNL     1     -33.674  16.221  -2.532  1.00 20.00     0.038 C 
BRANCH   7   8
HETATM    8  C9  UNL     1     -34.793  16.304  -1.482  1.00 20.00     0.000 C 
HETATM    9  C7  UNL     1     -34.433  17.238  -0.338  1.00 20.00     0.005 C 
ENDBRANCH   7   8
ENDBRANCH   6   7
TORSDOF 2
ENDMDL
MODEL 7
REMARK VINA RESULT:      -4.3      9.648     10.866
REMARK  2 active torsions:
REMARK  status: ('A' for Active; 'I' for Inactive)
REMARK    1  A    between atoms: C6_6  and  C8_8 
REMARK    2  A    between atoms: C8_8  and  C9_9 
ROOT
HETATM    1  C1  UNL     1     -41.073   7.049  -0.885  1.00 20.00     0.000 A 
HETATM    2  C2  UNL     1     -41.959   7.207  -1.949  1.00 20.00     0.001 A 
HETATM    3  C3  UNL     1     -40.655   5.772  -0.510  1.00 20.00     0.001 A 
HETATM    4  C4  UNL     1     -42.428   6.089  -2.640  1.00 20.00     0.007 A 
HETATM    5  C5  UNL     1     -41.123   4.654  -1.199  1.00 20.00     0.007 A 
HETATM    6  C6  UNL     1     -42.010   4.813  -2.264  1.00 20.00    -0.058 A 
ENDROOT
BRANCH   6   7
HETATM    7  C8  UNL     1     -42.511   3.617  -3.001  1.00 20.00     0.038 C 
BRANCH   7   8
HETATM    8  C9  UNL     1     -41.433   2.531  -3.140  1.00 20.00     0.000 C 
HETATM    9  C7  UNL     1     -41.758   1.543  -4.249  1.00 20.00     0.005 C 
ENDBRANCH   7   8
ENDBRANCH   6   7
TORSDOF 2
ENDMDL
MODEL 8
REMARK VINA RESULT:      -4.2     11.737     12.573
REMARK  2 active torsions:
REMARK  status: ('A' for Active; 'I' for Inactive)
REMARK    1  A    between atoms: C6_6  and  C8_8 
REMARK    2  A    between atoms: C8_8  and  C9_9 
ROOT
HETATM    1  C1  UNL     1     -33.341  18.947   1.262  1.00 20.00     0.000 A 
HETATM    2  C2  UNL     1     -34.513  18.236   1.512  1.00 20.00     0.001 A 
HETATM    3  C3  UNL     1     -32.657  18.763   0.060  1.00 20.00     0.001 A 
HETATM    4  C4  UNL     1     -35.004  17.341   0.562  1.00 20.00     0.007 A 
HETATM    5  C5  UNL     1     -33.146  17.868  -0.890  1.00 20.00     0.007 A 
HETATM    6  C6  UNL     1     -34.320  17.156  -0.640  1.00 20.00    -0.058 A 
ENDROOT
BRANCH   6   7
HETATM    7  C8  UNL     1     -34.843  16.199  -1.657  1.00 20.00     0.038 C 
BRANCH   7   8
HETATM    8  C9  UNL     1     -33.805  15.890  -2.747  1.00 20.00     0.000 C 
HETATM    9  C7  UNL     1     -34.134  14.612  -3.501  1.00 20.00     0.005 C 
ENDBRANCH   7   8
ENDBRANCH   6   7
TORSDOF 2
ENDMDL
MODEL 9
REMARK VINA RESULT:      -4.1      9.959     10.645
REMARK  2 active torsions:
REMARK  status: ('A' for Active; 'I' for Inactive)
REMARK    1  A    between atoms: C6_6  and  C8_8 
REMARK    2  A    between atoms: C8_8  and  C9_9 
ROOT
HETATM    1  C1  UNL     1     -40.797   4.713  -0.872  1.00 20.00     0.000 A 
HETATM    2  C2  UNL     1     -41.640   4.504  -1.963  1.00 20.00     0.001 A 
HETATM    3  C3  UNL     1     -40.606   6.003  -0.377  1.00 20.00     0.001 A 
HETATM    4  C4  UNL     1     -42.293   5.583  -2.558  1.00 20.00     0.007 A 
HETATM    5  C5  UNL     1     -41.258   7.082  -0.972  1.00 20.00     0.007 A 
HETATM    6  C6  UNL     1     -42.101   6.873  -2.063  1.00 20.00    -0.058 A 
ENDROOT
BRANCH   6   7
HETATM    7  C8  UNL     1     -42.798   8.027  -2.699  1.00 20.00     0.038 C 
BRANCH   7   8
HETATM    8  C9  UNL     1     -42.921   7.861  -4.222  1.00 20.00     0.000 C 
HETATM    9  C7  UNL     1     -42.039   8.843  -4.975  1.00 20.00     0.005 C 
ENDBRANCH   7   8
ENDBRANCH   6   7
TORSDOF 2
ENDMDL
