MODEL 1
REMARK VINA RESULT:      -5.4      0.000      0.000
REMARK  0 active torsions:
REMARK  status: ('A' for Active; 'I' for Inactive)
ROOT
HETATM    1  C1  UNL     1     -35.298   4.609   5.833  1.00 20.00     0.001 A 
HETATM    2  C2  UNL     1     -34.691   5.528   6.687  1.00 20.00     0.002 A 
HETATM    3  C3  UNL     1     -34.973   4.572   4.473  1.00 20.00     0.014 A 
HETATM    4  C4  UNL     1     -33.745   6.439   6.210  1.00 20.00     0.030 A 
HETATM    5  C5  UNL     1     -33.466   5.721   2.680  1.00 20.00     0.030 A 
HETATM    6  C6  UNL     1     -32.564   6.754   2.800  1.00 20.00     0.089 A 
HETATM    7  C7  UNL     1     -34.021   5.480   3.969  1.00 20.00    -0.008 A 
HETATM    8  C8  UNL     1     -33.430   6.391   4.847  1.00 20.00     0.042 A 
HETATM    9  N9  UNL     1     -32.550   7.152   4.111  1.00 20.00    -0.365 N 
HETATM   10  H16 UNL     1     -31.976   7.895   4.483  1.00 20.00     0.165 HD
ENDROOT
TORSDOF 0
ENDMDL
MODEL 2
REMARK VINA RESULT:      -5.3      0.871      1.934
REMARK  0 active torsions:
REMARK  status: ('A' for Active; 'I' for Inactive)
ROOT
HETATM    1  C1  UNL     1     -34.664   5.580   6.672  1.00 20.00     0.001 A 
HETATM    2  C2  UNL     1     -35.287   4.657   5.835  1.00 20.00     0.002 A 
HETATM    3  C3  UNL     1     -33.714   6.476   6.170  1.00 20.00     0.014 A 
HETATM    4  C4  UNL     1     -34.981   4.599   4.472  1.00 20.00     0.030 A 
HETATM    5  C5  UNL     1     -32.498   7.174   3.970  1.00 20.00     0.030 A 
HETATM    6  C6  UNL     1     -32.613   6.681   2.690  1.00 20.00     0.089 A 
HETATM    7  C7  UNL     1     -33.389   6.437   4.799  1.00 20.00    -0.008 A 
HETATM    8  C8  UNL     1     -34.029   5.502   3.983  1.00 20.00     0.042 A 
HETATM    9  N9  UNL     1     -33.538   5.671   2.709  1.00 20.00    -0.365 N 
HETATM   10  H16 UNL     1     -33.821   5.131   1.903  1.00 20.00     0.165 HD
ENDROOT
TORSDOF 0
ENDMDL
MODEL 3
REMARK VINA RESULT:      -4.9      1.488      3.689
REMARK  0 active torsions:
REMARK  status: ('A' for Active; 'I' for Inactive)
ROOT
HETATM    1  C1  UNL     1     -32.615   6.790   3.114  1.00 20.00     0.001 A 
HETATM    2  C2  UNL     1     -33.369   5.928   2.319  1.00 20.00     0.002 A 
HETATM    3  C3  UNL     1     -32.823   6.856   4.496  1.00 20.00     0.014 A 
HETATM    4  C4  UNL     1     -34.352   5.108   2.879  1.00 20.00     0.030 A 
HETATM    5  C5  UNL     1     -34.277   5.848   6.413  1.00 20.00     0.030 A 
HETATM    6  C6  UNL     1     -35.274   4.901   6.375  1.00 20.00     0.089 A 
HETATM    7  C7  UNL     1     -33.809   6.038   5.083  1.00 20.00    -0.008 A 
HETATM    8  C8  UNL     1     -34.549   5.184   4.262  1.00 20.00     0.042 A 
HETATM    9  N9  UNL     1     -35.431   4.507   5.073  1.00 20.00    -0.365 N 
HETATM   10  H16 UNL     1     -36.098   3.817   4.754  1.00 20.00     0.165 HD
ENDROOT
TORSDOF 0
ENDMDL
MODEL 4
REMARK VINA RESULT:      -4.7      1.218      3.133
REMARK  0 active torsions:
REMARK  status: ('A' for Active; 'I' for Inactive)
ROOT
HETATM    1  C1  UNL     1     -32.937   6.140   2.436  1.00 20.00     0.001 A 
HETATM    2  C2  UNL     1     -32.337   7.023   3.332  1.00 20.00     0.002 A 
HETATM    3  C3  UNL     1     -33.933   5.254   2.862  1.00 20.00     0.014 A 
HETATM    4  C4  UNL     1     -32.711   7.047   4.678  1.00 20.00     0.030 A 
HETATM    5  C5  UNL     1     -35.277   4.523   4.975  1.00 20.00     0.030 A 
HETATM    6  C6  UNL     1     -35.217   4.976   6.273  1.00 20.00     0.089 A 
HETATM    7  C7  UNL     1     -34.327   5.261   4.215  1.00 20.00    -0.008 A 
HETATM    8  C8  UNL     1     -33.708   6.156   5.090  1.00 20.00     0.042 A 
HETATM    9  N9  UNL     1     -34.268   5.961   6.333  1.00 20.00    -0.365 N 
HETATM   10  H16 UNL     1     -34.015   6.471   7.167  1.00 20.00     0.165 HD
ENDROOT
TORSDOF 0
ENDMDL
MODEL 5
REMARK VINA RESULT:      -4.5     12.064     12.556
REMARK  0 active torsions:
REMARK  status: ('A' for Active; 'I' for Inactive)
ROOT
HETATM    1  C1  UNL     1     -33.967  13.569  -4.312  1.00 20.00     0.001 A 
HETATM    2  C2  UNL     1     -35.349  13.498  -4.478  1.00 20.00     0.002 A 
HETATM    3  C3  UNL     1     -33.392  14.554  -3.502  1.00 20.00     0.014 A 
HETATM    4  C4  UNL     1     -36.197  14.409  -3.843  1.00 20.00     0.030 A 
HETATM    5  C5  UNL     1     -33.996  16.585  -1.981  1.00 20.00     0.030 A 
HETATM    6  C6  UNL     1     -35.220  17.128  -1.660  1.00 20.00     0.089 A 
HETATM    7  C7  UNL     1     -34.227  15.483  -2.852  1.00 20.00    -0.008 A 
HETATM    8  C8  UNL     1     -35.609  15.390  -3.036  1.00 20.00     0.042 A 
HETATM    9  N9  UNL     1     -36.186  16.400  -2.302  1.00 20.00    -0.365 N 
HETATM   10  H16 UNL     1     -37.178  16.579  -2.244  1.00 20.00     0.165 HD
ENDROOT
TORSDOF 0
ENDMDL
MODEL 6
REMARK VINA RESULT:      -4.3      9.856     10.655
REMARK  0 active torsions:
REMARK  status: ('A' for Active; 'I' for Inactive)
ROOT
HETATM    1  C1  UNL     1     -42.153   7.619  -1.666  1.00 20.00     0.001 A 
HETATM    2  C2  UNL     1     -41.162   7.206  -0.778  1.00 20.00     0.002 A 
HETATM    3  C3  UNL     1     -42.775   6.704  -2.522  1.00 20.00     0.014 A 
HETATM    4  C4  UNL     1     -40.760   5.868  -0.719  1.00 20.00     0.030 A 
HETATM    5  C5  UNL     1     -42.792   4.180  -3.183  1.00 20.00     0.030 A 
HETATM    6  C6  UNL     1     -42.046   3.126  -2.705  1.00 20.00     0.089 A 
HETATM    7  C7  UNL     1     -42.388   5.350  -2.480  1.00 20.00    -0.008 A 
HETATM    8  C8  UNL     1     -41.391   4.963  -1.581  1.00 20.00     0.042 A 
HETATM    9  N9  UNL     1     -41.204   3.609  -1.740  1.00 20.00    -0.365 N 
HETATM   10  H16 UNL     1     -40.542   3.052  -1.218  1.00 20.00     0.165 HD
ENDROOT
TORSDOF 0
ENDMDL
MODEL 7
REMARK VINA RESULT:      -4.3      9.843     10.662
REMARK  0 active torsions:
REMARK  status: ('A' for Active; 'I' for Inactive)
ROOT
HETATM    1  C1  UNL     1     -40.529   6.151  -0.281  1.00 20.00     0.001 A 
HETATM    2  C2  UNL     1     -41.188   7.222  -0.881  1.00 20.00     0.002 A 
HETATM    3  C3  UNL     1     -40.758   4.839  -0.708  1.00 20.00     0.014 A 
HETATM    4  C4  UNL     1     -42.096   7.016  -1.923  1.00 20.00     0.030 A 
HETATM    5  C5  UNL     1     -42.131   3.440  -2.429  1.00 20.00     0.030 A 
HETATM    6  C6  UNL     1     -43.034   3.840  -3.388  1.00 20.00     0.089 A 
HETATM    7  C7  UNL     1     -41.668   4.607  -1.758  1.00 20.00    -0.008 A 
HETATM    8  C8  UNL     1     -42.315   5.699  -2.341  1.00 20.00     0.042 A 
HETATM    9  N9  UNL     1     -43.138   5.204  -3.327  1.00 20.00    -0.365 N 
HETATM   10  H16 UNL     1     -43.732   5.766  -3.920  1.00 20.00     0.165 HD
ENDROOT
TORSDOF 0
ENDMDL
MODEL 8
REMARK VINA RESULT:      -4.2     12.102     13.895
REMARK  0 active torsions:
REMARK  status: ('A' for Active; 'I' for Inactive)
ROOT
HETATM    1  C1  UNL     1     -33.153  15.110  -3.696  1.00 20.00     0.001 A 
HETATM    2  C2  UNL     1     -33.729  13.841  -3.736  1.00 20.00     0.002 A 
HETATM    3  C3  UNL     1     -33.325  16.009  -4.753  1.00 20.00     0.014 A 
HETATM    4  C4  UNL     1     -34.492  13.432  -4.833  1.00 20.00     0.030 A 
HETATM    5  C5  UNL     1     -34.463  16.254  -7.088  1.00 20.00     0.030 A 
HETATM    6  C6  UNL     1     -35.233  15.366  -7.804  1.00 20.00     0.089 A 
HETATM    7  C7  UNL     1     -34.091  15.619  -5.870  1.00 20.00    -0.008 A 
HETATM    8  C8  UNL     1     -34.656  14.342  -5.884  1.00 20.00     0.042 A 
HETATM    9  N9  UNL     1     -35.343  14.215  -7.070  1.00 20.00    -0.365 N 
HETATM   10  H16 UNL     1     -35.855  13.393  -7.357  1.00 20.00     0.165 HD
ENDROOT
TORSDOF 0
ENDMDL
MODEL 9
REMARK VINA RESULT:      -4.2     11.813     13.214
REMARK  0 active torsions:
REMARK  status: ('A' for Active; 'I' for Inactive)
ROOT
HETATM    1  C1  UNL     1     -34.095  17.194  -2.295  1.00 20.00     0.001 A 
HETATM    2  C2  UNL     1     -33.677  17.762  -3.496  1.00 20.00     0.002 A 
HETATM    3  C3  UNL     1     -34.456  15.844  -2.228  1.00 20.00     0.014 A 
HETATM    4  C4  UNL     1     -33.607  17.002  -4.667  1.00 20.00     0.030 A 
HETATM    5  C5  UNL     1     -34.677  13.693  -3.688  1.00 20.00     0.030 A 
HETATM    6  C6  UNL     1     -34.425  13.492  -5.026  1.00 20.00     0.089 A 
HETATM    7  C7  UNL     1     -34.393  15.057  -3.395  1.00 20.00    -0.008 A 
HETATM    8  C8  UNL     1     -33.971  15.653  -4.585  1.00 20.00     0.042 A 
HETATM    9  N9  UNL     1     -34.001  14.680  -5.559  1.00 20.00    -0.365 N 
HETATM   10  H16 UNL     1     -33.745  14.822  -6.526  1.00 20.00     0.165 HD
ENDROOT
TORSDOF 0
ENDMDL
