MODEL 1
REMARK VINA RESULT:      -5.1      0.000      0.000
REMARK  0 active torsions:
REMARK  status: ('A' for Active; 'I' for Inactive)
ROOT
HETATM    1  C1  UNL     1     -33.014   6.968   4.849  1.00 20.00     0.007 A 
HETATM    2  C2  UNL     1     -33.763   6.181   5.724  1.00 20.00     0.007 A 
HETATM    3  C3  UNL     1     -33.850   5.687   2.979  1.00 20.00     0.007 A 
HETATM    4  C4  UNL     1     -34.599   4.900   3.853  1.00 20.00     0.007 A 
HETATM    5  C5  UNL     1     -33.058   6.721   3.477  1.00 20.00    -0.062 A 
HETATM    6  C6  UNL     1     -34.556   5.146   5.225  1.00 20.00    -0.062 A 
HETATM    7  C7  UNL     1     -32.257   7.563   2.542  1.00 20.00     0.048 C 
HETATM    8  C8  UNL     1     -35.355   4.303   6.161  1.00 20.00     0.048 C 
ENDROOT
TORSDOF 0
ENDMDL
MODEL 2
REMARK VINA RESULT:      -5.1      0.175      3.357
REMARK  0 active torsions:
REMARK  status: ('A' for Active; 'I' for Inactive)
ROOT
HETATM    1  C1  UNL     1     -33.802   6.194   5.850  1.00 20.00     0.007 A 
HETATM    2  C2  UNL     1     -33.069   6.947   4.932  1.00 20.00     0.007 A 
HETATM    3  C3  UNL     1     -34.686   4.855   4.044  1.00 20.00     0.007 A 
HETATM    4  C4  UNL     1     -33.954   5.608   3.127  1.00 20.00     0.007 A 
HETATM    5  C5  UNL     1     -34.610   5.148   5.405  1.00 20.00    -0.062 A 
HETATM    6  C6  UNL     1     -33.145   6.654   3.570  1.00 20.00    -0.062 A 
HETATM    7  C7  UNL     1     -35.393   4.342   6.386  1.00 20.00     0.048 C 
HETATM    8  C8  UNL     1     -32.363   7.462   2.590  1.00 20.00     0.048 C 
ENDROOT
TORSDOF 0
ENDMDL
MODEL 3
REMARK VINA RESULT:      -5.1      0.313      3.771
REMARK  0 active torsions:
REMARK  status: ('A' for Active; 'I' for Inactive)
ROOT
HETATM    1  C1  UNL     1     -34.782   4.869   4.196  1.00 20.00     0.007 A 
HETATM    2  C2  UNL     1     -34.064   5.587   3.240  1.00 20.00     0.007 A 
HETATM    3  C3  UNL     1     -33.801   6.215   5.945  1.00 20.00     0.007 A 
HETATM    4  C4  UNL     1     -33.083   6.934   4.990  1.00 20.00     0.007 A 
HETATM    5  C5  UNL     1     -34.651   5.183   5.548  1.00 20.00    -0.062 A 
HETATM    6  C6  UNL     1     -33.214   6.620   3.637  1.00 20.00    -0.062 A 
HETATM    7  C7  UNL     1     -35.418   4.416   6.571  1.00 20.00     0.048 C 
HETATM    8  C8  UNL     1     -32.444   7.386   2.614  1.00 20.00     0.048 C 
ENDROOT
TORSDOF 0
ENDMDL
MODEL 4
REMARK VINA RESULT:      -5.1      0.329      1.737
REMARK  0 active torsions:
REMARK  status: ('A' for Active; 'I' for Inactive)
ROOT
HETATM    1  C1  UNL     1     -34.058   5.577   3.260  1.00 20.00     0.007 A 
HETATM    2  C2  UNL     1     -34.782   4.856   4.211  1.00 20.00     0.007 A 
HETATM    3  C3  UNL     1     -33.093   6.925   5.017  1.00 20.00     0.007 A 
HETATM    4  C4  UNL     1     -33.816   6.205   5.967  1.00 20.00     0.007 A 
HETATM    5  C5  UNL     1     -33.214   6.610   3.664  1.00 20.00    -0.062 A 
HETATM    6  C6  UNL     1     -34.660   5.170   5.565  1.00 20.00    -0.062 A 
HETATM    7  C7  UNL     1     -32.440   7.381   2.648  1.00 20.00     0.048 C 
HETATM    8  C8  UNL     1     -35.436   4.401   6.580  1.00 20.00     0.048 C 
ENDROOT
TORSDOF 0
ENDMDL
MODEL 5
REMARK VINA RESULT:      -4.0      9.438     10.436
REMARK  0 active torsions:
REMARK  status: ('A' for Active; 'I' for Inactive)
ROOT
HETATM    1  C1  UNL     1     -40.790   5.239  -1.035  1.00 20.00     0.007 A 
HETATM    2  C2  UNL     1     -40.938   3.956  -1.565  1.00 20.00     0.007 A 
HETATM    3  C3  UNL     1     -42.537   6.045  -2.496  1.00 20.00     0.007 A 
HETATM    4  C4  UNL     1     -42.685   4.763  -3.027  1.00 20.00     0.007 A 
HETATM    5  C5  UNL     1     -41.590   6.282  -1.501  1.00 20.00    -0.062 A 
HETATM    6  C6  UNL     1     -41.886   3.719  -2.561  1.00 20.00    -0.062 A 
HETATM    7  C7  UNL     1     -41.432   7.652  -0.935  1.00 20.00     0.048 C 
HETATM    8  C8  UNL     1     -42.042   2.348  -3.129  1.00 20.00     0.048 C 
ENDROOT
TORSDOF 0
ENDMDL
MODEL 6
REMARK VINA RESULT:      -4.0      9.416     10.667
REMARK  0 active torsions:
REMARK  status: ('A' for Active; 'I' for Inactive)
ROOT
HETATM    1  C1  UNL     1     -42.673   4.838  -3.008  1.00 20.00     0.007 A 
HETATM    2  C2  UNL     1     -42.505   6.121  -2.484  1.00 20.00     0.007 A 
HETATM    3  C3  UNL     1     -40.962   4.006  -1.520  1.00 20.00     0.007 A 
HETATM    4  C4  UNL     1     -40.793   5.288  -0.996  1.00 20.00     0.007 A 
HETATM    5  C5  UNL     1     -41.902   3.782  -2.526  1.00 20.00    -0.062 A 
HETATM    6  C6  UNL     1     -41.565   6.345  -1.477  1.00 20.00    -0.062 A 
HETATM    7  C7  UNL     1     -42.081   2.411  -3.085  1.00 20.00     0.048 C 
HETATM    8  C8  UNL     1     -41.384   7.717  -0.920  1.00 20.00     0.048 C 
ENDROOT
TORSDOF 0
ENDMDL
MODEL 7
REMARK VINA RESULT:      -3.9     12.065     12.648
REMARK  0 active torsions:
REMARK  status: ('A' for Active; 'I' for Inactive)
ROOT
HETATM    1  C1  UNL     1     -35.839  15.119  -4.091  1.00 20.00     0.007 A 
HETATM    2  C2  UNL     1     -35.843  15.652  -2.801  1.00 20.00     0.007 A 
HETATM    3  C3  UNL     1     -33.443  15.402  -4.201  1.00 20.00     0.007 A 
HETATM    4  C4  UNL     1     -33.446  15.935  -2.912  1.00 20.00     0.007 A 
HETATM    5  C5  UNL     1     -34.640  14.995  -4.790  1.00 20.00    -0.062 A 
HETATM    6  C6  UNL     1     -34.645  16.059  -2.212  1.00 20.00    -0.062 A 
HETATM    7  C7  UNL     1     -34.635  14.425  -6.168  1.00 20.00     0.048 C 
HETATM    8  C8  UNL     1     -34.650  16.631  -0.834  1.00 20.00     0.048 C 
ENDROOT
TORSDOF 0
ENDMDL
MODEL 8
REMARK VINA RESULT:      -3.9     12.043     13.140
REMARK  0 active torsions:
REMARK  status: ('A' for Active; 'I' for Inactive)
ROOT
HETATM    1  C1  UNL     1     -33.553  16.337  -5.096  1.00 20.00     0.007 A 
HETATM    2  C2  UNL     1     -33.592  16.666  -3.741  1.00 20.00     0.007 A 
HETATM    3  C3  UNL     1     -35.274  14.679  -4.744  1.00 20.00     0.007 A 
HETATM    4  C4  UNL     1     -35.313  15.007  -3.389  1.00 20.00     0.007 A 
HETATM    5  C5  UNL     1     -34.394  15.344  -5.597  1.00 20.00    -0.062 A 
HETATM    6  C6  UNL     1     -34.473  16.000  -2.887  1.00 20.00    -0.062 A 
HETATM    7  C7  UNL     1     -34.352  14.993  -7.046  1.00 20.00     0.048 C 
HETATM    8  C8  UNL     1     -34.513  16.350  -1.438  1.00 20.00     0.048 C 
ENDROOT
TORSDOF 0
ENDMDL
MODEL 9
REMARK VINA RESULT:      -3.9     12.049     13.374
REMARK  0 active torsions:
REMARK  status: ('A' for Active; 'I' for Inactive)
ROOT
HETATM    1  C1  UNL     1     -33.592  16.701  -3.793  1.00 20.00     0.007 A 
HETATM    2  C2  UNL     1     -33.564  16.375  -5.149  1.00 20.00     0.007 A 
HETATM    3  C3  UNL     1     -35.238  14.974  -3.412  1.00 20.00     0.007 A 
HETATM    4  C4  UNL     1     -35.211  14.649  -4.768  1.00 20.00     0.007 A 
HETATM    5  C5  UNL     1     -34.429  16.001  -2.925  1.00 20.00    -0.062 A 
HETATM    6  C6  UNL     1     -34.374  15.349  -5.637  1.00 20.00    -0.062 A 
HETATM    7  C7  UNL     1     -34.459  16.348  -1.475  1.00 20.00     0.048 C 
HETATM    8  C8  UNL     1     -34.345  15.003  -7.087  1.00 20.00     0.048 C 
ENDROOT
TORSDOF 0
ENDMDL
