MODEL 1
REMARK VINA RESULT:      -3.4      0.000      0.000
REMARK  1 active torsions:
REMARK  status: ('A' for Active; 'I' for Inactive)
REMARK    1  A    between atoms: C4_4  and  S7_7 
ROOT
HETATM    1  C1  UNL     1     -34.451   5.824   6.584  1.00 20.00     0.009 A 
HETATM    2  C2  UNL     1     -33.639   6.516   5.640  1.00 20.00     0.026 A 
HETATM    3  C3  UNL     1     -35.195   4.826   5.994  1.00 20.00     0.051 A 
HETATM    4  C4  UNL     1     -33.792   6.021   4.364  1.00 20.00     0.040 A 
HETATM    5  S6  UNL     1     -34.912   4.726   4.308  1.00 20.00    -0.095 SA
ENDROOT
BRANCH   4   6
HETATM    6  S7  UNL     1     -32.967   6.598   2.927  1.00 20.00    -0.127 SA
HETATM    7  C5  UNL     1     -31.585   7.495   3.679  1.00 20.00     0.096 C 
ENDBRANCH   4   6
TORSDOF 1
ENDMDL
MODEL 2
REMARK VINA RESULT:      -3.3      1.228      1.587
REMARK  1 active torsions:
REMARK  status: ('A' for Active; 'I' for Inactive)
REMARK    1  A    between atoms: C4_4  and  S7_7 
ROOT
HETATM    1  C1  UNL     1     -35.244   4.578   5.281  1.00 20.00     0.009 A 
HETATM    2  C2  UNL     1     -34.675   4.996   4.044  1.00 20.00     0.026 A 
HETATM    3  C3  UNL     1     -34.766   5.311   6.345  1.00 20.00     0.051 A 
HETATM    4  C4  UNL     1     -33.784   6.033   4.208  1.00 20.00     0.040 A 
HETATM    5  S6  UNL     1     -33.636   6.498   5.850  1.00 20.00    -0.095 SA
ENDROOT
BRANCH   4   6
HETATM    6  S7  UNL     1     -32.878   6.828   2.933  1.00 20.00    -0.127 SA
HETATM    7  C5  UNL     1     -31.503   7.520   3.889  1.00 20.00     0.096 C 
ENDBRANCH   4   6
TORSDOF 1
ENDMDL
MODEL 3
REMARK VINA RESULT:      -3.2     12.054     12.391
REMARK  1 active torsions:
REMARK  status: ('A' for Active; 'I' for Inactive)
REMARK    1  A    between atoms: C4_4  and  S7_7 
ROOT
HETATM    1  C1  UNL     1     -33.771  13.674  -4.047  1.00 20.00     0.009 A 
HETATM    2  C2  UNL     1     -33.789  14.888  -3.301  1.00 20.00     0.026 A 
HETATM    3  C3  UNL     1     -35.026  13.323  -4.494  1.00 20.00     0.051 A 
HETATM    4  C4  UNL     1     -35.056  15.420  -3.208  1.00 20.00     0.040 A 
HETATM    5  S6  UNL     1     -36.218  14.455  -4.016  1.00 20.00    -0.095 SA
ENDROOT
BRANCH   4   6
HETATM    6  S7  UNL     1     -35.495  16.902  -2.378  1.00 20.00    -0.127 SA
HETATM    7  C5  UNL     1     -34.600  16.683  -0.819  1.00 20.00     0.096 C 
ENDBRANCH   4   6
TORSDOF 1
ENDMDL
MODEL 4
REMARK VINA RESULT:      -3.0     12.260     13.389
REMARK  1 active torsions:
REMARK  status: ('A' for Active; 'I' for Inactive)
REMARK    1  A    between atoms: C4_4  and  S7_7 
ROOT
HETATM    1  C1  UNL     1     -33.626  13.636  -3.778  1.00 20.00     0.009 A 
HETATM    2  C2  UNL     1     -33.251  15.011  -3.806  1.00 20.00     0.026 A 
HETATM    3  C3  UNL     1     -34.461  13.307  -4.823  1.00 20.00     0.051 A 
HETATM    4  C4  UNL     1     -33.813  15.679  -4.870  1.00 20.00     0.040 A 
HETATM    5  S6  UNL     1     -34.790  14.651  -5.831  1.00 20.00    -0.095 SA
ENDROOT
BRANCH   4   6
HETATM    6  S7  UNL     1     -33.595  17.377  -5.255  1.00 20.00    -0.127 SA
HETATM    7  C5  UNL     1     -33.864  18.120  -3.624  1.00 20.00     0.096 C 
ENDBRANCH   4   6
TORSDOF 1
ENDMDL
MODEL 5
REMARK VINA RESULT:      -3.0     10.209     10.960
REMARK  1 active torsions:
REMARK  status: ('A' for Active; 'I' for Inactive)
REMARK    1  A    between atoms: C4_4  and  S7_7 
ROOT
HETATM    1  C1  UNL     1     -40.738   5.825  -0.702  1.00 20.00     0.009 A 
HETATM    2  C2  UNL     1     -41.230   4.598  -1.234  1.00 20.00     0.026 A 
HETATM    3  C3  UNL     1     -41.296   6.920  -1.325  1.00 20.00     0.051 A 
HETATM    4  C4  UNL     1     -42.145   4.802  -2.243  1.00 20.00     0.040 A 
HETATM    5  S6  UNL     1     -42.408   6.467  -2.545  1.00 20.00    -0.095 SA
ENDROOT
BRANCH   4   6
HETATM    6  S7  UNL     1     -42.979   3.551  -3.148  1.00 20.00    -0.127 SA
HETATM    7  C5  UNL     1     -41.660   2.317  -3.295  1.00 20.00     0.096 C 
ENDBRANCH   4   6
TORSDOF 1
ENDMDL
MODEL 6
REMARK VINA RESULT:      -3.0     12.411     13.585
REMARK  1 active torsions:
REMARK  status: ('A' for Active; 'I' for Inactive)
REMARK    1  A    between atoms: C4_4  and  S7_7 
ROOT
HETATM    1  C1  UNL     1     -33.592  13.759  -3.732  1.00 20.00     0.009 A 
HETATM    2  C2  UNL     1     -34.370  13.448  -4.885  1.00 20.00     0.026 A 
HETATM    3  C3  UNL     1     -33.197  15.079  -3.714  1.00 20.00     0.051 A 
HETATM    4  C4  UNL     1     -34.540  14.542  -5.704  1.00 20.00     0.040 A 
HETATM    5  S6  UNL     1     -33.764  15.936  -5.084  1.00 20.00    -0.095 SA
ENDROOT
BRANCH   4   6
HETATM    6  S7  UNL     1     -35.435  14.571  -7.213  1.00 20.00    -0.127 SA
HETATM    7  C5  UNL     1     -37.002  15.286  -6.652  1.00 20.00     0.096 C 
ENDBRANCH   4   6
TORSDOF 1
ENDMDL
MODEL 7
REMARK VINA RESULT:      -3.0     12.669     13.139
REMARK  1 active torsions:
REMARK  status: ('A' for Active; 'I' for Inactive)
REMARK    1  A    between atoms: C4_4  and  S7_7 
ROOT
HETATM    1  C1  UNL     1     -34.738  17.067  -0.160  1.00 20.00     0.009 A 
HETATM    2  C2  UNL     1     -34.595  16.374  -1.397  1.00 20.00     0.026 A 
HETATM    3  C3  UNL     1     -34.235  18.348  -0.223  1.00 20.00     0.051 A 
HETATM    4  C4  UNL     1     -33.989  17.153  -2.359  1.00 20.00     0.040 A 
HETATM    5  S6  UNL     1     -33.595  18.711  -1.769  1.00 20.00    -0.095 SA
ENDROOT
BRANCH   4   6
HETATM    6  S7  UNL     1     -33.636  16.668  -4.008  1.00 20.00    -0.127 SA
HETATM    7  C5  UNL     1     -32.979  15.003  -3.727  1.00 20.00     0.096 C 
ENDBRANCH   4   6
TORSDOF 1
ENDMDL
MODEL 8
REMARK VINA RESULT:      -2.9     12.089     12.911
REMARK  1 active torsions:
REMARK  status: ('A' for Active; 'I' for Inactive)
REMARK    1  A    between atoms: C4_4  and  S7_7 
ROOT
HETATM    1  C1  UNL     1     -33.376  13.760  -3.822  1.00 20.00     0.009 A 
HETATM    2  C2  UNL     1     -34.780  13.558  -3.952  1.00 20.00     0.026 A 
HETATM    3  C3  UNL     1     -33.063  15.078  -3.571  1.00 20.00     0.051 A 
HETATM    4  C4  UNL     1     -35.488  14.730  -3.794  1.00 20.00     0.040 A 
HETATM    5  S6  UNL     1     -34.459  16.065  -3.491  1.00 20.00    -0.095 SA
ENDROOT
BRANCH   4   6
HETATM    6  S7  UNL     1     -37.231  14.902  -3.879  1.00 20.00    -0.127 SA
HETATM    7  C5  UNL     1     -37.436  15.319  -5.630  1.00 20.00     0.096 C 
ENDBRANCH   4   6
TORSDOF 1
ENDMDL
MODEL 9
REMARK VINA RESULT:      -2.9     12.190     12.620
REMARK  1 active torsions:
REMARK  status: ('A' for Active; 'I' for Inactive)
REMARK    1  A    between atoms: C4_4  and  S7_7 
ROOT
HETATM    1  C1  UNL     1     -35.607  13.817  -4.377  1.00 20.00     0.009 A 
HETATM    2  C2  UNL     1     -35.764  14.858  -3.417  1.00 20.00     0.026 A 
HETATM    3  C3  UNL     1     -34.281  13.527  -4.613  1.00 20.00     0.051 A 
HETATM    4  C4  UNL     1     -34.553  15.323  -2.954  1.00 20.00     0.040 A 
HETATM    5  S6  UNL     1     -33.233  14.506  -3.678  1.00 20.00    -0.095 SA
ENDROOT
BRANCH   4   6
HETATM    6  S7  UNL     1     -34.321  16.594  -1.767  1.00 20.00    -0.127 SA
HETATM    7  C5  UNL     1     -33.865  17.974  -2.849  1.00 20.00     0.096 C 
ENDBRANCH   4   6
TORSDOF 1
ENDMDL
