MODEL 1
REMARK VINA RESULT:      -3.1      0.000      0.000
REMARK  0 active torsions:
REMARK  status: ('A' for Active; 'I' for Inactive)
ROOT
HETATM    1  C1  UNL     1     -34.022   6.458   6.471  1.00 20.00     0.021 C 
HETATM    2  C2  UNL     1     -34.797   4.293   5.446  1.00 20.00     0.021 C 
HETATM    3  C3  UNL     1     -34.608   5.792   5.229  1.00 20.00     0.045 C 
HETATM    4  I4  UNL     1     -33.302   6.123   3.542  1.00 20.00    -0.086 I 
ENDROOT
TORSDOF 0
ENDMDL
MODEL 2
REMARK VINA RESULT:      -3.1      1.003      1.930
REMARK  0 active torsions:
REMARK  status: ('A' for Active; 'I' for Inactive)
ROOT
HETATM    1  C1  UNL     1     -35.393   5.309   4.060  1.00 20.00     0.021 C 
HETATM    2  C2  UNL     1     -34.145   6.264   6.027  1.00 20.00     0.021 C 
HETATM    3  C3  UNL     1     -34.029   5.484   4.720  1.00 20.00     0.045 C 
HETATM    4  I4  UNL     1     -32.697   6.520   3.373  1.00 20.00    -0.086 I 
ENDROOT
TORSDOF 0
ENDMDL
MODEL 3
REMARK VINA RESULT:      -2.9      1.945      2.554
REMARK  0 active torsions:
REMARK  status: ('A' for Active; 'I' for Inactive)
ROOT
HETATM    1  C1  UNL     1     -33.154   6.318   4.043  1.00 20.00     0.021 C 
HETATM    2  C2  UNL     1     -33.625   6.919   6.442  1.00 20.00     0.021 C 
HETATM    3  C3  UNL     1     -34.198   6.328   5.157  1.00 20.00     0.045 C 
HETATM    4  I4  UNL     1     -34.886   4.316   5.526  1.00 20.00    -0.086 I 
ENDROOT
TORSDOF 0
ENDMDL
MODEL 4
REMARK VINA RESULT:      -2.8      2.313      2.994
REMARK  0 active torsions:
REMARK  status: ('A' for Active; 'I' for Inactive)
ROOT
HETATM    1  C1  UNL     1     -34.650   5.310   2.906  1.00 20.00     0.021 C 
HETATM    2  C2  UNL     1     -32.707   6.528   3.944  1.00 20.00     0.021 C 
HETATM    3  C3  UNL     1     -34.184   6.166   4.079  1.00 20.00     0.045 C 
HETATM    4  I4  UNL     1     -34.504   5.099   5.929  1.00 20.00    -0.086 I 
ENDROOT
TORSDOF 0
ENDMDL
MODEL 5
REMARK VINA RESULT:      -2.7      1.988      2.238
REMARK  0 active torsions:
REMARK  status: ('A' for Active; 'I' for Inactive)
ROOT
HETATM    1  C1  UNL     1     -33.756   6.952   6.420  1.00 20.00     0.021 C 
HETATM    2  C2  UNL     1     -33.971   6.623   3.933  1.00 20.00     0.021 C 
HETATM    3  C3  UNL     1     -33.632   5.961   5.267  1.00 20.00     0.045 C 
HETATM    4  I4  UNL     1     -34.953   4.287   5.603  1.00 20.00    -0.086 I 
ENDROOT
TORSDOF 0
ENDMDL
MODEL 6
REMARK VINA RESULT:      -2.7      2.369      2.574
REMARK  0 active torsions:
REMARK  status: ('A' for Active; 'I' for Inactive)
ROOT
HETATM    1  C1  UNL     1     -33.241   6.429   3.919  1.00 20.00     0.021 C 
HETATM    2  C2  UNL     1     -35.617   5.857   3.316  1.00 20.00     0.021 C 
HETATM    3  C3  UNL     1     -34.320   5.351   3.943  1.00 20.00     0.045 C 
HETATM    4  I4  UNL     1     -34.689   4.737   5.979  1.00 20.00    -0.086 I 
ENDROOT
TORSDOF 0
ENDMDL
MODEL 7
REMARK VINA RESULT:      -2.6      1.786      2.304
REMARK  0 active torsions:
REMARK  status: ('A' for Active; 'I' for Inactive)
ROOT
HETATM    1  C1  UNL     1     -34.900   3.823   5.538  1.00 20.00     0.021 C 
HETATM    2  C2  UNL     1     -34.777   5.377   3.561  1.00 20.00     0.021 C 
HETATM    3  C3  UNL     1     -35.088   5.256   5.051  1.00 20.00     0.045 C 
HETATM    4  I4  UNL     1     -33.802   6.580   6.171  1.00 20.00    -0.086 I 
ENDROOT
TORSDOF 0
ENDMDL
MODEL 8
REMARK VINA RESULT:      -2.4      9.316      9.499
REMARK  0 active torsions:
REMARK  status: ('A' for Active; 'I' for Inactive)
ROOT
HETATM    1  C1  UNL     1     -41.129   7.074  -0.879  1.00 20.00     0.021 C 
HETATM    2  C2  UNL     1     -40.738   4.596  -1.092  1.00 20.00     0.021 C 
HETATM    3  C3  UNL     1     -41.155   5.730  -0.158  1.00 20.00     0.045 C 
HETATM    4  I4  UNL     1     -43.139   5.351   0.603  1.00 20.00    -0.086 I 
ENDROOT
TORSDOF 0
ENDMDL
MODEL 9
REMARK VINA RESULT:      -2.3     13.028     13.461
REMARK  0 active torsions:
REMARK  status: ('A' for Active; 'I' for Inactive)
ROOT
HETATM    1  C1  UNL     1     -33.913  16.167  -2.474  1.00 20.00     0.021 C 
HETATM    2  C2  UNL     1     -33.210  16.413  -4.879  1.00 20.00     0.021 C 
HETATM    3  C3  UNL     1     -33.306  15.466  -3.686  1.00 20.00     0.045 C 
HETATM    4  I4  UNL     1     -34.510  13.753  -4.213  1.00 20.00    -0.086 I 
ENDROOT
TORSDOF 0
ENDMDL
