MODEL 1
REMARK VINA RESULT:      -5.9      0.000      0.000
REMARK  1 active torsions:
REMARK  status: ('A' for Active; 'I' for Inactive)
REMARK    1  A    between atoms: C6_6  and  C9_9 
ROOT
HETATM    1  C1  UNL     1     -35.234   4.193   5.888  1.00 20.00     0.001 A 
HETATM    2  C2  UNL     1     -35.219   4.171   4.493  1.00 20.00     0.001 A 
HETATM    3  C3  UNL     1     -34.604   5.230   6.575  1.00 20.00     0.007 A 
HETATM    4  C4  UNL     1     -34.573   5.185   3.786  1.00 20.00     0.007 A 
HETATM    5  C5  UNL     1     -33.958   6.245   5.869  1.00 20.00    -0.056 A 
HETATM    6  C6  UNL     1     -33.943   6.223   4.474  1.00 20.00    -0.053 A 
HETATM    7  C7  UNL     1     -33.292   7.345   6.627  1.00 20.00     0.049 C 
ENDROOT
BRANCH   6   8
HETATM    8  C9  UNL     1     -33.257   7.297   3.696  1.00 20.00     0.034 C 
HETATM    9  C8  UNL     1     -32.033   6.778   2.949  1.00 20.00     0.010 C 
ENDBRANCH   6   8
TORSDOF 1
ENDMDL
MODEL 2
REMARK VINA RESULT:      -5.5      0.742      2.392
REMARK  1 active torsions:
REMARK  status: ('A' for Active; 'I' for Inactive)
REMARK    1  A    between atoms: C6_6  and  C9_9 
ROOT
HETATM    1  C1  UNL     1     -35.097   4.708   5.980  1.00 20.00     0.001 A 
HETATM    2  C2  UNL     1     -34.363   5.782   6.485  1.00 20.00     0.001 A 
HETATM    3  C3  UNL     1     -35.140   4.477   4.606  1.00 20.00     0.007 A 
HETATM    4  C4  UNL     1     -33.671   6.625   5.614  1.00 20.00     0.007 A 
HETATM    5  C5  UNL     1     -34.449   5.320   3.734  1.00 20.00    -0.056 A 
HETATM    6  C6  UNL     1     -33.714   6.393   4.239  1.00 20.00    -0.053 A 
HETATM    7  C7  UNL     1     -34.509   5.051   2.267  1.00 20.00     0.049 C 
ENDROOT
BRANCH   6   8
HETATM    8  C9  UNL     1     -32.967   7.309   3.326  1.00 20.00     0.034 C 
HETATM    9  C8  UNL     1     -31.480   7.373   3.662  1.00 20.00     0.010 C 
ENDBRANCH   6   8
TORSDOF 1
ENDMDL
MODEL 3
REMARK VINA RESULT:      -4.8      0.939      3.222
REMARK  1 active torsions:
REMARK  status: ('A' for Active; 'I' for Inactive)
REMARK    1  A    between atoms: C6_6  and  C9_9 
ROOT
HETATM    1  C1  UNL     1     -32.013   7.051   3.175  1.00 20.00     0.001 A 
HETATM    2  C2  UNL     1     -32.728   6.142   2.395  1.00 20.00     0.001 A 
HETATM    3  C3  UNL     1     -32.388   7.280   4.499  1.00 20.00     0.007 A 
HETATM    4  C4  UNL     1     -33.818   5.462   2.938  1.00 20.00     0.007 A 
HETATM    5  C5  UNL     1     -33.478   6.600   5.043  1.00 20.00    -0.056 A 
HETATM    6  C6  UNL     1     -34.193   5.691   4.263  1.00 20.00    -0.053 A 
HETATM    7  C7  UNL     1     -33.860   6.861   6.463  1.00 20.00     0.049 C 
ENDROOT
BRANCH   6   8
HETATM    8  C9  UNL     1     -35.363   4.952   4.823  1.00 20.00     0.034 C 
HETATM    9  C8  UNL     1     -34.940   3.772   5.693  1.00 20.00     0.010 C 
ENDBRANCH   6   8
TORSDOF 1
ENDMDL
MODEL 4
REMARK VINA RESULT:      -4.7      0.474      2.722
REMARK  1 active torsions:
REMARK  status: ('A' for Active; 'I' for Inactive)
REMARK    1  A    between atoms: C6_6  and  C9_9 
ROOT
HETATM    1  C1  UNL     1     -35.229   4.154   4.441  1.00 20.00     0.001 A 
HETATM    2  C2  UNL     1     -35.280   4.297   5.827  1.00 20.00     0.001 A 
HETATM    3  C3  UNL     1     -34.481   5.046   3.674  1.00 20.00     0.007 A 
HETATM    4  C4  UNL     1     -34.581   5.333   6.448  1.00 20.00     0.007 A 
HETATM    5  C5  UNL     1     -33.783   6.083   4.293  1.00 20.00    -0.056 A 
HETATM    6  C6  UNL     1     -33.832   6.226   5.680  1.00 20.00    -0.053 A 
HETATM    7  C7  UNL     1     -32.987   7.026   3.451  1.00 20.00     0.049 C 
ENDROOT
BRANCH   6   8
HETATM    8  C9  UNL     1     -33.093   7.328   6.365  1.00 20.00     0.034 C 
HETATM    9  C8  UNL     1     -33.875   7.904   7.543  1.00 20.00     0.010 C 
ENDBRANCH   6   8
TORSDOF 1
ENDMDL
MODEL 5
REMARK VINA RESULT:      -4.6      0.817      3.512
REMARK  1 active torsions:
REMARK  status: ('A' for Active; 'I' for Inactive)
REMARK    1  A    between atoms: C6_6  and  C9_9 
ROOT
HETATM    1  C1  UNL     1     -32.941   6.029   2.342  1.00 20.00     0.001 A 
HETATM    2  C2  UNL     1     -32.284   6.928   3.183  1.00 20.00     0.001 A 
HETATM    3  C3  UNL     1     -33.986   5.249   2.835  1.00 20.00     0.007 A 
HETATM    4  C4  UNL     1     -32.673   7.047   4.517  1.00 20.00     0.007 A 
HETATM    5  C5  UNL     1     -34.375   5.367   4.170  1.00 20.00    -0.056 A 
HETATM    6  C6  UNL     1     -33.719   6.266   5.011  1.00 20.00    -0.053 A 
HETATM    7  C7  UNL     1     -35.498   4.522   4.675  1.00 20.00     0.049 C 
ENDROOT
BRANCH   6   8
HETATM    8  C9  UNL     1     -34.117   6.409   6.443  1.00 20.00     0.034 C 
HETATM    9  C8  UNL     1     -33.406   7.574   7.127  1.00 20.00     0.010 C 
ENDBRANCH   6   8
TORSDOF 1
ENDMDL
MODEL 6
REMARK VINA RESULT:      -4.5     12.145     12.548
REMARK  1 active torsions:
REMARK  status: ('A' for Active; 'I' for Inactive)
REMARK    1  A    between atoms: C6_6  and  C9_9 
ROOT
HETATM    1  C1  UNL     1     -35.719  13.562  -4.554  1.00 20.00     0.001 A 
HETATM    2  C2  UNL     1     -36.516  14.491  -3.886  1.00 20.00     0.001 A 
HETATM    3  C3  UNL     1     -34.332  13.607  -4.420  1.00 20.00     0.007 A 
HETATM    4  C4  UNL     1     -35.925  15.467  -3.082  1.00 20.00     0.007 A 
HETATM    5  C5  UNL     1     -33.740  14.583  -3.617  1.00 20.00    -0.056 A 
HETATM    6  C6  UNL     1     -34.538  15.512  -2.948  1.00 20.00    -0.053 A 
HETATM    7  C7  UNL     1     -32.253  14.611  -3.488  1.00 20.00     0.049 C 
ENDROOT
BRANCH   6   8
HETATM    8  C9  UNL     1     -33.927  16.566  -2.083  1.00 20.00     0.034 C 
HETATM    9  C8  UNL     1     -34.635  16.691  -0.737  1.00 20.00     0.010 C 
ENDBRANCH   6   8
TORSDOF 1
ENDMDL
MODEL 7
REMARK VINA RESULT:      -4.5     11.957     13.446
REMARK  1 active torsions:
REMARK  status: ('A' for Active; 'I' for Inactive)
REMARK    1  A    between atoms: C6_6  and  C9_9 
ROOT
HETATM    1  C1  UNL     1     -34.877  13.841  -5.809  1.00 20.00     0.001 A 
HETATM    2  C2  UNL     1     -34.936  13.353  -4.504  1.00 20.00     0.001 A 
HETATM    3  C3  UNL     1     -34.406  15.131  -6.051  1.00 20.00     0.007 A 
HETATM    4  C4  UNL     1     -34.524  14.155  -3.440  1.00 20.00     0.007 A 
HETATM    5  C5  UNL     1     -33.995  15.935  -4.987  1.00 20.00    -0.056 A 
HETATM    6  C6  UNL     1     -34.053  15.446  -3.681  1.00 20.00    -0.053 A 
HETATM    7  C7  UNL     1     -33.493  17.312  -5.270  1.00 20.00     0.049 C 
ENDROOT
BRANCH   6   8
HETATM    8  C9  UNL     1     -33.619  16.287  -2.527  1.00 20.00     0.034 C 
HETATM    9  C8  UNL     1     -34.676  16.351  -1.428  1.00 20.00     0.010 C 
ENDBRANCH   6   8
TORSDOF 1
ENDMDL
MODEL 8
REMARK VINA RESULT:      -4.4     12.049     12.633
REMARK  1 active torsions:
REMARK  status: ('A' for Active; 'I' for Inactive)
REMARK    1  A    between atoms: C6_6  and  C9_9 
ROOT
HETATM    1  C1  UNL     1     -34.172  13.297  -4.481  1.00 20.00     0.001 A 
HETATM    2  C2  UNL     1     -33.213  14.046  -3.800  1.00 20.00     0.001 A 
HETATM    3  C3  UNL     1     -35.519  13.650  -4.401  1.00 20.00     0.007 A 
HETATM    4  C4  UNL     1     -33.600  15.149  -3.038  1.00 20.00     0.007 A 
HETATM    5  C5  UNL     1     -35.907  14.752  -3.639  1.00 20.00    -0.056 A 
HETATM    6  C6  UNL     1     -34.947  15.502  -2.958  1.00 20.00    -0.053 A 
HETATM    7  C7  UNL     1     -37.355  15.111  -3.569  1.00 20.00     0.049 C 
ENDROOT
BRANCH   6   8
HETATM    8  C9  UNL     1     -35.339  16.685  -2.136  1.00 20.00     0.034 C 
HETATM    9  C8  UNL     1     -34.638  16.705  -0.780  1.00 20.00     0.010 C 
ENDBRANCH   6   8
TORSDOF 1
ENDMDL
MODEL 9
REMARK VINA RESULT:      -4.3      9.416     10.880
REMARK  1 active torsions:
REMARK  status: ('A' for Active; 'I' for Inactive)
REMARK    1  A    between atoms: C6_6  and  C9_9 
ROOT
HETATM    1  C1  UNL     1     -40.858   6.937  -0.598  1.00 20.00     0.001 A 
HETATM    2  C2  UNL     1     -40.570   5.600  -0.328  1.00 20.00     0.001 A 
HETATM    3  C3  UNL     1     -41.710   7.269  -1.651  1.00 20.00     0.007 A 
HETATM    4  C4  UNL     1     -41.134   4.592  -1.112  1.00 20.00     0.007 A 
HETATM    5  C5  UNL     1     -42.274   6.263  -2.436  1.00 20.00    -0.056 A 
HETATM    6  C6  UNL     1     -41.986   4.924  -2.166  1.00 20.00    -0.053 A 
HETATM    7  C7  UNL     1     -43.184   6.642  -3.557  1.00 20.00     0.049 C 
ENDROOT
BRANCH   6   8
HETATM    8  C9  UNL     1     -42.577   3.830  -2.993  1.00 20.00     0.034 C 
HETATM    9  C8  UNL     1     -41.640   2.632  -3.122  1.00 20.00     0.010 C 
ENDBRANCH   6   8
TORSDOF 1
ENDMDL
