MODEL 1
REMARK VINA RESULT:      -4.3      0.000      0.000
REMARK  0 active torsions:
REMARK  status: ('A' for Active; 'I' for Inactive)
ROOT
HETATM    1  C1  UNL     1     -33.941   6.133   6.122  1.00 20.00     0.008 A 
HETATM    2  C2  UNL     1     -34.868   4.828   4.313  1.00 20.00     0.008 A 
HETATM    3  C3  UNL     1     -33.221   6.896   5.203  1.00 20.00     0.019 A 
HETATM    4  C4  UNL     1     -34.147   5.589   3.394  1.00 20.00     0.019 A 
HETATM    5  C5  UNL     1     -34.766   5.099   5.677  1.00 20.00    -0.062 A 
HETATM    6  C6  UNL     1     -33.323   6.623   3.839  1.00 20.00     0.006 A 
HETATM    7  C7  UNL     1     -35.534   4.283   6.659  1.00 20.00     0.048 C 
HETATM    8  I8  UNL     1     -32.247   7.757   2.471  1.00 20.00    -0.045 I 
ENDROOT
TORSDOF 0
ENDMDL
MODEL 2
REMARK VINA RESULT:      -3.9      9.850     10.833
REMARK  0 active torsions:
REMARK  status: ('A' for Active; 'I' for Inactive)
ROOT
HETATM    1  C1  UNL     1     -42.448   6.182  -2.454  1.00 20.00     0.008 A 
HETATM    2  C2  UNL     1     -40.774   5.186  -1.025  1.00 20.00     0.008 A 
HETATM    3  C3  UNL     1     -42.707   4.934  -3.021  1.00 20.00     0.019 A 
HETATM    4  C4  UNL     1     -41.032   3.939  -1.593  1.00 20.00     0.019 A 
HETATM    5  C5  UNL     1     -41.482   6.308  -1.455  1.00 20.00    -0.062 A 
HETATM    6  C6  UNL     1     -41.998   3.813  -2.591  1.00 20.00     0.006 A 
HETATM    7  C7  UNL     1     -41.205   7.642  -0.850  1.00 20.00     0.048 C 
HETATM    8  I8  UNL     1     -42.380   1.955  -3.439  1.00 20.00    -0.045 I 
ENDROOT
TORSDOF 0
ENDMDL
MODEL 3
REMARK VINA RESULT:      -3.8     12.483     13.221
REMARK  0 active torsions:
REMARK  status: ('A' for Active; 'I' for Inactive)
ROOT
HETATM    1  C1  UNL     1     -35.889  16.143  -2.858  1.00 20.00     0.008 A 
HETATM    2  C2  UNL     1     -33.477  16.012  -2.882  1.00 20.00     0.008 A 
HETATM    3  C3  UNL     1     -35.921  15.794  -4.208  1.00 20.00     0.019 A 
HETATM    4  C4  UNL     1     -33.509  15.664  -4.232  1.00 20.00     0.019 A 
HETATM    5  C5  UNL     1     -34.667  16.251  -2.194  1.00 20.00    -0.062 A 
HETATM    6  C6  UNL     1     -34.731  15.555  -4.895  1.00 20.00     0.006 A 
HETATM    7  C7  UNL     1     -34.632  16.625  -0.752  1.00 20.00     0.048 C 
HETATM    8  I8  UNL     1     -34.780  15.040  -6.907  1.00 20.00    -0.045 I 
ENDROOT
TORSDOF 0
ENDMDL
MODEL 4
REMARK VINA RESULT:      -3.7     12.389     13.433
REMARK  0 active torsions:
REMARK  status: ('A' for Active; 'I' for Inactive)
ROOT
HETATM    1  C1  UNL     1     -34.639  16.556  -0.757  1.00 20.00     0.008 A 
HETATM    2  C2  UNL     1     -33.759  18.775  -1.132  1.00 20.00     0.008 A 
HETATM    3  C3  UNL     1     -34.461  16.257  -2.108  1.00 20.00     0.019 A 
HETATM    4  C4  UNL     1     -33.583  18.477  -2.483  1.00 20.00     0.019 A 
HETATM    5  C5  UNL     1     -34.287  17.815  -0.269  1.00 20.00    -0.062 A 
HETATM    6  C6  UNL     1     -33.934  17.218  -2.971  1.00 20.00     0.006 A 
HETATM    7  C7  UNL     1     -34.479  18.135   1.174  1.00 20.00     0.048 C 
HETATM    8  I8  UNL     1     -33.673  16.773  -4.984  1.00 20.00    -0.045 I 
ENDROOT
TORSDOF 0
ENDMDL
MODEL 5
REMARK VINA RESULT:      -3.7     12.658     13.921
REMARK  0 active torsions:
REMARK  status: ('A' for Active; 'I' for Inactive)
ROOT
HETATM    1  C1  UNL     1     -35.225  14.780  -4.820  1.00 20.00     0.008 A 
HETATM    2  C2  UNL     1     -33.608  16.490  -5.365  1.00 20.00     0.008 A 
HETATM    3  C3  UNL     1     -35.252  15.227  -3.499  1.00 20.00     0.019 A 
HETATM    4  C4  UNL     1     -33.635  16.937  -4.044  1.00 20.00     0.019 A 
HETATM    5  C5  UNL     1     -34.403  15.412  -5.753  1.00 20.00    -0.062 A 
HETATM    6  C6  UNL     1     -34.457  16.305  -3.111  1.00 20.00     0.006 A 
HETATM    7  C7  UNL     1     -34.372  14.933  -7.164  1.00 20.00     0.048 C 
HETATM    8  I8  UNL     1     -34.495  16.968  -1.142  1.00 20.00    -0.045 I 
ENDROOT
TORSDOF 0
ENDMDL
MODEL 6
REMARK VINA RESULT:      -3.7     12.464     12.657
REMARK  0 active torsions:
REMARK  status: ('A' for Active; 'I' for Inactive)
ROOT
HETATM    1  C1  UNL     1     -35.743  14.851  -3.490  1.00 20.00     0.008 A 
HETATM    2  C2  UNL     1     -33.355  14.787  -3.853  1.00 20.00     0.008 A 
HETATM    3  C3  UNL     1     -35.574  15.874  -2.557  1.00 20.00     0.019 A 
HETATM    4  C4  UNL     1     -33.186  15.809  -2.919  1.00 20.00     0.019 A 
HETATM    5  C5  UNL     1     -34.633  14.308  -4.139  1.00 20.00    -0.062 A 
HETATM    6  C6  UNL     1     -34.295  16.353  -2.271  1.00 20.00     0.006 A 
HETATM    7  C7  UNL     1     -34.814  13.214  -5.135  1.00 20.00     0.048 C 
HETATM    8  I8  UNL     1     -34.043  17.873  -0.879  1.00 20.00    -0.045 I 
ENDROOT
TORSDOF 0
ENDMDL
MODEL 7
REMARK VINA RESULT:      -3.7     12.647     13.875
REMARK  0 active torsions:
REMARK  status: ('A' for Active; 'I' for Inactive)
ROOT
HETATM    1  C1  UNL     1     -33.647  16.501  -5.377  1.00 20.00     0.008 A 
HETATM    2  C2  UNL     1     -35.237  14.767  -4.826  1.00 20.00     0.008 A 
HETATM    3  C3  UNL     1     -33.669  16.941  -4.054  1.00 20.00     0.019 A 
HETATM    4  C4  UNL     1     -35.260  15.208  -3.503  1.00 20.00     0.019 A 
HETATM    5  C5  UNL     1     -34.430  15.413  -5.763  1.00 20.00    -0.062 A 
HETATM    6  C6  UNL     1     -34.476  16.295  -3.117  1.00 20.00     0.006 A 
HETATM    7  C7  UNL     1     -34.408  14.943  -7.178  1.00 20.00     0.048 C 
HETATM    8  I8  UNL     1     -34.511  16.954  -1.147  1.00 20.00    -0.045 I 
ENDROOT
TORSDOF 0
ENDMDL
MODEL 8
REMARK VINA RESULT:      -3.6     12.406     13.418
REMARK  0 active torsions:
REMARK  status: ('A' for Active; 'I' for Inactive)
ROOT
HETATM    1  C1  UNL     1     -33.686  17.519  -3.260  1.00 20.00     0.008 A 
HETATM    2  C2  UNL     1     -34.779  15.590  -2.300  1.00 20.00     0.008 A 
HETATM    3  C3  UNL     1     -33.875  16.991  -4.537  1.00 20.00     0.019 A 
HETATM    4  C4  UNL     1     -34.968  15.062  -3.577  1.00 20.00     0.019 A 
HETATM    5  C5  UNL     1     -34.139  16.819  -2.141  1.00 20.00    -0.062 A 
HETATM    6  C6  UNL     1     -34.516  15.762  -4.695  1.00 20.00     0.006 A 
HETATM    7  C7  UNL     1     -33.935  17.382  -0.776  1.00 20.00     0.048 C 
HETATM    8  I8  UNL     1     -34.794  14.975  -6.598  1.00 20.00    -0.045 I 
ENDROOT
TORSDOF 0
ENDMDL
MODEL 9
REMARK VINA RESULT:      -3.6     12.260     12.584
REMARK  0 active torsions:
REMARK  status: ('A' for Active; 'I' for Inactive)
ROOT
HETATM    1  C1  UNL     1     -34.489  15.549  -2.821  1.00 20.00     0.008 A 
HETATM    2  C2  UNL     1     -34.645  13.677  -4.340  1.00 20.00     0.008 A 
HETATM    3  C3  UNL     1     -35.867  15.742  -2.917  1.00 20.00     0.019 A 
HETATM    4  C4  UNL     1     -36.022  13.870  -4.437  1.00 20.00     0.019 A 
HETATM    5  C5  UNL     1     -33.877  14.516  -3.532  1.00 20.00    -0.062 A 
HETATM    6  C6  UNL     1     -36.633  14.903  -3.726  1.00 20.00     0.006 A 
HETATM    7  C7  UNL     1     -32.405  14.310  -3.430  1.00 20.00     0.048 C 
HETATM    8  I8  UNL     1     -38.685  15.193  -3.872  1.00 20.00    -0.045 I 
ENDROOT
TORSDOF 0
ENDMDL
