MODEL 1
REMARK VINA RESULT:      -5.4      0.000      0.000
REMARK  1 active torsions:
REMARK  status: ('A' for Active; 'I' for Inactive)
REMARK    1  A    between atoms: C6_6  and  O8_8 
ROOT
HETATM    1  C1  UNL     1     -35.125   4.698   6.035  1.00 20.00     0.000 A 
HETATM    2  C2  UNL     1     -35.304   4.404   4.683  1.00 20.00     0.003 A 
HETATM    3  C3  UNL     1     -34.320   5.773   6.415  1.00 20.00     0.003 A 
HETATM    4  C4  UNL     1     -34.680   5.185   3.711  1.00 20.00     0.037 A 
HETATM    5  C5  UNL     1     -33.696   6.553   5.441  1.00 20.00     0.037 A 
HETATM    6  C6  UNL     1     -33.875   6.259   4.090  1.00 20.00     0.068 A 
ENDROOT
BRANCH   6   7
HETATM    7  O8  UNL     1     -33.264   7.020   3.141  1.00 20.00    -0.356 OA
HETATM    8  C7  UNL     1     -31.870   7.271   3.308  1.00 20.00     0.210 C 
ENDBRANCH   6   7
TORSDOF 1
ENDMDL
MODEL 2
REMARK VINA RESULT:      -5.4      0.017      1.708
REMARK  1 active torsions:
REMARK  status: ('A' for Active; 'I' for Inactive)
REMARK    1  A    between atoms: C6_6  and  O8_8 
ROOT
HETATM    1  C1  UNL     1     -35.124   4.697   6.036  1.00 20.00     0.000 A 
HETATM    2  C2  UNL     1     -34.325   5.774   6.420  1.00 20.00     0.003 A 
HETATM    3  C3  UNL     1     -35.291   4.401   4.683  1.00 20.00     0.003 A 
HETATM    4  C4  UNL     1     -33.694   6.555   5.453  1.00 20.00     0.037 A 
HETATM    5  C5  UNL     1     -34.660   5.183   3.715  1.00 20.00     0.037 A 
HETATM    6  C6  UNL     1     -33.861   6.259   4.100  1.00 20.00     0.068 A 
ENDROOT
BRANCH   6   7
HETATM    7  O8  UNL     1     -33.247   7.022   3.155  1.00 20.00    -0.356 OA
HETATM    8  C7  UNL     1     -31.851   7.266   3.324  1.00 20.00     0.210 C 
ENDBRANCH   6   7
TORSDOF 1
ENDMDL
MODEL 3
REMARK VINA RESULT:      -4.0      1.452      2.378
REMARK  1 active torsions:
REMARK  status: ('A' for Active; 'I' for Inactive)
REMARK    1  A    between atoms: C6_6  and  O8_8 
ROOT
HETATM    1  C1  UNL     1     -35.352   4.282   4.440  1.00 20.00     0.000 A 
HETATM    2  C2  UNL     1     -34.793   5.296   3.661  1.00 20.00     0.003 A 
HETATM    3  C3  UNL     1     -35.135   4.262   5.818  1.00 20.00     0.003 A 
HETATM    4  C4  UNL     1     -34.018   6.288   4.259  1.00 20.00     0.037 A 
HETATM    5  C5  UNL     1     -34.359   5.255   6.415  1.00 20.00     0.037 A 
HETATM    6  C6  UNL     1     -33.801   6.267   5.637  1.00 20.00     0.068 A 
ENDROOT
BRANCH   6   7
HETATM    7  O8  UNL     1     -33.042   7.235   6.221  1.00 20.00    -0.356 OA
HETATM    8  C7  UNL     1     -33.539   7.809   7.429  1.00 20.00     0.210 C 
ENDBRANCH   6   7
TORSDOF 1
ENDMDL
MODEL 4
REMARK VINA RESULT:      -4.0      1.434      2.575
REMARK  1 active torsions:
REMARK  status: ('A' for Active; 'I' for Inactive)
REMARK    1  A    between atoms: C6_6  and  O8_8 
ROOT
HETATM    1  C1  UNL     1     -35.319   4.267   4.434  1.00 20.00     0.000 A 
HETATM    2  C2  UNL     1     -35.124   4.277   5.815  1.00 20.00     0.003 A 
HETATM    3  C3  UNL     1     -34.751   5.267   3.643  1.00 20.00     0.003 A 
HETATM    4  C4  UNL     1     -34.363   5.286   6.406  1.00 20.00     0.037 A 
HETATM    5  C5  UNL     1     -33.990   6.275   4.234  1.00 20.00     0.037 A 
HETATM    6  C6  UNL     1     -33.796   6.285   5.614  1.00 20.00     0.068 A 
ENDROOT
BRANCH   6   7
HETATM    7  O8  UNL     1     -33.055   7.271   6.191  1.00 20.00    -0.356 OA
HETATM    8  C7  UNL     1     -33.506   7.772   7.448  1.00 20.00     0.210 C 
ENDBRANCH   6   7
TORSDOF 1
ENDMDL
MODEL 5
REMARK VINA RESULT:      -3.9     11.876     12.432
REMARK  1 active torsions:
REMARK  status: ('A' for Active; 'I' for Inactive)
REMARK    1  A    between atoms: C6_6  and  O8_8 
ROOT
HETATM    1  C1  UNL     1     -33.266  14.807  -3.525  1.00 20.00     0.000 A 
HETATM    2  C2  UNL     1     -33.725  13.654  -4.162  1.00 20.00     0.003 A 
HETATM    3  C3  UNL     1     -34.178  15.719  -2.993  1.00 20.00     0.003 A 
HETATM    4  C4  UNL     1     -35.095  13.412  -4.267  1.00 20.00     0.037 A 
HETATM    5  C5  UNL     1     -35.548  15.477  -3.098  1.00 20.00     0.037 A 
HETATM    6  C6  UNL     1     -36.006  14.324  -3.734  1.00 20.00     0.068 A 
ENDROOT
BRANCH   6   7
HETATM    7  O8  UNL     1     -37.343  14.090  -3.838  1.00 20.00    -0.356 OA
HETATM    8  C7  UNL     1     -38.214  15.208  -3.670  1.00 20.00     0.210 C 
ENDBRANCH   6   7
TORSDOF 1
ENDMDL
MODEL 6
REMARK VINA RESULT:      -3.9     11.940     12.542
REMARK  1 active torsions:
REMARK  status: ('A' for Active; 'I' for Inactive)
REMARK    1  A    between atoms: C6_6  and  O8_8 
ROOT
HETATM    1  C1  UNL     1     -33.338  14.800  -3.533  1.00 20.00     0.000 A 
HETATM    2  C2  UNL     1     -34.235  15.702  -2.960  1.00 20.00     0.003 A 
HETATM    3  C3  UNL     1     -33.815  13.677  -4.209  1.00 20.00     0.003 A 
HETATM    4  C4  UNL     1     -35.608  15.482  -3.063  1.00 20.00     0.037 A 
HETATM    5  C5  UNL     1     -35.189  13.457  -4.312  1.00 20.00     0.037 A 
HETATM    6  C6  UNL     1     -36.085  14.359  -3.739  1.00 20.00     0.068 A 
ENDROOT
BRANCH   6   7
HETATM    7  O8  UNL     1     -37.425  14.143  -3.839  1.00 20.00    -0.356 OA
HETATM    8  C7  UNL     1     -38.283  15.255  -3.589  1.00 20.00     0.210 C 
ENDBRANCH   6   7
TORSDOF 1
ENDMDL
MODEL 7
REMARK VINA RESULT:      -3.9      9.687     10.624
REMARK  1 active torsions:
REMARK  status: ('A' for Active; 'I' for Inactive)
REMARK    1  A    between atoms: C6_6  and  O8_8 
ROOT
HETATM    1  C1  UNL     1     -40.678   5.737  -0.465  1.00 20.00     0.000 A 
HETATM    2  C2  UNL     1     -41.144   4.660  -1.220  1.00 20.00     0.003 A 
HETATM    3  C3  UNL     1     -41.046   7.038  -0.807  1.00 20.00     0.003 A 
HETATM    4  C4  UNL     1     -41.976   4.884  -2.316  1.00 20.00     0.037 A 
HETATM    5  C5  UNL     1     -41.878   7.262  -1.904  1.00 20.00     0.037 A 
HETATM    6  C6  UNL     1     -42.343   6.186  -2.658  1.00 20.00     0.068 A 
ENDROOT
BRANCH   6   7
HETATM    7  O8  UNL     1     -43.155   6.405  -3.729  1.00 20.00    -0.356 OA
HETATM    8  C7  UNL     1     -43.325   7.758  -4.148  1.00 20.00     0.210 C 
ENDBRANCH   6   7
TORSDOF 1
ENDMDL
MODEL 8
REMARK VINA RESULT:      -3.8      9.341     10.495
REMARK  1 active torsions:
REMARK  status: ('A' for Active; 'I' for Inactive)
REMARK    1  A    between atoms: C6_6  and  O8_8 
ROOT
HETATM    1  C1  UNL     1     -41.093   7.075  -0.842  1.00 20.00     0.000 A 
HETATM    2  C2  UNL     1     -40.669   5.791  -0.502  1.00 20.00     0.003 A 
HETATM    3  C3  UNL     1     -41.970   7.260  -1.911  1.00 20.00     0.003 A 
HETATM    4  C4  UNL     1     -41.121   4.691  -1.230  1.00 20.00     0.037 A 
HETATM    5  C5  UNL     1     -42.422   6.159  -2.639  1.00 20.00     0.037 A 
HETATM    6  C6  UNL     1     -41.998   4.875  -2.299  1.00 20.00     0.068 A 
ENDROOT
BRANCH   6   7
HETATM    7  O8  UNL     1     -42.439   3.802  -3.011  1.00 20.00    -0.356 OA
HETATM    8  C7  UNL     1     -41.572   2.671  -3.085  1.00 20.00     0.210 C 
ENDBRANCH   6   7
TORSDOF 1
ENDMDL
MODEL 9
REMARK VINA RESULT:      -3.8     11.957     13.549
REMARK  1 active torsions:
REMARK  status: ('A' for Active; 'I' for Inactive)
REMARK    1  A    between atoms: C6_6  and  O8_8 
ROOT
HETATM    1  C1  UNL     1     -34.728  13.270  -4.770  1.00 20.00     0.000 A 
HETATM    2  C2  UNL     1     -33.948  13.725  -3.707  1.00 20.00     0.003 A 
HETATM    3  C3  UNL     1     -34.920  14.079  -5.891  1.00 20.00     0.003 A 
HETATM    4  C4  UNL     1     -33.360  14.989  -3.764  1.00 20.00     0.037 A 
HETATM    5  C5  UNL     1     -34.332  15.342  -5.947  1.00 20.00     0.037 A 
HETATM    6  C6  UNL     1     -33.552  15.797  -4.885  1.00 20.00     0.068 A 
ENDROOT
BRANCH   6   7
HETATM    7  O8  UNL     1     -32.980  17.031  -4.940  1.00 20.00    -0.356 OA
HETATM    8  C7  UNL     1     -33.673  18.037  -5.678  1.00 20.00     0.210 C 
ENDBRANCH   6   7
TORSDOF 1
ENDMDL
