MODEL 1
REMARK VINA RESULT:      -6.0      0.000      0.000
REMARK  0 active torsions:
REMARK  status: ('A' for Active; 'I' for Inactive)
ROOT
HETATM    1  C1  UNL     1     -34.606   5.647   6.703  1.00 20.00     0.001 A 
HETATM    2  C2  UNL     1     -35.293   4.682   5.946  1.00 20.00     0.001 A 
HETATM    3  C3  UNL     1     -33.670   6.495   6.102  1.00 20.00     0.012 A 
HETATM    4  C4  UNL     1     -35.057   4.548   4.576  1.00 20.00     0.008 A 
HETATM    5  C5  UNL     1     -33.443   6.354   4.745  1.00 20.00    -0.030 A 
HETATM    6  C6  UNL     1     -34.130   5.391   3.992  1.00 20.00    -0.044 A 
HETATM    7  C7  UNL     1     -32.542   7.085   3.869  1.00 20.00     0.008 A 
HETATM    8  C8  UNL     1     -32.677   6.583   2.632  1.00 20.00    -0.021 A 
HETATM    9  C9  UNL     1     -33.687   5.463   2.563  1.00 20.00     0.066 A 
ENDROOT
TORSDOF 0
ENDMDL
MODEL 2
REMARK VINA RESULT:      -5.9      0.099      1.981
REMARK  0 active torsions:
REMARK  status: ('A' for Active; 'I' for Inactive)
ROOT
HETATM    1  C1  UNL     1     -35.296   4.616   5.913  1.00 20.00     0.001 A 
HETATM    2  C2  UNL     1     -34.679   5.594   6.712  1.00 20.00     0.001 A 
HETATM    3  C3  UNL     1     -34.997   4.512   4.551  1.00 20.00     0.012 A 
HETATM    4  C4  UNL     1     -33.753   6.485   6.164  1.00 20.00     0.008 A 
HETATM    5  C5  UNL     1     -34.079   5.399   4.017  1.00 20.00    -0.030 A 
HETATM    6  C6  UNL     1     -33.465   6.373   4.816  1.00 20.00    -0.044 A 
HETATM    7  C7  UNL     1     -33.584   5.521   2.656  1.00 20.00     0.008 A 
HETATM    8  C8  UNL     1     -32.704   6.534   2.631  1.00 20.00    -0.021 A 
HETATM    9  C9  UNL     1     -32.525   7.187   3.980  1.00 20.00     0.066 A 
ENDROOT
TORSDOF 0
ENDMDL
MODEL 3
REMARK VINA RESULT:      -5.6      0.492      3.712
REMARK  0 active torsions:
REMARK  status: ('A' for Active; 'I' for Inactive)
ROOT
HETATM    1  C1  UNL     1     -32.887   6.196   2.405  1.00 20.00     0.001 A 
HETATM    2  C2  UNL     1     -32.289   7.088   3.310  1.00 20.00     0.001 A 
HETATM    3  C3  UNL     1     -33.874   5.300   2.828  1.00 20.00     0.012 A 
HETATM    4  C4  UNL     1     -32.666   7.102   4.655  1.00 20.00     0.008 A 
HETATM    5  C5  UNL     1     -34.241   5.321   4.162  1.00 20.00    -0.030 A 
HETATM    6  C6  UNL     1     -33.643   6.213   5.064  1.00 20.00    -0.044 A 
HETATM    7  C7  UNL     1     -35.223   4.518   4.871  1.00 20.00     0.008 A 
HETATM    8  C8  UNL     1     -35.219   4.908   6.155  1.00 20.00    -0.021 A 
HETATM    9  C9  UNL     1     -34.229   6.015   6.427  1.00 20.00     0.066 A 
ENDROOT
TORSDOF 0
ENDMDL
MODEL 4
REMARK VINA RESULT:      -5.6      0.552      3.149
REMARK  0 active torsions:
REMARK  status: ('A' for Active; 'I' for Inactive)
ROOT
HETATM    1  C1  UNL     1     -32.332   7.024   3.197  1.00 20.00     0.001 A 
HETATM    2  C2  UNL     1     -32.951   6.097   2.342  1.00 20.00     0.001 A 
HETATM    3  C3  UNL     1     -32.678   7.092   4.550  1.00 20.00     0.012 A 
HETATM    4  C4  UNL     1     -33.926   5.221   2.824  1.00 20.00     0.008 A 
HETATM    5  C5  UNL     1     -33.645   6.221   5.019  1.00 20.00    -0.030 A 
HETATM    6  C6  UNL     1     -34.261   5.296   4.164  1.00 20.00    -0.044 A 
HETATM    7  C7  UNL     1     -34.194   6.069   6.355  1.00 20.00     0.008 A 
HETATM    8  C8  UNL     1     -35.110   5.089   6.312  1.00 20.00    -0.021 A 
HETATM    9  C9  UNL     1     -35.260   4.490   4.934  1.00 20.00     0.066 A 
ENDROOT
TORSDOF 0
ENDMDL
MODEL 5
REMARK VINA RESULT:      -4.5     12.011     13.910
REMARK  0 active torsions:
REMARK  status: ('A' for Active; 'I' for Inactive)
ROOT
HETATM    1  C1  UNL     1     -33.649  13.839  -3.746  1.00 20.00     0.001 A 
HETATM    2  C2  UNL     1     -33.068  15.115  -3.651  1.00 20.00     0.001 A 
HETATM    3  C3  UNL     1     -34.425  13.485  -4.854  1.00 20.00     0.012 A 
HETATM    4  C4  UNL     1     -33.252  16.060  -4.663  1.00 20.00     0.008 A 
HETATM    5  C5  UNL     1     -34.602  14.429  -5.851  1.00 20.00    -0.030 A 
HETATM    6  C6  UNL     1     -34.021  15.701  -5.755  1.00 20.00    -0.044 A 
HETATM    7  C7  UNL     1     -35.345  14.341  -7.097  1.00 20.00     0.008 A 
HETATM    8  C8  UNL     1     -35.220  15.517  -7.731  1.00 20.00    -0.021 A 
HETATM    9  C9  UNL     1     -34.377  16.507  -6.966  1.00 20.00     0.066 A 
ENDROOT
TORSDOF 0
ENDMDL
MODEL 6
REMARK VINA RESULT:      -4.5     12.047     13.822
REMARK  0 active torsions:
REMARK  status: ('A' for Active; 'I' for Inactive)
ROOT
HETATM    1  C1  UNL     1     -33.083  15.121  -3.661  1.00 20.00     0.001 A 
HETATM    2  C2  UNL     1     -33.665  13.846  -3.768  1.00 20.00     0.001 A 
HETATM    3  C3  UNL     1     -33.258  16.075  -4.667  1.00 20.00     0.012 A 
HETATM    4  C4  UNL     1     -34.433  13.503  -4.884  1.00 20.00     0.008 A 
HETATM    5  C5  UNL     1     -34.019  15.726  -5.769  1.00 20.00    -0.030 A 
HETATM    6  C6  UNL     1     -34.600  14.454  -5.874  1.00 20.00    -0.044 A 
HETATM    7  C7  UNL     1     -34.364  16.503  -6.948  1.00 20.00     0.008 A 
HETATM    8  C8  UNL     1     -35.124  15.729  -7.738  1.00 20.00    -0.021 A 
HETATM    9  C9  UNL     1     -35.361  14.355  -7.160  1.00 20.00     0.066 A 
ENDROOT
TORSDOF 0
ENDMDL
MODEL 7
REMARK VINA RESULT:      -4.4      9.580     10.636
REMARK  0 active torsions:
REMARK  status: ('A' for Active; 'I' for Inactive)
ROOT
HETATM    1  C1  UNL     1     -41.774   3.365  -2.458  1.00 20.00     0.001 A 
HETATM    2  C2  UNL     1     -42.821   3.912  -3.220  1.00 20.00     0.001 A 
HETATM    3  C3  UNL     1     -41.036   4.162  -1.579  1.00 20.00     0.012 A 
HETATM    4  C4  UNL     1     -43.148   5.266  -3.116  1.00 20.00     0.008 A 
HETATM    5  C5  UNL     1     -41.367   5.502  -1.482  1.00 20.00    -0.030 A 
HETATM    6  C6  UNL     1     -42.411   6.046  -2.243  1.00 20.00    -0.044 A 
HETATM    7  C7  UNL     1     -40.781   6.550  -0.664  1.00 20.00     0.008 A 
HETATM    8  C8  UNL     1     -41.445   7.688  -0.920  1.00 20.00    -0.021 A 
HETATM    9  C9  UNL     1     -42.544   7.506  -1.939  1.00 20.00     0.066 A 
ENDROOT
TORSDOF 0
ENDMDL
MODEL 8
REMARK VINA RESULT:      -4.4      9.481     10.552
REMARK  0 active torsions:
REMARK  status: ('A' for Active; 'I' for Inactive)
ROOT
HETATM    1  C1  UNL     1     -41.169   7.244  -0.813  1.00 20.00     0.001 A 
HETATM    2  C2  UNL     1     -40.469   6.156  -0.265  1.00 20.00     0.001 A 
HETATM    3  C3  UNL     1     -42.116   7.051  -1.824  1.00 20.00     0.012 A 
HETATM    4  C4  UNL     1     -40.703   4.855  -0.716  1.00 20.00     0.008 A 
HETATM    5  C5  UNL     1     -42.340   5.758  -2.265  1.00 20.00    -0.030 A 
HETATM    6  C6  UNL     1     -41.641   4.674  -1.716  1.00 20.00    -0.044 A 
HETATM    7  C7  UNL     1     -43.251   5.267  -3.285  1.00 20.00     0.008 A 
HETATM    8  C8  UNL     1     -43.107   3.934  -3.353  1.00 20.00    -0.021 A 
HETATM    9  C9  UNL     1     -42.082   3.406  -2.379  1.00 20.00     0.066 A 
ENDROOT
TORSDOF 0
ENDMDL
MODEL 9
REMARK VINA RESULT:      -4.3     12.108     14.235
REMARK  0 active torsions:
REMARK  status: ('A' for Active; 'I' for Inactive)
ROOT
HETATM    1  C1  UNL     1     -35.087  15.777  -7.590  1.00 20.00     0.001 A 
HETATM    2  C2  UNL     1     -34.423  16.873  -7.012  1.00 20.00     0.001 A 
HETATM    3  C3  UNL     1     -35.149  14.547  -6.930  1.00 20.00     0.012 A 
HETATM    4  C4  UNL     1     -33.809  16.757  -5.762  1.00 20.00     0.008 A 
HETATM    5  C5  UNL     1     -34.537  14.442  -5.693  1.00 20.00    -0.030 A 
HETATM    6  C6  UNL     1     -33.876  15.536  -5.117  1.00 20.00    -0.044 A 
HETATM    7  C7  UNL     1     -34.443  13.304  -4.793  1.00 20.00     0.008 A 
HETATM    8  C8  UNL     1     -33.749  13.695  -3.713  1.00 20.00    -0.021 A 
HETATM    9  C9  UNL     1     -33.312  15.137  -3.788  1.00 20.00     0.066 A 
ENDROOT
TORSDOF 0
ENDMDL
