MODEL 1
REMARK VINA RESULT:      -5.7      0.000      0.000
REMARK  0 active torsions:
REMARK  status: ('A' for Active; 'I' for Inactive)
ROOT
HETATM    1  C1  UNL     1     -35.160   4.865   5.978  1.00 20.00     0.000 A 
HETATM    2  C2  UNL     1     -34.298   5.875   6.405  1.00 20.00     0.001 A 
HETATM    3  C3  UNL     1     -35.239   4.540   4.625  1.00 20.00     0.001 A 
HETATM    4  C4  UNL     1     -33.513   6.560   5.477  1.00 20.00     0.007 A 
HETATM    5  C5  UNL     1     -34.455   5.226   3.696  1.00 20.00     0.007 A 
HETATM    6  C6  UNL     1     -33.591   6.236   4.123  1.00 20.00    -0.062 A 
HETATM    7  C7  UNL     1     -32.754   6.968   3.130  1.00 20.00     0.048 C 
ENDROOT
TORSDOF 0
ENDMDL
MODEL 2
REMARK VINA RESULT:      -5.7      0.001      1.826
REMARK  0 active torsions:
REMARK  status: ('A' for Active; 'I' for Inactive)
ROOT
HETATM    1  C1  UNL     1     -35.159   4.866   5.979  1.00 20.00     0.000 A 
HETATM    2  C2  UNL     1     -35.239   4.540   4.625  1.00 20.00     0.001 A 
HETATM    3  C3  UNL     1     -34.297   5.875   6.405  1.00 20.00     0.001 A 
HETATM    4  C4  UNL     1     -34.455   5.226   3.696  1.00 20.00     0.007 A 
HETATM    5  C5  UNL     1     -33.512   6.560   5.477  1.00 20.00     0.007 A 
HETATM    6  C6  UNL     1     -33.592   6.236   4.122  1.00 20.00    -0.062 A 
HETATM    7  C7  UNL     1     -32.753   6.969   3.131  1.00 20.00     0.048 C 
ENDROOT
TORSDOF 0
ENDMDL
MODEL 3
REMARK VINA RESULT:      -5.5      0.920      2.331
REMARK  0 active torsions:
REMARK  status: ('A' for Active; 'I' for Inactive)
ROOT
HETATM    1  C1  UNL     1     -35.175   4.321   4.411  1.00 20.00     0.000 A 
HETATM    2  C2  UNL     1     -34.602   5.430   3.788  1.00 20.00     0.001 A 
HETATM    3  C3  UNL     1     -35.155   4.214   5.801  1.00 20.00     0.001 A 
HETATM    4  C4  UNL     1     -34.009   6.432   4.556  1.00 20.00     0.007 A 
HETATM    5  C5  UNL     1     -34.560   5.216   6.569  1.00 20.00     0.007 A 
HETATM    6  C6  UNL     1     -33.988   6.325   5.947  1.00 20.00    -0.062 A 
HETATM    7  C7  UNL     1     -33.353   7.395   6.769  1.00 20.00     0.048 C 
ENDROOT
TORSDOF 0
ENDMDL
MODEL 4
REMARK VINA RESULT:      -5.5      0.921      2.148
REMARK  0 active torsions:
REMARK  status: ('A' for Active; 'I' for Inactive)
ROOT
HETATM    1  C1  UNL     1     -35.176   4.322   4.411  1.00 20.00     0.000 A 
HETATM    2  C2  UNL     1     -35.157   4.214   5.801  1.00 20.00     0.001 A 
HETATM    3  C3  UNL     1     -34.602   5.430   3.789  1.00 20.00     0.001 A 
HETATM    4  C4  UNL     1     -34.563   5.215   6.570  1.00 20.00     0.007 A 
HETATM    5  C5  UNL     1     -34.009   6.432   4.558  1.00 20.00     0.007 A 
HETATM    6  C6  UNL     1     -33.989   6.324   5.949  1.00 20.00    -0.062 A 
HETATM    7  C7  UNL     1     -33.354   7.395   6.769  1.00 20.00     0.048 C 
ENDROOT
TORSDOF 0
ENDMDL
MODEL 5
REMARK VINA RESULT:      -4.6      0.788      3.273
REMARK  0 active torsions:
REMARK  status: ('A' for Active; 'I' for Inactive)
ROOT
HETATM    1  C1  UNL     1     -33.369   6.398   3.106  1.00 20.00     0.000 A 
HETATM    2  C2  UNL     1     -34.327   5.400   2.929  1.00 20.00     0.001 A 
HETATM    3  C3  UNL     1     -33.015   6.806   4.391  1.00 20.00     0.001 A 
HETATM    4  C4  UNL     1     -34.932   4.810   4.039  1.00 20.00     0.007 A 
HETATM    5  C5  UNL     1     -33.621   6.218   5.501  1.00 20.00     0.007 A 
HETATM    6  C6  UNL     1     -34.580   5.219   5.325  1.00 20.00    -0.062 A 
HETATM    7  C7  UNL     1     -35.226   4.590   6.513  1.00 20.00     0.048 C 
ENDROOT
TORSDOF 0
ENDMDL
MODEL 6
REMARK VINA RESULT:      -4.6      0.786      2.732
REMARK  0 active torsions:
REMARK  status: ('A' for Active; 'I' for Inactive)
ROOT
HETATM    1  C1  UNL     1     -33.292   6.407   3.097  1.00 20.00     0.000 A 
HETATM    2  C2  UNL     1     -32.950   6.805   4.389  1.00 20.00     0.001 A 
HETATM    3  C3  UNL     1     -34.272   5.435   2.902  1.00 20.00     0.001 A 
HETATM    4  C4  UNL     1     -33.588   6.230   5.488  1.00 20.00     0.007 A 
HETATM    5  C5  UNL     1     -34.910   4.858   4.001  1.00 20.00     0.007 A 
HETATM    6  C6  UNL     1     -34.569   5.256   5.294  1.00 20.00    -0.062 A 
HETATM    7  C7  UNL     1     -35.252   4.640   6.467  1.00 20.00     0.048 C 
ENDROOT
TORSDOF 0
ENDMDL
MODEL 7
REMARK VINA RESULT:      -4.0      8.952     10.002
REMARK  0 active torsions:
REMARK  status: ('A' for Active; 'I' for Inactive)
ROOT
HETATM    1  C1  UNL     1     -41.188   7.203  -0.842  1.00 20.00     0.000 A 
HETATM    2  C2  UNL     1     -40.649   6.056  -0.259  1.00 20.00     0.001 A 
HETATM    3  C3  UNL     1     -41.966   7.101  -1.995  1.00 20.00     0.001 A 
HETATM    4  C4  UNL     1     -40.888   4.806  -0.831  1.00 20.00     0.007 A 
HETATM    5  C5  UNL     1     -42.203   5.851  -2.567  1.00 20.00     0.007 A 
HETATM    6  C6  UNL     1     -41.665   4.703  -1.984  1.00 20.00    -0.062 A 
HETATM    7  C7  UNL     1     -41.921   3.367  -2.596  1.00 20.00     0.048 C 
ENDROOT
TORSDOF 0
ENDMDL
MODEL 8
REMARK VINA RESULT:      -4.0      8.962     10.097
REMARK  0 active torsions:
REMARK  status: ('A' for Active; 'I' for Inactive)
ROOT
HETATM    1  C1  UNL     1     -41.191   7.187  -0.852  1.00 20.00     0.000 A 
HETATM    2  C2  UNL     1     -41.975   7.085  -2.002  1.00 20.00     0.001 A 
HETATM    3  C3  UNL     1     -40.650   6.040  -0.272  1.00 20.00     0.001 A 
HETATM    4  C4  UNL     1     -42.216   5.835  -2.572  1.00 20.00     0.007 A 
HETATM    5  C5  UNL     1     -40.894   4.790  -0.841  1.00 20.00     0.007 A 
HETATM    6  C6  UNL     1     -41.676   4.687  -1.992  1.00 20.00    -0.062 A 
HETATM    7  C7  UNL     1     -41.934   3.350  -2.599  1.00 20.00     0.048 C 
ENDROOT
TORSDOF 0
ENDMDL
MODEL 9
REMARK VINA RESULT:      -4.0      0.810      3.083
REMARK  0 active torsions:
REMARK  status: ('A' for Active; 'I' for Inactive)
ROOT
HETATM    1  C1  UNL     1     -32.972   7.343   5.147  1.00 20.00     0.000 A 
HETATM    2  C2  UNL     1     -33.170   6.612   3.975  1.00 20.00     0.001 A 
HETATM    3  C3  UNL     1     -33.558   6.921   6.340  1.00 20.00     0.001 A 
HETATM    4  C4  UNL     1     -33.954   5.458   3.997  1.00 20.00     0.007 A 
HETATM    5  C5  UNL     1     -34.343   5.768   6.362  1.00 20.00     0.007 A 
HETATM    6  C6  UNL     1     -34.540   5.036   5.191  1.00 20.00    -0.062 A 
HETATM    7  C7  UNL     1     -35.379   3.803   5.216  1.00 20.00     0.048 C 
ENDROOT
TORSDOF 0
ENDMDL
