MODEL 1
REMARK VINA RESULT:      -5.7      0.000      0.000
REMARK  0 active torsions:
REMARK  status: ('A' for Active; 'I' for Inactive)
ROOT
HETATM    1  C1  UNL     1     -35.184   4.257   5.906  1.00 20.00     0.001 A 
HETATM    2  C2  UNL     1     -34.641   5.282   6.680  1.00 20.00     0.007 A 
HETATM    3  C3  UNL     1     -35.062   4.292   4.516  1.00 20.00     0.007 A 
HETATM    4  C4  UNL     1     -33.853   6.378   4.676  1.00 20.00     0.013 A 
HETATM    5  C5  UNL     1     -33.975   6.342   6.065  1.00 20.00    -0.061 A 
HETATM    6  C6  UNL     1     -34.395   5.353   3.902  1.00 20.00    -0.061 A 
HETATM    7  C7  UNL     1     -33.393   7.438   6.894  1.00 20.00     0.048 C 
HETATM    8  C8  UNL     1     -34.265   5.391   2.416  1.00 20.00     0.048 C 
ENDROOT
TORSDOF 0
ENDMDL
MODEL 2
REMARK VINA RESULT:      -5.7      0.003      3.028
REMARK  0 active torsions:
REMARK  status: ('A' for Active; 'I' for Inactive)
ROOT
HETATM    1  C1  UNL     1     -35.184   4.256   5.908  1.00 20.00     0.001 A 
HETATM    2  C2  UNL     1     -35.061   4.292   4.518  1.00 20.00     0.007 A 
HETATM    3  C3  UNL     1     -34.642   5.282   6.683  1.00 20.00     0.007 A 
HETATM    4  C4  UNL     1     -33.854   6.379   4.679  1.00 20.00     0.013 A 
HETATM    5  C5  UNL     1     -34.396   5.353   3.904  1.00 20.00    -0.061 A 
HETATM    6  C6  UNL     1     -33.977   6.343   6.068  1.00 20.00    -0.061 A 
HETATM    7  C7  UNL     1     -34.266   5.391   2.419  1.00 20.00     0.048 C 
HETATM    8  C8  UNL     1     -33.397   7.440   6.897  1.00 20.00     0.048 C 
ENDROOT
TORSDOF 0
ENDMDL
MODEL 3
REMARK VINA RESULT:      -5.1      1.287      2.498
REMARK  0 active torsions:
REMARK  status: ('A' for Active; 'I' for Inactive)
ROOT
HETATM    1  C1  UNL     1     -34.600   5.158   2.888  1.00 20.00     0.001 A 
HETATM    2  C2  UNL     1     -35.040   4.964   4.198  1.00 20.00     0.007 A 
HETATM    3  C3  UNL     1     -33.500   5.979   2.637  1.00 20.00     0.007 A 
HETATM    4  C4  UNL     1     -33.281   6.409   5.003  1.00 20.00     0.013 A 
HETATM    5  C5  UNL     1     -34.380   5.589   5.255  1.00 20.00    -0.061 A 
HETATM    6  C6  UNL     1     -32.841   6.604   3.695  1.00 20.00    -0.061 A 
HETATM    7  C7  UNL     1     -34.850   5.379   6.656  1.00 20.00     0.048 C 
HETATM    8  C8  UNL     1     -31.665   7.482   3.426  1.00 20.00     0.048 C 
ENDROOT
TORSDOF 0
ENDMDL
MODEL 4
REMARK VINA RESULT:      -5.1      1.290      2.990
REMARK  0 active torsions:
REMARK  status: ('A' for Active; 'I' for Inactive)
ROOT
HETATM    1  C1  UNL     1     -34.580   5.163   2.876  1.00 20.00     0.001 A 
HETATM    2  C2  UNL     1     -33.479   5.986   2.638  1.00 20.00     0.007 A 
HETATM    3  C3  UNL     1     -35.030   4.962   4.181  1.00 20.00     0.007 A 
HETATM    4  C4  UNL     1     -33.279   6.406   5.008  1.00 20.00     0.013 A 
HETATM    5  C5  UNL     1     -32.828   6.607   3.704  1.00 20.00    -0.061 A 
HETATM    6  C6  UNL     1     -34.379   5.584   5.247  1.00 20.00    -0.061 A 
HETATM    7  C7  UNL     1     -31.652   7.488   3.447  1.00 20.00     0.048 C 
HETATM    8  C8  UNL     1     -34.861   5.368   6.643  1.00 20.00     0.048 C 
ENDROOT
TORSDOF 0
ENDMDL
MODEL 5
REMARK VINA RESULT:      -4.8      1.250      2.764
REMARK  0 active torsions:
REMARK  status: ('A' for Active; 'I' for Inactive)
ROOT
HETATM    1  C1  UNL     1     -33.603   6.916   6.449  1.00 20.00     0.001 A 
HETATM    2  C2  UNL     1     -32.939   7.359   5.305  1.00 20.00     0.007 A 
HETATM    3  C3  UNL     1     -34.393   5.768   6.397  1.00 20.00     0.007 A 
HETATM    4  C4  UNL     1     -33.856   5.506   4.056  1.00 20.00     0.013 A 
HETATM    5  C5  UNL     1     -33.066   6.654   4.109  1.00 20.00    -0.061 A 
HETATM    6  C6  UNL     1     -34.519   5.063   5.199  1.00 20.00    -0.061 A 
HETATM    7  C7  UNL     1     -32.354   7.128   2.886  1.00 20.00     0.048 C 
HETATM    8  C8  UNL     1     -35.365   3.835   5.142  1.00 20.00     0.048 C 
ENDROOT
TORSDOF 0
ENDMDL
MODEL 6
REMARK VINA RESULT:      -4.8      1.250      2.715
REMARK  0 active torsions:
REMARK  status: ('A' for Active; 'I' for Inactive)
ROOT
HETATM    1  C1  UNL     1     -33.609   6.916   6.449  1.00 20.00     0.001 A 
HETATM    2  C2  UNL     1     -34.396   5.766   6.394  1.00 20.00     0.007 A 
HETATM    3  C3  UNL     1     -32.942   7.361   5.308  1.00 20.00     0.007 A 
HETATM    4  C4  UNL     1     -33.851   5.505   4.055  1.00 20.00     0.013 A 
HETATM    5  C5  UNL     1     -34.517   5.061   5.197  1.00 20.00    -0.061 A 
HETATM    6  C6  UNL     1     -33.064   6.655   4.110  1.00 20.00    -0.061 A 
HETATM    7  C7  UNL     1     -35.361   3.832   5.138  1.00 20.00     0.048 C 
HETATM    8  C8  UNL     1     -32.350   7.130   2.889  1.00 20.00     0.048 C 
ENDROOT
TORSDOF 0
ENDMDL
MODEL 7
REMARK VINA RESULT:      -4.2      8.745     10.364
REMARK  0 active torsions:
REMARK  status: ('A' for Active; 'I' for Inactive)
ROOT
HETATM    1  C1  UNL     1     -40.651   5.931  -0.416  1.00 20.00     0.001 A 
HETATM    2  C2  UNL     1     -41.286   7.030  -0.995  1.00 20.00     0.007 A 
HETATM    3  C3  UNL     1     -40.835   4.657  -0.952  1.00 20.00     0.007 A 
HETATM    4  C4  UNL     1     -42.291   5.579  -2.645  1.00 20.00     0.013 A 
HETATM    5  C5  UNL     1     -42.106   6.854  -2.109  1.00 20.00    -0.061 A 
HETATM    6  C6  UNL     1     -41.655   4.481  -2.067  1.00 20.00    -0.061 A 
HETATM    7  C7  UNL     1     -42.785   8.029  -2.729  1.00 20.00     0.048 C 
HETATM    8  C8  UNL     1     -41.853   3.117  -2.639  1.00 20.00     0.048 C 
ENDROOT
TORSDOF 0
ENDMDL
MODEL 8
REMARK VINA RESULT:      -4.2      8.751     10.527
REMARK  0 active torsions:
REMARK  status: ('A' for Active; 'I' for Inactive)
ROOT
HETATM    1  C1  UNL     1     -40.649   5.923  -0.428  1.00 20.00     0.001 A 
HETATM    2  C2  UNL     1     -40.837   4.649  -0.963  1.00 20.00     0.007 A 
HETATM    3  C3  UNL     1     -41.285   7.023  -1.004  1.00 20.00     0.007 A 
HETATM    4  C4  UNL     1     -42.295   5.574  -2.652  1.00 20.00     0.013 A 
HETATM    5  C5  UNL     1     -41.660   4.474  -2.075  1.00 20.00    -0.061 A 
HETATM    6  C6  UNL     1     -42.108   6.848  -2.117  1.00 20.00    -0.061 A 
HETATM    7  C7  UNL     1     -41.862   3.111  -2.646  1.00 20.00     0.048 C 
HETATM    8  C8  UNL     1     -42.787   8.024  -2.734  1.00 20.00     0.048 C 
ENDROOT
TORSDOF 0
ENDMDL
MODEL 9
REMARK VINA RESULT:      -4.1     12.426     13.501
REMARK  0 active torsions:
REMARK  status: ('A' for Active; 'I' for Inactive)
ROOT
HETATM    1  C1  UNL     1     -33.515  16.911  -4.639  1.00 20.00     0.001 A 
HETATM    2  C2  UNL     1     -33.779  17.216  -3.304  1.00 20.00     0.007 A 
HETATM    3  C3  UNL     1     -33.773  15.629  -5.126  1.00 20.00     0.007 A 
HETATM    4  C4  UNL     1     -34.559  14.959  -2.942  1.00 20.00     0.013 A 
HETATM    5  C5  UNL     1     -34.301  16.240  -2.455  1.00 20.00    -0.061 A 
HETATM    6  C6  UNL     1     -34.295  14.653  -4.277  1.00 20.00    -0.061 A 
HETATM    7  C7  UNL     1     -34.585  16.568  -1.028  1.00 20.00     0.048 C 
HETATM    8  C8  UNL     1     -34.571  13.282  -4.797  1.00 20.00     0.048 C 
ENDROOT
TORSDOF 0
ENDMDL
