MODEL 1
REMARK VINA RESULT:      -4.4      0.000      0.000
REMARK  2 active torsions:
REMARK  status: ('A' for Active; 'I' for Inactive)
REMARK    1  A    between atoms: C5_5  and  N8_8 
REMARK    2  A    between atoms: C6_6  and  S11_11 
ROOT
HETATM    1  C1  UNL     1     -33.492  15.795  -4.162  1.00 20.00     0.037 A 
HETATM    2  C2  UNL     1     -34.502  14.913  -6.171  1.00 20.00     0.037 A 
HETATM    3  C3  UNL     1     -33.472  17.069  -4.730  1.00 20.00     0.021 A 
HETATM    4  C4  UNL     1     -34.483  16.187  -6.740  1.00 20.00     0.021 A 
HETATM    5  C5  UNL     1     -34.007  14.717  -4.882  1.00 20.00     0.102 A 
HETATM    6  C6  UNL     1     -33.968  17.265  -6.019  1.00 20.00    -0.000 A 
ENDROOT
BRANCH   5   7
HETATM    7  N8  UNL     1     -34.028  13.421  -4.302  1.00 20.00    -0.116 N 
HETATM    8  O9  UNL     1     -33.044  13.042  -3.623  1.00 20.00    -0.532 OA
HETATM    9  O10 UNL     1     -35.031  12.689  -4.486  1.00 20.00    -0.532 OA
ENDBRANCH   5   7
BRANCH   6  10
HETATM   10  S11 UNL     1     -33.942  18.891  -6.745  1.00 20.00    -0.134 SA
HETATM   11  C7  UNL     1     -35.716  19.219  -6.816  1.00 20.00     0.095 C 
ENDBRANCH   6  10
TORSDOF 2
ENDMDL
MODEL 2
REMARK VINA RESULT:      -4.3      2.974      3.538
REMARK  2 active torsions:
REMARK  status: ('A' for Active; 'I' for Inactive)
REMARK    1  A    between atoms: C5_5  and  N8_8 
REMARK    2  A    between atoms: C6_6  and  S11_11 
ROOT
HETATM    1  C1  UNL     1     -33.805  15.481  -2.894  1.00 20.00     0.037 A 
HETATM    2  C2  UNL     1     -36.002  14.824  -3.655  1.00 20.00     0.037 A 
HETATM    3  C3  UNL     1     -34.336  16.664  -2.382  1.00 20.00     0.021 A 
HETATM    4  C4  UNL     1     -36.534  16.007  -3.142  1.00 20.00     0.021 A 
HETATM    5  C5  UNL     1     -34.638  14.560  -3.531  1.00 20.00     0.102 A 
HETATM    6  C6  UNL     1     -35.701  16.927  -2.505  1.00 20.00    -0.000 A 
ENDROOT
BRANCH   5   7
HETATM    7  N8  UNL     1     -34.097  13.355  -4.052  1.00 20.00    -0.116 N 
HETATM    8  O9  UNL     1     -34.806  12.642  -4.800  1.00 20.00    -0.532 OA
HETATM    9  O10 UNL     1     -32.921  13.036  -3.748  1.00 20.00    -0.532 OA
ENDBRANCH   5   7
BRANCH   6  10
HETATM   10  S11 UNL     1     -36.379  18.439  -1.851  1.00 20.00    -0.134 SA
HETATM   11  C7  UNL     1     -35.951  18.234  -0.109  1.00 20.00     0.095 C 
ENDBRANCH   6  10
TORSDOF 2
ENDMDL
MODEL 3
REMARK VINA RESULT:      -4.3      2.426      3.300
REMARK  2 active torsions:
REMARK  status: ('A' for Active; 'I' for Inactive)
REMARK    1  A    between atoms: C5_5  and  N8_8 
REMARK    2  A    between atoms: C6_6  and  S11_11 
ROOT
HETATM    1  C1  UNL     1     -34.770  14.865  -3.126  1.00 20.00     0.037 A 
HETATM    2  C2  UNL     1     -33.931  16.051  -5.057  1.00 20.00     0.037 A 
HETATM    3  C3  UNL     1     -34.489  15.971  -2.324  1.00 20.00     0.021 A 
HETATM    4  C4  UNL     1     -33.650  17.157  -4.255  1.00 20.00     0.021 A 
HETATM    5  C5  UNL     1     -34.491  14.905  -4.493  1.00 20.00     0.102 A 
HETATM    6  C6  UNL     1     -33.929  17.118  -2.888  1.00 20.00    -0.000 A 
ENDROOT
BRANCH   5   7
HETATM    7  N8  UNL     1     -34.778  13.779  -5.308  1.00 20.00    -0.116 N 
HETATM    8  O9  UNL     1     -35.058  13.958  -6.517  1.00 20.00    -0.532 OA
HETATM    9  O10 UNL     1     -34.744  12.633  -4.796  1.00 20.00    -0.532 OA
ENDBRANCH   5   7
BRANCH   6  10
HETATM   10  S11 UNL     1     -33.570  18.530  -1.864  1.00 20.00    -0.134 SA
HETATM   11  C7  UNL     1     -33.990  17.846  -0.247  1.00 20.00     0.095 C 
ENDBRANCH   6  10
TORSDOF 2
ENDMDL
MODEL 4
REMARK VINA RESULT:      -4.3      2.971      3.631
REMARK  2 active torsions:
REMARK  status: ('A' for Active; 'I' for Inactive)
REMARK    1  A    between atoms: C5_5  and  N8_8 
REMARK    2  A    between atoms: C6_6  and  S11_11 
ROOT
HETATM    1  C1  UNL     1     -36.008  14.832  -3.649  1.00 20.00     0.037 A 
HETATM    2  C2  UNL     1     -33.811  15.489  -2.887  1.00 20.00     0.037 A 
HETATM    3  C3  UNL     1     -36.538  16.020  -3.147  1.00 20.00     0.021 A 
HETATM    4  C4  UNL     1     -34.341  16.678  -2.385  1.00 20.00     0.021 A 
HETATM    5  C5  UNL     1     -34.644  14.566  -3.520  1.00 20.00     0.102 A 
HETATM    6  C6  UNL     1     -35.705  16.944  -2.515  1.00 20.00    -0.000 A 
ENDROOT
BRANCH   5   7
HETATM    7  N8  UNL     1     -34.105  13.357  -4.032  1.00 20.00    -0.116 N 
HETATM    8  O9  UNL     1     -32.934  13.033  -3.721  1.00 20.00    -0.532 OA
HETATM    9  O10 UNL     1     -34.816  12.644  -4.782  1.00 20.00    -0.532 OA
ENDBRANCH   5   7
BRANCH   6  10
HETATM   10  S11 UNL     1     -36.382  18.461  -1.874  1.00 20.00    -0.134 SA
HETATM   11  C7  UNL     1     -36.020  18.235  -0.119  1.00 20.00     0.095 C 
ENDBRANCH   6  10
TORSDOF 2
ENDMDL
MODEL 5
REMARK VINA RESULT:      -4.2      3.070      3.281
REMARK  2 active torsions:
REMARK  status: ('A' for Active; 'I' for Inactive)
REMARK    1  A    between atoms: C5_5  and  N8_8 
REMARK    2  A    between atoms: C6_6  and  S11_11 
ROOT
HETATM    1  C1  UNL     1     -34.278  15.444  -2.689  1.00 20.00     0.037 A 
HETATM    2  C2  UNL     1     -36.275  14.835  -3.906  1.00 20.00     0.037 A 
HETATM    3  C3  UNL     1     -34.910  16.599  -2.229  1.00 20.00     0.021 A 
HETATM    4  C4  UNL     1     -36.907  15.990  -3.445  1.00 20.00     0.021 A 
HETATM    5  C5  UNL     1     -34.961  14.562  -3.528  1.00 20.00     0.102 A 
HETATM    6  C6  UNL     1     -36.225  16.873  -2.607  1.00 20.00    -0.000 A 
ENDROOT
BRANCH   5   7
HETATM    7  N8  UNL     1     -34.317  13.386  -3.995  1.00 20.00    -0.116 N 
HETATM    8  O9  UNL     1     -33.113  13.194  -3.703  1.00 20.00    -0.532 OA
HETATM    9  O10 UNL     1     -34.972  12.569  -4.688  1.00 20.00    -0.532 OA
ENDBRANCH   5   7
BRANCH   6  10
HETATM   10  S11 UNL     1     -37.032  18.348  -2.020  1.00 20.00    -0.134 SA
HETATM   11  C7  UNL     1     -38.740  17.951  -2.452  1.00 20.00     0.095 C 
ENDBRANCH   6  10
TORSDOF 2
ENDMDL
MODEL 6
REMARK VINA RESULT:      -3.9      1.665      2.019
REMARK  2 active torsions:
REMARK  status: ('A' for Active; 'I' for Inactive)
REMARK    1  A    between atoms: C5_5  and  N8_8 
REMARK    2  A    between atoms: C6_6  and  S11_11 
ROOT
HETATM    1  C1  UNL     1     -35.658  15.199  -4.269  1.00 20.00     0.037 A 
HETATM    2  C2  UNL     1     -33.309  15.730  -4.452  1.00 20.00     0.037 A 
HETATM    3  C3  UNL     1     -35.968  16.559  -4.302  1.00 20.00     0.021 A 
HETATM    4  C4  UNL     1     -33.618  17.089  -4.486  1.00 20.00     0.021 A 
HETATM    5  C5  UNL     1     -34.328  14.784  -4.344  1.00 20.00     0.102 A 
HETATM    6  C6  UNL     1     -34.948  17.505  -4.410  1.00 20.00    -0.000 A 
ENDROOT
BRANCH   5   7
HETATM    7  N8  UNL     1     -34.014  13.400  -4.312  1.00 20.00    -0.116 N 
HETATM    8  O9  UNL     1     -32.949  13.031  -3.763  1.00 20.00    -0.532 OA
HETATM    9  O10 UNL     1     -34.812  12.583  -4.834  1.00 20.00    -0.532 OA
ENDBRANCH   5   7
BRANCH   6  10
HETATM   10  S11 UNL     1     -35.344  19.241  -4.452  1.00 20.00    -0.134 SA
HETATM   11  C7  UNL     1     -37.089  19.164  -3.995  1.00 20.00     0.095 C 
ENDBRANCH   6  10
TORSDOF 2
ENDMDL
MODEL 7
REMARK VINA RESULT:      -3.9      4.489      5.438
REMARK  2 active torsions:
REMARK  status: ('A' for Active; 'I' for Inactive)
REMARK    1  A    between atoms: C5_5  and  N8_8 
REMARK    2  A    between atoms: C6_6  and  S11_11 
ROOT
HETATM    1  C1  UNL     1     -33.542  18.434  -2.552  1.00 20.00     0.037 A 
HETATM    2  C2  UNL     1     -34.538  16.333  -1.893  1.00 20.00     0.037 A 
HETATM    3  C3  UNL     1     -33.561  18.860  -1.224  1.00 20.00     0.021 A 
HETATM    4  C4  UNL     1     -34.557  16.759  -0.565  1.00 20.00     0.021 A 
HETATM    5  C5  UNL     1     -34.030  17.170  -2.887  1.00 20.00     0.102 A 
HETATM    6  C6  UNL     1     -34.068  18.022  -0.230  1.00 20.00    -0.000 A 
ENDROOT
BRANCH   5   7
HETATM    7  N8  UNL     1     -34.009  16.737  -4.239  1.00 20.00    -0.116 N 
HETATM    8  O9  UNL     1     -35.096  16.558  -4.837  1.00 20.00    -0.532 OA
HETATM    9  O10 UNL     1     -32.902  16.545  -4.798  1.00 20.00    -0.532 OA
ENDBRANCH   5   7
BRANCH   6  10
HETATM   10  S11 UNL     1     -34.094  18.566   1.466  1.00 20.00    -0.134 SA
HETATM   11  C7  UNL     1     -35.530  17.645   2.058  1.00 20.00     0.095 C 
ENDBRANCH   6  10
TORSDOF 2
ENDMDL
MODEL 8
REMARK VINA RESULT:      -3.8     13.521     14.464
REMARK  2 active torsions:
REMARK  status: ('A' for Active; 'I' for Inactive)
REMARK    1  A    between atoms: C5_5  and  N8_8 
REMARK    2  A    between atoms: C6_6  and  S11_11 
ROOT
HETATM    1  C1  UNL     1     -41.012   4.327  -1.590  1.00 20.00     0.037 A 
HETATM    2  C2  UNL     1     -42.745   5.845  -2.316  1.00 20.00     0.037 A 
HETATM    3  C3  UNL     1     -41.521   3.341  -2.434  1.00 20.00     0.021 A 
HETATM    4  C4  UNL     1     -43.255   4.860  -3.161  1.00 20.00     0.021 A 
HETATM    5  C5  UNL     1     -41.623   5.580  -1.531  1.00 20.00     0.102 A 
HETATM    6  C6  UNL     1     -42.643   3.607  -3.221  1.00 20.00    -0.000 A 
ENDROOT
BRANCH   5   7
HETATM    7  N8  UNL     1     -41.103   6.583  -0.672  1.00 20.00    -0.116 N 
HETATM    8  O9  UNL     1     -40.392   6.241   0.303  1.00 20.00    -0.532 OA
HETATM    9  O10 UNL     1     -41.370   7.787  -0.911  1.00 20.00    -0.532 OA
ENDBRANCH   5   7
BRANCH   6  10
HETATM   10  S11 UNL     1     -43.294   2.347  -4.298  1.00 20.00    -0.134 SA
HETATM   11  C7  UNL     1     -41.957   1.138  -4.192  1.00 20.00     0.095 C 
ENDBRANCH   6  10
TORSDOF 2
ENDMDL
MODEL 9
REMARK VINA RESULT:      -3.8      3.197      3.563
REMARK  2 active torsions:
REMARK  status: ('A' for Active; 'I' for Inactive)
REMARK    1  A    between atoms: C5_5  and  N8_8 
REMARK    2  A    between atoms: C6_6  and  S11_11 
ROOT
HETATM    1  C1  UNL     1     -34.690  15.844  -2.926  1.00 20.00     0.037 A 
HETATM    2  C2  UNL     1     -35.541  13.968  -4.188  1.00 20.00     0.037 A 
HETATM    3  C3  UNL     1     -35.976  16.377  -2.850  1.00 20.00     0.021 A 
HETATM    4  C4  UNL     1     -36.828  14.501  -4.112  1.00 20.00     0.021 A 
HETATM    5  C5  UNL     1     -34.472  14.639  -3.595  1.00 20.00     0.102 A 
HETATM    6  C6  UNL     1     -37.046  15.706  -3.443  1.00 20.00    -0.000 A 
ENDROOT
BRANCH   5   7
HETATM    7  N8  UNL     1     -33.162  14.096  -3.671  1.00 20.00    -0.116 N 
HETATM    8  O9  UNL     1     -33.024  12.864  -3.865  1.00 20.00    -0.532 OA
HETATM    9  O10 UNL     1     -32.178  14.864  -3.542  1.00 20.00    -0.532 OA
ENDBRANCH   5   7
BRANCH   6  10
HETATM   10  S11 UNL     1     -38.688  16.388  -3.347  1.00 20.00    -0.134 SA
HETATM   11  C7  UNL     1     -38.353  17.840  -2.326  1.00 20.00     0.095 C 
ENDBRANCH   6  10
TORSDOF 2
ENDMDL
