REMARK  2 active torsions:
REMARK  status: ('A' for Active; 'I' for Inactive)
REMARK    1  A    between atoms: C5_5  and  N8_8 
REMARK    2  A    between atoms: C6_6  and  S11_11 
ROOT
HETATM    1  C1  UNL     1     -32.971   7.880   3.204  1.00 20.00     0.037 A 
HETATM    2  C2  UNL     1     -32.649   6.282   1.422  1.00 20.00     0.037 A 
HETATM    3  C3  UNL     1     -33.656   6.917   3.944  1.00 20.00     0.021 A 
HETATM    4  C4  UNL     1     -33.334   5.318   2.162  1.00 20.00     0.021 A 
HETATM    5  C5  UNL     1     -32.467   7.562   1.943  1.00 20.00     0.102 A 
HETATM    6  C6  UNL     1     -33.838   5.636   3.423  1.00 20.00    -0.000 A 
ENDROOT
BRANCH   5   7
HETATM    7  N8  UNL     1     -31.768   8.543   1.190  1.00 20.00    -0.116 N 
HETATM    8  O9  UNL     1     -31.615   9.689   1.678  1.00 20.00    -0.532 OA
HETATM    9  O10 UNL     1     -31.323   8.237   0.058  1.00 20.00    -0.532 OA
ENDBRANCH   5   7
BRANCH   6  10
HETATM   10  S11 UNL     1     -34.715   4.406   4.368  1.00 20.00    -0.134 SA
HETATM   11  C7  UNL     1     -33.417   3.158   4.516  1.00 20.00     0.095 C 
ENDBRANCH   6  10
TORSDOF 2
