REMARK  1 active torsions:
REMARK  status: ('A' for Active; 'I' for Inactive)
REMARK    1  A    between atoms: C6_6  and  N8_8 
ROOT
HETATM    1  N7  UNL     1     -33.585   3.195   4.293  1.00 20.00     0.068 N 
HETATM    2  N8  UNL     1     -34.355   5.436   3.970  1.00 20.00    -0.073 NA
HETATM    3  N9  UNL     1     -33.950   4.265   4.137  1.00 20.00    -0.162 NA
ENDROOT
BRANCH   2   4
HETATM    4  C6  UNL     1     -33.571   6.159   3.067  1.00 20.00     0.093 A 
HETATM    5  C4  UNL     1     -32.916   5.498   2.027  1.00 20.00     0.034 A 
HETATM    6  C2  UNL     1     -32.133   6.220   1.126  1.00 20.00     0.002 A 
HETATM    7  C1  UNL     1     -32.006   7.602   1.263  1.00 20.00     0.000 A 
HETATM    8  C3  UNL     1     -32.661   8.263   2.302  1.00 20.00     0.002 A 
HETATM    9  C5  UNL     1     -33.443   7.541   3.204  1.00 20.00     0.034 A 
ENDBRANCH   2   4
TORSDOF 1
