REMARK  0 active torsions:
REMARK  status: ('A' for Active; 'I' for Inactive)
ROOT
HETATM    1  C1  UNL     1     -31.766   7.357   1.476  1.00 20.00     0.000 A 
HETATM    2  C2  UNL     1     -32.205   6.034   1.445  1.00 20.00     0.001 A 
HETATM    3  C3  UNL     1     -32.366   8.271   2.342  1.00 20.00     0.001 A 
HETATM    4  C4  UNL     1     -33.245   5.624   2.280  1.00 20.00     0.019 A 
HETATM    5  C5  UNL     1     -33.406   7.861   3.177  1.00 20.00     0.019 A 
HETATM    6  C6  UNL     1     -33.845   6.538   3.146  1.00 20.00     0.011 A 
HETATM    7  S7  UNL     1     -35.187   6.010   4.224  1.00 20.00    -0.053 SA
ENDROOT
TORSDOF 0
