REMARK  3 active torsions:
REMARK  status: ('A' for Active; 'I' for Inactive)
REMARK    1  A    between atoms: C2_2  and  C4_4 
REMARK    2  A    between atoms: C4_4  and  S8_8 
REMARK    3  A    between atoms: C5_5  and  S8_8 
ROOT
HETATM    1  O6  UNL     1     -32.654   5.209   1.647  1.00 20.00    -0.228 OA
HETATM    2  O7  UNL     1     -34.214   6.908   0.623  1.00 20.00    -0.228 OA
HETATM    3  S8  UNL     1     -33.164   6.568   1.570  1.00 20.00     0.147 S 
ENDROOT
BRANCH   3   4
HETATM    4  C4  UNL     1     -31.805   7.657   1.305  1.00 20.00     0.166 C 
BRANCH   4   5
HETATM    5  C2  UNL     1     -32.364   8.975   0.893  1.00 20.00    -0.022 C 
HETATM    6  C1  UNL     1     -32.056   9.587  -0.256  1.00 20.00     0.008 C 
ENDBRANCH   4   5
ENDBRANCH   3   4
BRANCH   3   7
HETATM    7  C5  UNL     1     -33.742   7.015   3.192  1.00 20.00     0.136 C 
HETATM    8  C3  UNL     1     -34.929   6.175   3.609  1.00 20.00     0.021 C 
ENDBRANCH   3   7
TORSDOF 3
