REMARK  1 active torsions:
REMARK  status: ('A' for Active; 'I' for Inactive)
REMARK    1  A    between atoms: C6_6  and  C9_9 
ROOT
HETATM    1  C1  UNL     1     -33.712   7.764   3.811  1.00 20.00     0.007 A 
HETATM    2  C2  UNL     1     -33.382   6.071   2.119  1.00 20.00     0.007 A 
HETATM    3  C3  UNL     1     -32.941   8.658   3.067  1.00 20.00     0.007 A 
HETATM    4  C4  UNL     1     -32.611   6.965   1.375  1.00 20.00     0.007 A 
HETATM    5  C5  UNL     1     -33.932   6.471   3.336  1.00 20.00    -0.062 A 
HETATM    6  C6  UNL     1     -32.390   8.258   1.850  1.00 20.00    -0.059 A 
HETATM    7  C7  UNL     1     -34.757   5.515   4.131  1.00 20.00     0.048 C 
ENDROOT
BRANCH   6   8
HETATM    8  C9  UNL     1     -31.567   9.215   1.054  1.00 20.00     0.034 C 
HETATM    9  C8  UNL     1     -32.408  10.030   0.076  1.00 20.00     0.010 C 
ENDBRANCH   6   8
TORSDOF 1
