REMARK  4 active torsions:
REMARK  status: ('A' for Active; 'I' for Inactive)
REMARK    1  A    between atoms: C6_6  and  C7_7 
REMARK    2  A    between atoms: C7_7  and  C8_8 
REMARK    3  A    between atoms: C8_8  and  C9_9 
REMARK    4  A    between atoms: C9_9  and  O10_10 
ROOT
HETATM    1  C1  UNL     1     -34.770   6.449   3.787  1.00 20.00     0.000 C 
HETATM    2  C2  UNL     1     -34.242   7.695   4.491  1.00 20.00     0.000 C 
HETATM    3  C3  UNL     1     -33.661   5.716   3.037  1.00 20.00     0.000 C 
HETATM    4  C4  UNL     1     -33.514   8.624   3.522  1.00 20.00     0.004 C 
HETATM    5  C5  UNL     1     -32.932   6.642   2.066  1.00 20.00     0.004 C 
HETATM    6  C6  UNL     1     -32.392   7.893   2.772  1.00 20.00    -0.014 C 
ENDROOT
BRANCH   6   7
HETATM    7  C7  UNL     1     -31.714   8.827   1.771  1.00 20.00     0.007 C 
BRANCH   7   8
HETATM    8  C8  UNL     1     -32.700   9.315   0.717  1.00 20.00     0.026 C 
BRANCH   8   9
HETATM    9  C9  UNL     1     -32.039  10.279  -0.258  1.00 20.00     0.164 C 
BRANCH   9  10
HETATM   10  O10 UNL     1     -33.006  10.710  -1.205  1.00 20.00    -0.401 OA
HETATM   11  H28 UNL     1     -32.555  11.321  -1.810  1.00 20.00     0.209 HD
ENDBRANCH   9  10
ENDBRANCH   8   9
ENDBRANCH   7   8
ENDBRANCH   6   7
TORSDOF 4
