REMARK  0 active torsions:
REMARK  status: ('A' for Active; 'I' for Inactive)
ROOT
HETATM    1  C1  UNL     1     -31.526   7.034   1.619  1.00 20.00     0.001 A 
HETATM    2  C2  UNL     1     -31.979   5.723   1.451  1.00 20.00     0.003 A 
HETATM    3  C3  UNL     1     -32.161   7.910   2.510  1.00 20.00     0.014 A 
HETATM    4  C4  UNL     1     -33.079   5.239   2.165  1.00 20.00     0.038 A 
HETATM    5  C5  UNL     1     -34.155   7.993   4.203  1.00 20.00     0.039 A 
HETATM    6  C6  UNL     1     -35.043   6.994   4.528  1.00 20.00     0.143 A 
HETATM    7  C7  UNL     1     -33.269   7.444   3.239  1.00 20.00    -0.001 A 
HETATM    8  C8  UNL     1     -33.689   6.132   3.044  1.00 20.00     0.085 A 
HETATM    9  O9  UNL     1     -34.769   5.861   3.830  1.00 20.00    -0.322 OA
ENDROOT
TORSDOF 0
