REMARK  1 active torsions:
REMARK  status: ('A' for Active; 'I' for Inactive)
REMARK    1  A    between atoms: C6_6  and  S8_8 
ROOT
HETATM    1  C1  UNL     1     -32.284   5.368   1.432  1.00 20.00     0.001 A 
HETATM    2  C2  UNL     1     -31.789   6.672   1.405  1.00 20.00     0.001 A 
HETATM    3  C3  UNL     1     -33.333   5.038   2.290  1.00 20.00     0.021 A 
HETATM    4  C4  UNL     1     -32.342   7.645   2.238  1.00 20.00     0.019 A 
HETATM    5  C5  UNL     1     -33.886   6.011   3.123  1.00 20.00     0.028 A 
HETATM    6  C6  UNL     1     -33.391   7.314   3.096  1.00 20.00     0.015 A 
HETATM    7  S7  UNL     1     -35.246   5.480   4.203  1.00 20.00    -0.051 SA
ENDROOT
BRANCH   6   8
HETATM    8  S8  UNL     1     -34.014   8.658   4.117  1.00 20.00    -0.142 SA
HETATM    9  H13 UNL     1     -33.180   9.600   3.658  1.00 20.00     0.107 HD
ENDBRANCH   6   8
TORSDOF 1
