REMARK  0 active torsions:
REMARK  status: ('A' for Active; 'I' for Inactive)
ROOT
HETATM    1  C1  UNL     1     -31.692   6.056   1.262  1.00 20.00     0.001 A 
HETATM    2  C2  UNL     1     -31.464   7.392   1.556  1.00 20.00     0.001 A 
HETATM    3  C3  UNL     1     -32.806   5.397   1.788  1.00 20.00     0.013 A 
HETATM    4  C4  UNL     1     -32.342   8.099   2.381  1.00 20.00     0.019 A 
HETATM    5  C5  UNL     1     -34.912   5.633   3.277  1.00 20.00     0.020 A 
HETATM    6  C6  UNL     1     -35.524   6.617   4.017  1.00 20.00     0.051 A 
HETATM    7  C7  UNL     1     -33.715   6.086   2.627  1.00 20.00    -0.019 A 
HETATM    8  C8  UNL     1     -33.465   7.432   2.910  1.00 20.00     0.015 A 
HETATM    9  S9  UNL     1     -34.676   8.093   3.943  1.00 20.00    -0.101 SA
ENDROOT
TORSDOF 0
