REMARK  0 active torsions:
REMARK  status: ('A' for Active; 'I' for Inactive)
ROOT
HETATM    1  C1  UNL     1     -31.916   7.316   1.596  1.00 20.00     0.000 A 
HETATM    2  C2  UNL     1     -32.475   6.047   1.447  1.00 20.00     0.003 A 
HETATM    3  C3  UNL     1     -32.447   8.207   2.528  1.00 20.00     0.003 A 
HETATM    4  C4  UNL     1     -33.565   5.668   2.231  1.00 20.00     0.042 A 
HETATM    5  C5  UNL     1     -33.537   7.829   3.312  1.00 20.00     0.042 A 
HETATM    6  C6  UNL     1     -34.097   6.560   3.163  1.00 20.00     0.116 A 
HETATM    7  F7  UNL     1     -35.144   6.197   3.915  1.00 20.00    -0.206 F 
ENDROOT
TORSDOF 0
