REMARK  0 active torsions:
REMARK  status: ('A' for Active; 'I' for Inactive)
ROOT
HETATM    1  C1  UNL     1     -31.944   7.457   1.359  1.00 20.00     0.000 A 
HETATM    2  C2  UNL     1     -32.266   8.175   2.510  1.00 20.00     0.001 A 
HETATM    3  C3  UNL     1     -32.637   6.287   1.049  1.00 20.00     0.001 A 
HETATM    4  C4  UNL     1     -33.283   7.724   3.352  1.00 20.00     0.018 A 
HETATM    5  C5  UNL     1     -33.654   5.835   1.891  1.00 20.00     0.018 A 
HETATM    6  C6  UNL     1     -33.977   6.554   3.042  1.00 20.00     0.006 A 
HETATM    7  I7  UNL     1     -35.491   5.882   4.296  1.00 20.00    -0.045 I 
ENDROOT
TORSDOF 0
