REMARK  0 active torsions:
REMARK  status: ('A' for Active; 'I' for Inactive)
ROOT
HETATM    1  C1  UNL     1     -32.145   7.241   1.690  1.00 20.00     0.199 A 
HETATM    2  C2  UNL     1     -32.833   7.876   2.724  1.00 20.00     0.198 A 
HETATM    3  C3  UNL     1     -32.271   5.863   1.512  1.00 20.00     0.198 A 
HETATM    4  C4  UNL     1     -33.646   7.133   3.580  1.00 20.00     0.182 A 
HETATM    5  C5  UNL     1     -33.083   5.120   2.368  1.00 20.00     0.182 A 
HETATM    6  C6  UNL     1     -33.771   5.755   3.402  1.00 20.00     0.117 A 
HETATM    7  F7  UNL     1     -31.364   7.954   0.868  1.00 20.00    -0.199 F 
HETATM    8  F8  UNL     1     -32.713   9.199   2.895  1.00 20.00    -0.199 F 
HETATM    9  F9  UNL     1     -31.610   5.253   0.519  1.00 20.00    -0.199 F 
HETATM   10  F10 UNL     1     -34.300   7.758   4.569  1.00 20.00    -0.201 F 
HETATM   11  F11 UNL     1     -33.193   3.797   2.185  1.00 20.00    -0.201 F 
HETATM   12 CL12 UNL     1     -34.775   4.839   4.459  1.00 20.00    -0.077 Cl
ENDROOT
TORSDOF 0
