REMARK  2 active torsions:
REMARK  status: ('A' for Active; 'I' for Inactive)
REMARK    1  A    between atoms: C6_6  and  C8_8 
REMARK    2  A    between atoms: C8_8  and  N10_10 
ROOT
HETATM    1  N9  UNL     1     -32.952   3.158   4.730  1.00 20.00     0.068 N 
HETATM    2  N10 UNL     1     -35.070   4.023   4.065  1.00 20.00    -0.111 NA
HETATM    3  N11 UNL     1     -33.964   3.578   4.413  1.00 20.00    -0.167 NA
ENDROOT
BRANCH   2   4
HETATM    4  C8  UNL     1     -35.301   5.445   4.351  1.00 20.00     0.227 C 
BRANCH   4   5
HETATM    5  C6  UNL     1     -34.352   6.331   3.617  1.00 20.00    -0.035 A 
HETATM    6  C3  UNL     1     -34.240   7.676   3.968  1.00 20.00     0.009 A 
HETATM    7  C1  UNL     1     -33.353   8.505   3.282  1.00 20.00     0.001 A 
HETATM    8  C2  UNL     1     -32.577   7.988   2.244  1.00 20.00     0.007 A 
HETATM    9  C5  UNL     1     -32.688   6.643   1.893  1.00 20.00    -0.061 A 
HETATM   10  C4  UNL     1     -33.576   5.814   2.579  1.00 20.00     0.015 A 
HETATM   11  C7  UNL     1     -31.857   6.091   0.784  1.00 20.00     0.048 C 
ENDBRANCH   4   5
ENDBRANCH   2   4
TORSDOF 2
