REMARK  2 active torsions:
REMARK  status: ('A' for Active; 'I' for Inactive)
REMARK    1  A    between atoms: C6_6  and  C10_10 
REMARK    2  A    between atoms: C9_9  and  C10_10 
ROOT
HETATM    1  C1  UNL     1     -34.980   4.531   4.951  1.00 20.00     0.000 A 
HETATM    2  C2  UNL     1     -35.112   5.912   4.806  1.00 20.00     0.001 A 
HETATM    3  C3  UNL     1     -34.185   3.809   4.062  1.00 20.00     0.001 A 
HETATM    4  C4  UNL     1     -34.449   6.571   3.770  1.00 20.00     0.007 A 
HETATM    5  C5  UNL     1     -33.522   4.467   3.026  1.00 20.00     0.007 A 
HETATM    6  C6  UNL     1     -33.654   5.848   2.881  1.00 20.00    -0.054 A 
ENDROOT
BRANCH   6   7
HETATM    7  C10 UNL     1     -32.931   6.565   1.753  1.00 20.00     0.014 C 
HETATM    8  C8  UNL     1     -31.630   5.835   1.397  1.00 20.00     0.015 C 
BRANCH   7   9
HETATM    9  C9  UNL     1     -32.635   8.046   2.062  1.00 20.00     0.004 C 
HETATM   10  C7  UNL     1     -31.911   8.761   0.928  1.00 20.00     0.006 C 
ENDBRANCH   7   9
ENDBRANCH   6   7
TORSDOF 2
