REMARK  0 active torsions:
REMARK  status: ('A' for Active; 'I' for Inactive)
ROOT
HETATM    1  C1  UNL     1     -31.843   7.518   1.542  1.00 20.00     0.002 A 
HETATM    2  C2  UNL     1     -32.304   6.227   1.285  1.00 20.00     0.002 A 
HETATM    3  C3  UNL     1     -32.345   8.235   2.628  1.00 20.00     0.025 A 
HETATM    4  C4  UNL     1     -33.267   5.653   2.115  1.00 20.00     0.025 A 
HETATM    5  C5  UNL     1     -33.308   7.661   3.457  1.00 20.00     0.055 A 
HETATM    6  C6  UNL     1     -33.770   6.370   3.201  1.00 20.00     0.055 A 
HETATM    7 CL7  UNL     1     -33.892   8.599   4.787  1.00 20.00    -0.083 Cl
HETATM    8 CL8  UNL     1     -34.961   5.604   4.191  1.00 20.00    -0.083 Cl
ENDROOT
TORSDOF 0
