REMARK  0 active torsions:
REMARK  status: ('A' for Active; 'I' for Inactive)
ROOT
HETATM    1  C1  UNL     1     -33.212   5.082   2.348  1.00 20.00     0.091 A 
HETATM    2  C2  UNL     1     -32.391   5.812   1.488  1.00 20.00     0.161 A 
HETATM    3  C3  UNL     1     -33.839   5.718   3.420  1.00 20.00     0.161 A 
HETATM    4  C4  UNL     1     -32.197   7.176   1.700  1.00 20.00     0.196 A 
HETATM    5  C5  UNL     1     -33.645   7.083   3.632  1.00 20.00     0.196 A 
HETATM    6  C6  UNL     1     -32.824   7.812   2.772  1.00 20.00     0.199 A 
HETATM    7  F7  UNL     1     -31.789   5.201   0.459  1.00 20.00    -0.203 F 
HETATM    8  F8  UNL     1     -34.627   5.017   4.246  1.00 20.00    -0.203 F 
HETATM    9  F9  UNL     1     -31.408   7.877   0.874  1.00 20.00    -0.199 F 
HETATM   10  F10 UNL     1     -34.247   7.693   4.661  1.00 20.00    -0.199 F 
HETATM   11  F11 UNL     1     -32.637   9.123   2.975  1.00 20.00    -0.199 F 
ENDROOT
TORSDOF 0
