MODEL 1
REMARK VINA RESULT:      -5.0      0.000      0.000
REMARK  1 active torsions:
REMARK  status: ('A' for Active; 'I' for Inactive)
REMARK    1  A    between atoms: C3_3  and  C8_8 
ROOT
HETATM    1  C1  UNL     1     -34.453  17.535  -5.296  1.00 20.00    -0.026 C 
HETATM    2  C2  UNL     1     -35.591  16.846  -5.128  1.00 20.00    -0.024 C 
HETATM    3  C4  UNL     1     -34.152  15.483  -6.305  1.00 20.00     0.018 C 
HETATM    4  C5  UNL     1     -33.085  15.786  -4.193  1.00 20.00     0.029 C 
HETATM    5  C6  UNL     1     -33.349  16.528  -5.527  1.00 20.00     0.010 C 
HETATM    6  C7  UNL     1     -35.243  15.377  -5.226  1.00 20.00     0.027 C 
HETATM    7  C8  UNL     1     -34.398  14.976  -3.992  1.00 20.00     0.052 C 
HETATM    8  C9  UNL     1     -35.059  15.194  -2.638  1.00 20.00     0.027 C 
ENDROOT
BRANCH   7   9
HETATM    9  C3  UNL     1     -34.108  13.479  -4.014  1.00 20.00     0.182 C 
HETATM   10  O10 UNL     1     -32.912  13.158  -3.772  1.00 20.00    -0.647 OA
HETATM   11  O11 UNL     1     -35.107  12.751  -4.274  1.00 20.00    -0.647 OA
ENDBRANCH   7   9
TORSDOF 1
ENDMDL
MODEL 2
REMARK VINA RESULT:      -4.9      1.385      2.280
REMARK  1 active torsions:
REMARK  status: ('A' for Active; 'I' for Inactive)
REMARK    1  A    between atoms: C3_3  and  C8_8 
ROOT
HETATM    1  C1  UNL     1     -33.952  17.247  -2.642  1.00 20.00    -0.026 C 
HETATM    2  C2  UNL     1     -34.315  16.134  -1.988  1.00 20.00    -0.024 C 
HETATM    3  C4  UNL     1     -35.733  16.341  -3.794  1.00 20.00     0.018 C 
HETATM    4  C5  UNL     1     -33.577  16.026  -4.767  1.00 20.00     0.029 C 
HETATM    5  C6  UNL     1     -34.437  17.108  -4.067  1.00 20.00     0.010 C 
HETATM    6  C7  UNL     1     -35.025  15.242  -2.983  1.00 20.00     0.027 C 
HETATM    7  C8  UNL     1     -33.997  14.727  -4.020  1.00 20.00     0.052 C 
HETATM    8  C9  UNL     1     -32.827  13.932  -3.455  1.00 20.00     0.027 C 
ENDROOT
BRANCH   7   9
HETATM    9  C3  UNL     1     -34.663  13.751  -4.984  1.00 20.00     0.182 C 
HETATM   10  O10 UNL     1     -34.731  14.139  -6.183  1.00 20.00    -0.647 OA
HETATM   11  O11 UNL     1     -35.063  12.676  -4.455  1.00 20.00    -0.647 OA
ENDBRANCH   7   9
TORSDOF 1
ENDMDL
MODEL 3
REMARK VINA RESULT:      -4.9      1.056      2.569
REMARK  1 active torsions:
REMARK  status: ('A' for Active; 'I' for Inactive)
REMARK    1  A    between atoms: C3_3  and  C8_8 
ROOT
HETATM    1  C1  UNL     1     -34.996  17.587  -3.570  1.00 20.00    -0.026 C 
HETATM    2  C2  UNL     1     -33.770  17.265  -4.007  1.00 20.00    -0.024 C 
HETATM    3  C4  UNL     1     -34.263  15.824  -2.278  1.00 20.00     0.018 C 
HETATM    4  C5  UNL     1     -35.872  15.301  -3.960  1.00 20.00     0.029 C 
HETATM    5  C6  UNL     1     -35.560  16.367  -2.880  1.00 20.00     0.010 C 
HETATM    6  C7  UNL     1     -33.524  15.822  -3.627  1.00 20.00     0.027 C 
HETATM    7  C8  UNL     1     -34.454  14.915  -4.470  1.00 20.00     0.052 C 
HETATM    8  C9  UNL     1     -34.289  15.018  -5.981  1.00 20.00     0.027 C 
ENDROOT
BRANCH   7   9
HETATM    9  C3  UNL     1     -34.166  13.446  -4.176  1.00 20.00     0.182 C 
HETATM   10  O10 UNL     1     -35.144  12.664  -4.329  1.00 20.00    -0.647 OA
HETATM   11  O11 UNL     1     -32.980  13.202  -3.816  1.00 20.00    -0.647 OA
ENDBRANCH   7   9
TORSDOF 1
ENDMDL
MODEL 4
REMARK VINA RESULT:      -4.8      0.952      1.252
REMARK  1 active torsions:
REMARK  status: ('A' for Active; 'I' for Inactive)
REMARK    1  A    between atoms: C3_3  and  C8_8 
ROOT
HETATM    1  C1  UNL     1     -34.817  17.643  -4.143  1.00 20.00    -0.026 C 
HETATM    2  C2  UNL     1     -35.359  16.964  -5.164  1.00 20.00    -0.024 C 
HETATM    3  C4  UNL     1     -33.197  16.203  -4.929  1.00 20.00     0.018 C 
HETATM    4  C5  UNL     1     -34.271  15.572  -2.894  1.00 20.00     0.029 C 
HETATM    5  C6  UNL     1     -33.674  16.811  -3.609  1.00 20.00     0.010 C 
HETATM    6  C7  UNL     1     -34.591  15.668  -5.299  1.00 20.00     0.027 C 
HETATM    7  C8  UNL     1     -34.897  14.773  -4.073  1.00 20.00     0.052 C 
HETATM    8  C9  UNL     1     -36.362  14.410  -3.867  1.00 20.00     0.027 C 
ENDROOT
BRANCH   7   9
HETATM    9  C3  UNL     1     -34.209  13.420  -4.223  1.00 20.00     0.182 C 
HETATM   10  O10 UNL     1     -33.124  13.294  -3.591  1.00 20.00    -0.647 OA
HETATM   11  O11 UNL     1     -34.817  12.597  -4.963  1.00 20.00    -0.647 OA
ENDBRANCH   7   9
TORSDOF 1
ENDMDL
MODEL 5
REMARK VINA RESULT:      -4.6      1.081      1.529
REMARK  1 active torsions:
REMARK  status: ('A' for Active; 'I' for Inactive)
REMARK    1  A    between atoms: C3_3  and  C8_8 
ROOT
HETATM    1  C1  UNL     1     -35.481  16.882  -6.752  1.00 20.00    -0.026 C 
HETATM    2  C2  UNL     1     -36.410  15.948  -6.500  1.00 20.00    -0.024 C 
HETATM    3  C4  UNL     1     -34.477  14.830  -7.068  1.00 20.00     0.018 C 
HETATM    4  C5  UNL     1     -33.927  15.972  -5.047  1.00 20.00     0.029 C 
HETATM    5  C6  UNL     1     -34.130  16.231  -6.562  1.00 20.00     0.010 C 
HETATM    6  C7  UNL     1     -35.679  14.680  -6.121  1.00 20.00     0.027 C 
HETATM    7  C8  UNL     1     -34.997  14.884  -4.746  1.00 20.00     0.052 C 
HETATM    8  C9  UNL     1     -35.926  15.232  -3.591  1.00 20.00     0.027 C 
ENDROOT
BRANCH   7   9
HETATM    9  C3  UNL     1     -34.327  13.592  -4.292  1.00 20.00     0.182 C 
HETATM   10  O10 UNL     1     -35.017  12.546  -4.441  1.00 20.00    -0.647 OA
HETATM   11  O11 UNL     1     -33.163  13.735  -3.822  1.00 20.00    -0.647 OA
ENDBRANCH   7   9
TORSDOF 1
ENDMDL
MODEL 6
REMARK VINA RESULT:      -4.5      1.959      3.252
REMARK  1 active torsions:
REMARK  status: ('A' for Active; 'I' for Inactive)
REMARK    1  A    between atoms: C3_3  and  C8_8 
ROOT
HETATM    1  C1  UNL     1     -32.759  15.350  -3.844  1.00 20.00    -0.026 C 
HETATM    2  C2  UNL     1     -33.322  14.134  -3.789  1.00 20.00    -0.024 C 
HETATM    3  C4  UNL     1     -34.627  15.534  -2.506  1.00 20.00     0.018 C 
HETATM    4  C5  UNL     1     -34.825  16.405  -4.718  1.00 20.00     0.029 C 
HETATM    5  C6  UNL     1     -33.838  16.359  -3.524  1.00 20.00     0.010 C 
HETATM    6  C7  UNL     1     -34.784  14.333  -3.453  1.00 20.00     0.027 C 
HETATM    7  C8  UNL     1     -35.491  15.000  -4.659  1.00 20.00     0.052 C 
HETATM    8  C9  UNL     1     -35.430  14.230  -5.971  1.00 20.00     0.027 C 
ENDROOT
BRANCH   7   9
HETATM    9  C3  UNL     1     -36.985  15.131  -4.388  1.00 20.00     0.182 C 
HETATM   10  O10 UNL     1     -37.526  14.125  -3.851  1.00 20.00    -0.647 OA
HETATM   11  O11 UNL     1     -37.492  16.235  -4.737  1.00 20.00    -0.647 OA
ENDBRANCH   7   9
TORSDOF 1
ENDMDL
MODEL 7
REMARK VINA RESULT:      -4.4      1.592      2.112
REMARK  1 active torsions:
REMARK  status: ('A' for Active; 'I' for Inactive)
REMARK    1  A    between atoms: C3_3  and  C8_8 
ROOT
HETATM    1  C1  UNL     1     -34.623  16.613  -7.241  1.00 20.00    -0.026 C 
HETATM    2  C2  UNL     1     -35.758  16.915  -6.596  1.00 20.00    -0.024 C 
HETATM    3  C4  UNL     1     -35.899  14.693  -7.191  1.00 20.00     0.018 C 
HETATM    4  C5  UNL     1     -34.068  14.782  -5.665  1.00 20.00     0.029 C 
HETATM    5  C6  UNL     1     -34.430  15.118  -7.133  1.00 20.00     0.010 C 
HETATM    6  C7  UNL     1     -36.314  15.623  -6.039  1.00 20.00     0.027 C 
HETATM    7  C8  UNL     1     -35.383  15.123  -4.907  1.00 20.00     0.052 C 
HETATM    8  C9  UNL     1     -35.194  16.076  -3.735  1.00 20.00     0.027 C 
ENDROOT
BRANCH   7   9
HETATM    9  C3  UNL     1     -35.964  13.869  -4.262  1.00 20.00     0.182 C 
HETATM   10  O10 UNL     1     -37.130  13.995  -3.794  1.00 20.00    -0.647 OA
HETATM   11  O11 UNL     1     -35.201  12.863  -4.279  1.00 20.00    -0.647 OA
ENDBRANCH   7   9
TORSDOF 1
ENDMDL
MODEL 8
REMARK VINA RESULT:      -4.4      2.276      3.545
REMARK  1 active torsions:
REMARK  status: ('A' for Active; 'I' for Inactive)
REMARK    1  A    between atoms: C3_3  and  C8_8 
ROOT
HETATM    1  C1  UNL     1     -33.339  13.756  -3.746  1.00 20.00    -0.026 C 
HETATM    2  C2  UNL     1     -34.457  13.398  -4.394  1.00 20.00    -0.024 C 
HETATM    3  C4  UNL     1     -34.971  15.278  -3.164  1.00 20.00     0.018 C 
HETATM    4  C5  UNL     1     -33.342  16.028  -4.737  1.00 20.00     0.029 C 
HETATM    5  C6  UNL     1     -33.463  15.226  -3.417  1.00 20.00     0.010 C 
HETATM    6  C7  UNL     1     -35.318  14.636  -4.517  1.00 20.00     0.027 C 
HETATM    7  C8  UNL     1     -34.639  15.626  -5.495  1.00 20.00     0.052 C 
HETATM    8  C9  UNL     1     -34.397  15.103  -6.905  1.00 20.00     0.027 C 
ENDROOT
BRANCH   7   9
HETATM    9  C3  UNL     1     -35.528  16.846  -5.713  1.00 20.00     0.182 C 
HETATM   10  O10 UNL     1     -34.961  17.961  -5.549  1.00 20.00    -0.647 OA
HETATM   11  O11 UNL     1     -36.722  16.581  -6.029  1.00 20.00    -0.647 OA
ENDBRANCH   7   9
TORSDOF 1
ENDMDL
MODEL 9
REMARK VINA RESULT:      -4.4      1.151      2.267
REMARK  1 active torsions:
REMARK  status: ('A' for Active; 'I' for Inactive)
REMARK    1  A    between atoms: C3_3  and  C8_8 
ROOT
HETATM    1  C1  UNL     1     -36.688  16.826  -4.489  1.00 20.00    -0.026 C 
HETATM    2  C2  UNL     1     -35.957  16.673  -3.376  1.00 20.00    -0.024 C 
HETATM    3  C4  UNL     1     -36.871  14.614  -3.863  1.00 20.00     0.018 C 
HETATM    4  C5  UNL     1     -35.428  15.072  -5.706  1.00 20.00     0.029 C 
HETATM    5  C6  UNL     1     -36.813  15.464  -5.133  1.00 20.00     0.010 C 
HETATM    6  C7  UNL     1     -35.576  15.212  -3.288  1.00 20.00     0.027 C 
HETATM    7  C8  UNL     1     -34.573  14.885  -4.421  1.00 20.00     0.052 C 
HETATM    8  C9  UNL     1     -33.280  15.690  -4.414  1.00 20.00     0.027 C 
ENDROOT
BRANCH   7   9
HETATM    9  C3  UNL     1     -34.097  13.441  -4.304  1.00 20.00     0.182 C 
HETATM   10  O10 UNL     1     -33.092  13.262  -3.563  1.00 20.00    -0.647 OA
HETATM   11  O11 UNL     1     -34.774  12.606  -4.968  1.00 20.00    -0.647 OA
ENDBRANCH   7   9
TORSDOF 1
ENDMDL
