MODEL 1
REMARK VINA RESULT:      -3.6      0.000      0.000
REMARK  0 active torsions:
REMARK  status: ('A' for Active; 'I' for Inactive)
ROOT
HETATM    1  C1  UNL     1     -34.605  14.682  -4.098  1.00 20.00     0.056 A 
HETATM    2  C2  UNL     1     -34.277  15.622  -5.052  1.00 20.00     0.077 A 
HETATM    3  C3  UNL     1     -34.040  16.325  -2.760  1.00 20.00     0.072 A 
HETATM    4  C4  UNL     1     -35.082  13.305  -4.347  1.00 20.00     0.072 C 
HETATM    5  C5  UNL     1     -33.776  17.096  -1.526  1.00 20.00     0.079 C 
HETATM    6  N6  UNL     1     -34.470  15.084  -2.783  1.00 20.00    -0.249 NA
HETATM    7  S7  UNL     1     -33.778  17.071  -4.283  1.00 20.00    -0.066 SA
HETATM    8 BR8  UNL     1     -34.350  15.392  -6.931  1.00 20.00    -0.041 Br
ENDROOT
TORSDOF 0
ENDMDL
MODEL 2
REMARK VINA RESULT:      -3.5     12.547     13.502
REMARK  0 active torsions:
REMARK  status: ('A' for Active; 'I' for Inactive)
ROOT
HETATM    1  C1  UNL     1     -41.332   5.536  -1.074  1.00 20.00     0.056 A 
HETATM    2  C2  UNL     1     -42.424   6.068  -1.727  1.00 20.00     0.077 A 
HETATM    3  C3  UNL     1     -41.751   3.865  -2.432  1.00 20.00     0.072 A 
HETATM    4  C4  UNL     1     -40.548   6.181  -0.000  1.00 20.00     0.072 C 
HETATM    5  C5  UNL     1     -41.649   2.556  -3.113  1.00 20.00     0.079 C 
HETATM    6  N6  UNL     1     -40.946   4.272  -1.478  1.00 20.00    -0.249 NA
HETATM    7  S7  UNL     1     -42.997   4.951  -2.896  1.00 20.00    -0.066 SA
HETATM    8 BR8  UNL     1     -43.204   7.766  -1.415  1.00 20.00    -0.041 Br
ENDROOT
TORSDOF 0
ENDMDL
MODEL 3
REMARK VINA RESULT:      -3.4      2.988      3.550
REMARK  0 active torsions:
REMARK  status: ('A' for Active; 'I' for Inactive)
ROOT
HETATM    1  C1  UNL     1     -33.367  16.246  -3.908  1.00 20.00     0.056 A 
HETATM    2  C2  UNL     1     -34.074  17.041  -3.029  1.00 20.00     0.077 A 
HETATM    3  C3  UNL     1     -33.665  17.988  -5.206  1.00 20.00     0.072 A 
HETATM    4  C4  UNL     1     -32.844  14.889  -3.641  1.00 20.00     0.072 C 
HETATM    5  C5  UNL     1     -33.617  18.876  -6.388  1.00 20.00     0.079 C 
HETATM    6  N6  UNL     1     -33.132  16.788  -5.156  1.00 20.00    -0.249 NA
HETATM    7  S7  UNL     1     -34.464  18.529  -3.787  1.00 20.00    -0.066 SA
HETATM    8 BR8  UNL     1     -34.560  16.599  -1.253  1.00 20.00    -0.041 Br
ENDROOT
TORSDOF 0
ENDMDL
MODEL 4
REMARK VINA RESULT:      -3.4      2.848      3.439
REMARK  0 active torsions:
REMARK  status: ('A' for Active; 'I' for Inactive)
ROOT
HETATM    1  C1  UNL     1     -35.855  14.175  -4.544  1.00 20.00     0.056 A 
HETATM    2  C2  UNL     1     -35.947  14.843  -5.747  1.00 20.00     0.077 A 
HETATM    3  C3  UNL     1     -37.945  14.825  -4.403  1.00 20.00     0.072 A 
HETATM    4  C4  UNL     1     -34.665  13.480  -4.011  1.00 20.00     0.072 C 
HETATM    5  C5  UNL     1     -39.316  15.027  -3.884  1.00 20.00     0.079 C 
HETATM    6  N6  UNL     1     -37.001  14.165  -3.772  1.00 20.00    -0.249 NA
HETATM    7  S7  UNL     1     -37.526  15.486  -5.930  1.00 20.00    -0.066 SA
HETATM    8 BR8  UNL     1     -34.568  15.043  -7.030  1.00 20.00    -0.041 Br
ENDROOT
TORSDOF 0
ENDMDL
MODEL 5
REMARK VINA RESULT:      -3.3      2.393      3.007
REMARK  0 active torsions:
REMARK  status: ('A' for Active; 'I' for Inactive)
ROOT
HETATM    1  C1  UNL     1     -34.161  16.613  -2.900  1.00 20.00     0.056 A 
HETATM    2  C2  UNL     1     -33.911  15.691  -3.894  1.00 20.00     0.077 A 
HETATM    3  C3  UNL     1     -33.712  18.004  -4.535  1.00 20.00     0.072 A 
HETATM    4  C4  UNL     1     -34.535  16.319  -1.500  1.00 20.00     0.072 C 
HETATM    5  C5  UNL     1     -33.498  19.263  -5.281  1.00 20.00     0.079 C 
HETATM    6  N6  UNL     1     -34.048  17.940  -3.266  1.00 20.00    -0.249 NA
HETATM    7  S7  UNL     1     -33.517  16.507  -5.350  1.00 20.00    -0.066 SA
HETATM    8 BR8  UNL     1     -33.979  13.806  -3.723  1.00 20.00    -0.041 Br
ENDROOT
TORSDOF 0
ENDMDL
MODEL 6
REMARK VINA RESULT:      -3.3      1.852      3.243
REMARK  0 active torsions:
REMARK  status: ('A' for Active; 'I' for Inactive)
ROOT
HETATM    1  C1  UNL     1     -34.302  16.162  -2.687  1.00 20.00     0.056 A 
HETATM    2  C2  UNL     1     -34.023  16.946  -3.788  1.00 20.00     0.077 A 
HETATM    3  C3  UNL     1     -34.347  14.599  -4.224  1.00 20.00     0.072 A 
HETATM    4  C4  UNL     1     -34.417  16.622  -1.286  1.00 20.00     0.072 C 
HETATM    5  C5  UNL     1     -34.477  13.273  -4.868  1.00 20.00     0.079 C 
HETATM    6  N6  UNL     1     -34.488  14.816  -2.936  1.00 20.00    -0.249 NA
HETATM    7  S7  UNL     1     -33.990  15.967  -5.196  1.00 20.00    -0.066 SA
HETATM    8 BR8  UNL     1     -33.718  18.815  -3.790  1.00 20.00    -0.041 Br
ENDROOT
TORSDOF 0
ENDMDL
MODEL 7
REMARK VINA RESULT:      -3.3      1.714      2.435
REMARK  0 active torsions:
REMARK  status: ('A' for Active; 'I' for Inactive)
ROOT
HETATM    1  C1  UNL     1     -33.993  17.103  -4.606  1.00 20.00     0.056 A 
HETATM    2  C2  UNL     1     -34.416  15.814  -4.855  1.00 20.00     0.077 A 
HETATM    3  C3  UNL     1     -34.417  16.490  -2.543  1.00 20.00     0.072 A 
HETATM    4  C4  UNL     1     -33.546  18.092  -5.609  1.00 20.00     0.072 C 
HETATM    5  C5  UNL     1     -34.554  16.534  -1.071  1.00 20.00     0.079 C 
HETATM    6  N6  UNL     1     -33.994  17.492  -3.280  1.00 20.00    -0.249 NA
HETATM    7  S7  UNL     1     -34.832  15.049  -3.378  1.00 20.00    -0.066 SA
HETATM    8 BR8  UNL     1     -34.534  14.976  -6.550  1.00 20.00    -0.041 Br
ENDROOT
TORSDOF 0
ENDMDL
MODEL 8
REMARK VINA RESULT:      -3.3      1.191      1.191
REMARK  0 active torsions:
REMARK  status: ('A' for Active; 'I' for Inactive)
ROOT
HETATM    1  C1  UNL     1     -35.804  15.227  -3.876  1.00 20.00     0.056 A 
HETATM    2  C2  UNL     1     -34.784  15.367  -4.794  1.00 20.00     0.077 A 
HETATM    3  C3  UNL     1     -34.378  16.322  -2.620  1.00 20.00     0.072 A 
HETATM    4  C4  UNL     1     -37.102  14.557  -4.098  1.00 20.00     0.072 C 
HETATM    5  C5  UNL     1     -33.779  17.007  -1.453  1.00 20.00     0.079 C 
HETATM    6  N6  UNL     1     -35.572  15.775  -2.629  1.00 20.00    -0.249 NA
HETATM    7  S7  UNL     1     -33.478  16.217  -4.077  1.00 20.00    -0.066 SA
HETATM    8 BR8  UNL     1     -34.782  14.734  -6.579  1.00 20.00    -0.041 Br
ENDROOT
TORSDOF 0
ENDMDL
MODEL 9
REMARK VINA RESULT:      -3.2      1.893      2.335
REMARK  0 active torsions:
REMARK  status: ('A' for Active; 'I' for Inactive)
ROOT
HETATM    1  C1  UNL     1     -34.342  16.142  -2.592  1.00 20.00     0.056 A 
HETATM    2  C2  UNL     1     -33.913  17.279  -3.244  1.00 20.00     0.077 A 
HETATM    3  C3  UNL     1     -34.230  17.490  -0.866  1.00 20.00     0.072 A 
HETATM    4  C4  UNL     1     -34.621  14.827  -3.207  1.00 20.00     0.072 C 
HETATM    5  C5  UNL     1     -34.305  17.993   0.523  1.00 20.00     0.079 C 
HETATM    6  N6  UNL     1     -34.524  16.261  -1.228  1.00 20.00    -0.249 NA
HETATM    7  S7  UNL     1     -33.728  18.555  -2.113  1.00 20.00    -0.066 SA
HETATM    8 BR8  UNL     1     -33.570  17.451  -5.099  1.00 20.00    -0.041 Br
ENDROOT
TORSDOF 0
ENDMDL
