MODEL 1
REMARK VINA RESULT:      -5.8      0.000      0.000
REMARK  0 active torsions:
REMARK  status: ('A' for Active; 'I' for Inactive)
ROOT
HETATM    1  C1  UNL     1     -34.550   5.688   6.606  1.00 20.00    -0.030 C 
HETATM    2  C2  UNL     1     -35.100   4.563   6.093  1.00 20.00    -0.029 C 
HETATM    3  C3  UNL     1     -33.099   6.481   3.111  1.00 20.00     0.224 C 
HETATM    4  C4  UNL     1     -33.745   6.690   5.779  1.00 20.00     0.043 C 
HETATM    5  C5  UNL     1     -35.039   4.193   4.611  1.00 20.00     0.053 C 
HETATM    6  C6  UNL     1     -33.350   5.956   4.521  1.00 20.00     0.104 C 
HETATM    7  C7  UNL     1     -34.682   5.473   3.900  1.00 20.00     0.101 C 
HETATM    8  N8  UNL     1     -33.973   5.525   2.633  1.00 20.00    -0.355 N 
HETATM    9  O9  UNL     1     -32.403   7.309   2.574  1.00 20.00    -0.273 OA
HETATM   10  H18 UNL     1     -34.295   5.423   1.679  1.00 20.00     0.162 HD
ENDROOT
TORSDOF 0
ENDMDL
MODEL 2
REMARK VINA RESULT:      -4.8      2.257      3.091
REMARK  0 active torsions:
REMARK  status: ('A' for Active; 'I' for Inactive)
ROOT
HETATM    1  C1  UNL     1     -33.330   5.821   2.727  1.00 20.00    -0.030 C 
HETATM    2  C2  UNL     1     -34.476   5.109   2.846  1.00 20.00    -0.029 C 
HETATM    3  C3  UNL     1     -33.680   6.856   6.437  1.00 20.00     0.224 C 
HETATM    4  C4  UNL     1     -32.691   6.594   3.881  1.00 20.00     0.043 C 
HETATM    5  C5  UNL     1     -35.232   4.938   4.164  1.00 20.00     0.053 C 
HETATM    6  C6  UNL     1     -33.776   6.750   4.918  1.00 20.00     0.104 C 
HETATM    7  C7  UNL     1     -34.240   5.309   5.237  1.00 20.00     0.101 C 
HETATM    8  N8  UNL     1     -34.615   5.845   6.535  1.00 20.00    -0.355 N 
HETATM    9  O9  UNL     1     -33.117   7.545   7.252  1.00 20.00    -0.273 OA
HETATM   10  H18 UNL     1     -34.928   5.390   7.383  1.00 20.00     0.162 HD
ENDROOT
TORSDOF 0
ENDMDL
MODEL 3
REMARK VINA RESULT:      -4.7      1.238      2.125
REMARK  0 active torsions:
REMARK  status: ('A' for Active; 'I' for Inactive)
ROOT
HETATM    1  C1  UNL     1     -35.071   4.625   6.368  1.00 20.00    -0.030 C 
HETATM    2  C2  UNL     1     -34.528   5.804   6.750  1.00 20.00    -0.029 C 
HETATM    3  C3  UNL     1     -34.080   5.438   2.720  1.00 20.00     0.224 C 
HETATM    4  C4  UNL     1     -35.067   4.118   4.926  1.00 20.00     0.043 C 
HETATM    5  C5  UNL     1     -33.785   6.740   5.797  1.00 20.00     0.053 C 
HETATM    6  C6  UNL     1     -34.782   5.328   4.070  1.00 20.00     0.104 C 
HETATM    7  C7  UNL     1     -33.442   5.891   4.600  1.00 20.00     0.101 C 
HETATM    8  N8  UNL     1     -33.269   6.419   3.257  1.00 20.00    -0.355 N 
HETATM    9  O9  UNL     1     -34.185   4.964   1.615  1.00 20.00    -0.273 OA
HETATM   10  H18 UNL     1     -32.479   6.863   2.807  1.00 20.00     0.162 HD
ENDROOT
TORSDOF 0
ENDMDL
MODEL 4
REMARK VINA RESULT:      -4.3     12.097     13.145
REMARK  0 active torsions:
REMARK  status: ('A' for Active; 'I' for Inactive)
ROOT
HETATM    1  C1  UNL     1     -34.079  17.083  -2.389  1.00 20.00    -0.030 C 
HETATM    2  C2  UNL     1     -33.744  17.721  -3.535  1.00 20.00    -0.029 C 
HETATM    3  C3  UNL     1     -34.675  13.863  -4.444  1.00 20.00     0.224 C 
HETATM    4  C4  UNL     1     -34.460  15.604  -2.323  1.00 20.00     0.043 C 
HETATM    5  C5  UNL     1     -33.641  17.022  -4.891  1.00 20.00     0.053 C 
HETATM    6  C6  UNL     1     -34.804  15.209  -3.738  1.00 20.00     0.104 C 
HETATM    7  C7  UNL     1     -33.546  15.553  -4.570  1.00 20.00     0.101 C 
HETATM    8  N8  UNL     1     -33.995  14.499  -5.465  1.00 20.00    -0.355 N 
HETATM    9  O9  UNL     1     -35.044  12.726  -4.279  1.00 20.00    -0.273 OA
HETATM   10  H18 UNL     1     -33.551  14.060  -6.261  1.00 20.00     0.162 HD
ENDROOT
TORSDOF 0
ENDMDL
MODEL 5
REMARK VINA RESULT:      -4.3     11.833     12.462
REMARK  0 active torsions:
REMARK  status: ('A' for Active; 'I' for Inactive)
ROOT
HETATM    1  C1  UNL     1     -33.569  16.570  -2.513  1.00 20.00    -0.030 C 
HETATM    2  C2  UNL     1     -34.818  16.954  -2.162  1.00 20.00    -0.029 C 
HETATM    3  C3  UNL     1     -35.099  13.501  -4.299  1.00 20.00     0.224 C 
HETATM    4  C4  UNL     1     -33.270  15.329  -3.354  1.00 20.00     0.043 C 
HETATM    5  C5  UNL     1     -36.085  16.232  -2.621  1.00 20.00     0.053 C 
HETATM    6  C6  UNL     1     -34.517  14.481  -3.285  1.00 20.00     0.104 C 
HETATM    7  C7  UNL     1     -35.656  15.394  -3.797  1.00 20.00     0.101 C 
HETATM    8  N8  UNL     1     -36.309  14.157  -4.191  1.00 20.00    -0.355 N 
HETATM    9  O9  UNL     1     -34.741  12.521  -4.905  1.00 20.00    -0.273 OA
HETATM   10  H18 UNL     1     -37.143  13.984  -4.739  1.00 20.00     0.162 HD
ENDROOT
TORSDOF 0
ENDMDL
MODEL 6
REMARK VINA RESULT:      -4.2     11.969     12.985
REMARK  0 active torsions:
REMARK  status: ('A' for Active; 'I' for Inactive)
ROOT
HETATM    1  C1  UNL     1     -33.240  14.173  -3.843  1.00 20.00    -0.030 C 
HETATM    2  C2  UNL     1     -33.038  15.510  -3.913  1.00 20.00    -0.029 C 
HETATM    3  C3  UNL     1     -37.051  14.826  -3.858  1.00 20.00     0.224 C 
HETATM    4  C4  UNL     1     -34.625  13.525  -3.835  1.00 20.00     0.043 C 
HETATM    5  C5  UNL     1     -34.168  16.528  -4.060  1.00 20.00     0.053 C 
HETATM    6  C6  UNL     1     -35.588  14.629  -3.473  1.00 20.00     0.104 C 
HETATM    7  C7  UNL     1     -35.357  15.732  -4.533  1.00 20.00     0.101 C 
HETATM    8  N8  UNL     1     -36.737  16.105  -4.273  1.00 20.00    -0.355 N 
HETATM    9  O9  UNL     1     -38.086  14.209  -3.788  1.00 20.00    -0.273 OA
HETATM   10  H18 UNL     1     -37.354  16.759  -4.737  1.00 20.00     0.162 HD
ENDROOT
TORSDOF 0
ENDMDL
MODEL 7
REMARK VINA RESULT:      -4.2     11.752     12.605
REMARK  0 active torsions:
REMARK  status: ('A' for Active; 'I' for Inactive)
ROOT
HETATM    1  C1  UNL     1     -34.338  13.471  -4.800  1.00 20.00    -0.030 C 
HETATM    2  C2  UNL     1     -35.353  14.032  -5.499  1.00 20.00    -0.029 C 
HETATM    3  C3  UNL     1     -34.972  16.036  -1.976  1.00 20.00     0.224 C 
HETATM    4  C4  UNL     1     -33.914  13.934  -3.406  1.00 20.00     0.043 C 
HETATM    5  C5  UNL     1     -36.240  15.150  -4.952  1.00 20.00     0.053 C 
HETATM    6  C6  UNL     1     -34.509  15.311  -3.236  1.00 20.00     0.104 C 
HETATM    7  C7  UNL     1     -36.028  15.126  -3.460  1.00 20.00     0.101 C 
HETATM    8  N8  UNL     1     -36.176  16.290  -2.603  1.00 20.00    -0.355 N 
HETATM    9  O9  UNL     1     -34.515  16.349  -0.904  1.00 20.00    -0.273 OA
HETATM   10  H18 UNL     1     -36.994  16.720  -2.190  1.00 20.00     0.162 HD
ENDROOT
TORSDOF 0
ENDMDL
MODEL 8
REMARK VINA RESULT:      -4.1      9.666     10.483
REMARK  0 active torsions:
REMARK  status: ('A' for Active; 'I' for Inactive)
ROOT
HETATM    1  C1  UNL     1     -41.169   6.914  -1.068  1.00 20.00    -0.030 C 
HETATM    2  C2  UNL     1     -40.881   6.112  -0.016  1.00 20.00    -0.029 C 
HETATM    3  C3  UNL     1     -42.866   3.902  -2.800  1.00 20.00     0.224 C 
HETATM    4  C4  UNL     1     -41.942   6.447  -2.302  1.00 20.00     0.043 C 
HETATM    5  C5  UNL     1     -41.351   4.661   0.094  1.00 20.00     0.053 C 
HETATM    6  C6  UNL     1     -41.878   4.939  -2.275  1.00 20.00     0.104 C 
HETATM    7  C7  UNL     1     -42.472   4.534  -0.906  1.00 20.00     0.101 C 
HETATM    8  N8  UNL     1     -42.832   3.289  -1.564  1.00 20.00    -0.355 N 
HETATM    9  O9  UNL     1     -43.414   3.634  -3.842  1.00 20.00    -0.273 OA
HETATM   10  H18 UNL     1     -43.400   2.509  -1.259  1.00 20.00     0.162 HD
ENDROOT
TORSDOF 0
ENDMDL
MODEL 9
REMARK VINA RESULT:      -4.1      9.658     10.358
REMARK  0 active torsions:
REMARK  status: ('A' for Active; 'I' for Inactive)
ROOT
HETATM    1  C1  UNL     1     -40.672   6.007  -0.187  1.00 20.00    -0.030 C 
HETATM    2  C2  UNL     1     -40.838   4.775  -0.722  1.00 20.00    -0.029 C 
HETATM    3  C3  UNL     1     -42.643   7.481  -3.170  1.00 20.00     0.224 C 
HETATM    4  C4  UNL     1     -41.241   7.283  -0.808  1.00 20.00     0.043 C 
HETATM    5  C5  UNL     1     -41.671   4.502  -1.974  1.00 20.00     0.053 C 
HETATM    6  C6  UNL     1     -41.568   6.929  -2.238  1.00 20.00     0.104 C 
HETATM    7  C7  UNL     1     -42.535   5.725  -2.146  1.00 20.00     0.101 C 
HETATM    8  N8  UNL     1     -43.041   6.185  -3.428  1.00 20.00    -0.355 N 
HETATM    9  O9  UNL     1     -42.993   8.555  -3.595  1.00 20.00    -0.273 OA
HETATM   10  H18 UNL     1     -43.842   5.896  -3.976  1.00 20.00     0.162 HD
ENDROOT
TORSDOF 0
ENDMDL
