MODEL 1
REMARK VINA RESULT:      -4.2      0.000      0.000
REMARK  0 active torsions:
REMARK  status: ('A' for Active; 'I' for Inactive)
ROOT
HETATM    1  C1  UNL     1     -41.978   3.022  -2.821  1.00 20.00     0.136 A 
HETATM    2  C2  UNL     1     -43.012   3.608  -3.509  1.00 20.00     0.136 A 
HETATM    3  C3  UNL     1     -41.576   5.004  -1.724  1.00 20.00     0.059 A 
HETATM    4  C4  UNL     1     -42.631   5.594  -2.413  1.00 20.00     0.059 A 
HETATM    5  C5  UNL     1     -40.793   5.752  -0.682  1.00 20.00     0.061 C 
HETATM    6  C6  UNL     1     -42.979   7.044  -2.238  1.00 20.00     0.061 C 
HETATM    7  C7  UNL     1     -40.942   7.268  -0.793  1.00 20.00     0.006 C 
HETATM    8  C8  UNL     1     -42.410   7.648  -0.955  1.00 20.00     0.006 C 
HETATM    9  N9  UNL     1     -41.248   3.706  -1.918  1.00 20.00    -0.262 NA
HETATM   10  N10 UNL     1     -43.353   4.897  -3.322  1.00 20.00    -0.262 NA
ENDROOT
TORSDOF 0
ENDMDL
MODEL 2
REMARK VINA RESULT:      -4.2     12.037     13.243
REMARK  0 active torsions:
REMARK  status: ('A' for Active; 'I' for Inactive)
ROOT
HETATM    1  C1  UNL     1     -35.497  14.984  -7.871  1.00 20.00     0.136 A 
HETATM    2  C2  UNL     1     -34.968  16.250  -7.795  1.00 20.00     0.136 A 
HETATM    3  C3  UNL     1     -34.590  14.474  -5.819  1.00 20.00     0.059 A 
HETATM    4  C4  UNL     1     -34.065  15.759  -5.737  1.00 20.00     0.059 A 
HETATM    5  C5  UNL     1     -34.436  13.482  -4.701  1.00 20.00     0.061 C 
HETATM    6  C6  UNL     1     -33.217  16.196  -4.577  1.00 20.00     0.061 C 
HETATM    7  C7  UNL     1     -33.305  13.836  -3.737  1.00 20.00     0.006 C 
HETATM    8  C8  UNL     1     -33.380  15.307  -3.345  1.00 20.00     0.006 C 
HETATM    9  N9  UNL     1     -35.321  14.080  -6.888  1.00 20.00    -0.262 NA
HETATM   10  N10 UNL     1     -34.244  16.656  -6.735  1.00 20.00    -0.262 NA
ENDROOT
TORSDOF 0
ENDMDL
MODEL 3
REMARK VINA RESULT:      -4.2     12.012     13.228
REMARK  0 active torsions:
REMARK  status: ('A' for Active; 'I' for Inactive)
ROOT
HETATM    1  C1  UNL     1     -34.982  16.183  -7.834  1.00 20.00     0.136 A 
HETATM    2  C2  UNL     1     -35.526  14.922  -7.881  1.00 20.00     0.136 A 
HETATM    3  C3  UNL     1     -34.074  15.722  -5.772  1.00 20.00     0.059 A 
HETATM    4  C4  UNL     1     -34.613  14.442  -5.825  1.00 20.00     0.059 A 
HETATM    5  C5  UNL     1     -33.212  16.173  -4.625  1.00 20.00     0.061 C 
HETATM    6  C6  UNL     1     -34.464  13.471  -4.689  1.00 20.00     0.061 C 
HETATM    7  C7  UNL     1     -33.380  15.311  -3.375  1.00 20.00     0.006 C 
HETATM    8  C8  UNL     1     -33.323  13.830  -3.738  1.00 20.00     0.006 C 
HETATM    9  N9  UNL     1     -34.248  16.602  -6.785  1.00 20.00    -0.262 NA
HETATM   10  N10 UNL     1     -35.355  14.036  -6.882  1.00 20.00    -0.262 NA
ENDROOT
TORSDOF 0
ENDMDL
MODEL 4
REMARK VINA RESULT:      -4.2      0.289      2.155
REMARK  0 active torsions:
REMARK  status: ('A' for Active; 'I' for Inactive)
ROOT
HETATM    1  C1  UNL     1     -42.999   3.357  -3.663  1.00 20.00     0.136 A 
HETATM    2  C2  UNL     1     -41.927   2.841  -2.977  1.00 20.00     0.136 A 
HETATM    3  C3  UNL     1     -42.733   5.370  -2.582  1.00 20.00     0.059 A 
HETATM    4  C4  UNL     1     -41.640   4.851  -1.896  1.00 20.00     0.059 A 
HETATM    5  C5  UNL     1     -43.168   6.799  -2.416  1.00 20.00     0.061 C 
HETATM    6  C6  UNL     1     -40.899   5.652  -0.864  1.00 20.00     0.061 C 
HETATM    7  C7  UNL     1     -42.630   7.445  -1.140  1.00 20.00     0.006 C 
HETATM    8  C8  UNL     1     -41.141   7.156  -0.984  1.00 20.00     0.006 C 
HETATM    9  N9  UNL     1     -43.417   4.625  -3.481  1.00 20.00    -0.262 NA
HETATM   10  N10 UNL     1     -41.235   3.573  -2.084  1.00 20.00    -0.262 NA
ENDROOT
TORSDOF 0
ENDMDL
MODEL 5
REMARK VINA RESULT:      -4.1     12.485     13.928
REMARK  0 active torsions:
REMARK  status: ('A' for Active; 'I' for Inactive)
ROOT
HETATM    1  C1  UNL     1     -34.403  17.589  -6.828  1.00 20.00     0.136 A 
HETATM    2  C2  UNL     1     -33.560  18.030  -5.838  1.00 20.00     0.136 A 
HETATM    3  C3  UNL     1     -34.530  15.528  -5.814  1.00 20.00     0.059 A 
HETATM    4  C4  UNL     1     -33.686  15.979  -4.804  1.00 20.00     0.059 A 
HETATM    5  C5  UNL     1     -35.127  14.149  -5.791  1.00 20.00     0.061 C 
HETATM    6  C6  UNL     1     -33.231  15.078  -3.692  1.00 20.00     0.061 C 
HETATM    7  C7  UNL     1     -34.380  13.187  -4.870  1.00 20.00     0.006 C 
HETATM    8  C8  UNL     1     -34.113  13.843  -3.519  1.00 20.00     0.006 C 
HETATM    9  N9  UNL     1     -34.903  16.338  -6.832  1.00 20.00    -0.262 NA
HETATM   10  N10 UNL     1     -33.186  17.237  -4.817  1.00 20.00    -0.262 NA
ENDROOT
TORSDOF 0
ENDMDL
MODEL 6
REMARK VINA RESULT:      -4.1     12.471     13.806
REMARK  0 active torsions:
REMARK  status: ('A' for Active; 'I' for Inactive)
ROOT
HETATM    1  C1  UNL     1     -33.582  18.020  -5.876  1.00 20.00     0.136 A 
HETATM    2  C2  UNL     1     -34.451  17.582  -6.845  1.00 20.00     0.136 A 
HETATM    3  C3  UNL     1     -33.703  15.975  -4.830  1.00 20.00     0.059 A 
HETATM    4  C4  UNL     1     -34.574  15.527  -5.818  1.00 20.00     0.059 A 
HETATM    5  C5  UNL     1     -33.229  15.075  -3.723  1.00 20.00     0.061 C 
HETATM    6  C6  UNL     1     -35.181  14.154  -5.776  1.00 20.00     0.061 C 
HETATM    7  C7  UNL     1     -34.119  13.849  -3.525  1.00 20.00     0.006 C 
HETATM    8  C8  UNL     1     -34.422  13.189  -4.866  1.00 20.00     0.006 C 
HETATM    9  N9  UNL     1     -33.192  17.228  -4.858  1.00 20.00    -0.262 NA
HETATM   10  N10 UNL     1     -34.962  16.336  -6.831  1.00 20.00    -0.262 NA
ENDROOT
TORSDOF 0
ENDMDL
MODEL 7
REMARK VINA RESULT:      -4.1      9.780     10.995
REMARK  0 active torsions:
REMARK  status: ('A' for Active; 'I' for Inactive)
ROOT
HETATM    1  C1  UNL     1     -32.892   6.304   2.199  1.00 20.00     0.136 A 
HETATM    2  C2  UNL     1     -32.234   7.170   3.038  1.00 20.00     0.136 A 
HETATM    3  C3  UNL     1     -34.062   5.449   3.986  1.00 20.00     0.059 A 
HETATM    4  C4  UNL     1     -33.404   6.333   4.834  1.00 20.00     0.059 A 
HETATM    5  C5  UNL     1     -35.127   4.514   4.486  1.00 20.00     0.061 C 
HETATM    6  C6  UNL     1     -33.637   6.330   6.318  1.00 20.00     0.061 C 
HETATM    7  C7  UNL     1     -35.075   4.301   5.998  1.00 20.00     0.006 C 
HETATM    8  C8  UNL     1     -34.939   5.638   6.720  1.00 20.00     0.006 C 
HETATM    9  N9  UNL     1     -33.815   5.435   2.655  1.00 20.00    -0.262 NA
HETATM   10  N10 UNL     1     -32.474   7.197   4.363  1.00 20.00    -0.262 NA
ENDROOT
TORSDOF 0
ENDMDL
MODEL 8
REMARK VINA RESULT:      -4.1      9.777     10.921
REMARK  0 active torsions:
REMARK  status: ('A' for Active; 'I' for Inactive)
ROOT
HETATM    1  C1  UNL     1     -32.220   7.159   3.049  1.00 20.00     0.136 A 
HETATM    2  C2  UNL     1     -32.870   6.293   2.205  1.00 20.00     0.136 A 
HETATM    3  C3  UNL     1     -33.406   6.324   4.833  1.00 20.00     0.059 A 
HETATM    4  C4  UNL     1     -34.056   5.438   3.981  1.00 20.00     0.059 A 
HETATM    5  C5  UNL     1     -33.652   6.321   6.316  1.00 20.00     0.061 C 
HETATM    6  C6  UNL     1     -35.125   4.504   4.473  1.00 20.00     0.061 C 
HETATM    7  C7  UNL     1     -34.957   5.630   6.706  1.00 20.00     0.006 C 
HETATM    8  C8  UNL     1     -35.088   4.292   5.985  1.00 20.00     0.006 C 
HETATM    9  N9  UNL     1     -32.473   7.188   4.372  1.00 20.00    -0.262 NA
HETATM   10  N10 UNL     1     -33.797   5.425   2.652  1.00 20.00    -0.262 NA
ENDROOT
TORSDOF 0
ENDMDL
MODEL 9
REMARK VINA RESULT:      -4.1     10.652     12.042
REMARK  0 active torsions:
REMARK  status: ('A' for Active; 'I' for Inactive)
ROOT
HETATM    1  C1  UNL     1     -37.933  16.510  -3.321  1.00 20.00     0.136 A 
HETATM    2  C2  UNL     1     -38.397  15.256  -3.634  1.00 20.00     0.136 A 
HETATM    3  C3  UNL     1     -35.766  15.772  -3.533  1.00 20.00     0.059 A 
HETATM    4  C4  UNL     1     -36.234  14.505  -3.862  1.00 20.00     0.059 A 
HETATM    5  C5  UNL     1     -34.298  16.096  -3.523  1.00 20.00     0.061 C 
HETATM    6  C6  UNL     1     -35.301  13.355  -4.116  1.00 20.00     0.061 C 
HETATM    7  C7  UNL     1     -33.410  14.856  -3.438  1.00 20.00     0.006 C 
HETATM    8  C8  UNL     1     -33.874  13.800  -4.435  1.00 20.00     0.006 C 
HETATM    9  N9  UNL     1     -36.617  16.790  -3.268  1.00 20.00    -0.262 NA
HETATM   10  N10 UNL     1     -37.560  14.236  -3.905  1.00 20.00    -0.262 NA
ENDROOT
TORSDOF 0
ENDMDL
