MODEL 1
REMARK VINA RESULT:      -4.3      0.000      0.000
REMARK  1 active torsions:
REMARK  status: ('A' for Active; 'I' for Inactive)
REMARK    1  A    between atoms: C8_8  and  N9_9 
ROOT
HETATM    1  C1  UNL     1     -42.203   2.791  -2.936  1.00 20.00     0.158 C 
HETATM    2  N9  UNL     1     -42.651   3.617  -2.232  1.00 20.00    -0.270 NA
HETATM    3  S10 UNL     1     -41.618   1.654  -3.885  1.00 20.00    -0.055 SA
ENDROOT
BRANCH   2   4
HETATM    4  C8  UNL     1     -41.859   4.844  -2.138  1.00 20.00     0.118 C 
HETATM    5  C5  UNL     1     -40.736   4.672  -1.076  1.00 20.00     0.036 C 
HETATM    6  C6  UNL     1     -41.083   5.762  -0.036  1.00 20.00     0.010 C 
HETATM    7  C2  UNL     1     -40.905   7.111  -0.696  1.00 20.00    -0.026 C 
HETATM    8  C4  UNL     1     -42.611   5.698  -0.037  1.00 20.00     0.019 C 
HETATM    9  C3  UNL     1     -41.891   7.245  -1.596  1.00 20.00    -0.024 C 
HETATM   10  C7  UNL     1     -42.719   5.982  -1.542  1.00 20.00     0.033 C 
ENDBRANCH   2   4
TORSDOF 1
ENDMDL
MODEL 2
REMARK VINA RESULT:      -4.3     12.943     14.227
REMARK  1 active torsions:
REMARK  status: ('A' for Active; 'I' for Inactive)
REMARK    1  A    between atoms: C8_8  and  N9_9 
ROOT
HETATM    1  C1  UNL     1     -33.579  18.043  -5.669  1.00 20.00     0.158 C 
HETATM    2  N9  UNL     1     -33.219  17.370  -4.776  1.00 20.00    -0.270 NA
HETATM    3  S10 UNL     1     -34.055  18.979  -6.866  1.00 20.00    -0.055 SA
ENDROOT
BRANCH   2   4
HETATM    4  C8  UNL     1     -33.561  15.952  -4.897  1.00 20.00     0.118 C 
HETATM    5  C5  UNL     1     -35.105  15.782  -4.965  1.00 20.00     0.036 C 
HETATM    6  C6  UNL     1     -35.409  14.930  -3.711  1.00 20.00     0.010 C 
HETATM    7  C2  UNL     1     -34.776  13.572  -3.903  1.00 20.00    -0.026 C 
HETATM    8  C4  UNL     1     -34.413  15.515  -2.708  1.00 20.00     0.019 C 
HETATM    9  C3  UNL     1     -33.447  13.738  -3.826  1.00 20.00    -0.024 C 
HETATM   10  C7  UNL     1     -33.195  15.210  -3.591  1.00 20.00     0.033 C 
ENDBRANCH   2   4
TORSDOF 1
ENDMDL
MODEL 3
REMARK VINA RESULT:      -4.2     12.422     13.533
REMARK  1 active torsions:
REMARK  status: ('A' for Active; 'I' for Inactive)
REMARK    1  A    between atoms: C8_8  and  N9_9 
ROOT
HETATM    1  C1  UNL     1     -34.290  16.711  -1.443  1.00 20.00     0.158 C 
HETATM    2  N9  UNL     1     -34.855  15.768  -1.856  1.00 20.00    -0.270 NA
HETATM    3  S10 UNL     1     -33.527  17.981  -0.856  1.00 20.00    -0.055 SA
ENDROOT
BRANCH   2   4
HETATM    4  C8  UNL     1     -35.006  15.727  -3.311  1.00 20.00     0.118 C 
HETATM    5  C5  UNL     1     -35.888  14.514  -3.720  1.00 20.00     0.036 C 
HETATM    6  C6  UNL     1     -34.926  13.675  -4.594  1.00 20.00     0.010 C 
HETATM    7  C2  UNL     1     -34.612  14.471  -5.840  1.00 20.00    -0.026 C 
HETATM    8  C4  UNL     1     -33.604  13.869  -3.849  1.00 20.00     0.019 C 
HETATM    9  C3  UNL     1     -33.839  15.503  -5.467  1.00 20.00    -0.024 C 
HETATM   10  C7  UNL     1     -33.647  15.398  -3.972  1.00 20.00     0.033 C 
ENDBRANCH   2   4
TORSDOF 1
ENDMDL
MODEL 4
REMARK VINA RESULT:      -4.1     11.230     12.532
REMARK  1 active torsions:
REMARK  status: ('A' for Active; 'I' for Inactive)
REMARK    1  A    between atoms: C8_8  and  N9_9 
ROOT
HETATM    1  C1  UNL     1     -38.075  14.763  -3.793  1.00 20.00     0.158 C 
HETATM    2  N9  UNL     1     -37.054  14.183  -3.794  1.00 20.00    -0.270 NA
HETATM    3  S10 UNL     1     -39.474  15.525  -3.796  1.00 20.00    -0.055 SA
ENDROOT
BRANCH   2   4
HETATM    4  C8  UNL     1     -35.865  15.026  -3.665  1.00 20.00     0.118 C 
HETATM    5  C5  UNL     1     -35.739  15.959  -4.903  1.00 20.00     0.036 C 
HETATM    6  C6  UNL     1     -34.389  15.526  -5.519  1.00 20.00     0.010 C 
HETATM    7  C2  UNL     1     -33.293  15.886  -4.542  1.00 20.00    -0.026 C 
HETATM    8  C4  UNL     1     -34.428  14.015  -5.283  1.00 20.00     0.019 C 
HETATM    9  C3  UNL     1     -33.410  15.061  -3.492  1.00 20.00    -0.024 C 
HETATM   10  C7  UNL     1     -34.590  14.157  -3.764  1.00 20.00     0.033 C 
ENDBRANCH   2   4
TORSDOF 1
ENDMDL
MODEL 5
REMARK VINA RESULT:      -4.1     12.576     13.843
REMARK  1 active torsions:
REMARK  status: ('A' for Active; 'I' for Inactive)
REMARK    1  A    between atoms: C8_8  and  N9_9 
ROOT
HETATM    1  C1  UNL     1     -34.208  17.218  -1.519  1.00 20.00     0.158 C 
HETATM    2  N9  UNL     1     -33.791  17.200  -2.617  1.00 20.00    -0.270 NA
HETATM    3  S10 UNL     1     -34.774  17.271  -0.031  1.00 20.00    -0.055 SA
ENDROOT
BRANCH   2   4
HETATM    4  C8  UNL     1     -33.597  15.864  -3.181  1.00 20.00     0.118 C 
HETATM    5  C5  UNL     1     -33.197  15.972  -4.680  1.00 20.00     0.036 C 
HETATM    6  C6  UNL     1     -34.355  15.238  -5.395  1.00 20.00     0.010 C 
HETATM    7  C2  UNL     1     -34.301  13.781  -4.996  1.00 20.00    -0.026 C 
HETATM    8  C4  UNL     1     -35.551  15.672  -4.544  1.00 20.00     0.019 C 
HETATM    9  C3  UNL     1     -34.664  13.708  -3.707  1.00 20.00    -0.024 C 
HETATM   10  C7  UNL     1     -34.950  15.118  -3.244  1.00 20.00     0.033 C 
ENDBRANCH   2   4
TORSDOF 1
ENDMDL
MODEL 6
REMARK VINA RESULT:      -4.1     13.066     14.072
REMARK  1 active torsions:
REMARK  status: ('A' for Active; 'I' for Inactive)
REMARK    1  A    between atoms: C8_8  and  N9_9 
ROOT
HETATM    1  C1  UNL     1     -34.172  17.296  -1.116  1.00 20.00     0.158 C 
HETATM    2  N9  UNL     1     -33.558  17.214  -2.114  1.00 20.00    -0.270 NA
HETATM    3  S10 UNL     1     -34.982  17.419   0.250  1.00 20.00    -0.055 SA
ENDROOT
BRANCH   2   4
HETATM    4  C8  UNL     1     -34.258  16.554  -3.216  1.00 20.00     0.118 C 
HETATM    5  C5  UNL     1     -34.877  15.215  -2.726  1.00 20.00     0.036 C 
HETATM    6  C6  UNL     1     -34.159  14.166  -3.607  1.00 20.00     0.010 C 
HETATM    7  C2  UNL     1     -34.587  14.387  -5.040  1.00 20.00    -0.026 C 
HETATM    8  C4  UNL     1     -32.751  14.760  -3.686  1.00 20.00     0.019 C 
HETATM    9  C3  UNL     1     -34.030  15.538  -5.447  1.00 20.00    -0.024 C 
HETATM   10  C7  UNL     1     -33.239  16.087  -4.282  1.00 20.00     0.033 C 
ENDBRANCH   2   4
TORSDOF 1
ENDMDL
MODEL 7
REMARK VINA RESULT:      -4.1      2.704      3.428
REMARK  1 active torsions:
REMARK  status: ('A' for Active; 'I' for Inactive)
REMARK    1  A    between atoms: C8_8  and  N9_9 
ROOT
HETATM    1  C1  UNL     1     -42.951   7.244  -3.845  1.00 20.00     0.158 C 
HETATM    2  N9  UNL     1     -43.082   6.139  -3.466  1.00 20.00    -0.270 NA
HETATM    3  S10 UNL     1     -42.778   8.733  -4.384  1.00 20.00    -0.055 SA
ENDROOT
BRANCH   2   4
HETATM    4  C8  UNL     1     -42.911   5.957  -2.025  1.00 20.00     0.118 C 
HETATM    5  C5  UNL     1     -41.476   6.381  -1.602  1.00 20.00     0.036 C 
HETATM    6  C6  UNL     1     -40.888   5.069  -1.033  1.00 20.00     0.010 C 
HETATM    7  C2  UNL     1     -41.662   4.712   0.215  1.00 20.00    -0.026 C 
HETATM    8  C4  UNL     1     -41.490   4.036  -1.987  1.00 20.00     0.019 C 
HETATM    9  C3  UNL     1     -42.889   4.335  -0.172  1.00 20.00    -0.024 C 
HETATM   10  C7  UNL     1     -42.935   4.450  -1.679  1.00 20.00     0.033 C 
ENDBRANCH   2   4
TORSDOF 1
ENDMDL
MODEL 8
REMARK VINA RESULT:      -4.0     11.186     12.400
REMARK  1 active torsions:
REMARK  status: ('A' for Active; 'I' for Inactive)
REMARK    1  A    between atoms: C8_8  and  N9_9 
ROOT
HETATM    1  C1  UNL     1     -38.108  14.827  -3.922  1.00 20.00     0.158 C 
HETATM    2  N9  UNL     1     -37.154  14.161  -3.759  1.00 20.00    -0.270 NA
HETATM    3  S10 UNL     1     -39.416  15.711  -4.127  1.00 20.00    -0.055 SA
ENDROOT
BRANCH   2   4
HETATM    4  C8  UNL     1     -35.944  14.644  -4.424  1.00 20.00     0.118 C 
HETATM    5  C5  UNL     1     -34.736  13.736  -4.055  1.00 20.00     0.036 C 
HETATM    6  C6  UNL     1     -33.778  14.719  -3.343  1.00 20.00     0.010 C 
HETATM    7  C2  UNL     1     -33.311  15.736  -4.359  1.00 20.00    -0.026 C 
HETATM    8  C4  UNL     1     -34.770  15.594  -2.573  1.00 20.00     0.019 C 
HETATM    9  C3  UNL     1     -34.362  16.516  -4.652  1.00 20.00    -0.024 C 
HETATM   10  C7  UNL     1     -35.531  16.013  -3.837  1.00 20.00     0.033 C 
ENDBRANCH   2   4
TORSDOF 1
ENDMDL
MODEL 9
REMARK VINA RESULT:      -4.0     12.291     13.003
REMARK  1 active torsions:
REMARK  status: ('A' for Active; 'I' for Inactive)
REMARK    1  A    between atoms: C8_8  and  N9_9 
ROOT
HETATM    1  C1  UNL     1     -36.161  14.965  -6.904  1.00 20.00     0.158 C 
HETATM    2  N9  UNL     1     -35.137  14.811  -6.348  1.00 20.00    -0.270 NA
HETATM    3  S10 UNL     1     -37.540  15.157  -7.677  1.00 20.00    -0.055 SA
ENDROOT
BRANCH   2   4
HETATM    4  C8  UNL     1     -34.969  15.607  -5.132  1.00 20.00     0.118 C 
HETATM    5  C5  UNL     1     -33.471  15.980  -4.945  1.00 20.00     0.036 C 
HETATM    6  C6  UNL     1     -33.120  15.307  -3.597  1.00 20.00     0.010 C 
HETATM    7  C2  UNL     1     -33.917  15.992  -2.511  1.00 20.00    -0.026 C 
HETATM    8  C4  UNL     1     -33.924  14.009  -3.697  1.00 20.00     0.019 C 
HETATM    9  C3  UNL     1     -35.201  15.646  -2.682  1.00 20.00    -0.024 C 
HETATM   10  C7  UNL     1     -35.261  14.737  -3.888  1.00 20.00     0.033 C 
ENDBRANCH   2   4
TORSDOF 1
ENDMDL
