MODEL 1
REMARK VINA RESULT:      -3.4      0.000      0.000
REMARK  0 active torsions:
REMARK  status: ('A' for Active; 'I' for Inactive)
ROOT
HETATM    1  C1  UNL     1     -37.207  14.575  -4.011  1.00 20.00     0.075 C 
HETATM    2  C2  UNL     1     -33.218  16.512  -5.068  1.00 20.00     0.084 C 
HETATM    3  C3  UNL     1     -33.209  15.550  -3.891  1.00 20.00     0.085 C 
HETATM    4  C4  UNL     1     -35.823  15.770  -5.649  1.00 20.00     0.104 C 
HETATM    5  C5  UNL     1     -35.825  14.798  -4.468  1.00 20.00     0.163 C 
HETATM    6  N6  UNL     1     -38.296  14.398  -3.652  1.00 20.00    -0.196 NA
HETATM    7  S7  UNL     1     -34.202  15.899  -6.468  1.00 20.00    -0.166 SA
HETATM    8  S8  UNL     1     -34.826  15.429  -3.070  1.00 20.00    -0.148 SA
ENDROOT
TORSDOF 0
ENDMDL
MODEL 2
REMARK VINA RESULT:      -3.4      2.180      2.424
REMARK  0 active torsions:
REMARK  status: ('A' for Active; 'I' for Inactive)
ROOT
HETATM    1  C1  UNL     1     -34.437  13.728  -4.500  1.00 20.00     0.075 C 
HETATM    2  C2  UNL     1     -34.246  18.216  -3.721  1.00 20.00     0.084 C 
HETATM    3  C3  UNL     1     -33.856  17.314  -2.562  1.00 20.00     0.085 C 
HETATM    4  C4  UNL     1     -34.348  16.013  -5.396  1.00 20.00     0.104 C 
HETATM    5  C5  UNL     1     -33.954  15.095  -4.237  1.00 20.00     0.163 C 
HETATM    6  N6  UNL     1     -34.816  12.651  -4.707  1.00 20.00    -0.196 NA
HETATM    7  S7  UNL     1     -33.564  17.653  -5.308  1.00 20.00    -0.166 SA
HETATM    8  S8  UNL     1     -34.646  15.679  -2.647  1.00 20.00    -0.148 SA
ENDROOT
TORSDOF 0
ENDMDL
MODEL 3
REMARK VINA RESULT:      -3.3      2.360      3.125
REMARK  0 active torsions:
REMARK  status: ('A' for Active; 'I' for Inactive)
ROOT
HETATM    1  C1  UNL     1     -34.843  13.975  -4.066  1.00 20.00     0.075 C 
HETATM    2  C2  UNL     1     -33.754  18.206  -2.764  1.00 20.00     0.084 C 
HETATM    3  C3  UNL     1     -33.741  17.937  -4.260  1.00 20.00     0.085 C 
HETATM    4  C4  UNL     1     -34.873  15.711  -2.329  1.00 20.00     0.104 C 
HETATM    5  C5  UNL     1     -34.867  15.429  -3.833  1.00 20.00     0.163 C 
HETATM    6  N6  UNL     1     -34.825  12.830  -4.250  1.00 20.00    -0.196 NA
HETATM    7  S7  UNL     1     -35.184  17.459  -1.929  1.00 20.00    -0.166 SA
HETATM    8  S8  UNL     1     -33.422  16.193  -4.658  1.00 20.00    -0.148 SA
ENDROOT
TORSDOF 0
ENDMDL
MODEL 4
REMARK VINA RESULT:      -3.3      2.542      3.111
REMARK  0 active torsions:
REMARK  status: ('A' for Active; 'I' for Inactive)
ROOT
HETATM    1  C1  UNL     1     -34.413  16.254  -1.642  1.00 20.00     0.075 C 
HETATM    2  C2  UNL     1     -34.498  15.106  -6.054  1.00 20.00     0.084 C 
HETATM    3  C3  UNL     1     -33.562  16.240  -5.671  1.00 20.00     0.085 C 
HETATM    4  C4  UNL     1     -34.986  14.608  -3.373  1.00 20.00     0.104 C 
HETATM    5  C5  UNL     1     -34.044  15.747  -2.976  1.00 20.00     0.163 C 
HETATM    6  N6  UNL     1     -34.702  16.652  -0.593  1.00 20.00    -0.196 NA
HETATM    7  S7  UNL     1     -34.449  13.727  -4.873  1.00 20.00    -0.166 SA
HETATM    8  S8  UNL     1     -34.103  17.125  -4.179  1.00 20.00    -0.148 SA
ENDROOT
TORSDOF 0
ENDMDL
MODEL 5
REMARK VINA RESULT:      -3.3      1.433      1.882
REMARK  0 active torsions:
REMARK  status: ('A' for Active; 'I' for Inactive)
ROOT
HETATM    1  C1  UNL     1     -37.282  14.849  -3.740  1.00 20.00     0.075 C 
HETATM    2  C2  UNL     1     -33.181  16.466  -4.906  1.00 20.00     0.084 C 
HETATM    3  C3  UNL     1     -34.264  17.500  -4.644  1.00 20.00     0.085 C 
HETATM    4  C4  UNL     1     -34.866  14.473  -3.977  1.00 20.00     0.104 C 
HETATM    5  C5  UNL     1     -35.963  15.506  -3.709  1.00 20.00     0.163 C 
HETATM    6  N6  UNL     1     -38.320  14.332  -3.763  1.00 20.00    -0.196 NA
HETATM    7  S7  UNL     1     -33.190  15.118  -3.686  1.00 20.00    -0.166 SA
HETATM    8  S8  UNL     1     -35.937  16.857  -4.943  1.00 20.00    -0.148 SA
ENDROOT
TORSDOF 0
ENDMDL
MODEL 6
REMARK VINA RESULT:      -3.3      2.543      3.434
REMARK  0 active torsions:
REMARK  status: ('A' for Active; 'I' for Inactive)
ROOT
HETATM    1  C1  UNL     1     -35.105  13.642  -4.177  1.00 20.00     0.075 C 
HETATM    2  C2  UNL     1     -35.548  17.877  -2.548  1.00 20.00     0.084 C 
HETATM    3  C3  UNL     1     -36.785  17.269  -3.190  1.00 20.00     0.085 C 
HETATM    4  C4  UNL     1     -34.260  15.431  -2.723  1.00 20.00     0.104 C 
HETATM    5  C5  UNL     1     -35.499  14.808  -3.367  1.00 20.00     0.163 C 
HETATM    6  N6  UNL     1     -34.795  12.723  -4.813  1.00 20.00    -0.196 NA
HETATM    7  S7  UNL     1     -34.661  16.703  -1.483  1.00 20.00    -0.166 SA
HETATM    8  S8  UNL     1     -36.382  16.006  -4.433  1.00 20.00    -0.148 SA
ENDROOT
TORSDOF 0
ENDMDL
MODEL 7
REMARK VINA RESULT:      -3.3      2.621      2.953
REMARK  0 active torsions:
REMARK  status: ('A' for Active; 'I' for Inactive)
ROOT
HETATM    1  C1  UNL     1     -34.794  16.014  -1.960  1.00 20.00     0.075 C 
HETATM    2  C2  UNL     1     -35.056  14.285  -6.171  1.00 20.00     0.084 C 
HETATM    3  C3  UNL     1     -34.778  13.294  -5.052  1.00 20.00     0.085 C 
HETATM    4  C4  UNL     1     -35.513  16.270  -4.294  1.00 20.00     0.104 C 
HETATM    5  C5  UNL     1     -35.237  15.282  -3.160  1.00 20.00     0.163 C 
HETATM    6  N6  UNL     1     -34.446  16.590  -1.016  1.00 20.00    -0.196 NA
HETATM    7  S7  UNL     1     -36.330  15.503  -5.729  1.00 20.00    -0.166 SA
HETATM    8  S8  UNL     1     -33.955  14.060  -3.624  1.00 20.00    -0.148 SA
ENDROOT
TORSDOF 0
ENDMDL
MODEL 8
REMARK VINA RESULT:      -3.2      2.093      2.942
REMARK  0 active torsions:
REMARK  status: ('A' for Active; 'I' for Inactive)
ROOT
HETATM    1  C1  UNL     1     -34.830  13.826  -4.676  1.00 20.00     0.075 C 
HETATM    2  C2  UNL     1     -33.511  18.114  -5.493  1.00 20.00     0.084 C 
HETATM    3  C3  UNL     1     -34.480  17.504  -6.494  1.00 20.00     0.085 C 
HETATM    4  C4  UNL     1     -33.837  15.913  -3.844  1.00 20.00     0.104 C 
HETATM    5  C5  UNL     1     -34.814  15.290  -4.843  1.00 20.00     0.163 C 
HETATM    6  N6  UNL     1     -34.843  12.674  -4.545  1.00 20.00    -0.196 NA
HETATM    7  S7  UNL     1     -33.946  17.728  -3.772  1.00 20.00    -0.166 SA
HETATM    8  S8  UNL     1     -34.363  15.692  -6.570  1.00 20.00    -0.148 SA
ENDROOT
TORSDOF 0
ENDMDL
MODEL 9
REMARK VINA RESULT:      -3.1      2.754      3.858
REMARK  0 active torsions:
REMARK  status: ('A' for Active; 'I' for Inactive)
ROOT
HETATM    1  C1  UNL     1     -34.225  13.530  -4.155  1.00 20.00     0.075 C 
HETATM    2  C2  UNL     1     -37.774  15.925  -5.722  1.00 20.00     0.084 C 
HETATM    3  C3  UNL     1     -36.972  15.153  -6.757  1.00 20.00     0.085 C 
HETATM    4  C4  UNL     1     -36.339  14.693  -3.698  1.00 20.00     0.104 C 
HETATM    5  C5  UNL     1     -35.526  13.910  -4.731  1.00 20.00     0.163 C 
HETATM    6  N6  UNL     1     -33.200  13.230  -3.701  1.00 20.00    -0.196 NA
HETATM    7  S7  UNL     1     -38.065  14.968  -4.204  1.00 20.00    -0.166 SA
HETATM    8  S8  UNL     1     -35.246  14.887  -6.253  1.00 20.00    -0.148 SA
ENDROOT
TORSDOF 0
ENDMDL
