MODEL 1
REMARK VINA RESULT:      -4.2      0.000      0.000
REMARK  2 active torsions:
REMARK  status: ('A' for Active; 'I' for Inactive)
REMARK    1  A    between atoms: C3_3  and  C5_5 
REMARK    2  A    between atoms: C5_5  and  C6_6 
ROOT
HETATM    1  C1  UNL     1     -35.565   4.930   4.407  1.00 20.00     0.179 C 
HETATM    2  C2  UNL     1     -34.891   4.879   5.766  1.00 20.00     0.103 C 
HETATM    3  C3  UNL     1     -33.805   6.351   3.914  1.00 20.00     0.182 C 
HETATM    4  O7  UNL     1     -34.564   5.235   3.430  1.00 20.00    -0.375 OA
HETATM    5  S8  UNL     1     -33.805   6.314   5.727  1.00 20.00    -0.135 SA
ENDROOT
BRANCH   3   6
HETATM    6  C5  UNL     1     -32.395   6.262   3.360  1.00 20.00     0.042 C 
BRANCH   6   7
HETATM    7  C6  UNL     1     -31.759   7.644   3.217  1.00 20.00    -0.001 C 
HETATM    8  C4  UNL     1     -32.058   8.261   1.860  1.00 20.00     0.005 C 
ENDBRANCH   6   7
ENDBRANCH   3   6
TORSDOF 2
ENDMDL
MODEL 2
REMARK VINA RESULT:      -3.7     11.659     12.166
REMARK  2 active torsions:
REMARK  status: ('A' for Active; 'I' for Inactive)
REMARK    1  A    between atoms: C3_3  and  C5_5 
REMARK    2  A    between atoms: C5_5  and  C6_6 
ROOT
HETATM    1  C1  UNL     1     -34.511  13.298  -4.635  1.00 20.00     0.179 C 
HETATM    2  C2  UNL     1     -35.212  14.255  -5.582  1.00 20.00     0.103 C 
HETATM    3  C3  UNL     1     -33.440  15.231  -3.943  1.00 20.00     0.182 C 
HETATM    4  O7  UNL     1     -34.097  14.042  -3.483  1.00 20.00    -0.375 OA
HETATM    5  S8  UNL     1     -34.146  15.705  -5.545  1.00 20.00    -0.135 SA
ENDROOT
BRANCH   3   6
HETATM    6  C5  UNL     1     -33.630  16.327  -2.910  1.00 20.00     0.042 C 
BRANCH   6   7
HETATM    7  C6  UNL     1     -34.759  15.991  -1.937  1.00 20.00    -0.001 C 
HETATM    8  C4  UNL     1     -34.632  16.774  -0.639  1.00 20.00     0.005 C 
ENDBRANCH   6   7
ENDBRANCH   3   6
TORSDOF 2
ENDMDL
MODEL 3
REMARK VINA RESULT:      -3.5     11.564     11.925
REMARK  2 active torsions:
REMARK  status: ('A' for Active; 'I' for Inactive)
REMARK    1  A    between atoms: C3_3  and  C5_5 
REMARK    2  A    between atoms: C5_5  and  C6_6 
ROOT
HETATM    1  C1  UNL     1     -34.853  13.444  -4.464  1.00 20.00     0.179 C 
HETATM    2  C2  UNL     1     -36.200  14.108  -4.238  1.00 20.00     0.103 C 
HETATM    3  C3  UNL     1     -34.052  15.514  -3.804  1.00 20.00     0.182 C 
HETATM    4  O7  UNL     1     -33.893  14.100  -3.628  1.00 20.00    -0.375 OA
HETATM    5  S8  UNL     1     -35.784  15.859  -4.219  1.00 20.00    -0.135 SA
ENDROOT
BRANCH   3   6
HETATM    6  C5  UNL     1     -33.642  16.217  -2.523  1.00 20.00     0.042 C 
BRANCH   6   7
HETATM    7  C6  UNL     1     -34.795  16.280  -1.522  1.00 20.00    -0.001 C 
HETATM    8  C4  UNL     1     -34.483  17.215  -0.364  1.00 20.00     0.005 C 
ENDBRANCH   6   7
ENDBRANCH   3   6
TORSDOF 2
ENDMDL
MODEL 4
REMARK VINA RESULT:      -3.5      9.107     10.152
REMARK  2 active torsions:
REMARK  status: ('A' for Active; 'I' for Inactive)
REMARK    1  A    between atoms: C3_3  and  C5_5 
REMARK    2  A    between atoms: C5_5  and  C6_6 
ROOT
HETATM    1  C1  UNL     1     -41.804   7.596  -1.270  1.00 20.00     0.179 C 
HETATM    2  C2  UNL     1     -43.052   6.980  -0.664  1.00 20.00     0.103 C 
HETATM    3  C3  UNL     1     -40.880   5.545  -0.721  1.00 20.00     0.182 C 
HETATM    4  O7  UNL     1     -40.979   6.532  -1.757  1.00 20.00    -0.375 OA
HETATM    5  S8  UNL     1     -42.395   5.591   0.274  1.00 20.00    -0.135 SA
ENDROOT
BRANCH   3   6
HETATM    6  C5  UNL     1     -40.680   4.183  -1.359  1.00 20.00     0.042 C 
BRANCH   6   7
HETATM    7  C6  UNL     1     -41.812   3.844  -2.328  1.00 20.00    -0.001 C 
HETATM    8  C4  UNL     1     -41.510   2.585  -3.125  1.00 20.00     0.005 C 
ENDBRANCH   6   7
ENDBRANCH   3   6
TORSDOF 2
ENDMDL
MODEL 5
REMARK VINA RESULT:      -3.4     11.843     12.368
REMARK  2 active torsions:
REMARK  status: ('A' for Active; 'I' for Inactive)
REMARK    1  A    between atoms: C3_3  and  C5_5 
REMARK    2  A    between atoms: C5_5  and  C6_6 
ROOT
HETATM    1  C1  UNL     1     -36.157  15.189  -5.611  1.00 20.00     0.179 C 
HETATM    2  C2  UNL     1     -35.091  14.164  -5.955  1.00 20.00     0.103 C 
HETATM    3  C3  UNL     1     -35.231  15.009  -3.496  1.00 20.00     0.182 C 
HETATM    4  O7  UNL     1     -35.698  15.941  -4.482  1.00 20.00    -0.375 OA
HETATM    5  S8  UNL     1     -34.615  13.527  -4.340  1.00 20.00    -0.135 SA
ENDROOT
BRANCH   3   6
HETATM    6  C5  UNL     1     -34.140  15.670  -2.674  1.00 20.00     0.042 C 
BRANCH   6   7
HETATM    7  C6  UNL     1     -34.709  16.352  -1.431  1.00 20.00    -0.001 C 
HETATM    8  C4  UNL     1     -33.797  17.463  -0.934  1.00 20.00     0.005 C 
ENDBRANCH   6   7
ENDBRANCH   3   6
TORSDOF 2
ENDMDL
MODEL 6
REMARK VINA RESULT:      -3.3     11.423     12.565
REMARK  2 active torsions:
REMARK  status: ('A' for Active; 'I' for Inactive)
REMARK    1  A    between atoms: C3_3  and  C5_5 
REMARK    2  A    between atoms: C5_5  and  C6_6 
ROOT
HETATM    1  C1  UNL     1     -33.647  17.468  -4.396  1.00 20.00     0.179 C 
HETATM    2  C2  UNL     1     -35.010  17.250  -3.765  1.00 20.00     0.103 C 
HETATM    3  C3  UNL     1     -33.184  15.433  -3.394  1.00 20.00     0.182 C 
HETATM    4  O7  UNL     1     -33.049  16.184  -4.608  1.00 20.00    -0.375 OA
HETATM    5  S8  UNL     1     -34.680  15.982  -2.530  1.00 20.00    -0.135 SA
ENDROOT
BRANCH   3   6
HETATM    6  C5  UNL     1     -33.255  13.956  -3.737  1.00 20.00     0.042 C 
BRANCH   6   7
HETATM    7  C6  UNL     1     -34.694  13.506  -3.986  1.00 20.00    -0.001 C 
HETATM    8  C4  UNL     1     -35.037  13.517  -5.468  1.00 20.00     0.005 C 
ENDBRANCH   6   7
ENDBRANCH   3   6
TORSDOF 2
ENDMDL
MODEL 7
REMARK VINA RESULT:      -3.3     11.656     12.382
REMARK  2 active torsions:
REMARK  status: ('A' for Active; 'I' for Inactive)
REMARK    1  A    between atoms: C3_3  and  C5_5 
REMARK    2  A    between atoms: C5_5  and  C6_6 
ROOT
HETATM    1  C1  UNL     1     -34.482  14.088  -5.374  1.00 20.00     0.179 C 
HETATM    2  C2  UNL     1     -35.359  13.476  -4.296  1.00 20.00     0.103 C 
HETATM    3  C3  UNL     1     -35.216  16.071  -4.432  1.00 20.00     0.182 C 
HETATM    4  O7  UNL     1     -34.059  15.377  -4.918  1.00 20.00    -0.375 OA
HETATM    5  S8  UNL     1     -36.403  14.855  -3.800  1.00 20.00    -0.135 SA
ENDROOT
BRANCH   3   6
HETATM    6  C5  UNL     1     -34.786  17.039  -3.345  1.00 20.00     0.042 C 
BRANCH   6   7
HETATM    7  C6  UNL     1     -34.019  16.328  -2.230  1.00 20.00    -0.001 C 
HETATM    8  C4  UNL     1     -34.617  16.622  -0.863  1.00 20.00     0.005 C 
ENDBRANCH   6   7
ENDBRANCH   3   6
TORSDOF 2
ENDMDL
MODEL 8
REMARK VINA RESULT:      -3.2     11.311     12.300
REMARK  2 active torsions:
REMARK  status: ('A' for Active; 'I' for Inactive)
REMARK    1  A    between atoms: C3_3  and  C5_5 
REMARK    2  A    between atoms: C5_5  and  C6_6 
ROOT
HETATM    1  C1  UNL     1     -37.178  14.887  -4.895  1.00 20.00     0.179 C 
HETATM    2  C2  UNL     1     -36.281  15.619  -5.876  1.00 20.00     0.103 C 
HETATM    3  C3  UNL     1     -35.247  13.678  -4.483  1.00 20.00     0.182 C 
HETATM    4  O7  UNL     1     -36.350  14.347  -3.858  1.00 20.00    -0.375 OA
HETATM    5  S8  UNL     1     -34.892  14.490  -6.066  1.00 20.00    -0.135 SA
ENDROOT
BRANCH   3   6
HETATM    6  C5  UNL     1     -34.049  13.733  -3.553  1.00 20.00     0.042 C 
BRANCH   6   7
HETATM    7  C6  UNL     1     -33.242  15.015  -3.753  1.00 20.00    -0.001 C 
HETATM    8  C4  UNL     1     -33.645  16.092  -2.757  1.00 20.00     0.005 C 
ENDBRANCH   6   7
ENDBRANCH   3   6
TORSDOF 2
ENDMDL
MODEL 9
REMARK VINA RESULT:      -3.2      1.506      1.683
REMARK  2 active torsions:
REMARK  status: ('A' for Active; 'I' for Inactive)
REMARK    1  A    between atoms: C3_3  and  C5_5 
REMARK    2  A    between atoms: C5_5  and  C6_6 
ROOT
HETATM    1  C1  UNL     1     -34.388   5.362   5.851  1.00 20.00     0.179 C 
HETATM    2  C2  UNL     1     -35.365   4.937   4.769  1.00 20.00     0.103 C 
HETATM    3  C3  UNL     1     -33.242   6.262   4.051  1.00 20.00     0.182 C 
HETATM    4  O7  UNL     1     -33.695   6.526   5.386  1.00 20.00    -0.375 OA
HETATM    5  S8  UNL     1     -34.390   5.099   3.265  1.00 20.00    -0.135 SA
ENDROOT
BRANCH   3   6
HETATM    6  C5  UNL     1     -33.175   7.572   3.289  1.00 20.00     0.042 C 
BRANCH   6   7
HETATM    7  C6  UNL     1     -31.877   7.691   2.490  1.00 20.00    -0.001 C 
HETATM    8  C4  UNL     1     -32.008   8.692   1.352  1.00 20.00     0.005 C 
ENDBRANCH   6   7
ENDBRANCH   3   6
TORSDOF 2
ENDMDL
