MODEL 1
REMARK VINA RESULT:      -4.4      0.000      0.000
REMARK  1 active torsions:
REMARK  status: ('A' for Active; 'I' for Inactive)
REMARK    1  A    between atoms: C4_4  and  C5_5 
ROOT
HETATM    1  C1  UNL     1     -34.676   5.493   6.464  1.00 20.00     0.029 C 
HETATM    2  C2  UNL     1     -33.943   6.189   5.345  1.00 20.00     0.035 C 
HETATM    3  C3  UNL     1     -34.944   4.129   5.864  1.00 20.00     0.168 C 
HETATM    4  C4  UNL     1     -34.681   5.661   4.127  1.00 20.00     0.131 C 
HETATM    5  O6  UNL     1     -35.068   4.313   4.446  1.00 20.00    -0.385 OA
ENDROOT
BRANCH   4   6
HETATM    6  C5  UNL     1     -33.844   5.670   2.861  1.00 20.00     0.117 C 
HETATM    7 BR7  UNL     1     -32.299   6.822   3.106  1.00 20.00    -0.094 Br
ENDBRANCH   4   6
TORSDOF 1
ENDMDL
MODEL 2
REMARK VINA RESULT:      -4.0      1.272      1.604
REMARK  1 active torsions:
REMARK  status: ('A' for Active; 'I' for Inactive)
REMARK    1  A    between atoms: C4_4  and  C5_5 
ROOT
HETATM    1  C1  UNL     1     -35.061   4.694   6.121  1.00 20.00     0.029 C 
HETATM    2  C2  UNL     1     -35.089   4.766   4.616  1.00 20.00     0.035 C 
HETATM    3  C3  UNL     1     -34.424   6.017   6.487  1.00 20.00     0.168 C 
HETATM    4  C4  UNL     1     -33.769   5.458   4.322  1.00 20.00     0.131 C 
HETATM    5  O6  UNL     1     -33.545   6.371   5.410  1.00 20.00    -0.385 OA
ENDROOT
BRANCH   4   6
HETATM    6  C5  UNL     1     -33.761   6.213   3.006  1.00 20.00     0.117 C 
HETATM    7 BR7  UNL     1     -32.158   7.303   2.886  1.00 20.00    -0.094 Br
ENDBRANCH   4   6
TORSDOF 1
ENDMDL
MODEL 3
REMARK VINA RESULT:      -3.9      1.119      1.119
REMARK  1 active torsions:
REMARK  status: ('A' for Active; 'I' for Inactive)
REMARK    1  A    between atoms: C4_4  and  C5_5 
ROOT
HETATM    1  C1  UNL     1     -34.822   5.561   5.959  1.00 20.00     0.029 C 
HETATM    2  C2  UNL     1     -33.520   6.157   5.490  1.00 20.00     0.035 C 
HETATM    3  C3  UNL     1     -35.145   4.592   4.841  1.00 20.00     0.168 C 
HETATM    4  C4  UNL     1     -33.757   6.261   3.993  1.00 20.00     0.131 C 
HETATM    5  O6  UNL     1     -34.582   5.138   3.640  1.00 20.00    -0.385 OA
ENDROOT
BRANCH   4   6
HETATM    6  C5  UNL     1     -32.480   6.241   3.175  1.00 20.00     0.117 C 
HETATM    7 BR7  UNL     1     -32.178   7.991   2.388  1.00 20.00    -0.094 Br
ENDBRANCH   4   6
TORSDOF 1
ENDMDL
MODEL 4
REMARK VINA RESULT:      -3.7      2.424      3.494
REMARK  1 active torsions:
REMARK  status: ('A' for Active; 'I' for Inactive)
REMARK    1  A    between atoms: C4_4  and  C5_5 
ROOT
HETATM    1  C1  UNL     1     -33.768   5.685   2.486  1.00 20.00     0.029 C 
HETATM    2  C2  UNL     1     -34.574   5.411   3.731  1.00 20.00     0.035 C 
HETATM    3  C3  UNL     1     -32.425   6.081   3.062  1.00 20.00     0.168 C 
HETATM    4  C4  UNL     1     -34.067   6.497   4.663  1.00 20.00     0.131 C 
HETATM    5  O6  UNL     1     -32.681   6.692   4.335  1.00 20.00    -0.385 OA
ENDROOT
BRANCH   4   6
HETATM    6  C5  UNL     1     -34.205   6.146   6.132  1.00 20.00     0.117 C 
HETATM    7 BR7  UNL     1     -34.951   4.362   6.313  1.00 20.00    -0.094 Br
ENDBRANCH   4   6
TORSDOF 1
ENDMDL
MODEL 5
REMARK VINA RESULT:      -3.3     12.323     13.000
REMARK  1 active torsions:
REMARK  status: ('A' for Active; 'I' for Inactive)
REMARK    1  A    between atoms: C4_4  and  C5_5 
ROOT
HETATM    1  C1  UNL     1     -34.500  13.211  -4.842  1.00 20.00     0.029 C 
HETATM    2  C2  UNL     1     -33.771  13.797  -3.660  1.00 20.00     0.035 C 
HETATM    3  C3  UNL     1     -34.821  14.446  -5.657  1.00 20.00     0.168 C 
HETATM    4  C4  UNL     1     -34.549  15.081  -3.431  1.00 20.00     0.131 C 
HETATM    5  O6  UNL     1     -34.970  15.531  -4.730  1.00 20.00    -0.385 OA
ENDROOT
BRANCH   4   6
HETATM    6  C5  UNL     1     -33.740  16.165  -2.746  1.00 20.00     0.117 C 
HETATM    7 BR7  UNL     1     -34.605  16.678  -1.084  1.00 20.00    -0.094 Br
ENDBRANCH   4   6
TORSDOF 1
ENDMDL
MODEL 6
REMARK VINA RESULT:      -3.2     12.416     12.792
REMARK  1 active torsions:
REMARK  status: ('A' for Active; 'I' for Inactive)
REMARK    1  A    between atoms: C4_4  and  C5_5 
ROOT
HETATM    1  C1  UNL     1     -34.810  15.882  -2.364  1.00 20.00     0.029 C 
HETATM    2  C2  UNL     1     -35.556  14.955  -3.290  1.00 20.00     0.035 C 
HETATM    3  C3  UNL     1     -33.447  15.951  -3.020  1.00 20.00     0.168 C 
HETATM    4  C4  UNL     1     -34.471  13.957  -3.657  1.00 20.00     0.131 C 
HETATM    5  O6  UNL     1     -33.239  14.697  -3.686  1.00 20.00    -0.385 OA
ENDROOT
BRANCH   4   6
HETATM    6  C5  UNL     1     -34.698  13.281  -4.996  1.00 20.00     0.117 C 
HETATM    7 BR7  UNL     1     -34.817  14.623  -6.396  1.00 20.00    -0.094 Br
ENDBRANCH   4   6
TORSDOF 1
ENDMDL
MODEL 7
REMARK VINA RESULT:      -3.2      9.348      9.897
REMARK  1 active torsions:
REMARK  status: ('A' for Active; 'I' for Inactive)
REMARK    1  A    between atoms: C4_4  and  C5_5 
ROOT
HETATM    1  C1  UNL     1     -40.727   6.060   0.077  1.00 20.00     0.029 C 
HETATM    2  C2  UNL     1     -41.471   4.791  -0.250  1.00 20.00     0.035 C 
HETATM    3  C3  UNL     1     -41.149   6.972  -1.055  1.00 20.00     0.168 C 
HETATM    4  C4  UNL     1     -41.371   4.764  -1.766  1.00 20.00     0.131 C 
HETATM    5  O6  UNL     1     -41.403   6.136  -2.193  1.00 20.00    -0.385 OA
ENDROOT
BRANCH   4   6
HETATM    6  C5  UNL     1     -42.492   3.990  -2.432  1.00 20.00     0.117 C 
HETATM    7 BR7  UNL     1     -41.779   2.381  -3.256  1.00 20.00    -0.094 Br
ENDBRANCH   4   6
TORSDOF 1
ENDMDL
MODEL 8
REMARK VINA RESULT:      -3.2     12.494     13.515
REMARK  1 active torsions:
REMARK  status: ('A' for Active; 'I' for Inactive)
REMARK    1  A    between atoms: C4_4  and  C5_5 
ROOT
HETATM    1  C1  UNL     1     -33.942  17.408  -3.058  1.00 20.00     0.029 C 
HETATM    2  C2  UNL     1     -34.153  15.956  -2.711  1.00 20.00     0.035 C 
HETATM    3  C3  UNL     1     -33.520  17.325  -4.510  1.00 20.00     0.168 C 
HETATM    4  C4  UNL     1     -33.024  15.293  -3.481  1.00 20.00     0.131 C 
HETATM    5  O6  UNL     1     -32.848  16.069  -4.679  1.00 20.00    -0.385 OA
ENDROOT
BRANCH   4   6
HETATM    6  C5  UNL     1     -33.303  13.846  -3.839  1.00 20.00     0.117 C 
HETATM    7 BR7  UNL     1     -35.180  13.634  -4.295  1.00 20.00    -0.094 Br
ENDBRANCH   4   6
TORSDOF 1
ENDMDL
MODEL 9
REMARK VINA RESULT:      -3.1     12.684     13.220
REMARK  1 active torsions:
REMARK  status: ('A' for Active; 'I' for Inactive)
REMARK    1  A    between atoms: C4_4  and  C5_5 
ROOT
HETATM    1  C1  UNL     1     -33.835  17.796  -0.444  1.00 20.00     0.029 C 
HETATM    2  C2  UNL     1     -34.666  16.591  -0.808  1.00 20.00     0.035 C 
HETATM    3  C3  UNL     1     -33.665  18.476  -1.786  1.00 20.00     0.168 C 
HETATM    4  C4  UNL     1     -34.075  16.212  -2.155  1.00 20.00     0.131 C 
HETATM    5  O6  UNL     1     -33.687  17.446  -2.784  1.00 20.00    -0.385 OA
ENDROOT
BRANCH   4   6
HETATM    6  C5  UNL     1     -35.041  15.458  -3.049  1.00 20.00     0.117 C 
HETATM    7 BR7  UNL     1     -34.162  13.892  -3.789  1.00 20.00    -0.094 Br
ENDBRANCH   4   6
TORSDOF 1
ENDMDL
