MODEL 1
REMARK VINA RESULT:      -4.0      0.000      0.000
REMARK  0 active torsions:
REMARK  status: ('A' for Active; 'I' for Inactive)
ROOT
HETATM    1  C1  UNL     1     -34.071  15.605  -6.220  1.00 20.00     0.029 C 
HETATM    2  C2  UNL     1     -34.257  16.207  -4.829  1.00 20.00     0.048 C 
HETATM    3  C3  UNL     1     -35.036  14.451  -6.450  1.00 20.00     0.170 C 
HETATM    4  C4  UNL     1     -35.205  13.968  -4.094  1.00 20.00     0.255 C 
HETATM    5  C5  UNL     1     -34.248  15.123  -3.745  1.00 20.00     0.152 C 
HETATM    6  O6  UNL     1     -34.960  13.469  -5.417  1.00 20.00    -0.367 OA
HETATM    7 CL7  UNL     1     -36.943  14.391  -3.930  1.00 20.00    -0.092 Cl
HETATM    8 CL8  UNL     1     -32.574  14.446  -3.599  1.00 20.00    -0.098 Cl
HETATM    9 CL9  UNL     1     -34.632  15.855  -2.150  1.00 20.00    -0.098 Cl
ENDROOT
TORSDOF 0
ENDMDL
MODEL 2
REMARK VINA RESULT:      -4.0      2.050      2.441
REMARK  0 active torsions:
REMARK  status: ('A' for Active; 'I' for Inactive)
ROOT
HETATM    1  C1  UNL     1     -33.449  13.724  -3.649  1.00 20.00     0.029 C 
HETATM    2  C2  UNL     1     -33.059  15.191  -3.823  1.00 20.00     0.048 C 
HETATM    3  C3  UNL     1     -34.755  13.416  -4.364  1.00 20.00     0.170 C 
HETATM    4  C4  UNL     1     -35.520  15.697  -4.201  1.00 20.00     0.255 C 
HETATM    5  C5  UNL     1     -34.226  16.123  -3.482  1.00 20.00     0.152 C 
HETATM    6  O6  UNL     1     -35.803  14.307  -3.985  1.00 20.00    -0.367 OA
HETATM    7 CL7  UNL     1     -35.513  16.034  -5.966  1.00 20.00    -0.092 Cl
HETATM    8 CL8  UNL     1     -34.528  16.065  -1.696  1.00 20.00    -0.098 Cl
HETATM    9 CL9  UNL     1     -33.778  17.822  -3.857  1.00 20.00    -0.098 Cl
ENDROOT
TORSDOF 0
ENDMDL
MODEL 3
REMARK VINA RESULT:      -3.9      1.408      2.709
REMARK  0 active torsions:
REMARK  status: ('A' for Active; 'I' for Inactive)
ROOT
HETATM    1  C1  UNL     1     -34.857  13.383  -5.071  1.00 20.00     0.029 C 
HETATM    2  C2  UNL     1     -34.559  13.940  -3.680  1.00 20.00     0.048 C 
HETATM    3  C3  UNL     1     -34.593  14.426  -6.146  1.00 20.00     0.170 C 
HETATM    4  C4  UNL     1     -34.976  16.260  -4.627  1.00 20.00     0.255 C 
HETATM    5  C5  UNL     1     -35.246  15.292  -3.460  1.00 20.00     0.152 C 
HETATM    6  O6  UNL     1     -35.280  15.651  -5.891  1.00 20.00    -0.367 OA
HETATM    7 CL7  UNL     1     -33.298  16.900  -4.664  1.00 20.00    -0.092 Cl
HETATM    8 CL8  UNL     1     -37.036  15.034  -3.344  1.00 20.00    -0.098 Cl
HETATM    9 CL9  UNL     1     -34.738  15.984  -1.882  1.00 20.00    -0.098 Cl
ENDROOT
TORSDOF 0
ENDMDL
MODEL 4
REMARK VINA RESULT:      -3.9      2.065      3.006
REMARK  0 active torsions:
REMARK  status: ('A' for Active; 'I' for Inactive)
ROOT
HETATM    1  C1  UNL     1     -33.863  16.687  -2.424  1.00 20.00     0.029 C 
HETATM    2  C2  UNL     1     -34.705  15.446  -2.718  1.00 20.00     0.048 C 
HETATM    3  C3  UNL     1     -33.640  17.508  -3.685  1.00 20.00     0.170 C 
HETATM    4  C4  UNL     1     -33.898  15.588  -5.122  1.00 20.00     0.255 C 
HETATM    5  C5  UNL     1     -34.152  14.666  -3.915  1.00 20.00     0.152 C 
HETATM    6  O6  UNL     1     -33.105  16.725  -4.752  1.00 20.00    -0.367 OA
HETATM    7 CL7  UNL     1     -35.399  16.150  -5.934  1.00 20.00    -0.092 Cl
HETATM    8 CL8  UNL     1     -32.577  13.902  -3.448  1.00 20.00    -0.098 Cl
HETATM    9 CL9  UNL     1     -35.262  13.314  -4.325  1.00 20.00    -0.098 Cl
ENDROOT
TORSDOF 0
ENDMDL
MODEL 5
REMARK VINA RESULT:      -3.8      2.053      2.887
REMARK  0 active torsions:
REMARK  status: ('A' for Active; 'I' for Inactive)
ROOT
HETATM    1  C1  UNL     1     -34.414  13.438  -4.821  1.00 20.00     0.029 C 
HETATM    2  C2  UNL     1     -35.478  14.533  -4.793  1.00 20.00     0.048 C 
HETATM    3  C3  UNL     1     -33.401  13.631  -3.703  1.00 20.00     0.170 C 
HETATM    4  C4  UNL     1     -33.788  16.008  -3.602  1.00 20.00     0.255 C 
HETATM    5  C5  UNL     1     -34.845  15.926  -4.720  1.00 20.00     0.152 C 
HETATM    6  O6  UNL     1     -32.835  14.941  -3.706  1.00 20.00    -0.367 OA
HETATM    7 CL7  UNL     1     -34.483  16.025  -1.946  1.00 20.00    -0.092 Cl
HETATM    8 CL8  UNL     1     -34.029  16.289  -6.296  1.00 20.00    -0.098 Cl
HETATM    9 CL9  UNL     1     -36.128  17.169  -4.524  1.00 20.00    -0.098 Cl
ENDROOT
TORSDOF 0
ENDMDL
MODEL 6
REMARK VINA RESULT:      -3.8      2.517      3.503
REMARK  0 active torsions:
REMARK  status: ('A' for Active; 'I' for Inactive)
ROOT
HETATM    1  C1  UNL     1     -35.866  15.458  -3.069  1.00 20.00     0.029 C 
HETATM    2  C2  UNL     1     -35.823  15.330  -4.591  1.00 20.00     0.048 C 
HETATM    3  C3  UNL     1     -34.748  16.357  -2.564  1.00 20.00     0.170 C 
HETATM    4  C4  UNL     1     -33.347  15.885  -4.468  1.00 20.00     0.255 C 
HETATM    5  C5  UNL     1     -34.417  14.963  -5.081  1.00 20.00     0.152 C 
HETATM    6  O6  UNL     1     -33.466  15.947  -3.040  1.00 20.00    -0.367 OA
HETATM    7 CL7  UNL     1     -33.356  17.552  -5.138  1.00 20.00    -0.092 Cl
HETATM    8 CL8  UNL     1     -34.044  13.260  -4.589  1.00 20.00    -0.098 Cl
HETATM    9 CL9  UNL     1     -34.375  14.985  -6.877  1.00 20.00    -0.098 Cl
ENDROOT
TORSDOF 0
ENDMDL
MODEL 7
REMARK VINA RESULT:      -3.8      2.019      2.777
REMARK  0 active torsions:
REMARK  status: ('A' for Active; 'I' for Inactive)
ROOT
HETATM    1  C1  UNL     1     -33.736  17.433  -5.339  1.00 20.00     0.029 C 
HETATM    2  C2  UNL     1     -33.039  16.179  -4.812  1.00 20.00     0.048 C 
HETATM    3  C3  UNL     1     -34.876  17.850  -4.422  1.00 20.00     0.170 C 
HETATM    4  C4  UNL     1     -35.199  15.604  -3.606  1.00 20.00     0.255 C 
HETATM    5  C5  UNL     1     -34.049  15.075  -4.483  1.00 20.00     0.152 C 
HETATM    6  O6  UNL     1     -35.790  16.781  -4.174  1.00 20.00    -0.367 OA
HETATM    7 CL7  UNL     1     -34.720  15.941  -1.907  1.00 20.00    -0.092 Cl
HETATM    8 CL8  UNL     1     -34.760  14.443  -6.025  1.00 20.00    -0.098 Cl
HETATM    9 CL9  UNL     1     -33.204  13.687  -3.717  1.00 20.00    -0.098 Cl
ENDROOT
TORSDOF 0
ENDMDL
MODEL 8
REMARK VINA RESULT:      -3.7     11.745     12.557
REMARK  0 active torsions:
REMARK  status: ('A' for Active; 'I' for Inactive)
ROOT
HETATM    1  C1  UNL     1     -40.666   4.735  -0.864  1.00 20.00     0.029 C 
HETATM    2  C2  UNL     1     -41.047   6.208  -0.726  1.00 20.00     0.048 C 
HETATM    3  C3  UNL     1     -41.449   4.070  -1.985  1.00 20.00     0.170 C 
HETATM    4  C4  UNL     1     -43.279   5.628  -1.790  1.00 20.00     0.255 C 
HETATM    5  C5  UNL     1     -42.567   6.387  -0.655  1.00 20.00     0.152 C 
HETATM    6  O6  UNL     1     -42.858   4.258  -1.846  1.00 20.00    -0.367 OA
HETATM    7 CL7  UNL     1     -43.071   6.380  -3.408  1.00 20.00    -0.092 Cl
HETATM    8 CL8  UNL     1     -43.168   5.734   0.925  1.00 20.00    -0.098 Cl
HETATM    9 CL9  UNL     1     -42.974   8.137  -0.658  1.00 20.00    -0.098 Cl
ENDROOT
TORSDOF 0
ENDMDL
MODEL 9
REMARK VINA RESULT:      -3.6      1.931      2.644
REMARK  0 active torsions:
REMARK  status: ('A' for Active; 'I' for Inactive)
ROOT
HETATM    1  C1  UNL     1     -35.848  16.446  -2.759  1.00 20.00     0.029 C 
HETATM    2  C2  UNL     1     -34.488  15.787  -2.537  1.00 20.00     0.048 C 
HETATM    3  C3  UNL     1     -36.674  15.668  -3.773  1.00 20.00     0.170 C 
HETATM    4  C4  UNL     1     -34.716  14.765  -4.851  1.00 20.00     0.255 C 
HETATM    5  C5  UNL     1     -33.784  15.496  -3.867  1.00 20.00     0.152 C 
HETATM    6  O6  UNL     1     -35.967  15.452  -4.994  1.00 20.00    -0.367 OA
HETATM    7 CL7  UNL     1     -35.026  13.049  -4.417  1.00 20.00    -0.092 Cl
HETATM    8 CL8  UNL     1     -33.280  17.063  -4.625  1.00 20.00    -0.098 Cl
HETATM    9 CL9  UNL     1     -32.270  14.577  -3.565  1.00 20.00    -0.098 Cl
ENDROOT
TORSDOF 0
ENDMDL
