MODEL 1
REMARK VINA RESULT:      -4.5      0.000      0.000
REMARK  2 active torsions:
REMARK  status: ('A' for Active; 'I' for Inactive)
REMARK    1  A    between atoms: C3_3  and  C5_5 
REMARK    2  A    between atoms: C5_5  and  C6_6 
ROOT
HETATM    1  C1  UNL     1     -34.368   6.012   6.432  1.00 20.00     0.179 C 
HETATM    2  C2  UNL     1     -34.903   4.673   5.954  1.00 20.00     0.103 C 
HETATM    3  C3  UNL     1     -34.049   6.361   4.165  1.00 20.00     0.182 C 
HETATM    4  O7  UNL     1     -33.435   6.487   5.455  1.00 20.00    -0.375 OA
HETATM    5  S8  UNL     1     -35.208   4.968   4.205  1.00 20.00    -0.135 SA
ENDROOT
BRANCH   3   6
HETATM    6  C5  UNL     1     -32.966   6.151   3.125  1.00 20.00     0.042 C 
BRANCH   6   7
HETATM    7  C6  UNL     1     -31.920   7.264   3.170  1.00 20.00    -0.001 C 
HETATM    8  C4  UNL     1     -32.057   8.210   1.987  1.00 20.00     0.005 C 
ENDBRANCH   6   7
ENDBRANCH   3   6
TORSDOF 2
ENDMDL
MODEL 2
REMARK VINA RESULT:      -3.6     11.745     12.268
REMARK  2 active torsions:
REMARK  status: ('A' for Active; 'I' for Inactive)
REMARK    1  A    between atoms: C3_3  and  C5_5 
REMARK    2  A    between atoms: C5_5  and  C6_6 
ROOT
HETATM    1  C1  UNL     1     -34.790  13.247  -4.615  1.00 20.00     0.179 C 
HETATM    2  C2  UNL     1     -34.793  14.323  -5.687  1.00 20.00     0.103 C 
HETATM    3  C3  UNL     1     -34.934  15.072  -3.197  1.00 20.00     0.182 C 
HETATM    4  O7  UNL     1     -34.263  13.823  -3.414  1.00 20.00    -0.375 OA
HETATM    5  S8  UNL     1     -35.413  15.763  -4.803  1.00 20.00    -0.135 SA
ENDROOT
BRANCH   3   6
HETATM    6  C5  UNL     1     -34.001  16.005  -2.448  1.00 20.00     0.042 C 
BRANCH   6   7
HETATM    7  C6  UNL     1     -34.632  16.508  -1.151  1.00 20.00    -0.001 C 
HETATM    8  C4  UNL     1     -33.823  17.640  -0.537  1.00 20.00     0.005 C 
ENDBRANCH   6   7
ENDBRANCH   3   6
TORSDOF 2
ENDMDL
MODEL 3
REMARK VINA RESULT:      -3.6     12.049     12.732
REMARK  2 active torsions:
REMARK  status: ('A' for Active; 'I' for Inactive)
REMARK    1  A    between atoms: C3_3  and  C5_5 
REMARK    2  A    between atoms: C5_5  and  C6_6 
ROOT
HETATM    1  C1  UNL     1     -34.504  14.755  -6.146  1.00 20.00     0.179 C 
HETATM    2  C2  UNL     1     -34.881  13.657  -5.167  1.00 20.00     0.103 C 
HETATM    3  C3  UNL     1     -33.423  15.630  -4.295  1.00 20.00     0.182 C 
HETATM    4  O7  UNL     1     -34.280  15.955  -5.397  1.00 20.00    -0.375 OA
HETATM    5  S8  UNL     1     -33.710  13.903  -3.822  1.00 20.00    -0.135 SA
ENDROOT
BRANCH   3   6
HETATM    6  C5  UNL     1     -33.721  16.575  -3.146  1.00 20.00     0.042 C 
BRANCH   6   7
HETATM    7  C6  UNL     1     -34.675  15.945  -2.133  1.00 20.00    -0.001 C 
HETATM    8  C4  UNL     1     -34.614  16.655  -0.790  1.00 20.00     0.005 C 
ENDBRANCH   6   7
ENDBRANCH   3   6
TORSDOF 2
ENDMDL
MODEL 4
REMARK VINA RESULT:      -3.5     12.057     12.827
REMARK  2 active torsions:
REMARK  status: ('A' for Active; 'I' for Inactive)
REMARK    1  A    between atoms: C3_3  and  C5_5 
REMARK    2  A    between atoms: C5_5  and  C6_6 
ROOT
HETATM    1  C1  UNL     1     -33.323  16.540  -5.018  1.00 20.00     0.179 C 
HETATM    2  C2  UNL     1     -34.172  15.308  -5.280  1.00 20.00     0.103 C 
HETATM    3  C3  UNL     1     -33.671  15.948  -2.806  1.00 20.00     0.182 C 
HETATM    4  O7  UNL     1     -33.673  17.049  -3.726  1.00 20.00    -0.375 OA
HETATM    5  S8  UNL     1     -34.104  14.436  -3.707  1.00 20.00    -0.135 SA
ENDROOT
BRANCH   3   6
HETATM    6  C5  UNL     1     -34.664  16.236  -1.696  1.00 20.00     0.042 C 
BRANCH   6   7
HETATM    7  C6  UNL     1     -34.122  17.272  -0.712  1.00 20.00    -0.001 C 
HETATM    8  C4  UNL     1     -35.016  17.403   0.511  1.00 20.00     0.005 C 
ENDBRANCH   6   7
ENDBRANCH   3   6
TORSDOF 2
ENDMDL
MODEL 5
REMARK VINA RESULT:      -3.5      1.463      1.629
REMARK  2 active torsions:
REMARK  status: ('A' for Active; 'I' for Inactive)
REMARK    1  A    between atoms: C3_3  and  C5_5 
REMARK    2  A    between atoms: C5_5  and  C6_6 
ROOT
HETATM    1  C1  UNL     1     -35.018   4.127   5.197  1.00 20.00     0.179 C 
HETATM    2  C2  UNL     1     -35.195   5.171   6.286  1.00 20.00     0.103 C 
HETATM    3  C3  UNL     1     -33.528   5.686   4.353  1.00 20.00     0.182 C 
HETATM    4  O7  UNL     1     -34.602   4.801   4.004  1.00 20.00    -0.375 OA
HETATM    5  S8  UNL     1     -33.746   6.219   6.072  1.00 20.00    -0.135 SA
ENDROOT
BRANCH   3   6
HETATM    6  C5  UNL     1     -33.537   6.867   3.401  1.00 20.00     0.042 C 
BRANCH   6   7
HETATM    7  C6  UNL     1     -32.121   7.278   3.002  1.00 20.00    -0.001 C 
HETATM    8  C4  UNL     1     -32.132   8.351   1.925  1.00 20.00     0.005 C 
ENDBRANCH   6   7
ENDBRANCH   3   6
TORSDOF 2
ENDMDL
MODEL 6
REMARK VINA RESULT:      -3.5     11.997     12.788
REMARK  2 active torsions:
REMARK  status: ('A' for Active; 'I' for Inactive)
REMARK    1  A    between atoms: C3_3  and  C5_5 
REMARK    2  A    between atoms: C5_5  and  C6_6 
ROOT
HETATM    1  C1  UNL     1     -34.076  15.629  -6.052  1.00 20.00     0.179 C 
HETATM    2  C2  UNL     1     -34.869  14.334  -6.025  1.00 20.00     0.103 C 
HETATM    3  C3  UNL     1     -33.919  15.237  -3.775  1.00 20.00     0.182 C 
HETATM    4  O7  UNL     1     -34.189  16.242  -4.763  1.00 20.00    -0.375 OA
HETATM    5  S8  UNL     1     -34.417  13.623  -4.434  1.00 20.00    -0.135 SA
ENDROOT
BRANCH   3   6
HETATM    6  C5  UNL     1     -34.681  15.577  -2.509  1.00 20.00     0.042 C 
BRANCH   6   7
HETATM    7  C6  UNL     1     -34.017  16.721  -1.743  1.00 20.00    -0.001 C 
HETATM    8  C4  UNL     1     -34.692  16.964  -0.403  1.00 20.00     0.005 C 
ENDBRANCH   6   7
ENDBRANCH   3   6
TORSDOF 2
ENDMDL
MODEL 7
REMARK VINA RESULT:      -3.3     11.515     12.658
REMARK  2 active torsions:
REMARK  status: ('A' for Active; 'I' for Inactive)
REMARK    1  A    between atoms: C3_3  and  C5_5 
REMARK    2  A    between atoms: C5_5  and  C6_6 
ROOT
HETATM    1  C1  UNL     1     -35.493  14.429  -6.682  1.00 20.00     0.179 C 
HETATM    2  C2  UNL     1     -36.448  15.299  -5.882  1.00 20.00     0.103 C 
HETATM    3  C3  UNL     1     -34.962  13.598  -4.587  1.00 20.00     0.182 C 
HETATM    4  O7  UNL     1     -34.406  14.064  -5.824  1.00 20.00    -0.375 OA
HETATM    5  S8  UNL     1     -36.543  14.439  -4.303  1.00 20.00    -0.135 SA
ENDROOT
BRANCH   3   6
HETATM    6  C5  UNL     1     -33.976  13.880  -3.469  1.00 20.00     0.042 C 
BRANCH   6   7
HETATM    7  C6  UNL     1     -33.345  15.265  -3.613  1.00 20.00    -0.001 C 
HETATM    8  C4  UNL     1     -33.779  16.196  -2.492  1.00 20.00     0.005 C 
ENDBRANCH   6   7
ENDBRANCH   3   6
TORSDOF 2
ENDMDL
MODEL 8
REMARK VINA RESULT:      -3.3      9.636     10.157
REMARK  2 active torsions:
REMARK  status: ('A' for Active; 'I' for Inactive)
REMARK    1  A    between atoms: C3_3  and  C5_5 
REMARK    2  A    between atoms: C5_5  and  C6_6 
ROOT
HETATM    1  C1  UNL     1     -41.790   3.615  -2.396  1.00 20.00     0.179 C 
HETATM    2  C2  UNL     1     -43.178   3.828  -1.818  1.00 20.00     0.103 C 
HETATM    3  C3  UNL     1     -41.138   4.717  -0.466  1.00 20.00     0.182 C 
HETATM    4  O7  UNL     1     -40.937   4.646  -1.885  1.00 20.00    -0.375 OA
HETATM    5  S8  UNL     1     -42.837   4.207  -0.092  1.00 20.00    -0.135 SA
ENDROOT
BRANCH   3   6
HETATM    6  C5  UNL     1     -40.871   6.137  -0.004  1.00 20.00     0.042 C 
BRANCH   6   7
HETATM    7  C6  UNL     1     -41.086   7.145  -1.131  1.00 20.00    -0.001 C 
HETATM    8  C4  UNL     1     -42.438   7.833  -1.016  1.00 20.00     0.005 C 
ENDBRANCH   6   7
ENDBRANCH   3   6
TORSDOF 2
ENDMDL
MODEL 9
REMARK VINA RESULT:      -3.3     11.536     12.444
REMARK  2 active torsions:
REMARK  status: ('A' for Active; 'I' for Inactive)
REMARK    1  A    between atoms: C3_3  and  C5_5 
REMARK    2  A    between atoms: C5_5  and  C6_6 
ROOT
HETATM    1  C1  UNL     1     -35.048  15.861  -2.436  1.00 20.00     0.179 C 
HETATM    2  C2  UNL     1     -33.798  16.445  -3.070  1.00 20.00     0.103 C 
HETATM    3  C3  UNL     1     -34.454  13.999  -3.678  1.00 20.00     0.182 C 
HETATM    4  O7  UNL     1     -35.553  14.845  -3.310  1.00 20.00    -0.375 OA
HETATM    5  S8  UNL     1     -32.930  14.982  -3.659  1.00 20.00    -0.135 SA
ENDROOT
BRANCH   3   6
HETATM    6  C5  UNL     1     -34.722  13.418  -5.053  1.00 20.00     0.042 C 
BRANCH   6   7
HETATM    7  C6  UNL     1     -35.421  14.427  -5.963  1.00 20.00    -0.001 C 
HETATM    8  C4  UNL     1     -34.517  14.876  -7.101  1.00 20.00     0.005 C 
ENDBRANCH   6   7
ENDBRANCH   3   6
TORSDOF 2
ENDMDL
