MODEL 1
REMARK VINA RESULT:      -4.6      0.000      0.000
REMARK  2 active torsions:
REMARK  status: ('A' for Active; 'I' for Inactive)
REMARK    1  A    between atoms: C3_3  and  O11_11 
REMARK    2  A    between atoms: C8_8  and  O11_11 
ROOT
HETATM    1  C1  UNL     1     -35.084  17.767  -3.286  1.00 20.00    -0.025 C 
HETATM    2  C2  UNL     1     -33.805  17.374  -3.369  1.00 20.00    -0.023 C 
HETATM    3  C4  UNL     1     -34.649  16.485  -1.410  1.00 20.00     0.019 C 
HETATM    4  C5  UNL     1     -35.907  15.446  -3.157  1.00 20.00     0.042 C 
HETATM    5  C6  UNL     1     -35.795  16.784  -2.387  1.00 20.00     0.011 C 
HETATM    6  C7  UNL     1     -33.663  16.125  -2.527  1.00 20.00     0.038 C 
HETATM    7  C8  UNL     1     -34.431  14.960  -3.196  1.00 20.00     0.140 C 
ENDROOT
BRANCH   7   8
HETATM    8  O11 UNL     1     -33.994  14.711  -4.518  1.00 20.00    -0.316 OA
BRANCH   8   9
HETATM    9  C3  UNL     1     -34.654  13.719  -5.194  1.00 20.00     0.255 C 
HETATM   10  C9  UNL     1     -35.143  14.232  -6.515  1.00 20.00     0.126 C 
HETATM   11  O10 UNL     1     -34.830  12.576  -4.796  1.00 20.00    -0.266 OA
ENDBRANCH   8   9
ENDBRANCH   7   8
TORSDOF 2
ENDMDL
MODEL 2
REMARK VINA RESULT:      -4.5      0.820      1.800
REMARK  2 active torsions:
REMARK  status: ('A' for Active; 'I' for Inactive)
REMARK    1  A    between atoms: C3_3  and  O11_11 
REMARK    2  A    between atoms: C8_8  and  O11_11 
ROOT
HETATM    1  C1  UNL     1     -33.717  17.184  -1.539  1.00 20.00    -0.025 C 
HETATM    2  C2  UNL     1     -34.658  16.231  -1.482  1.00 20.00    -0.023 C 
HETATM    3  C4  UNL     1     -35.478  17.894  -2.861  1.00 20.00     0.019 C 
HETATM    4  C5  UNL     1     -33.557  17.037  -3.995  1.00 20.00     0.042 C 
HETATM    5  C6  UNL     1     -33.945  17.959  -2.815  1.00 20.00     0.011 C 
HETATM    6  C7  UNL     1     -35.513  16.367  -2.723  1.00 20.00     0.038 C 
HETATM    7  C8  UNL     1     -34.685  15.968  -3.968  1.00 20.00     0.140 C 
ENDROOT
BRANCH   7   8
HETATM    8  O11 UNL     1     -34.165  14.656  -3.875  1.00 20.00    -0.316 OA
BRANCH   8   9
HETATM    9  C3  UNL     1     -34.713  13.729  -4.723  1.00 20.00     0.255 C 
HETATM   10  C9  UNL     1     -34.911  14.328  -6.083  1.00 20.00     0.126 C 
HETATM   11  O10 UNL     1     -35.004  12.577  -4.432  1.00 20.00    -0.266 OA
ENDBRANCH   8   9
ENDBRANCH   7   8
TORSDOF 2
ENDMDL
MODEL 3
REMARK VINA RESULT:      -4.5      2.205      3.039
REMARK  2 active torsions:
REMARK  status: ('A' for Active; 'I' for Inactive)
REMARK    1  A    between atoms: C3_3  and  O11_11 
REMARK    2  A    between atoms: C8_8  and  O11_11 
ROOT
HETATM    1  C1  UNL     1     -33.284  16.022  -4.791  1.00 20.00    -0.025 C 
HETATM    2  C2  UNL     1     -34.229  15.373  -5.487  1.00 20.00    -0.023 C 
HETATM    3  C4  UNL     1     -33.452  13.901  -3.884  1.00 20.00     0.019 C 
HETATM    4  C5  UNL     1     -34.464  15.682  -2.653  1.00 20.00     0.042 C 
HETATM    5  C6  UNL     1     -33.179  15.346  -3.445  1.00 20.00     0.011 C 
HETATM    6  C7  UNL     1     -34.757  14.265  -4.602  1.00 20.00     0.038 C 
HETATM    7  C8  UNL     1     -35.549  14.877  -3.422  1.00 20.00     0.140 C 
ENDROOT
BRANCH   7   8
HETATM    8  O11 UNL     1     -36.611  15.705  -3.855  1.00 20.00    -0.316 OA
BRANCH   8   9
HETATM    9  C3  UNL     1     -37.723  15.060  -4.330  1.00 20.00     0.255 C 
HETATM   10  C9  UNL     1     -38.101  15.607  -5.674  1.00 20.00     0.126 C 
HETATM   11  O10 UNL     1     -38.331  14.167  -3.758  1.00 20.00    -0.266 OA
ENDBRANCH   8   9
ENDBRANCH   7   8
TORSDOF 2
ENDMDL
MODEL 4
REMARK VINA RESULT:      -4.4      1.764      4.034
REMARK  2 active torsions:
REMARK  status: ('A' for Active; 'I' for Inactive)
REMARK    1  A    between atoms: C3_3  and  O11_11 
REMARK    2  A    between atoms: C8_8  and  O11_11 
ROOT
HETATM    1  C1  UNL     1     -34.444  14.625  -5.916  1.00 20.00    -0.025 C 
HETATM    2  C2  UNL     1     -34.972  15.738  -5.389  1.00 20.00    -0.023 C 
HETATM    3  C4  UNL     1     -36.053  13.955  -4.396  1.00 20.00     0.019 C 
HETATM    4  C5  UNL     1     -33.773  13.761  -3.706  1.00 20.00     0.042 C 
HETATM    5  C6  UNL     1     -34.686  13.508  -4.929  1.00 20.00     0.011 C 
HETATM    6  C7  UNL     1     -35.563  15.365  -4.048  1.00 20.00     0.038 C 
HETATM    7  C8  UNL     1     -34.425  15.015  -3.060  1.00 20.00     0.140 C 
ENDROOT
BRANCH   7   8
HETATM    8  O11 UNL     1     -33.497  16.072  -2.907  1.00 20.00    -0.316 OA
BRANCH   8   9
HETATM    9  C3  UNL     1     -33.913  17.135  -2.149  1.00 20.00     0.255 C 
HETATM   10  C9  UNL     1     -34.521  16.648  -0.868  1.00 20.00     0.126 C 
HETATM   11  O10 UNL     1     -33.811  18.315  -2.454  1.00 20.00    -0.266 OA
ENDBRANCH   8   9
ENDBRANCH   7   8
TORSDOF 2
ENDMDL
MODEL 5
REMARK VINA RESULT:      -4.4      1.979      4.226
REMARK  2 active torsions:
REMARK  status: ('A' for Active; 'I' for Inactive)
REMARK    1  A    between atoms: C3_3  and  O11_11 
REMARK    2  A    between atoms: C8_8  and  O11_11 
ROOT
HETATM    1  C1  UNL     1     -35.041  13.327  -4.229  1.00 20.00    -0.025 C 
HETATM    2  C2  UNL     1     -33.823  13.706  -3.818  1.00 20.00    -0.023 C 
HETATM    3  C4  UNL     1     -34.389  15.087  -5.582  1.00 20.00     0.019 C 
HETATM    4  C5  UNL     1     -35.986  15.577  -3.873  1.00 20.00     0.042 C 
HETATM    5  C6  UNL     1     -35.657  14.507  -4.941  1.00 20.00     0.011 C 
HETATM    6  C7  UNL     1     -33.628  15.142  -4.252  1.00 20.00     0.038 C 
HETATM    7  C8  UNL     1     -34.573  16.061  -3.442  1.00 20.00     0.140 C 
ENDROOT
BRANCH   7   8
HETATM    8  O11 UNL     1     -34.378  15.943  -2.046  1.00 20.00    -0.316 OA
BRANCH   8   9
HETATM    9  C3  UNL     1     -34.128  17.109  -1.371  1.00 20.00     0.255 C 
HETATM   10  C9  UNL     1     -34.808  17.088  -0.036  1.00 20.00     0.126 C 
HETATM   11  O10 UNL     1     -33.452  18.042  -1.782  1.00 20.00    -0.266 OA
ENDBRANCH   8   9
ENDBRANCH   7   8
TORSDOF 2
ENDMDL
MODEL 6
REMARK VINA RESULT:      -4.3     11.932     13.051
REMARK  2 active torsions:
REMARK  status: ('A' for Active; 'I' for Inactive)
REMARK    1  A    between atoms: C3_3  and  O11_11 
REMARK    2  A    between atoms: C8_8  and  O11_11 
ROOT
HETATM    1  C1  UNL     1     -40.900   7.018  -0.823  1.00 20.00    -0.025 C 
HETATM    2  C2  UNL     1     -40.764   5.859  -0.163  1.00 20.00    -0.023 C 
HETATM    3  C4  UNL     1     -43.024   6.337  -0.209  1.00 20.00     0.019 C 
HETATM    4  C5  UNL     1     -42.409   6.019  -2.497  1.00 20.00     0.042 C 
HETATM    5  C6  UNL     1     -42.311   7.062  -1.359  1.00 20.00     0.011 C 
HETATM    6  C7  UNL     1     -42.084   5.127  -0.263  1.00 20.00     0.038 C 
HETATM    7  C8  UNL     1     -42.315   4.674  -1.724  1.00 20.00     0.140 C 
ENDROOT
BRANCH   7   8
HETATM    8  O11 UNL     1     -41.267   3.859  -2.211  1.00 20.00    -0.316 OA
BRANCH   8   9
HETATM    9  C3  UNL     1     -41.645   2.763  -2.942  1.00 20.00     0.255 C 
HETATM   10  C9  UNL     1     -43.027   2.334  -2.551  1.00 20.00     0.126 C 
HETATM   11  O10 UNL     1     -40.968   2.202  -3.792  1.00 20.00    -0.266 OA
ENDBRANCH   8   9
ENDBRANCH   7   8
TORSDOF 2
ENDMDL
MODEL 7
REMARK VINA RESULT:      -4.1      2.225      4.160
REMARK  2 active torsions:
REMARK  status: ('A' for Active; 'I' for Inactive)
REMARK    1  A    between atoms: C3_3  and  O11_11 
REMARK    2  A    between atoms: C8_8  and  O11_11 
ROOT
HETATM    1  C1  UNL     1     -35.568  15.229  -5.102  1.00 20.00    -0.025 C 
HETATM    2  C2  UNL     1     -35.854  15.069  -3.802  1.00 20.00    -0.023 C 
HETATM    3  C4  UNL     1     -33.906  13.894  -4.204  1.00 20.00     0.019 C 
HETATM    4  C5  UNL     1     -33.347  16.182  -4.613  1.00 20.00     0.042 C 
HETATM    5  C6  UNL     1     -34.086  14.989  -5.264  1.00 20.00     0.011 C 
HETATM    6  C7  UNL     1     -34.561  14.726  -3.096  1.00 20.00     0.038 C 
HETATM    7  C8  UNL     1     -33.626  15.959  -3.100  1.00 20.00     0.140 C 
ENDROOT
BRANCH   7   8
HETATM    8  O11 UNL     1     -34.224  17.093  -2.502  1.00 20.00    -0.316 OA
BRANCH   8   9
HETATM    9  C3  UNL     1     -34.119  17.181  -1.138  1.00 20.00     0.255 C 
HETATM   10  C9  UNL     1     -33.078  18.193  -0.765  1.00 20.00     0.126 C 
HETATM   11  O10 UNL     1     -34.770  16.537  -0.327  1.00 20.00    -0.266 OA
ENDBRANCH   8   9
ENDBRANCH   7   8
TORSDOF 2
ENDMDL
MODEL 8
REMARK VINA RESULT:      -4.0      2.240      3.168
REMARK  2 active torsions:
REMARK  status: ('A' for Active; 'I' for Inactive)
REMARK    1  A    between atoms: C3_3  and  O11_11 
REMARK    2  A    between atoms: C8_8  and  O11_11 
ROOT
HETATM    1  C1  UNL     1     -33.435  13.793  -3.777  1.00 20.00    -0.025 C 
HETATM    2  C2  UNL     1     -34.762  13.673  -3.922  1.00 20.00    -0.023 C 
HETATM    3  C4  UNL     1     -34.402  15.546  -2.619  1.00 20.00     0.019 C 
HETATM    4  C5  UNL     1     -33.422  16.065  -4.736  1.00 20.00     0.042 C 
HETATM    5  C6  UNL     1     -33.152  15.241  -3.455  1.00 20.00     0.011 C 
HETATM    6  C7  UNL     1     -35.365  15.042  -3.700  1.00 20.00     0.038 C 
HETATM    7  C8  UNL     1     -34.969  15.978  -4.867  1.00 20.00     0.140 C 
ENDROOT
BRANCH   7   8
HETATM    8  O11 UNL     1     -35.363  15.469  -6.127  1.00 20.00    -0.316 OA
BRANCH   8   9
HETATM    9  C3  UNL     1     -36.622  15.809  -6.548  1.00 20.00     0.255 C 
HETATM   10  C9  UNL     1     -36.851  17.278  -6.353  1.00 20.00     0.126 C 
HETATM   11  O10 UNL     1     -37.452  15.042  -7.016  1.00 20.00    -0.266 OA
ENDBRANCH   8   9
ENDBRANCH   7   8
TORSDOF 2
ENDMDL
MODEL 9
REMARK VINA RESULT:      -4.0     11.805     12.806
REMARK  2 active torsions:
REMARK  status: ('A' for Active; 'I' for Inactive)
REMARK    1  A    between atoms: C3_3  and  O11_11 
REMARK    2  A    between atoms: C8_8  and  O11_11 
ROOT
HETATM    1  C1  UNL     1     -34.433   3.934   5.329  1.00 20.00    -0.025 C 
HETATM    2  C2  UNL     1     -34.220   3.979   4.006  1.00 20.00    -0.023 C 
HETATM    3  C4  UNL     1     -35.917   5.481   4.459  1.00 20.00     0.019 C 
HETATM    4  C5  UNL     1     -34.000   6.347   5.596  1.00 20.00     0.042 C 
HETATM    5  C6  UNL     1     -35.076   5.242   5.721  1.00 20.00     0.011 C 
HETATM    6  C7  UNL     1     -34.719   5.321   3.516  1.00 20.00     0.038 C 
HETATM    7  C8  UNL     1     -33.802   6.443   4.057  1.00 20.00     0.140 C 
ENDROOT
BRANCH   7   8
HETATM    8  O11 UNL     1     -32.448   6.261   3.688  1.00 20.00    -0.316 OA
BRANCH   8   9
HETATM    9  C3  UNL     1     -31.733   7.403   3.435  1.00 20.00     0.255 C 
HETATM   10  C9  UNL     1     -32.111   7.962   2.097  1.00 20.00     0.126 C 
HETATM   11  O10 UNL     1     -30.904   7.908   4.180  1.00 20.00    -0.266 OA
ENDBRANCH   8   9
ENDBRANCH   7   8
TORSDOF 2
ENDMDL
