MODEL 1
REMARK VINA RESULT:      -4.3      0.000      0.000
REMARK  0 active torsions:
REMARK  status: ('A' for Active; 'I' for Inactive)
ROOT
HETATM    1  C1  UNL     1     -35.137   4.677   6.055  1.00 20.00     0.000 C 
HETATM    2  C2  UNL     1     -34.408   5.774   6.657  1.00 20.00     0.017 C 
HETATM    3  C3  UNL     1     -35.254   4.580   4.718  1.00 20.00     0.010 C 
HETATM    4  C4  UNL     1     -33.662   6.570   5.873  1.00 20.00     0.092 C 
HETATM    5  C5  UNL     1     -32.571   6.115   2.459  1.00 20.00     0.072 C 
HETATM    6  C6  UNL     1     -32.562   6.757   3.642  1.00 20.00     0.015 C 
HETATM    7  C7  UNL     1     -34.679   5.636   3.817  1.00 20.00     0.178 C 
HETATM    8  C8  UNL     1     -31.498   7.724   4.048  1.00 20.00     0.069 C 
HETATM    9  N9  UNL     1     -33.615   6.415   4.498  1.00 20.00    -0.343 N 
HETATM   10  S10 UNL     1     -33.886   4.977   2.303  1.00 20.00    -0.110 SA
ENDROOT
TORSDOF 0
ENDMDL
MODEL 2
REMARK VINA RESULT:      -4.1     12.301     13.578
REMARK  0 active torsions:
REMARK  status: ('A' for Active; 'I' for Inactive)
ROOT
HETATM    1  C1  UNL     1     -35.031  13.413  -4.581  1.00 20.00     0.000 C 
HETATM    2  C2  UNL     1     -34.838  13.969  -5.905  1.00 20.00     0.017 C 
HETATM    3  C3  UNL     1     -34.483  14.002  -3.502  1.00 20.00     0.010 C 
HETATM    4  C4  UNL     1     -34.298  15.192  -6.027  1.00 20.00     0.092 C 
HETATM    5  C5  UNL     1     -33.771  17.763  -3.544  1.00 20.00     0.072 C 
HETATM    6  C6  UNL     1     -33.791  17.310  -4.811  1.00 20.00     0.015 C 
HETATM    7  C7  UNL     1     -33.612  15.217  -3.648  1.00 20.00     0.178 C 
HETATM    8  C8  UNL     1     -33.786  18.206  -6.006  1.00 20.00     0.069 C 
HETATM    9  N9  UNL     1     -33.863  15.918  -4.931  1.00 20.00    -0.343 N 
HETATM   10  S10 UNL     1     -33.879  16.488  -2.356  1.00 20.00    -0.110 SA
ENDROOT
TORSDOF 0
ENDMDL
MODEL 3
REMARK VINA RESULT:      -4.1     12.746     14.012
REMARK  0 active torsions:
REMARK  status: ('A' for Active; 'I' for Inactive)
ROOT
HETATM    1  C1  UNL     1     -34.143  15.141  -2.853  1.00 20.00     0.000 C 
HETATM    2  C2  UNL     1     -34.441  13.979  -3.666  1.00 20.00     0.017 C 
HETATM    3  C3  UNL     1     -33.649  16.262  -3.410  1.00 20.00     0.010 C 
HETATM    4  C4  UNL     1     -34.432  14.099  -5.003  1.00 20.00     0.092 C 
HETATM    5  C5  UNL     1     -34.413  17.058  -7.075  1.00 20.00     0.072 C 
HETATM    6  C6  UNL     1     -34.517  15.730  -6.889  1.00 20.00     0.015 C 
HETATM    7  C7  UNL     1     -33.342  16.319  -4.879  1.00 20.00     0.178 C 
HETATM    8  C8  UNL     1     -35.085  14.796  -7.907  1.00 20.00     0.069 C 
HETATM    9  N9  UNL     1     -34.087  15.283  -5.635  1.00 20.00    -0.343 N 
HETATM   10  S10 UNL     1     -33.798  17.904  -5.677  1.00 20.00    -0.110 SA
ENDROOT
TORSDOF 0
ENDMDL
MODEL 4
REMARK VINA RESULT:      -4.1     12.361     13.383
REMARK  0 active torsions:
REMARK  status: ('A' for Active; 'I' for Inactive)
ROOT
HETATM    1  C1  UNL     1     -34.681  13.947  -5.812  1.00 20.00     0.000 C 
HETATM    2  C2  UNL     1     -35.178  13.541  -4.513  1.00 20.00     0.017 C 
HETATM    3  C3  UNL     1     -34.499  15.248  -6.103  1.00 20.00     0.010 C 
HETATM    4  C4  UNL     1     -35.248  14.450  -3.527  1.00 20.00     0.092 C 
HETATM    5  C5  UNL     1     -33.779  17.743  -3.290  1.00 20.00     0.072 C 
HETATM    6  C6  UNL     1     -34.433  16.685  -2.776  1.00 20.00     0.015 C 
HETATM    7  C7  UNL     1     -34.861  16.316  -5.109  1.00 20.00     0.178 C 
HETATM    8  C8  UNL     1     -34.600  16.452  -1.309  1.00 20.00     0.069 C 
HETATM    9  N9  UNL     1     -34.916  15.780  -3.727  1.00 20.00    -0.343 N 
HETATM   10  S10 UNL     1     -33.664  17.700  -5.032  1.00 20.00    -0.110 SA
ENDROOT
TORSDOF 0
ENDMDL
MODEL 5
REMARK VINA RESULT:      -4.1     12.669     13.828
REMARK  0 active torsions:
REMARK  status: ('A' for Active; 'I' for Inactive)
ROOT
HETATM    1  C1  UNL     1     -33.487  13.690  -3.879  1.00 20.00     0.000 C 
HETATM    2  C2  UNL     1     -33.101  15.028  -3.479  1.00 20.00     0.017 C 
HETATM    3  C3  UNL     1     -34.412  13.500  -4.838  1.00 20.00     0.010 C 
HETATM    4  C4  UNL     1     -33.506  16.073  -4.219  1.00 20.00     0.092 C 
HETATM    5  C5  UNL     1     -34.929  16.163  -7.538  1.00 20.00     0.072 C 
HETATM    6  C6  UNL     1     -34.404  16.748  -6.446  1.00 20.00     0.015 C 
HETATM    7  C7  UNL     1     -35.109  14.667  -5.477  1.00 20.00     0.178 C 
HETATM    8  C8  UNL     1     -33.890  18.150  -6.429  1.00 20.00     0.069 C 
HETATM    9  N9  UNL     1     -34.331  15.920  -5.321  1.00 20.00    -0.343 N 
HETATM   10  S10 UNL     1     -35.358  14.490  -7.284  1.00 20.00    -0.110 SA
ENDROOT
TORSDOF 0
ENDMDL
MODEL 6
REMARK VINA RESULT:      -4.0     12.645     13.935
REMARK  0 active torsions:
REMARK  status: ('A' for Active; 'I' for Inactive)
ROOT
HETATM    1  C1  UNL     1     -33.423  13.818  -3.707  1.00 20.00     0.000 C 
HETATM    2  C2  UNL     1     -34.299  13.304  -4.740  1.00 20.00     0.017 C 
HETATM    3  C3  UNL     1     -33.017  15.100  -3.725  1.00 20.00     0.010 C 
HETATM    4  C4  UNL     1     -34.881  14.165  -5.591  1.00 20.00     0.092 C 
HETATM    5  C5  UNL     1     -35.192  17.760  -5.413  1.00 20.00     0.072 C 
HETATM    6  C6  UNL     1     -35.476  16.560  -5.952  1.00 20.00     0.015 C 
HETATM    7  C7  UNL     1     -33.414  16.017  -4.847  1.00 20.00     0.178 C 
HETATM    8  C8  UNL     1     -36.632  16.321  -6.868  1.00 20.00     0.069 C 
HETATM    9  N9  UNL     1     -34.624  15.525  -5.552  1.00 20.00    -0.343 N 
HETATM   10  S10 UNL     1     -33.840  17.716  -4.309  1.00 20.00    -0.110 SA
ENDROOT
TORSDOF 0
ENDMDL
MODEL 7
REMARK VINA RESULT:      -4.0     12.038     13.016
REMARK  0 active torsions:
REMARK  status: ('A' for Active; 'I' for Inactive)
ROOT
HETATM    1  C1  UNL     1     -34.902  13.899  -5.719  1.00 20.00     0.000 C 
HETATM    2  C2  UNL     1     -34.186  13.558  -4.507  1.00 20.00     0.017 C 
HETATM    3  C3  UNL     1     -35.950  14.742  -5.684  1.00 20.00     0.010 C 
HETATM    4  C4  UNL     1     -34.431  14.255  -3.385  1.00 20.00     0.092 C 
HETATM    5  C5  UNL     1     -36.172  17.387  -2.925  1.00 20.00     0.072 C 
HETATM    6  C6  UNL     1     -35.408  16.368  -2.490  1.00 20.00     0.015 C 
HETATM    7  C7  UNL     1     -36.440  15.306  -4.380  1.00 20.00     0.178 C 
HETATM    8  C8  UNL     1     -34.597  16.423  -1.236  1.00 20.00     0.069 C 
HETATM    9  N9  UNL     1     -35.391  15.252  -3.333  1.00 20.00    -0.343 N 
HETATM   10  S10 UNL     1     -36.929  17.070  -4.466  1.00 20.00    -0.110 SA
ENDROOT
TORSDOF 0
ENDMDL
MODEL 8
REMARK VINA RESULT:      -3.9     12.235     13.465
REMARK  0 active torsions:
REMARK  status: ('A' for Active; 'I' for Inactive)
ROOT
HETATM    1  C1  UNL     1     -33.984  16.703  -2.065  1.00 20.00     0.000 C 
HETATM    2  C2  UNL     1     -33.861  17.711  -3.099  1.00 20.00     0.017 C 
HETATM    3  C3  UNL     1     -34.660  15.563  -2.294  1.00 20.00     0.010 C 
HETATM    4  C4  UNL     1     -34.233  17.408  -4.353  1.00 20.00     0.092 C 
HETATM    5  C5  UNL     1     -34.942  14.203  -5.862  1.00 20.00     0.072 C 
HETATM    6  C6  UNL     1     -34.731  15.531  -5.918  1.00 20.00     0.015 C 
HETATM    7  C7  UNL     1     -35.352  15.329  -3.608  1.00 20.00     0.178 C 
HETATM    8  C8  UNL     1     -34.412  16.262  -7.182  1.00 20.00     0.069 C 
HETATM    9  N9  UNL     1     -34.788  16.183  -4.682  1.00 20.00    -0.343 N 
HETATM   10  S10 UNL     1     -35.200  13.616  -4.238  1.00 20.00    -0.110 SA
ENDROOT
TORSDOF 0
ENDMDL
MODEL 9
REMARK VINA RESULT:      -3.9     12.397     13.772
REMARK  0 active torsions:
REMARK  status: ('A' for Active; 'I' for Inactive)
ROOT
HETATM    1  C1  UNL     1     -33.829  18.176  -3.392  1.00 20.00     0.000 C 
HETATM    2  C2  UNL     1     -33.874  17.061  -2.468  1.00 20.00     0.017 C 
HETATM    3  C3  UNL     1     -33.647  17.971  -4.709  1.00 20.00     0.010 C 
HETATM    4  C4  UNL     1     -33.956  15.812  -2.956  1.00 20.00     0.092 C 
HETATM    5  C5  UNL     1     -34.750  14.663  -6.288  1.00 20.00     0.072 C 
HETATM    6  C6  UNL     1     -34.520  14.464  -4.977  1.00 20.00     0.015 C 
HETATM    7  C7  UNL     1     -33.431  16.586  -5.249  1.00 20.00     0.178 C 
HETATM    8  C8  UNL     1     -34.892  13.209  -4.257  1.00 20.00     0.069 C 
HETATM    9  N9  UNL     1     -33.938  15.550  -4.316  1.00 20.00    -0.343 N 
HETATM   10  S10 UNL     1     -34.293  16.258  -6.832  1.00 20.00    -0.110 SA
ENDROOT
TORSDOF 0
ENDMDL
