MODEL 1
REMARK VINA RESULT:      -3.7      0.000      0.000
REMARK  0 active torsions:
REMARK  status: ('A' for Active; 'I' for Inactive)
ROOT
HETATM    1  C1  UNL     1     -33.767  15.996  -5.022  1.00 20.00     0.038 A 
HETATM    2  C2  UNL     1     -34.539  15.318  -2.847  1.00 20.00     0.058 A 
HETATM    3  C3  UNL     1     -33.514  17.246  -4.482  1.00 20.00     0.119 A 
HETATM    4  C4  UNL     1     -34.290  15.020  -4.181  1.00 20.00     0.015 A 
HETATM    5  C5  UNL     1     -34.250  16.599  -2.405  1.00 20.00     0.104 A 
HETATM    6  N6  UNL     1     -33.742  17.575  -3.191  1.00 20.00    -0.254 NA
HETATM    7 BR7  UNL     1     -34.659  13.292  -4.851  1.00 20.00    -0.051 Br
HETATM    8 BR8  UNL     1     -34.580  17.031  -0.585  1.00 20.00    -0.029 Br
ENDROOT
TORSDOF 0
ENDMDL
MODEL 2
REMARK VINA RESULT:      -3.7      0.984      3.305
REMARK  0 active torsions:
REMARK  status: ('A' for Active; 'I' for Inactive)
ROOT
HETATM    1  C1  UNL     1     -33.786  17.560  -3.206  1.00 20.00     0.038 A 
HETATM    2  C2  UNL     1     -34.563  15.318  -2.812  1.00 20.00     0.058 A 
HETATM    3  C3  UNL     1     -33.560  17.192  -4.522  1.00 20.00     0.119 A 
HETATM    4  C4  UNL     1     -34.296  16.598  -2.341  1.00 20.00     0.015 A 
HETATM    5  C5  UNL     1     -34.304  15.052  -4.147  1.00 20.00     0.104 A 
HETATM    6  N6  UNL     1     -33.807  15.959  -5.017  1.00 20.00    -0.254 NA
HETATM    7 BR7  UNL     1     -34.628  17.031  -0.532  1.00 20.00    -0.051 Br
HETATM    8 BR8  UNL     1     -34.662  13.309  -4.814  1.00 20.00    -0.029 Br
ENDROOT
TORSDOF 0
ENDMDL
MODEL 3
REMARK VINA RESULT:      -3.6      2.709      3.837
REMARK  0 active torsions:
REMARK  status: ('A' for Active; 'I' for Inactive)
ROOT
HETATM    1  C1  UNL     1     -34.116  14.487  -3.316  1.00 20.00     0.038 A 
HETATM    2  C2  UNL     1     -36.186  15.682  -3.038  1.00 20.00     0.058 A 
HETATM    3  C3  UNL     1     -34.817  13.557  -4.065  1.00 20.00     0.119 A 
HETATM    4  C4  UNL     1     -34.822  15.567  -2.795  1.00 20.00     0.015 A 
HETATM    5  C5  UNL     1     -36.793  14.698  -3.801  1.00 20.00     0.104 A 
HETATM    6  N6  UNL     1     -36.142  13.634  -4.323  1.00 20.00    -0.254 NA
HETATM    7 BR7  UNL     1     -33.928  16.874  -1.764  1.00 20.00    -0.051 Br
HETATM    8 BR8  UNL     1     -38.656  14.834  -4.147  1.00 20.00    -0.029 Br
ENDROOT
TORSDOF 0
ENDMDL
MODEL 4
REMARK VINA RESULT:      -3.6      2.380      3.957
REMARK  0 active torsions:
REMARK  status: ('A' for Active; 'I' for Inactive)
ROOT
HETATM    1  C1  UNL     1     -34.438  14.028  -3.441  1.00 20.00     0.038 A 
HETATM    2  C2  UNL     1     -34.669  16.137  -4.574  1.00 20.00     0.058 A 
HETATM    3  C3  UNL     1     -34.441  13.420  -4.685  1.00 20.00     0.119 A 
HETATM    4  C4  UNL     1     -34.555  15.412  -3.393  1.00 20.00     0.015 A 
HETATM    5  C5  UNL     1     -34.661  15.434  -5.768  1.00 20.00     0.104 A 
HETATM    6  N6  UNL     1     -34.549  14.089  -5.855  1.00 20.00    -0.254 NA
HETATM    7 BR7  UNL     1     -34.558  16.306  -1.728  1.00 20.00    -0.051 Br
HETATM    8 BR8  UNL     1     -34.814  16.402  -7.395  1.00 20.00    -0.029 Br
ENDROOT
TORSDOF 0
ENDMDL
MODEL 5
REMARK VINA RESULT:      -3.5     12.437     13.560
REMARK  0 active torsions:
REMARK  status: ('A' for Active; 'I' for Inactive)
ROOT
HETATM    1  C1  UNL     1     -41.368   6.756  -1.177  1.00 20.00     0.038 A 
HETATM    2  C2  UNL     1     -42.488   5.356  -2.780  1.00 20.00     0.058 A 
HETATM    3  C3  UNL     1     -40.701   5.626  -0.736  1.00 20.00     0.119 A 
HETATM    4  C4  UNL     1     -42.278   6.610  -2.218  1.00 20.00     0.015 A 
HETATM    5  C5  UNL     1     -41.769   4.288  -2.268  1.00 20.00     0.104 A 
HETATM    6  N6  UNL     1     -40.878   4.391  -1.257  1.00 20.00    -0.254 NA
HETATM    7 BR7  UNL     1     -43.223   8.111  -2.868  1.00 20.00    -0.051 Br
HETATM    8 BR8  UNL     1     -42.038   2.565  -3.021  1.00 20.00    -0.029 Br
ENDROOT
TORSDOF 0
ENDMDL
MODEL 6
REMARK VINA RESULT:      -3.5     12.502     13.283
REMARK  0 active torsions:
REMARK  status: ('A' for Active; 'I' for Inactive)
ROOT
HETATM    1  C1  UNL     1     -40.853   4.455  -1.191  1.00 20.00     0.038 A 
HETATM    2  C2  UNL     1     -42.471   5.352  -2.728  1.00 20.00     0.058 A 
HETATM    3  C3  UNL     1     -40.741   5.725  -0.652  1.00 20.00     0.119 A 
HETATM    4  C4  UNL     1     -41.737   4.273  -2.249  1.00 20.00     0.015 A 
HETATM    5  C5  UNL     1     -42.286   6.583  -2.119  1.00 20.00     0.104 A 
HETATM    6  N6  UNL     1     -41.437   6.798  -1.090  1.00 20.00    -0.254 NA
HETATM    7 BR7  UNL     1     -41.940   2.566  -3.032  1.00 20.00    -0.051 Br
HETATM    8 BR8  UNL     1     -43.279   8.072  -2.756  1.00 20.00    -0.029 Br
ENDROOT
TORSDOF 0
ENDMDL
MODEL 7
REMARK VINA RESULT:      -3.4      2.316      2.845
REMARK  0 active torsions:
REMARK  status: ('A' for Active; 'I' for Inactive)
ROOT
HETATM    1  C1  UNL     1     -34.792  13.913  -5.825  1.00 20.00     0.038 A 
HETATM    2  C2  UNL     1     -34.742  16.026  -4.677  1.00 20.00     0.058 A 
HETATM    3  C3  UNL     1     -34.691  13.300  -4.587  1.00 20.00     0.119 A 
HETATM    4  C4  UNL     1     -34.817  15.302  -5.862  1.00 20.00     0.015 A 
HETATM    5  C5  UNL     1     -34.643  15.317  -3.491  1.00 20.00     0.104 A 
HETATM    6  N6  UNL     1     -34.616  13.968  -3.415  1.00 20.00    -0.254 NA
HETATM    7 BR7  UNL     1     -34.954  16.204  -7.517  1.00 20.00    -0.051 Br
HETATM    8 BR8  UNL     1     -34.541  16.285  -1.859  1.00 20.00    -0.029 Br
ENDROOT
TORSDOF 0
ENDMDL
MODEL 8
REMARK VINA RESULT:      -3.4      2.296      2.672
REMARK  0 active torsions:
REMARK  status: ('A' for Active; 'I' for Inactive)
ROOT
HETATM    1  C1  UNL     1     -35.752  13.804  -4.268  1.00 20.00     0.038 A 
HETATM    2  C2  UNL     1     -36.021  15.776  -2.919  1.00 20.00     0.058 A 
HETATM    3  C3  UNL     1     -34.405  13.833  -3.946  1.00 20.00     0.119 A 
HETATM    4  C4  UNL     1     -36.568  14.798  -3.741  1.00 20.00     0.015 A 
HETATM    5  C5  UNL     1     -34.662  15.716  -2.656  1.00 20.00     0.104 A 
HETATM    6  N6  UNL     1     -33.837  14.766  -3.151  1.00 20.00    -0.254 NA
HETATM    7 BR7  UNL     1     -38.415  14.818  -4.140  1.00 20.00    -0.051 Br
HETATM    8 BR8  UNL     1     -33.892  17.041  -1.534  1.00 20.00    -0.029 Br
ENDROOT
TORSDOF 0
ENDMDL
MODEL 9
REMARK VINA RESULT:      -3.4     13.271     14.377
REMARK  0 active torsions:
REMARK  status: ('A' for Active; 'I' for Inactive)
ROOT
HETATM    1  C1  UNL     1     -42.680   6.186  -2.126  1.00 20.00     0.038 A 
HETATM    2  C2  UNL     1     -41.492   4.108  -1.885  1.00 20.00     0.058 A 
HETATM    3  C3  UNL     1     -43.416   5.585  -3.133  1.00 20.00     0.119 A 
HETATM    4  C4  UNL     1     -41.700   5.426  -1.496  1.00 20.00     0.015 A 
HETATM    5  C5  UNL     1     -42.283   3.600  -2.903  1.00 20.00     0.104 A 
HETATM    6  N6  UNL     1     -43.243   4.307  -3.539  1.00 20.00    -0.254 NA
HETATM    7 BR7  UNL     1     -40.658   6.183  -0.114  1.00 20.00    -0.051 Br
HETATM    8 BR8  UNL     1     -42.017   1.801  -3.451  1.00 20.00    -0.029 Br
ENDROOT
TORSDOF 0
ENDMDL
