MODEL 1
REMARK VINA RESULT:      -3.2      0.000      0.000
REMARK  0 active torsions:
REMARK  status: ('A' for Active; 'I' for Inactive)
ROOT
HETATM    1  C1  UNL     1     -34.863   5.553   3.126  1.00 20.00     0.197 C 
HETATM    2  C2  UNL     1     -33.438   5.997   3.311  1.00 20.00     0.197 C 
HETATM    3  C3  UNL     1     -34.298   5.373   5.313  1.00 20.00     0.156 C 
HETATM    4  C4  UNL     1     -34.447   3.980   5.912  1.00 20.00     0.078 C 
HETATM    5  C5  UNL     1     -34.265   6.441   6.399  1.00 20.00     0.078 C 
HETATM    6  O6  UNL     1     -35.408   5.637   4.442  1.00 20.00    -0.354 OA
HETATM    7  O7  UNL     1     -33.073   5.420   4.564  1.00 20.00    -0.354 OA
ENDROOT
TORSDOF 0
ENDMDL
MODEL 2
REMARK VINA RESULT:      -3.2      0.095      2.009
REMARK  0 active torsions:
REMARK  status: ('A' for Active; 'I' for Inactive)
ROOT
HETATM    1  C1  UNL     1     -33.351   6.053   3.333  1.00 20.00     0.197 C 
HETATM    2  C2  UNL     1     -34.781   5.656   3.083  1.00 20.00     0.197 C 
HETATM    3  C3  UNL     1     -34.309   5.422   5.288  1.00 20.00     0.156 C 
HETATM    4  C4  UNL     1     -34.288   6.472   6.393  1.00 20.00     0.078 C 
HETATM    5  C5  UNL     1     -34.526   4.025   5.857  1.00 20.00     0.078 C 
HETATM    6  O6  UNL     1     -33.055   5.443   4.589  1.00 20.00    -0.354 OA
HETATM    7  O7  UNL     1     -35.376   5.735   4.378  1.00 20.00    -0.354 OA
ENDROOT
TORSDOF 0
ENDMDL
MODEL 3
REMARK VINA RESULT:      -3.2     11.982     12.797
REMARK  0 active torsions:
REMARK  status: ('A' for Active; 'I' for Inactive)
ROOT
HETATM    1  C1  UNL     1     -36.269  14.349  -4.227  1.00 20.00     0.197 C 
HETATM    2  C2  UNL     1     -35.127  13.370  -4.224  1.00 20.00     0.197 C 
HETATM    3  C3  UNL     1     -34.404  15.373  -3.445  1.00 20.00     0.156 C 
HETATM    4  C4  UNL     1     -34.526  15.971  -2.049  1.00 20.00     0.078 C 
HETATM    5  C5  UNL     1     -33.241  15.990  -4.212  1.00 20.00     0.078 C 
HETATM    6  O6  UNL     1     -35.617  15.617  -4.174  1.00 20.00    -0.354 OA
HETATM    7  O7  UNL     1     -34.191  13.957  -3.320  1.00 20.00    -0.354 OA
ENDROOT
TORSDOF 0
ENDMDL
MODEL 4
REMARK VINA RESULT:      -3.2     11.980     12.842
REMARK  0 active torsions:
REMARK  status: ('A' for Active; 'I' for Inactive)
ROOT
HETATM    1  C1  UNL     1     -35.138  13.373  -4.217  1.00 20.00     0.197 C 
HETATM    2  C2  UNL     1     -36.277  14.355  -4.218  1.00 20.00     0.197 C 
HETATM    3  C3  UNL     1     -34.407  15.373  -3.441  1.00 20.00     0.156 C 
HETATM    4  C4  UNL     1     -33.245  15.986  -4.212  1.00 20.00     0.078 C 
HETATM    5  C5  UNL     1     -34.523  15.975  -2.046  1.00 20.00     0.078 C 
HETATM    6  O6  UNL     1     -34.199  13.958  -3.315  1.00 20.00    -0.354 OA
HETATM    7  O7  UNL     1     -35.621  15.622  -4.167  1.00 20.00    -0.354 OA
ENDROOT
TORSDOF 0
ENDMDL
MODEL 5
REMARK VINA RESULT:      -3.2      1.097      2.699
REMARK  0 active torsions:
REMARK  status: ('A' for Active; 'I' for Inactive)
ROOT
HETATM    1  C1  UNL     1     -34.509   4.967   6.342  1.00 20.00     0.197 C 
HETATM    2  C2  UNL     1     -34.061   6.400   6.424  1.00 20.00     0.197 C 
HETATM    3  C3  UNL     1     -34.156   5.765   4.250  1.00 20.00     0.156 C 
HETATM    4  C4  UNL     1     -35.355   5.690   3.313  1.00 20.00     0.078 C 
HETATM    5  C5  UNL     1     -32.853   5.907   3.472  1.00 20.00     0.078 C 
HETATM    6  O6  UNL     1     -34.092   4.565   5.037  1.00 20.00    -0.354 OA
HETATM    7  O7  UNL     1     -34.319   6.902   5.113  1.00 20.00    -0.354 OA
ENDROOT
TORSDOF 0
ENDMDL
MODEL 6
REMARK VINA RESULT:      -3.2      1.100      2.769
REMARK  0 active torsions:
REMARK  status: ('A' for Active; 'I' for Inactive)
ROOT
HETATM    1  C1  UNL     1     -34.053   6.412   6.428  1.00 20.00     0.197 C 
HETATM    2  C2  UNL     1     -34.503   4.978   6.358  1.00 20.00     0.197 C 
HETATM    3  C3  UNL     1     -34.163   5.765   4.259  1.00 20.00     0.156 C 
HETATM    4  C4  UNL     1     -32.865   5.899   3.472  1.00 20.00     0.078 C 
HETATM    5  C5  UNL     1     -35.368   5.685   3.329  1.00 20.00     0.078 C 
HETATM    6  O6  UNL     1     -34.319   6.906   5.116  1.00 20.00    -0.354 OA
HETATM    7  O7  UNL     1     -34.096   4.569   5.052  1.00 20.00    -0.354 OA
ENDROOT
TORSDOF 0
ENDMDL
MODEL 7
REMARK VINA RESULT:      -3.1     12.627     13.657
REMARK  0 active torsions:
REMARK  status: ('A' for Active; 'I' for Inactive)
ROOT
HETATM    1  C1  UNL     1     -33.355  16.773  -5.306  1.00 20.00     0.197 C 
HETATM    2  C2  UNL     1     -34.359  15.888  -5.993  1.00 20.00     0.197 C 
HETATM    3  C3  UNL     1     -33.989  15.119  -3.892  1.00 20.00     0.156 C 
HETATM    4  C4  UNL     1     -34.586  15.585  -2.570  1.00 20.00     0.078 C 
HETATM    5  C5  UNL     1     -33.501  13.679  -3.802  1.00 20.00     0.078 C 
HETATM    6  O6  UNL     1     -32.877  15.961  -4.235  1.00 20.00    -0.354 OA
HETATM    7  O7  UNL     1     -35.000  15.214  -4.910  1.00 20.00    -0.354 OA
ENDROOT
TORSDOF 0
ENDMDL
MODEL 8
REMARK VINA RESULT:      -3.1      9.154     10.187
REMARK  0 active torsions:
REMARK  status: ('A' for Active; 'I' for Inactive)
ROOT
HETATM    1  C1  UNL     1     -42.053   7.132  -2.735  1.00 20.00     0.197 C 
HETATM    2  C2  UNL     1     -42.909   5.945  -3.080  1.00 20.00     0.197 C 
HETATM    3  C3  UNL     1     -41.644   5.458  -1.262  1.00 20.00     0.156 C 
HETATM    4  C4  UNL     1     -41.877   5.807   0.203  1.00 20.00     0.078 C 
HETATM    5  C5  UNL     1     -40.740   4.239  -1.404  1.00 20.00     0.078 C 
HETATM    6  O6  UNL     1     -41.022   6.571  -1.923  1.00 20.00    -0.354 OA
HETATM    7  O7  UNL     1     -42.914   5.180  -1.875  1.00 20.00    -0.354 OA
ENDROOT
TORSDOF 0
ENDMDL
MODEL 9
REMARK VINA RESULT:      -3.1     12.622     13.532
REMARK  0 active torsions:
REMARK  status: ('A' for Active; 'I' for Inactive)
ROOT
HETATM    1  C1  UNL     1     -34.247  15.834  -6.051  1.00 20.00     0.197 C 
HETATM    2  C2  UNL     1     -33.328  16.758  -5.301  1.00 20.00     0.197 C 
HETATM    3  C3  UNL     1     -34.004  15.088  -3.924  1.00 20.00     0.156 C 
HETATM    4  C4  UNL     1     -33.470  13.667  -3.789  1.00 20.00     0.078 C 
HETATM    5  C5  UNL     1     -34.710  15.538  -2.651  1.00 20.00     0.078 C 
HETATM    6  O6  UNL     1     -34.940  15.143  -5.012  1.00 20.00    -0.354 OA
HETATM    7  O7  UNL     1     -32.900  15.969  -4.191  1.00 20.00    -0.354 OA
ENDROOT
TORSDOF 0
ENDMDL
