MODEL 1
REMARK VINA RESULT:      -4.7      0.000      0.000
REMARK  1 active torsions:
REMARK  status: ('A' for Active; 'I' for Inactive)
REMARK    1  A    between atoms: C9_9  and  C10_10 
ROOT
HETATM    1  C1  UNL     1     -33.732  18.178  -2.800  1.00 20.00     0.015 C 
HETATM    2  C2  UNL     1     -34.729  16.274  -1.435  1.00 20.00     0.015 C 
HETATM    3  C5  UNL     1     -33.707  19.145  -1.623  1.00 20.00     0.074 C 
HETATM    4  C6  UNL     1     -34.784  17.088  -0.148  1.00 20.00     0.074 C 
HETATM    5  C9  UNL     1     -33.598  16.707  -2.379  1.00 20.00    -0.009 C 
HETATM    6  S11 UNL     1     -35.080  18.848  -0.474  1.00 20.00    -0.169 SA
ENDROOT
BRANCH   5   7
HETATM    7  C10 UNL     1     -33.570  15.806  -3.615  1.00 20.00    -0.009 C 
HETATM    8  C3  UNL     1     -34.366  14.520  -3.349  1.00 20.00     0.015 C 
HETATM    9  C7  UNL     1     -34.336  13.542  -4.516  1.00 20.00     0.074 C 
HETATM   10  S12 UNL     1     -35.066  14.256  -6.015  1.00 20.00    -0.169 SA
HETATM   11  C8  UNL     1     -34.053  15.756  -6.124  1.00 20.00     0.074 C 
HETATM   12  C4  UNL     1     -34.103  16.570  -4.836  1.00 20.00     0.015 C 
ENDBRANCH   5   7
TORSDOF 1
ENDMDL
MODEL 2
REMARK VINA RESULT:      -4.7      0.050      5.139
REMARK  1 active torsions:
REMARK  status: ('A' for Active; 'I' for Inactive)
REMARK    1  A    between atoms: C9_9  and  C10_10 
ROOT
HETATM    1  C1  UNL     1     -34.416  14.508  -3.379  1.00 20.00     0.015 C 
HETATM    2  C2  UNL     1     -34.087  16.543  -4.876  1.00 20.00     0.015 C 
HETATM    3  C5  UNL     1     -34.399  13.523  -4.541  1.00 20.00     0.074 C 
HETATM    4  C6  UNL     1     -34.045  15.721  -6.158  1.00 20.00     0.074 C 
HETATM    5  C9  UNL     1     -33.586  15.773  -3.645  1.00 20.00    -0.009 C 
HETATM    6  S11 UNL     1     -35.097  14.247  -6.051  1.00 20.00    -0.169 SA
ENDROOT
BRANCH   5   7
HETATM    7  C10 UNL     1     -33.602  16.682  -2.414  1.00 20.00    -0.009 C 
HETATM    8  C3  UNL     1     -33.737  18.150  -2.844  1.00 20.00     0.015 C 
HETATM    9  C7  UNL     1     -33.701  19.125  -1.674  1.00 20.00     0.074 C 
HETATM   10  S12 UNL     1     -35.066  18.839  -0.514  1.00 20.00    -0.169 SA
HETATM   11  C8  UNL     1     -34.773  17.080  -0.178  1.00 20.00     0.074 C 
HETATM   12  C4  UNL     1     -34.728  16.257  -1.460  1.00 20.00     0.015 C 
ENDBRANCH   5   7
TORSDOF 1
ENDMDL
MODEL 3
REMARK VINA RESULT:      -4.7      1.403      2.226
REMARK  1 active torsions:
REMARK  status: ('A' for Active; 'I' for Inactive)
REMARK    1  A    between atoms: C9_9  and  C10_10 
ROOT
HETATM    1  C1  UNL     1     -34.615  16.876  -0.384  1.00 20.00     0.015 C 
HETATM    2  C2  UNL     1     -33.680  17.805  -2.564  1.00 20.00     0.015 C 
HETATM    3  C5  UNL     1     -34.587  18.226   0.322  1.00 20.00     0.074 C 
HETATM    4  C6  UNL     1     -33.577  19.230  -2.032  1.00 20.00     0.074 C 
HETATM    5  C9  UNL     1     -34.804  16.992  -1.905  1.00 20.00    -0.009 C 
HETATM    6  S11 UNL     1     -33.215  19.263  -0.254  1.00 20.00    -0.169 SA
ENDROOT
BRANCH   5   7
HETATM    7  C10 UNL     1     -34.882  15.599  -2.533  1.00 20.00    -0.009 C 
HETATM    8  C3  UNL     1     -36.083  15.517  -3.486  1.00 20.00     0.015 C 
HETATM    9  C7  UNL     1     -36.264  14.138  -4.108  1.00 20.00     0.074 C 
HETATM   10  S12 UNL     1     -34.828  13.651  -5.103  1.00 20.00    -0.169 SA
HETATM   11  C8  UNL     1     -33.540  13.866  -3.844  1.00 20.00     0.074 C 
HETATM   12  C4  UNL     1     -33.562  15.265  -3.241  1.00 20.00     0.015 C 
ENDBRANCH   5   7
TORSDOF 1
ENDMDL
MODEL 4
REMARK VINA RESULT:      -4.5      1.424      5.312
REMARK  1 active torsions:
REMARK  status: ('A' for Active; 'I' for Inactive)
REMARK    1  A    between atoms: C9_9  and  C10_10 
ROOT
HETATM    1  C1  UNL     1     -34.701  15.527  -2.361  1.00 20.00     0.015 C 
HETATM    2  C2  UNL     1     -33.690  17.441  -3.703  1.00 20.00     0.015 C 
HETATM    3  C5  UNL     1     -34.386  14.480  -3.422  1.00 20.00     0.074 C 
HETATM    4  C6  UNL     1     -33.293  16.548  -4.872  1.00 20.00     0.074 C 
HETATM    5  C9  UNL     1     -33.712  16.703  -2.356  1.00 20.00    -0.009 C 
HETATM    6  S11 UNL     1     -34.456  15.173  -5.097  1.00 20.00    -0.169 SA
ENDROOT
BRANCH   5   7
HETATM    7  C10 UNL     1     -34.058  17.677  -1.229  1.00 20.00    -0.009 C 
HETATM    8  C3  UNL     1     -34.952  16.985  -0.189  1.00 20.00     0.015 C 
HETATM    9  C7  UNL     1     -35.390  17.911   0.939  1.00 20.00     0.074 C 
HETATM   10  S12 UNL     1     -33.974  18.553   1.874  1.00 20.00    -0.169 SA
HETATM   11  C8  UNL     1     -33.036  19.262   0.494  1.00 20.00     0.074 C 
HETATM   12  C4  UNL     1     -32.773  18.237  -0.601  1.00 20.00     0.015 C 
ENDBRANCH   5   7
TORSDOF 1
ENDMDL
MODEL 5
REMARK VINA RESULT:      -4.5      1.356      5.034
REMARK  1 active torsions:
REMARK  status: ('A' for Active; 'I' for Inactive)
REMARK    1  A    between atoms: C9_9  and  C10_10 
ROOT
HETATM    1  C1  UNL     1     -36.141  15.669  -3.322  1.00 20.00     0.015 C 
HETATM    2  C2  UNL     1     -33.603  15.466  -3.248  1.00 20.00     0.015 C 
HETATM    3  C5  UNL     1     -36.333  14.306  -3.974  1.00 20.00     0.074 C 
HETATM    4  C6  UNL     1     -33.592  14.086  -3.894  1.00 20.00     0.074 C 
HETATM    5  C9  UNL     1     -34.881  15.750  -2.446  1.00 20.00    -0.009 C 
HETATM    6  S11 UNL     1     -34.955  13.881  -5.074  1.00 20.00    -0.169 SA
ENDROOT
BRANCH   5   7
HETATM    7  C10 UNL     1     -34.790  17.125  -1.781  1.00 20.00    -0.009 C 
HETATM    8  C3  UNL     1     -34.859  16.978  -0.254  1.00 20.00     0.015 C 
HETATM    9  C7  UNL     1     -34.834  18.313   0.480  1.00 20.00     0.074 C 
HETATM   10  S12 UNL     1     -33.306  19.234   0.156  1.00 20.00    -0.169 SA
HETATM   11  C8  UNL     1     -33.377  19.250  -1.657  1.00 20.00     0.074 C 
HETATM   12  C4  UNL     1     -33.512  17.846  -2.232  1.00 20.00     0.015 C 
ENDBRANCH   5   7
TORSDOF 1
ENDMDL
MODEL 6
REMARK VINA RESULT:      -4.5      1.464      2.310
REMARK  1 active torsions:
REMARK  status: ('A' for Active; 'I' for Inactive)
REMARK    1  A    between atoms: C9_9  and  C10_10 
ROOT
HETATM    1  C1  UNL     1     -34.876  17.008  -0.100  1.00 20.00     0.015 C 
HETATM    2  C2  UNL     1     -32.700  18.254  -0.546  1.00 20.00     0.015 C 
HETATM    3  C5  UNL     1     -35.280  17.917   1.054  1.00 20.00     0.074 C 
HETATM    4  C6  UNL     1     -32.929  19.263   0.573  1.00 20.00     0.074 C 
HETATM    5  C9  UNL     1     -34.004  17.713  -1.150  1.00 20.00    -0.009 C 
HETATM    6  S11 UNL     1     -33.838  18.534   1.965  1.00 20.00    -0.169 SA
ENDROOT
BRANCH   5   7
HETATM    7  C10 UNL     1     -33.692  16.757  -2.303  1.00 20.00    -0.009 C 
HETATM    8  C3  UNL     1     -34.700  15.598  -2.316  1.00 20.00     0.015 C 
HETATM    9  C7  UNL     1     -34.419  14.568  -3.402  1.00 20.00     0.074 C 
HETATM   10  S12 UNL     1     -34.503  15.296  -5.062  1.00 20.00    -0.169 SA
HETATM   11  C8  UNL     1     -33.315  16.646  -4.828  1.00 20.00     0.074 C 
HETATM   12  C4  UNL     1     -33.678  17.522  -3.634  1.00 20.00     0.015 C 
ENDBRANCH   5   7
TORSDOF 1
ENDMDL
MODEL 7
REMARK VINA RESULT:      -4.4      1.631      1.970
REMARK  1 active torsions:
REMARK  status: ('A' for Active; 'I' for Inactive)
REMARK    1  A    between atoms: C9_9  and  C10_10 
ROOT
HETATM    1  C1  UNL     1     -36.290  17.665  -2.100  1.00 20.00     0.015 C 
HETATM    2  C2  UNL     1     -34.638  16.883  -0.326  1.00 20.00     0.015 C 
HETATM    3  C5  UNL     1     -36.394  19.073  -1.529  1.00 20.00     0.074 C 
HETATM    4  C6  UNL     1     -34.609  18.229   0.387  1.00 20.00     0.074 C 
HETATM    5  C9  UNL     1     -34.932  17.000  -1.829  1.00 20.00    -0.009 C 
HETATM    6  S11 UNL     1     -36.204  19.088   0.275  1.00 20.00    -0.169 SA
ENDROOT
BRANCH   5   7
HETATM    7  C10 UNL     1     -34.884  15.617  -2.482  1.00 20.00    -0.009 C 
HETATM    8  C3  UNL     1     -36.077  15.441  -3.433  1.00 20.00     0.015 C 
HETATM    9  C7  UNL     1     -36.132  14.062  -4.079  1.00 20.00     0.074 C 
HETATM   10  S12 UNL     1     -34.662  13.730  -5.089  1.00 20.00    -0.169 SA
HETATM   11  C8  UNL     1     -33.392  14.041  -3.831  1.00 20.00     0.074 C 
HETATM   12  C4  UNL     1     -33.541  15.420  -3.202  1.00 20.00     0.015 C 
ENDBRANCH   5   7
TORSDOF 1
ENDMDL
MODEL 8
REMARK VINA RESULT:      -4.4      1.531      5.226
REMARK  1 active torsions:
REMARK  status: ('A' for Active; 'I' for Inactive)
REMARK    1  A    between atoms: C9_9  and  C10_10 
ROOT
HETATM    1  C1  UNL     1     -36.111  15.449  -3.423  1.00 20.00     0.015 C 
HETATM    2  C2  UNL     1     -33.583  15.166  -3.305  1.00 20.00     0.015 C 
HETATM    3  C5  UNL     1     -36.339  14.076  -4.042  1.00 20.00     0.074 C 
HETATM    4  C6  UNL     1     -33.607  13.770  -3.915  1.00 20.00     0.074 C 
HETATM    5  C9  UNL     1     -34.862  15.512  -2.530  1.00 20.00    -0.009 C 
HETATM    6  S11 UNL     1     -34.959  13.578  -5.110  1.00 20.00    -0.169 SA
ENDROOT
BRANCH   5   7
HETATM    7  C10 UNL     1     -34.736  16.899  -1.899  1.00 20.00    -0.009 C 
HETATM    8  C3  UNL     1     -35.905  17.791  -2.345  1.00 20.00     0.015 C 
HETATM    9  C7  UNL     1     -35.817  19.212  -1.804  1.00 20.00     0.074 C 
HETATM   10  S12 UNL     1     -35.852  19.249   0.009  1.00 20.00    -0.169 SA
HETATM   11  C8  UNL     1     -34.469  18.119   0.330  1.00 20.00     0.074 C 
HETATM   12  C4  UNL     1     -34.656  16.779  -0.370  1.00 20.00     0.015 C 
ENDBRANCH   5   7
TORSDOF 1
ENDMDL
MODEL 9
REMARK VINA RESULT:      -4.3      2.133      3.264
REMARK  1 active torsions:
REMARK  status: ('A' for Active; 'I' for Inactive)
REMARK    1  A    between atoms: C9_9  and  C10_10 
ROOT
HETATM    1  C1  UNL     1     -35.104  17.389   0.740  1.00 20.00     0.015 C 
HETATM    2  C2  UNL     1     -32.820  18.514   0.687  1.00 20.00     0.015 C 
HETATM    3  C5  UNL     1     -35.512  18.048   2.052  1.00 20.00     0.074 C 
HETATM    4  C6  UNL     1     -33.044  19.263   1.995  1.00 20.00     0.074 C 
HETATM    5  C9  UNL     1     -34.119  18.234  -0.082  1.00 20.00    -0.009 C 
HETATM    6  S11 UNL     1     -34.088  18.322   3.142  1.00 20.00    -0.169 SA
ENDROOT
BRANCH   5   7
HETATM    7  C10 UNL     1     -33.806  17.537  -1.407  1.00 20.00    -0.009 C 
HETATM    8  C3  UNL     1     -34.650  16.261  -1.544  1.00 20.00     0.015 C 
HETATM    9  C7  UNL     1     -34.350  15.476  -2.815  1.00 20.00     0.074 C 
HETATM   10  S12 UNL     1     -34.702  16.445  -4.307  1.00 20.00    -0.169 SA
HETATM   11  C8  UNL     1     -33.683  17.899  -3.933  1.00 20.00     0.074 C 
HETATM   12  C4  UNL     1     -34.031  18.503  -2.579  1.00 20.00     0.015 C 
ENDBRANCH   5   7
TORSDOF 1
ENDMDL
