MODEL 1
REMARK VINA RESULT:      -4.6      0.000      0.000
REMARK  0 active torsions:
REMARK  status: ('A' for Active; 'I' for Inactive)
ROOT
HETATM    1  C1  UNL     1     -34.520   4.916   6.276  1.00 20.00     0.006 C 
HETATM    2  C2  UNL     1     -35.206   4.248   5.082  1.00 20.00     0.006 C 
HETATM    3  C3  UNL     1     -34.084   6.297   5.796  1.00 20.00     0.068 C 
HETATM    4  C4  UNL     1     -35.140   5.255   3.937  1.00 20.00     0.068 C 
HETATM    5  C5  UNL     1     -31.946   6.479   3.301  1.00 20.00     0.197 C 
HETATM    6  C6  UNL     1     -32.983   7.359   2.655  1.00 20.00     0.197 C 
HETATM    7  C7  UNL     1     -33.952   6.143   4.287  1.00 20.00     0.164 C 
HETATM    8  O8  UNL     1     -32.726   5.478   3.952  1.00 20.00    -0.353 OA
HETATM    9  O9  UNL     1     -34.024   7.406   3.628  1.00 20.00    -0.353 OA
ENDROOT
TORSDOF 0
ENDMDL
MODEL 2
REMARK VINA RESULT:      -3.9     11.505     12.607
REMARK  0 active torsions:
REMARK  status: ('A' for Active; 'I' for Inactive)
ROOT
HETATM    1  C1  UNL     1     -34.685  14.401  -5.868  1.00 20.00     0.006 C 
HETATM    2  C2  UNL     1     -34.713  13.226  -4.888  1.00 20.00     0.006 C 
HETATM    3  C3  UNL     1     -34.072  15.573  -5.108  1.00 20.00     0.068 C 
HETATM    4  C4  UNL     1     -34.127  13.751  -3.580  1.00 20.00     0.068 C 
HETATM    5  C5  UNL     1     -35.620  16.670  -2.420  1.00 20.00     0.197 C 
HETATM    6  C6  UNL     1     -34.299  16.450  -1.734  1.00 20.00     0.197 C 
HETATM    7  C7  UNL     1     -34.352  15.256  -3.646  1.00 20.00     0.164 C 
HETATM    8  O8  UNL     1     -35.714  15.563  -3.314  1.00 20.00    -0.353 OA
HETATM    9  O9  UNL     1     -33.463  15.962  -2.782  1.00 20.00    -0.353 OA
ENDROOT
TORSDOF 0
ENDMDL
MODEL 3
REMARK VINA RESULT:      -3.9     11.660     12.642
REMARK  0 active torsions:
REMARK  status: ('A' for Active; 'I' for Inactive)
ROOT
HETATM    1  C1  UNL     1     -33.644  15.028  -3.372  1.00 20.00     0.006 C 
HETATM    2  C2  UNL     1     -33.776  13.727  -4.168  1.00 20.00     0.006 C 
HETATM    3  C3  UNL     1     -35.053  15.387  -2.912  1.00 20.00     0.068 C 
HETATM    4  C4  UNL     1     -35.260  13.372  -4.158  1.00 20.00     0.068 C 
HETATM    5  C5  UNL     1     -37.347  15.951  -5.203  1.00 20.00     0.197 C 
HETATM    6  C6  UNL     1     -38.140  14.898  -4.475  1.00 20.00     0.197 C 
HETATM    7  C7  UNL     1     -35.962  14.704  -3.924  1.00 20.00     0.164 C 
HETATM    8  O8  UNL     1     -36.012  15.454  -5.146  1.00 20.00    -0.353 OA
HETATM    9  O9  UNL     1     -37.278  14.523  -3.402  1.00 20.00    -0.353 OA
ENDROOT
TORSDOF 0
ENDMDL
MODEL 4
REMARK VINA RESULT:      -3.9     11.800     13.464
REMARK  0 active torsions:
REMARK  status: ('A' for Active; 'I' for Inactive)
ROOT
HETATM    1  C1  UNL     1     -34.775  13.554  -5.052  1.00 20.00     0.006 C 
HETATM    2  C2  UNL     1     -34.077  13.623  -3.692  1.00 20.00     0.006 C 
HETATM    3  C3  UNL     1     -34.313  14.783  -5.828  1.00 20.00     0.068 C 
HETATM    4  C4  UNL     1     -33.237  14.898  -3.710  1.00 20.00     0.068 C 
HETATM    5  C5  UNL     1     -35.008  17.756  -4.600  1.00 20.00     0.197 C 
HETATM    6  C6  UNL     1     -33.527  18.001  -4.714  1.00 20.00     0.197 C 
HETATM    7  C7  UNL     1     -33.919  15.781  -4.747  1.00 20.00     0.164 C 
HETATM    8  O8  UNL     1     -35.084  16.395  -4.179  1.00 20.00    -0.353 OA
HETATM    9  O9  UNL     1     -33.034  16.777  -5.257  1.00 20.00    -0.353 OA
ENDROOT
TORSDOF 0
ENDMDL
MODEL 5
REMARK VINA RESULT:      -3.9      9.265     10.549
REMARK  0 active torsions:
REMARK  status: ('A' for Active; 'I' for Inactive)
ROOT
HETATM    1  C1  UNL     1     -40.774   6.135  -0.157  1.00 20.00     0.006 C 
HETATM    2  C2  UNL     1     -41.594   6.980  -1.134  1.00 20.00     0.006 C 
HETATM    3  C3  UNL     1     -40.656   4.752  -0.788  1.00 20.00     0.068 C 
HETATM    4  C4  UNL     1     -41.940   6.062  -2.303  1.00 20.00     0.068 C 
HETATM    5  C5  UNL     1     -43.417   3.057  -1.360  1.00 20.00     0.197 C 
HETATM    6  C6  UNL     1     -42.911   2.970  -2.775  1.00 20.00     0.197 C 
HETATM    7  C7  UNL     1     -41.863   4.659  -1.712  1.00 20.00     0.164 C 
HETATM    8  O8  UNL     1     -43.052   4.377  -0.962  1.00 20.00    -0.353 OA
HETATM    9  O9  UNL     1     -41.669   3.670  -2.722  1.00 20.00    -0.353 OA
ENDROOT
TORSDOF 0
ENDMDL
MODEL 6
REMARK VINA RESULT:      -3.9     11.721     13.096
REMARK  0 active torsions:
REMARK  status: ('A' for Active; 'I' for Inactive)
ROOT
HETATM    1  C1  UNL     1     -33.934  17.579  -3.020  1.00 20.00     0.006 C 
HETATM    2  C2  UNL     1     -33.605  17.724  -4.508  1.00 20.00     0.006 C 
HETATM    3  C3  UNL     1     -33.756  16.101  -2.688  1.00 20.00     0.068 C 
HETATM    4  C4  UNL     1     -33.256  16.323  -5.003  1.00 20.00     0.068 C 
HETATM    5  C5  UNL     1     -35.648  13.911  -4.254  1.00 20.00     0.197 C 
HETATM    6  C6  UNL     1     -34.345  13.257  -4.631  1.00 20.00     0.197 C 
HETATM    7  C7  UNL     1     -33.957  15.393  -4.021  1.00 20.00     0.164 C 
HETATM    8  O8  UNL     1     -35.352  15.304  -4.341  1.00 20.00    -0.353 OA
HETATM    9  O9  UNL     1     -33.369  14.093  -4.012  1.00 20.00    -0.353 OA
ENDROOT
TORSDOF 0
ENDMDL
MODEL 7
REMARK VINA RESULT:      -3.8      9.254     10.512
REMARK  0 active torsions:
REMARK  status: ('A' for Active; 'I' for Inactive)
ROOT
HETATM    1  C1  UNL     1     -43.305   3.793  -3.330  1.00 20.00     0.006 C 
HETATM    2  C2  UNL     1     -42.197   2.799  -2.976  1.00 20.00     0.006 C 
HETATM    3  C3  UNL     1     -42.809   5.161  -2.870  1.00 20.00     0.068 C 
HETATM    4  C4  UNL     1     -41.091   3.613  -2.310  1.00 20.00     0.068 C 
HETATM    5  C5  UNL     1     -42.182   5.599   0.330  1.00 20.00     0.197 C 
HETATM    6  C6  UNL     1     -40.822   6.047  -0.136  1.00 20.00     0.197 C 
HETATM    7  C7  UNL     1     -41.808   4.844  -1.767  1.00 20.00     0.164 C 
HETATM    8  O8  UNL     1     -42.488   4.517  -0.547  1.00 20.00    -0.353 OA
HETATM    9  O9  UNL     1     -40.908   5.930  -1.555  1.00 20.00    -0.353 OA
ENDROOT
TORSDOF 0
ENDMDL
MODEL 8
REMARK VINA RESULT:      -3.8     11.646     12.475
REMARK  0 active torsions:
REMARK  status: ('A' for Active; 'I' for Inactive)
ROOT
HETATM    1  C1  UNL     1     -33.633  16.675  -2.064  1.00 20.00     0.006 C 
HETATM    2  C2  UNL     1     -35.062  16.340  -1.631  1.00 20.00     0.006 C 
HETATM    3  C3  UNL     1     -33.567  16.396  -3.562  1.00 20.00     0.068 C 
HETATM    4  C4  UNL     1     -35.785  15.863  -2.888  1.00 20.00     0.068 C 
HETATM    5  C5  UNL     1     -34.134  13.326  -4.602  1.00 20.00     0.197 C 
HETATM    6  C6  UNL     1     -35.176  13.962  -5.484  1.00 20.00     0.197 C 
HETATM    7  C7  UNL     1     -34.667  15.370  -3.799  1.00 20.00     0.164 C 
HETATM    8  O8  UNL     1     -34.238  14.065  -3.387  1.00 20.00    -0.353 OA
HETATM    9  O9  UNL     1     -35.071  15.349  -5.167  1.00 20.00    -0.353 OA
ENDROOT
TORSDOF 0
ENDMDL
MODEL 9
REMARK VINA RESULT:      -3.8     11.822     12.928
REMARK  0 active torsions:
REMARK  status: ('A' for Active; 'I' for Inactive)
ROOT
HETATM    1  C1  UNL     1     -33.709  13.401  -4.118  1.00 20.00     0.006 C 
HETATM    2  C2  UNL     1     -35.199  13.706  -3.954  1.00 20.00     0.006 C 
HETATM    3  C3  UNL     1     -32.967  14.638  -3.621  1.00 20.00     0.068 C 
HETATM    4  C4  UNL     1     -35.284  15.116  -3.377  1.00 20.00     0.068 C 
HETATM    5  C5  UNL     1     -33.486  17.496  -5.167  1.00 20.00     0.197 C 
HETATM    6  C6  UNL     1     -33.829  18.019  -3.798  1.00 20.00     0.197 C 
HETATM    7  C7  UNL     1     -33.971  15.769  -3.791  1.00 20.00     0.164 C 
HETATM    8  O8  UNL     1     -34.040  16.182  -5.164  1.00 20.00    -0.353 OA
HETATM    9  O9  UNL     1     -33.648  16.881  -2.958  1.00 20.00    -0.353 OA
ENDROOT
TORSDOF 0
ENDMDL
