MODEL 1
REMARK VINA RESULT:      -4.4      0.000      0.000
REMARK  3 active torsions:
REMARK  status: ('A' for Active; 'I' for Inactive)
REMARK    1  A    between atoms: C2_2  and  C5_5 
REMARK    2  A    between atoms: C2_2  and  O10_10 
REMARK    3  A    between atoms: C7_7  and  O10_10 
ROOT
HETATM    1  C1  UNL     1     -34.648  16.228  -1.744  1.00 20.00     0.065 C 
HETATM    2  C3  UNL     1     -33.331  15.837  -3.867  1.00 20.00     0.036 A 
HETATM    3  C4  UNL     1     -34.633  15.810  -3.116  1.00 20.00     0.107 A 
HETATM    4  C5  UNL     1     -33.935  14.518  -3.471  1.00 20.00     0.104 A 
HETATM    5  N8  UNL     1     -34.661  16.566  -0.635  1.00 20.00    -0.197 NA
ENDROOT
BRANCH   4   6
HETATM    6  C2  UNL     1     -34.514  13.654  -4.508  1.00 20.00     0.264 C 
HETATM    7  O9  UNL     1     -35.100  12.605  -4.277  1.00 20.00    -0.265 OA
BRANCH   6   8
HETATM    8  O10 UNL     1     -34.292  14.204  -5.735  1.00 20.00    -0.322 OA
BRANCH   8   9
HETATM    9  C7  UNL     1     -35.460  14.409  -6.537  1.00 20.00     0.174 C 
HETATM   10  C6  UNL     1     -35.036  14.863  -7.918  1.00 20.00     0.034 C 
ENDBRANCH   8   9
ENDBRANCH   6   8
ENDBRANCH   4   6
TORSDOF 3
ENDMDL
MODEL 2
REMARK VINA RESULT:      -4.4     10.674     11.926
REMARK  3 active torsions:
REMARK  status: ('A' for Active; 'I' for Inactive)
REMARK    1  A    between atoms: C2_2  and  C5_5 
REMARK    2  A    between atoms: C2_2  and  O10_10 
REMARK    3  A    between atoms: C7_7  and  O10_10 
ROOT
HETATM    1  C1  UNL     1     -32.190   8.743   1.617  1.00 20.00     0.065 C 
HETATM    2  C3  UNL     1     -31.658   7.452   3.725  1.00 20.00     0.036 A 
HETATM    3  C4  UNL     1     -32.141   7.484   2.302  1.00 20.00     0.107 A 
HETATM    4  C5  UNL     1     -33.115   7.235   3.429  1.00 20.00     0.104 A 
HETATM    5  N8  UNL     1     -32.228   9.760   1.062  1.00 20.00    -0.197 NA
ENDROOT
BRANCH   4   6
HETATM    6  C2  UNL     1     -33.690   5.894   3.595  1.00 20.00     0.264 C 
HETATM    7  O9  UNL     1     -34.322   5.307   2.727  1.00 20.00    -0.265 OA
BRANCH   6   8
HETATM    8  O10 UNL     1     -33.408   5.429   4.845  1.00 20.00    -0.322 OA
BRANCH   8   9
HETATM    9  C7  UNL     1     -34.454   5.588   5.810  1.00 20.00     0.174 C 
HETATM   10  C6  UNL     1     -35.151   4.258   6.004  1.00 20.00     0.034 C 
ENDBRANCH   8   9
ENDBRANCH   6   8
ENDBRANCH   4   6
TORSDOF 3
ENDMDL
MODEL 3
REMARK VINA RESULT:      -4.2     10.996     11.957
REMARK  3 active torsions:
REMARK  status: ('A' for Active; 'I' for Inactive)
REMARK    1  A    between atoms: C2_2  and  C5_5 
REMARK    2  A    between atoms: C2_2  and  O10_10 
REMARK    3  A    between atoms: C7_7  and  O10_10 
ROOT
HETATM    1  C1  UNL     1     -34.940   4.543   5.640  1.00 20.00     0.065 C 
HETATM    2  C3  UNL     1     -35.272   5.757   3.446  1.00 20.00     0.036 A 
HETATM    3  C4  UNL     1     -34.433   4.890   4.343  1.00 20.00     0.107 A 
HETATM    4  C5  UNL     1     -34.033   6.322   4.081  1.00 20.00     0.104 A 
HETATM    5  N8  UNL     1     -35.349   4.262   6.688  1.00 20.00    -0.197 NA
ENDROOT
BRANCH   4   6
HETATM    6  C2  UNL     1     -32.857   6.594   3.244  1.00 20.00     0.264 C 
HETATM    7  O9  UNL     1     -31.864   5.881   3.205  1.00 20.00    -0.265 OA
BRANCH   6   8
HETATM    8  O10 UNL     1     -33.056   7.745   2.541  1.00 20.00    -0.322 OA
BRANCH   8   9
HETATM    9  C7  UNL     1     -31.893   8.281   1.899  1.00 20.00     0.174 C 
HETATM   10  C6  UNL     1     -32.295   9.495   1.089  1.00 20.00     0.034 C 
ENDBRANCH   8   9
ENDBRANCH   6   8
ENDBRANCH   4   6
TORSDOF 3
ENDMDL
MODEL 4
REMARK VINA RESULT:      -4.0      2.354      2.943
REMARK  3 active torsions:
REMARK  status: ('A' for Active; 'I' for Inactive)
REMARK    1  A    between atoms: C2_2  and  C5_5 
REMARK    2  A    between atoms: C2_2  and  O10_10 
REMARK    3  A    between atoms: C7_7  and  O10_10 
ROOT
HETATM    1  C1  UNL     1     -33.581  16.903  -4.835  1.00 20.00     0.065 C 
HETATM    2  C3  UNL     1     -33.060  14.729  -3.652  1.00 20.00     0.036 A 
HETATM    3  C4  UNL     1     -33.648  15.470  -4.820  1.00 20.00     0.107 A 
HETATM    4  C5  UNL     1     -34.553  14.798  -3.814  1.00 20.00     0.104 A 
HETATM    5  N8  UNL     1     -33.525  18.061  -4.848  1.00 20.00    -0.197 NA
ENDROOT
BRANCH   4   6
HETATM    6  C2  UNL     1     -35.289  13.590  -4.209  1.00 20.00     0.264 C 
HETATM    7  O9  UNL     1     -34.788  12.648  -4.807  1.00 20.00    -0.265 OA
BRANCH   6   8
HETATM    8  O10 UNL     1     -36.587  13.697  -3.808  1.00 20.00    -0.322 OA
BRANCH   8   9
HETATM    9  C7  UNL     1     -37.188  14.981  -4.008  1.00 20.00     0.174 C 
HETATM   10  C6  UNL     1     -38.692  14.817  -4.063  1.00 20.00     0.034 C 
ENDBRANCH   8   9
ENDBRANCH   6   8
ENDBRANCH   4   6
TORSDOF 3
ENDMDL
MODEL 5
REMARK VINA RESULT:      -4.0      3.264      4.656
REMARK  3 active torsions:
REMARK  status: ('A' for Active; 'I' for Inactive)
REMARK    1  A    between atoms: C2_2  and  C5_5 
REMARK    2  A    between atoms: C2_2  and  O10_10 
REMARK    3  A    between atoms: C7_7  and  O10_10 
ROOT
HETATM    1  C1  UNL     1     -34.639  13.520  -4.177  1.00 20.00     0.065 C 
HETATM    2  C3  UNL     1     -32.928  15.271  -3.542  1.00 20.00     0.036 A 
HETATM    3  C4  UNL     1     -34.304  14.681  -3.404  1.00 20.00     0.107 A 
HETATM    4  C5  UNL     1     -34.110  15.997  -4.121  1.00 20.00     0.104 A 
HETATM    5  N8  UNL     1     -34.910  12.581  -4.801  1.00 20.00    -0.197 NA
ENDROOT
BRANCH   4   6
HETATM    6  C2  UNL     1     -34.575  17.234  -3.483  1.00 20.00     0.264 C 
HETATM    7  O9  UNL     1     -35.630  17.792  -3.756  1.00 20.00    -0.265 OA
BRANCH   6   8
HETATM    8  O10 UNL     1     -33.658  17.644  -2.562  1.00 20.00    -0.322 OA
BRANCH   8   9
HETATM    9  C7  UNL     1     -34.198  18.099  -1.316  1.00 20.00     0.174 C 
HETATM   10  C6  UNL     1     -34.613  16.898  -0.493  1.00 20.00     0.034 C 
ENDBRANCH   8   9
ENDBRANCH   6   8
ENDBRANCH   4   6
TORSDOF 3
ENDMDL
MODEL 6
REMARK VINA RESULT:      -4.0      2.534      4.255
REMARK  3 active torsions:
REMARK  status: ('A' for Active; 'I' for Inactive)
REMARK    1  A    between atoms: C2_2  and  C5_5 
REMARK    2  A    between atoms: C2_2  and  O10_10 
REMARK    3  A    between atoms: C7_7  and  O10_10 
ROOT
HETATM    1  C1  UNL     1     -37.025  14.460  -4.006  1.00 20.00     0.065 C 
HETATM    2  C3  UNL     1     -35.306  15.082  -5.754  1.00 20.00     0.036 A 
HETATM    3  C4  UNL     1     -35.647  14.538  -4.395  1.00 20.00     0.107 A 
HETATM    4  C5  UNL     1     -35.008  15.900  -4.529  1.00 20.00     0.104 A 
HETATM    5  N8  UNL     1     -38.140  14.397  -3.692  1.00 20.00    -0.197 NA
ENDROOT
BRANCH   4   6
HETATM    6  C2  UNL     1     -33.612  16.079  -4.108  1.00 20.00     0.264 C 
HETATM    7  O9  UNL     1     -32.690  16.321  -4.877  1.00 20.00    -0.265 OA
BRANCH   6   8
HETATM    8  O10 UNL     1     -33.521  15.933  -2.756  1.00 20.00    -0.322 OA
BRANCH   8   9
HETATM    9  C7  UNL     1     -33.842  17.098  -1.989  1.00 20.00     0.174 C 
HETATM   10  C6  UNL     1     -34.623  16.680  -0.762  1.00 20.00     0.034 C 
ENDBRANCH   8   9
ENDBRANCH   6   8
ENDBRANCH   4   6
TORSDOF 3
ENDMDL
MODEL 7
REMARK VINA RESULT:      -3.9      2.290      3.883
REMARK  3 active torsions:
REMARK  status: ('A' for Active; 'I' for Inactive)
REMARK    1  A    between atoms: C2_2  and  C5_5 
REMARK    2  A    between atoms: C2_2  and  O10_10 
REMARK    3  A    between atoms: C7_7  and  O10_10 
ROOT
HETATM    1  C1  UNL     1     -36.382  16.526  -6.258  1.00 20.00     0.065 C 
HETATM    2  C3  UNL     1     -34.935  14.551  -6.890  1.00 20.00     0.036 A 
HETATM    3  C4  UNL     1     -36.043  15.146  -6.065  1.00 20.00     0.107 A 
HETATM    4  C5  UNL     1     -34.717  14.809  -5.425  1.00 20.00     0.104 A 
HETATM    5  N8  UNL     1     -36.657  17.642  -6.413  1.00 20.00    -0.197 NA
ENDROOT
BRANCH   4   6
HETATM    6  C2  UNL     1     -34.638  13.671  -4.499  1.00 20.00     0.264 C 
HETATM    7  O9  UNL     1     -34.726  12.500  -4.844  1.00 20.00    -0.265 OA
BRANCH   6   8
HETATM    8  O10 UNL     1     -34.459  14.130  -3.229  1.00 20.00    -0.322 OA
BRANCH   8   9
HETATM    9  C7  UNL     1     -33.920  15.452  -3.123  1.00 20.00     0.174 C 
HETATM   10  C6  UNL     1     -34.535  16.140  -1.923  1.00 20.00     0.034 C 
ENDBRANCH   8   9
ENDBRANCH   6   8
ENDBRANCH   4   6
TORSDOF 3
ENDMDL
MODEL 8
REMARK VINA RESULT:      -3.9      1.631      2.460
REMARK  3 active torsions:
REMARK  status: ('A' for Active; 'I' for Inactive)
REMARK    1  A    between atoms: C2_2  and  C5_5 
REMARK    2  A    between atoms: C2_2  and  O10_10 
REMARK    3  A    between atoms: C7_7  and  O10_10 
ROOT
HETATM    1  C1  UNL     1     -34.443  16.886  -0.812  1.00 20.00     0.065 C 
HETATM    2  C3  UNL     1     -35.874  16.251  -2.797  1.00 20.00     0.036 A 
HETATM    3  C4  UNL     1     -34.602  16.112  -2.009  1.00 20.00     0.107 A 
HETATM    4  C5  UNL     1     -34.596  16.827  -3.339  1.00 20.00     0.104 A 
HETATM    5  N8  UNL     1     -34.314  17.511   0.157  1.00 20.00    -0.197 NA
ENDROOT
BRANCH   4   6
HETATM    6  C2  UNL     1     -33.952  16.185  -4.492  1.00 20.00     0.264 C 
HETATM    7  O9  UNL     1     -32.749  16.222  -4.714  1.00 20.00    -0.265 OA
BRANCH   6   8
HETATM    8  O10 UNL     1     -34.896  15.562  -5.253  1.00 20.00    -0.322 OA
BRANCH   8   9
HETATM    9  C7  UNL     1     -34.523  14.278  -5.765  1.00 20.00     0.174 C 
HETATM   10  C6  UNL     1     -34.726  13.239  -4.684  1.00 20.00     0.034 C 
ENDBRANCH   8   9
ENDBRANCH   6   8
ENDBRANCH   4   6
TORSDOF 3
ENDMDL
MODEL 9
REMARK VINA RESULT:      -3.9      2.814      3.325
REMARK  3 active torsions:
REMARK  status: ('A' for Active; 'I' for Inactive)
REMARK    1  A    between atoms: C2_2  and  C5_5 
REMARK    2  A    between atoms: C2_2  and  O10_10 
REMARK    3  A    between atoms: C7_7  and  O10_10 
ROOT
HETATM    1  C1  UNL     1     -36.581  14.263  -3.883  1.00 20.00     0.065 C 
HETATM    2  C3  UNL     1     -34.397  13.354  -4.776  1.00 20.00     0.036 A 
HETATM    3  C4  UNL     1     -35.160  14.133  -3.741  1.00 20.00     0.107 A 
HETATM    4  C5  UNL     1     -34.266  14.851  -4.725  1.00 20.00     0.104 A 
HETATM    5  N8  UNL     1     -37.731  14.368  -3.997  1.00 20.00    -0.197 NA
ENDROOT
BRANCH   4   6
HETATM    6  C2  UNL     1     -33.011  15.445  -4.248  1.00 20.00     0.264 C 
HETATM    7  O9  UNL     1     -32.163  14.837  -3.608  1.00 20.00    -0.265 OA
BRANCH   6   8
HETATM    8  O10 UNL     1     -32.954  16.754  -4.626  1.00 20.00    -0.322 OA
BRANCH   8   9
HETATM    9  C7  UNL     1     -33.839  17.125  -5.689  1.00 20.00     0.174 C 
HETATM   10  C6  UNL     1     -33.660  18.598  -5.986  1.00 20.00     0.034 C 
ENDBRANCH   8   9
ENDBRANCH   6   8
ENDBRANCH   4   6
TORSDOF 3
ENDMDL
