MODEL 1
REMARK VINA RESULT:      -5.8      0.000      0.000
REMARK  0 active torsions:
REMARK  status: ('A' for Active; 'I' for Inactive)
ROOT
HETATM    1  C1  UNL     1     -34.665   4.236   6.138  1.00 20.00    -0.028 C 
HETATM    2  C2  UNL     1     -34.989   4.056   4.854  1.00 20.00    -0.023 C 
HETATM    3  C3  UNL     1     -33.003   6.064   3.401  1.00 20.00     0.259 C 
HETATM    4  C4  UNL     1     -34.532   5.684   6.480  1.00 20.00     0.060 C 
HETATM    5  C5  UNL     1     -34.292   5.496   2.887  1.00 20.00     0.122 C 
HETATM    6  C6  UNL     1     -35.141   5.361   4.129  1.00 20.00     0.047 C 
HETATM    7  C7  UNL     1     -34.527   6.353   5.105  1.00 20.00     0.143 C 
HETATM    8  O8  UNL     1     -31.957   6.123   2.772  1.00 20.00    -0.265 OA
HETATM    9  O9  UNL     1     -33.172   6.546   4.666  1.00 20.00    -0.315 OA
ENDROOT
TORSDOF 0
ENDMDL
MODEL 2
REMARK VINA RESULT:      -4.4     11.793     13.063
REMARK  0 active torsions:
REMARK  status: ('A' for Active; 'I' for Inactive)
ROOT
HETATM    1  C1  UNL     1     -34.261  17.205  -4.607  1.00 20.00    -0.028 C 
HETATM    2  C2  UNL     1     -33.234  16.350  -4.581  1.00 20.00    -0.023 C 
HETATM    3  C3  UNL     1     -34.700  13.606  -3.940  1.00 20.00     0.259 C 
HETATM    4  C4  UNL     1     -35.189  16.996  -3.455  1.00 20.00     0.060 C 
HETATM    5  C5  UNL     1     -33.259  13.962  -3.730  1.00 20.00     0.122 C 
HETATM    6  C6  UNL     1     -33.302  15.434  -3.394  1.00 20.00     0.047 C 
HETATM    7  C7  UNL     1     -34.719  15.656  -2.887  1.00 20.00     0.143 C 
HETATM    8  O8  UNL     1     -35.104  12.570  -4.447  1.00 20.00    -0.265 OA
HETATM    9  O9  UNL     1     -35.506  14.590  -3.447  1.00 20.00    -0.315 OA
ENDROOT
TORSDOF 0
ENDMDL
MODEL 3
REMARK VINA RESULT:      -4.4      1.710      3.445
REMARK  0 active torsions:
REMARK  status: ('A' for Active; 'I' for Inactive)
ROOT
HETATM    1  C1  UNL     1     -32.666   5.838   2.858  1.00 20.00    -0.028 C 
HETATM    2  C2  UNL     1     -32.701   6.479   4.030  1.00 20.00    -0.023 C 
HETATM    3  C3  UNL     1     -34.704   4.664   5.698  1.00 20.00     0.259 C 
HETATM    4  C4  UNL     1     -34.033   5.449   2.397  1.00 20.00     0.060 C 
HETATM    5  C5  UNL     1     -34.334   6.098   5.931  1.00 20.00     0.122 C 
HETATM    6  C6  UNL     1     -34.104   6.636   4.539  1.00 20.00     0.047 C 
HETATM    7  C7  UNL     1     -34.887   5.690   3.642  1.00 20.00     0.143 C 
HETATM    8  O8  UNL     1     -34.755   3.799   6.560  1.00 20.00    -0.265 OA
HETATM    9  O9  UNL     1     -35.016   4.465   4.384  1.00 20.00    -0.315 OA
ENDROOT
TORSDOF 0
ENDMDL
MODEL 4
REMARK VINA RESULT:      -4.4      1.246      2.974
REMARK  0 active torsions:
REMARK  status: ('A' for Active; 'I' for Inactive)
ROOT
HETATM    1  C1  UNL     1     -35.231   5.749   3.078  1.00 20.00    -0.028 C 
HETATM    2  C2  UNL     1     -35.647   5.199   4.223  1.00 20.00    -0.023 C 
HETATM    3  C3  UNL     1     -33.847   6.713   6.357  1.00 20.00     0.259 C 
HETATM    4  C4  UNL     1     -33.740   5.836   3.013  1.00 20.00     0.060 C 
HETATM    5  C5  UNL     1     -34.549   5.397   6.500  1.00 20.00     0.122 C 
HETATM    6  C6  UNL     1     -34.497   4.814   5.107  1.00 20.00     0.047 C 
HETATM    7  C7  UNL     1     -33.325   5.526   4.451  1.00 20.00     0.143 C 
HETATM    8  O8  UNL     1     -33.857   7.612   7.185  1.00 20.00    -0.265 OA
HETATM    9  O9  UNL     1     -33.156   6.754   5.180  1.00 20.00    -0.315 OA
ENDROOT
TORSDOF 0
ENDMDL
MODEL 5
REMARK VINA RESULT:      -4.3     11.881     12.999
REMARK  0 active torsions:
REMARK  status: ('A' for Active; 'I' for Inactive)
ROOT
HETATM    1  C1  UNL     1     -33.068  15.190  -3.520  1.00 20.00    -0.028 C 
HETATM    2  C2  UNL     1     -33.844  15.918  -4.328  1.00 20.00    -0.023 C 
HETATM    3  C3  UNL     1     -36.568  14.288  -4.245  1.00 20.00     0.259 C 
HETATM    4  C4  UNL     1     -33.183  13.728  -3.807  1.00 20.00     0.060 C 
HETATM    5  C5  UNL     1     -36.095  15.255  -5.287  1.00 20.00     0.122 C 
HETATM    6  C6  UNL     1     -34.597  15.059  -5.301  1.00 20.00     0.047 C 
HETATM    7  C7  UNL     1     -34.402  13.664  -4.727  1.00 20.00     0.143 C 
HETATM    8  O8  UNL     1     -37.686  14.273  -3.751  1.00 20.00    -0.265 OA
HETATM    9  O9  UNL     1     -35.581  13.392  -3.950  1.00 20.00    -0.315 OA
ENDROOT
TORSDOF 0
ENDMDL
MODEL 6
REMARK VINA RESULT:      -4.2     12.190     13.625
REMARK  0 active torsions:
REMARK  status: ('A' for Active; 'I' for Inactive)
ROOT
HETATM    1  C1  UNL     1     -34.338  15.401  -7.260  1.00 20.00    -0.028 C 
HETATM    2  C2  UNL     1     -34.010  16.053  -6.141  1.00 20.00    -0.023 C 
HETATM    3  C3  UNL     1     -33.744  13.669  -4.059  1.00 20.00     0.259 C 
HETATM    4  C4  UNL     1     -35.396  14.375  -7.016  1.00 20.00     0.060 C 
HETATM    5  C5  UNL     1     -33.983  15.123  -3.783  1.00 20.00     0.122 C 
HETATM    6  C6  UNL     1     -34.809  15.578  -4.964  1.00 20.00     0.047 C 
HETATM    7  C7  UNL     1     -35.439  14.298  -5.489  1.00 20.00     0.143 C 
HETATM    8  O8  UNL     1     -32.934  12.964  -3.477  1.00 20.00    -0.265 OA
HETATM    9  O9  UNL     1     -34.591  13.229  -5.035  1.00 20.00    -0.315 OA
ENDROOT
TORSDOF 0
ENDMDL
MODEL 7
REMARK VINA RESULT:      -4.2     12.312     13.406
REMARK  0 active torsions:
REMARK  status: ('A' for Active; 'I' for Inactive)
ROOT
HETATM    1  C1  UNL     1     -34.787  13.808  -3.858  1.00 20.00    -0.028 C 
HETATM    2  C2  UNL     1     -35.272  14.923  -3.304  1.00 20.00    -0.023 C 
HETATM    3  C3  UNL     1     -33.448  17.153  -4.641  1.00 20.00     0.259 C 
HETATM    4  C4  UNL     1     -33.293  13.788  -3.852  1.00 20.00     0.060 C 
HETATM    5  C5  UNL     1     -34.236  17.236  -3.369  1.00 20.00     0.122 C 
HETATM    6  C6  UNL     1     -34.177  15.828  -2.822  1.00 20.00     0.047 C 
HETATM    7  C7  UNL     1     -32.942  15.229  -3.477  1.00 20.00     0.143 C 
HETATM    8  O8  UNL     1     -33.427  18.006  -5.515  1.00 20.00    -0.265 OA
HETATM    9  O9  UNL     1     -32.720  15.999  -4.671  1.00 20.00    -0.315 OA
ENDROOT
TORSDOF 0
ENDMDL
MODEL 8
REMARK VINA RESULT:      -4.2     11.907     12.681
REMARK  0 active torsions:
REMARK  status: ('A' for Active; 'I' for Inactive)
ROOT
HETATM    1  C1  UNL     1     -35.085  13.317  -4.173  1.00 20.00    -0.028 C 
HETATM    2  C2  UNL     1     -33.906  13.906  -3.950  1.00 20.00    -0.023 C 
HETATM    3  C3  UNL     1     -34.700  16.163  -1.861  1.00 20.00     0.259 C 
HETATM    4  C4  UNL     1     -36.175  14.317  -4.387  1.00 20.00     0.060 C 
HETATM    5  C5  UNL     1     -33.501  16.107  -2.759  1.00 20.00     0.122 C 
HETATM    6  C6  UNL     1     -34.014  15.402  -3.993  1.00 20.00     0.047 C 
HETATM    7  C7  UNL     1     -35.517  15.625  -3.948  1.00 20.00     0.143 C 
HETATM    8  O8  UNL     1     -34.679  16.449  -0.673  1.00 20.00    -0.265 OA
HETATM    9  O9  UNL     1     -35.833  15.887  -2.570  1.00 20.00    -0.315 OA
ENDROOT
TORSDOF 0
ENDMDL
MODEL 9
REMARK VINA RESULT:      -4.2     12.190     12.997
REMARK  0 active torsions:
REMARK  status: ('A' for Active; 'I' for Inactive)
ROOT
HETATM    1  C1  UNL     1     -35.299  16.724  -2.783  1.00 20.00    -0.028 C 
HETATM    2  C2  UNL     1     -35.380  16.627  -4.114  1.00 20.00    -0.023 C 
HETATM    3  C3  UNL     1     -34.400  13.646  -4.603  1.00 20.00     0.259 C 
HETATM    4  C4  UNL     1     -34.016  16.163  -2.261  1.00 20.00     0.060 C 
HETATM    5  C5  UNL     1     -34.419  14.789  -5.572  1.00 20.00     0.122 C 
HETATM    6  C6  UNL     1     -34.152  15.996  -4.702  1.00 20.00     0.047 C 
HETATM    7  C7  UNL     1     -33.458  15.422  -3.477  1.00 20.00     0.143 C 
HETATM    8  O8  UNL     1     -34.793  12.513  -4.841  1.00 20.00    -0.265 OA
HETATM    9  O9  UNL     1     -33.845  14.038  -3.420  1.00 20.00    -0.315 OA
ENDROOT
TORSDOF 0
ENDMDL
