MODEL 1
REMARK VINA RESULT:      -4.7      0.000      0.000
REMARK  4 active torsions:
REMARK  status: ('A' for Active; 'I' for Inactive)
REMARK    1  A    between atoms: C1_1  and  C5_5 
REMARK    2  A    between atoms: C1_1  and  O9_9 
REMARK    3  A    between atoms: C5_5  and  C6_6 
REMARK    4  A    between atoms: C7_7  and  O9_9 
ROOT
HETATM    1  C1  UNL     1     -32.583   6.520   3.218  1.00 20.00     0.259 C 
HETATM    2  O8  UNL     1     -32.122   5.460   2.818  1.00 20.00    -0.265 OA
ENDROOT
BRANCH   1   3
HETATM    3  C5  UNL     1     -31.949   7.877   3.020  1.00 20.00     0.111 C 
BRANCH   3   4
HETATM    4  C6  UNL     1     -31.951   8.301   1.554  1.00 20.00     0.005 C 
HETATM    5  C2  UNL     1     -32.419   9.738   1.390  1.00 20.00     0.005 C 
ENDBRANCH   3   4
ENDBRANCH   1   3
BRANCH   1   6
HETATM    6  O9  UNL     1     -33.750   6.674   3.912  1.00 20.00    -0.317 OA
BRANCH   6   7
HETATM    7  C7  UNL     1     -34.001   5.690   4.921  1.00 20.00     0.123 C 
HETATM    8  C3  UNL     1     -34.125   6.379   6.272  1.00 20.00     0.040 C 
HETATM    9  C4  UNL     1     -35.259   4.915   4.563  1.00 20.00     0.040 C 
ENDBRANCH   6   7
ENDBRANCH   1   6
TORSDOF 4
ENDMDL
MODEL 2
REMARK VINA RESULT:      -4.7      1.085      1.413
REMARK  4 active torsions:
REMARK  status: ('A' for Active; 'I' for Inactive)
REMARK    1  A    between atoms: C1_1  and  C5_5 
REMARK    2  A    between atoms: C1_1  and  O9_9 
REMARK    3  A    between atoms: C5_5  and  C6_6 
REMARK    4  A    between atoms: C7_7  and  O9_9 
ROOT
HETATM    1  C1  UNL     1     -33.645   5.864   3.190  1.00 20.00     0.259 C 
HETATM    2  O8  UNL     1     -34.238   5.231   2.328  1.00 20.00    -0.265 OA
ENDROOT
BRANCH   1   3
HETATM    3  C5  UNL     1     -32.157   6.131   3.208  1.00 20.00     0.111 C 
BRANCH   3   4
HETATM    4  C6  UNL     1     -31.846   7.626   3.226  1.00 20.00     0.005 C 
HETATM    5  C2  UNL     1     -32.084   8.261   1.866  1.00 20.00     0.005 C 
ENDBRANCH   3   4
ENDBRANCH   1   3
BRANCH   1   6
HETATM    6  O9  UNL     1     -34.212   6.444   4.291  1.00 20.00    -0.317 OA
BRANCH   6   7
HETATM    7  C7  UNL     1     -33.961   5.782   5.534  1.00 20.00     0.123 C 
HETATM    8  C3  UNL     1     -33.898   6.817   6.648  1.00 20.00     0.040 C 
HETATM    9  C4  UNL     1     -35.049   4.749   5.780  1.00 20.00     0.040 C 
ENDBRANCH   6   7
ENDBRANCH   1   6
TORSDOF 4
ENDMDL
MODEL 3
REMARK VINA RESULT:      -4.1      1.116      4.296
REMARK  4 active torsions:
REMARK  status: ('A' for Active; 'I' for Inactive)
REMARK    1  A    between atoms: C1_1  and  C5_5 
REMARK    2  A    between atoms: C1_1  and  O9_9 
REMARK    3  A    between atoms: C5_5  and  C6_6 
REMARK    4  A    between atoms: C7_7  and  O9_9 
ROOT
HETATM    1  C1  UNL     1     -34.125   5.736   3.126  1.00 20.00     0.259 C 
HETATM    2  O8  UNL     1     -33.731   4.983   2.245  1.00 20.00    -0.265 OA
ENDROOT
BRANCH   1   3
HETATM    3  C5  UNL     1     -35.307   5.476   4.031  1.00 20.00     0.111 C 
BRANCH   3   4
HETATM    4  C6  UNL     1     -34.927   4.619   5.236  1.00 20.00     0.005 C 
HETATM    5  C2  UNL     1     -34.526   5.476   6.425  1.00 20.00     0.005 C 
ENDBRANCH   3   4
ENDBRANCH   1   3
BRANCH   1   6
HETATM    6  O9  UNL     1     -33.573   6.942   3.454  1.00 20.00    -0.317 OA
BRANCH   6   7
HETATM    7  C7  UNL     1     -32.259   7.179   2.939  1.00 20.00     0.123 C 
HETATM    8  C3  UNL     1     -32.319   8.293   1.904  1.00 20.00     0.040 C 
HETATM    9  C4  UNL     1     -31.326   7.523   4.089  1.00 20.00     0.040 C 
ENDBRANCH   6   7
ENDBRANCH   1   6
TORSDOF 4
ENDMDL
MODEL 4
REMARK VINA RESULT:      -4.0     10.508     12.214
REMARK  4 active torsions:
REMARK  status: ('A' for Active; 'I' for Inactive)
REMARK    1  A    between atoms: C1_1  and  C5_5 
REMARK    2  A    between atoms: C1_1  and  O9_9 
REMARK    3  A    between atoms: C5_5  and  C6_6 
REMARK    4  A    between atoms: C7_7  and  O9_9 
ROOT
HETATM    1  C1  UNL     1     -34.946  13.781  -4.408  1.00 20.00     0.259 C 
HETATM    2  O8  UNL     1     -35.007  12.562  -4.489  1.00 20.00    -0.265 OA
ENDROOT
BRANCH   1   3
HETATM    3  C5  UNL     1     -34.301  14.549  -3.278  1.00 20.00     0.111 C 
BRANCH   3   4
HETATM    4  C6  UNL     1     -35.202  15.668  -2.760  1.00 20.00     0.005 C 
HETATM    5  C2  UNL     1     -34.616  16.328  -1.524  1.00 20.00     0.005 C 
ENDBRANCH   3   4
ENDBRANCH   1   3
BRANCH   1   6
HETATM    6  O9  UNL     1     -35.445  14.670  -5.319  1.00 20.00    -0.317 OA
BRANCH   6   7
HETATM    7  C7  UNL     1     -34.667  14.835  -6.509  1.00 20.00     0.123 C 
HETATM    8  C3  UNL     1     -35.511  14.452  -7.716  1.00 20.00     0.040 C 
HETATM    9  C4  UNL     1     -34.178  16.272  -6.592  1.00 20.00     0.040 C 
ENDBRANCH   6   7
ENDBRANCH   1   6
TORSDOF 4
ENDMDL
MODEL 5
REMARK VINA RESULT:      -4.0     10.750     11.573
REMARK  4 active torsions:
REMARK  status: ('A' for Active; 'I' for Inactive)
REMARK    1  A    between atoms: C1_1  and  C5_5 
REMARK    2  A    between atoms: C1_1  and  O9_9 
REMARK    3  A    between atoms: C5_5  and  C6_6 
REMARK    4  A    between atoms: C7_7  and  O9_9 
ROOT
HETATM    1  C1  UNL     1     -35.198  13.643  -4.436  1.00 20.00     0.259 C 
HETATM    2  O8  UNL     1     -34.869  12.499  -4.717  1.00 20.00    -0.265 OA
ENDROOT
BRANCH   1   3
HETATM    3  C5  UNL     1     -35.929  14.592  -5.358  1.00 20.00     0.111 C 
BRANCH   3   4
HETATM    4  C6  UNL     1     -35.459  14.458  -6.805  1.00 20.00     0.005 C 
HETATM    5  C2  UNL     1     -34.264  15.354  -7.087  1.00 20.00     0.005 C 
ENDBRANCH   3   4
ENDBRANCH   1   3
BRANCH   1   6
HETATM    6  O9  UNL     1     -34.969  14.272  -3.245  1.00 20.00    -0.317 OA
BRANCH   6   7
HETATM    7  C7  UNL     1     -34.193  15.472  -3.321  1.00 20.00     0.123 C 
HETATM    8  C3  UNL     1     -34.327  16.239  -2.014  1.00 20.00     0.040 C 
HETATM    9  C4  UNL     1     -32.747  15.114  -3.624  1.00 20.00     0.040 C 
ENDBRANCH   6   7
ENDBRANCH   1   6
TORSDOF 4
ENDMDL
MODEL 6
REMARK VINA RESULT:      -3.9      1.198      4.297
REMARK  4 active torsions:
REMARK  status: ('A' for Active; 'I' for Inactive)
REMARK    1  A    between atoms: C1_1  and  C5_5 
REMARK    2  A    between atoms: C1_1  and  O9_9 
REMARK    3  A    between atoms: C5_5  and  C6_6 
REMARK    4  A    between atoms: C7_7  and  O9_9 
ROOT
HETATM    1  C1  UNL     1     -33.619   5.654   2.998  1.00 20.00     0.259 C 
HETATM    2  O8  UNL     1     -34.190   5.050   2.100  1.00 20.00    -0.265 OA
ENDROOT
BRANCH   1   3
HETATM    3  C5  UNL     1     -34.219   5.989   4.344  1.00 20.00     0.111 C 
BRANCH   3   4
HETATM    4  C6  UNL     1     -35.258   4.958   4.778  1.00 20.00     0.005 C 
HETATM    5  C2  UNL     1     -34.933   4.381   6.146  1.00 20.00     0.005 C 
ENDBRANCH   3   4
ENDBRANCH   1   3
BRANCH   1   6
HETATM    6  O9  UNL     1     -32.341   6.137   2.951  1.00 20.00    -0.317 OA
BRANCH   6   7
HETATM    7  C7  UNL     1     -32.209   7.552   3.119  1.00 20.00     0.123 C 
HETATM    8  C3  UNL     1     -31.066   7.838   4.081  1.00 20.00     0.040 C 
HETATM    9  C4  UNL     1     -31.984   8.198   1.761  1.00 20.00     0.040 C 
ENDBRANCH   6   7
ENDBRANCH   1   6
TORSDOF 4
ENDMDL
MODEL 7
REMARK VINA RESULT:      -3.9      1.313      4.311
REMARK  4 active torsions:
REMARK  status: ('A' for Active; 'I' for Inactive)
REMARK    1  A    between atoms: C1_1  and  C5_5 
REMARK    2  A    between atoms: C1_1  and  O9_9 
REMARK    3  A    between atoms: C5_5  and  C6_6 
REMARK    4  A    between atoms: C7_7  and  O9_9 
ROOT
HETATM    1  C1  UNL     1     -32.438   6.630   3.225  1.00 20.00     0.259 C 
HETATM    2  O8  UNL     1     -31.916   5.572   2.904  1.00 20.00    -0.265 OA
ENDROOT
BRANCH   1   3
HETATM    3  C5  UNL     1     -33.741   6.767   3.979  1.00 20.00     0.111 C 
BRANCH   3   4
HETATM    4  C6  UNL     1     -34.688   5.602   3.699  1.00 20.00     0.005 C 
HETATM    5  C2  UNL     1     -35.060   4.868   4.977  1.00 20.00     0.005 C 
ENDBRANCH   3   4
ENDBRANCH   1   3
BRANCH   1   6
HETATM    6  O9  UNL     1     -31.945   7.878   2.964  1.00 20.00    -0.317 OA
BRANCH   6   7
HETATM    7  C7  UNL     1     -32.490   8.527   1.811  1.00 20.00     0.123 C 
HETATM    8  C3  UNL     1     -32.758   9.989   2.138  1.00 20.00     0.040 C 
HETATM    9  C4  UNL     1     -31.523   8.375   0.647  1.00 20.00     0.040 C 
ENDBRANCH   6   7
ENDBRANCH   1   6
TORSDOF 4
ENDMDL
MODEL 8
REMARK VINA RESULT:      -3.9     10.781     11.650
REMARK  4 active torsions:
REMARK  status: ('A' for Active; 'I' for Inactive)
REMARK    1  A    between atoms: C1_1  and  C5_5 
REMARK    2  A    between atoms: C1_1  and  O9_9 
REMARK    3  A    between atoms: C5_5  and  C6_6 
REMARK    4  A    between atoms: C7_7  and  O9_9 
ROOT
HETATM    1  C1  UNL     1     -33.287  15.521  -3.762  1.00 20.00     0.259 C 
HETATM    2  O8  UNL     1     -32.323  14.787  -3.592  1.00 20.00    -0.265 OA
ENDROOT
BRANCH   1   3
HETATM    3  C5  UNL     1     -33.730  16.612  -2.814  1.00 20.00     0.111 C 
BRANCH   3   4
HETATM    4  C6  UNL     1     -34.704  16.093  -1.760  1.00 20.00     0.005 C 
HETATM    5  C2  UNL     1     -34.626  16.908  -0.480  1.00 20.00     0.005 C 
ENDBRANCH   3   4
ENDBRANCH   1   3
BRANCH   1   6
HETATM    6  O9  UNL     1     -34.137  15.492  -4.832  1.00 20.00    -0.317 OA
BRANCH   6   7
HETATM    7  C7  UNL     1     -34.463  14.188  -5.324  1.00 20.00     0.123 C 
HETATM    8  C3  UNL     1     -35.350  13.478  -4.312  1.00 20.00     0.040 C 
HETATM    9  C4  UNL     1     -35.142  14.320  -6.678  1.00 20.00     0.040 C 
ENDBRANCH   6   7
ENDBRANCH   1   6
TORSDOF 4
ENDMDL
MODEL 9
REMARK VINA RESULT:      -3.9     10.672     11.743
REMARK  4 active torsions:
REMARK  status: ('A' for Active; 'I' for Inactive)
REMARK    1  A    between atoms: C1_1  and  C5_5 
REMARK    2  A    between atoms: C1_1  and  O9_9 
REMARK    3  A    between atoms: C5_5  and  C6_6 
REMARK    4  A    between atoms: C7_7  and  O9_9 
ROOT
HETATM    1  C1  UNL     1     -33.336  15.921  -4.069  1.00 20.00     0.259 C 
HETATM    2  O8  UNL     1     -32.832  16.493  -5.025  1.00 20.00    -0.265 OA
ENDROOT
BRANCH   1   3
HETATM    3  C5  UNL     1     -33.026  14.507  -3.635  1.00 20.00     0.111 C 
BRANCH   3   4
HETATM    4  C6  UNL     1     -34.276  13.630  -3.610  1.00 20.00     0.005 C 
HETATM    5  C2  UNL     1     -34.776  13.333  -5.014  1.00 20.00     0.005 C 
ENDBRANCH   3   4
ENDBRANCH   1   3
BRANCH   1   6
HETATM    6  O9  UNL     1     -34.266  16.450  -3.219  1.00 20.00    -0.317 OA
BRANCH   6   7
HETATM    7  C7  UNL     1     -33.750  16.988  -1.997  1.00 20.00     0.123 C 
HETATM    8  C3  UNL     1     -33.627  18.499  -2.128  1.00 20.00     0.040 C 
HETATM    9  C4  UNL     1     -34.665  16.591  -0.849  1.00 20.00     0.040 C 
ENDBRANCH   6   7
ENDBRANCH   1   6
TORSDOF 4
ENDMDL
