MODEL 1
REMARK VINA RESULT:      -4.6      0.000      0.000
REMARK  0 active torsions:
REMARK  status: ('A' for Active; 'I' for Inactive)
ROOT
HETATM    1  C1  UNL     1     -35.886  15.910  -2.604  1.00 20.00    -0.007 C 
HETATM    2  C2  UNL     1     -34.638  16.155  -2.183  1.00 20.00     0.008 C 
HETATM    3  C3  UNL     1     -36.190  15.199  -3.887  1.00 20.00     0.035 C 
HETATM    4  C4  UNL     1     -33.406  15.757  -2.937  1.00 20.00     0.058 C 
HETATM    5  C5  UNL     1     -35.087  13.811  -5.682  1.00 20.00     0.172 C 
HETATM    6  C6  UNL     1     -33.761  13.357  -3.812  1.00 20.00     0.172 C 
HETATM    7  C7  UNL     1     -34.991  15.080  -4.848  1.00 20.00     0.019 C 
HETATM    8  C8  UNL     1     -33.669  14.843  -4.132  1.00 20.00     0.021 C 
HETATM    9  O9  UNL     1     -34.503  12.759  -4.890  1.00 20.00    -0.390 OA
HETATM   10 CL10 UNL     1     -34.366  16.975  -0.686  1.00 20.00    -0.089 Cl
ENDROOT
TORSDOF 0
ENDMDL
MODEL 2
REMARK VINA RESULT:      -4.2      1.977      2.577
REMARK  0 active torsions:
REMARK  status: ('A' for Active; 'I' for Inactive)
ROOT
HETATM    1  C1  UNL     1     -33.781  16.634  -5.593  1.00 20.00    -0.007 C 
HETATM    2  C2  UNL     1     -33.733  17.254  -4.406  1.00 20.00     0.008 C 
HETATM    3  C3  UNL     1     -34.121  15.183  -5.744  1.00 20.00     0.035 C 
HETATM    4  C4  UNL     1     -34.004  16.577  -3.097  1.00 20.00     0.058 C 
HETATM    5  C5  UNL     1     -35.075  13.236  -4.452  1.00 20.00     0.172 C 
HETATM    6  C6  UNL     1     -36.074  15.070  -3.404  1.00 20.00     0.172 C 
HETATM    7  C7  UNL     1     -34.068  14.378  -4.430  1.00 20.00     0.019 C 
HETATM    8  C8  UNL     1     -34.565  15.163  -3.225  1.00 20.00     0.021 C 
HETATM    9  O9  UNL     1     -36.329  13.791  -4.012  1.00 20.00    -0.390 OA
HETATM   10 CL10 UNL     1     -33.341  18.934  -4.313  1.00 20.00    -0.089 Cl
ENDROOT
TORSDOF 0
ENDMDL
MODEL 3
REMARK VINA RESULT:      -4.2      1.664      2.339
REMARK  0 active torsions:
REMARK  status: ('A' for Active; 'I' for Inactive)
ROOT
HETATM    1  C1  UNL     1     -34.459  14.278  -3.313  1.00 20.00    -0.007 C 
HETATM    2  C2  UNL     1     -34.805  15.541  -3.032  1.00 20.00     0.008 C 
HETATM    3  C3  UNL     1     -34.651  13.659  -4.663  1.00 20.00     0.035 C 
HETATM    4  C4  UNL     1     -35.427  16.479  -4.021  1.00 20.00     0.058 C 
HETATM    5  C5  UNL     1     -35.181  14.269  -7.055  1.00 20.00     0.172 C 
HETATM    6  C6  UNL     1     -34.164  16.215  -6.255  1.00 20.00     0.172 C 
HETATM    7  C7  UNL     1     -35.585  14.453  -5.599  1.00 20.00     0.019 C 
HETATM    8  C8  UNL     1     -35.436  15.960  -5.458  1.00 20.00     0.021 C 
HETATM    9  O9  UNL     1     -34.156  15.245  -7.318  1.00 20.00    -0.390 OA
HETATM   10 CL10 UNL     1     -34.543  16.187  -1.450  1.00 20.00    -0.089 Cl
ENDROOT
TORSDOF 0
ENDMDL
MODEL 4
REMARK VINA RESULT:      -4.2      0.921      2.107
REMARK  0 active torsions:
REMARK  status: ('A' for Active; 'I' for Inactive)
ROOT
HETATM    1  C1  UNL     1     -33.375  15.856  -2.859  1.00 20.00    -0.007 C 
HETATM    2  C2  UNL     1     -34.559  16.326  -2.446  1.00 20.00     0.008 C 
HETATM    3  C3  UNL     1     -33.234  14.633  -3.711  1.00 20.00     0.035 C 
HETATM    4  C4  UNL     1     -35.875  15.690  -2.777  1.00 20.00     0.058 C 
HETATM    5  C5  UNL     1     -34.595  13.052  -5.132  1.00 20.00     0.172 C 
HETATM    6  C6  UNL     1     -35.824  15.034  -5.271  1.00 20.00     0.172 C 
HETATM    7  C7  UNL     1     -34.504  13.762  -3.789  1.00 20.00     0.019 C 
HETATM    8  C8  UNL     1     -35.789  14.577  -3.819  1.00 20.00     0.021 C 
HETATM    9  O9  UNL     1     -35.224  13.976  -6.039  1.00 20.00    -0.390 OA
HETATM   10 CL10 UNL     1     -34.641  17.750  -1.469  1.00 20.00    -0.089 Cl
ENDROOT
TORSDOF 0
ENDMDL
MODEL 5
REMARK VINA RESULT:      -4.1      3.030      4.035
REMARK  0 active torsions:
REMARK  status: ('A' for Active; 'I' for Inactive)
ROOT
HETATM    1  C1  UNL     1     -34.641  14.190  -4.904  1.00 20.00    -0.007 C 
HETATM    2  C2  UNL     1     -34.331  15.149  -5.785  1.00 20.00     0.008 C 
HETATM    3  C3  UNL     1     -34.606  14.399  -3.421  1.00 20.00     0.035 C 
HETATM    4  C4  UNL     1     -33.909  16.535  -5.401  1.00 20.00     0.058 C 
HETATM    5  C5  UNL     1     -34.454  16.231  -1.692  1.00 20.00     0.172 C 
HETATM    6  C6  UNL     1     -35.456  17.327  -3.496  1.00 20.00     0.172 C 
HETATM    7  C7  UNL     1     -33.859  15.673  -2.977  1.00 20.00     0.019 C 
HETATM    8  C8  UNL     1     -34.072  16.851  -3.916  1.00 20.00     0.021 C 
HETATM    9  O9  UNL     1     -35.559  17.066  -2.084  1.00 20.00    -0.390 OA
HETATM   10 CL10 UNL     1     -34.403  14.833  -7.483  1.00 20.00    -0.089 Cl
ENDROOT
TORSDOF 0
ENDMDL
MODEL 6
REMARK VINA RESULT:      -4.1      2.903      3.753
REMARK  0 active torsions:
REMARK  status: ('A' for Active; 'I' for Inactive)
ROOT
HETATM    1  C1  UNL     1     -36.086  15.790  -5.607  1.00 20.00    -0.007 C 
HETATM    2  C2  UNL     1     -35.409  14.713  -6.025  1.00 20.00     0.008 C 
HETATM    3  C3  UNL     1     -36.067  16.268  -4.187  1.00 20.00     0.035 C 
HETATM    4  C4  UNL     1     -34.562  13.858  -5.133  1.00 20.00     0.058 C 
HETATM    5  C5  UNL     1     -34.820  15.948  -2.016  1.00 20.00     0.172 C 
HETATM    6  C6  UNL     1     -33.193  15.427  -3.610  1.00 20.00     0.172 C 
HETATM    7  C7  UNL     1     -35.503  15.245  -3.181  1.00 20.00     0.019 C 
HETATM    8  C8  UNL     1     -34.341  14.435  -3.736  1.00 20.00     0.021 C 
HETATM    9  O9  UNL     1     -33.469  16.215  -2.438  1.00 20.00    -0.390 OA
HETATM   10 CL10 UNL     1     -35.474  14.229  -7.683  1.00 20.00    -0.089 Cl
ENDROOT
TORSDOF 0
ENDMDL
MODEL 7
REMARK VINA RESULT:      -4.1      1.726      2.464
REMARK  0 active torsions:
REMARK  status: ('A' for Active; 'I' for Inactive)
ROOT
HETATM    1  C1  UNL     1     -33.642  16.524  -4.261  1.00 20.00    -0.007 C 
HETATM    2  C2  UNL     1     -34.267  15.921  -3.241  1.00 20.00     0.008 C 
HETATM    3  C3  UNL     1     -33.776  16.072  -5.682  1.00 20.00     0.035 C 
HETATM    4  C4  UNL     1     -35.163  14.730  -3.393  1.00 20.00     0.058 C 
HETATM    5  C5  UNL     1     -35.176  14.570  -7.151  1.00 20.00     0.172 C 
HETATM    6  C6  UNL     1     -36.670  15.138  -5.446  1.00 20.00     0.172 C 
HETATM    7  C7  UNL     1     -34.395  14.670  -5.848  1.00 20.00     0.019 C 
HETATM    8  C8  UNL     1     -35.498  14.378  -4.841  1.00 20.00     0.021 C 
HETATM    9  O9  UNL     1     -36.496  15.074  -6.873  1.00 20.00    -0.390 OA
HETATM   10 CL10 UNL     1     -34.069  16.507  -1.627  1.00 20.00    -0.089 Cl
ENDROOT
TORSDOF 0
ENDMDL
MODEL 8
REMARK VINA RESULT:      -4.1      2.444      3.360
REMARK  0 active torsions:
REMARK  status: ('A' for Active; 'I' for Inactive)
ROOT
HETATM    1  C1  UNL     1     -33.288  16.777  -5.259  1.00 20.00    -0.007 C 
HETATM    2  C2  UNL     1     -34.381  16.994  -6.003  1.00 20.00     0.008 C 
HETATM    3  C3  UNL     1     -33.196  15.682  -4.242  1.00 20.00     0.035 C 
HETATM    4  C4  UNL     1     -35.635  16.182  -5.905  1.00 20.00     0.058 C 
HETATM    5  C5  UNL     1     -34.383  13.585  -3.489  1.00 20.00     0.172 C 
HETATM    6  C6  UNL     1     -34.953  13.699  -5.753  1.00 20.00     0.172 C 
HETATM    7  C7  UNL     1     -34.551  15.051  -3.864  1.00 20.00     0.019 C 
HETATM    8  C8  UNL     1     -35.505  14.927  -5.043  1.00 20.00     0.021 C 
HETATM    9  O9  UNL     1     -34.428  12.843  -4.722  1.00 20.00    -0.390 OA
HETATM   10 CL10 UNL     1     -34.407  18.275  -7.164  1.00 20.00    -0.089 Cl
ENDROOT
TORSDOF 0
ENDMDL
MODEL 9
REMARK VINA RESULT:      -4.0      3.053      3.967
REMARK  0 active torsions:
REMARK  status: ('A' for Active; 'I' for Inactive)
ROOT
HETATM    1  C1  UNL     1     -35.707  15.323  -4.557  1.00 20.00    -0.007 C 
HETATM    2  C2  UNL     1     -34.524  15.466  -5.169  1.00 20.00     0.008 C 
HETATM    3  C3  UNL     1     -35.911  15.596  -3.099  1.00 20.00     0.035 C 
HETATM    4  C4  UNL     1     -33.270  15.906  -4.476  1.00 20.00     0.058 C 
HETATM    5  C5  UNL     1     -34.779  16.673  -1.117  1.00 20.00     0.172 C 
HETATM    6  C6  UNL     1     -33.882  17.866  -2.915  1.00 20.00     0.172 C 
HETATM    7  C7  UNL     1     -34.607  15.713  -2.286  1.00 20.00     0.019 C 
HETATM    8  C8  UNL     1     -33.484  16.402  -3.047  1.00 20.00     0.021 C 
HETATM    9  O9  UNL     1     -34.525  17.993  -1.634  1.00 20.00    -0.390 OA
HETATM   10 CL10 UNL     1     -34.369  15.139  -6.859  1.00 20.00    -0.089 Cl
ENDROOT
TORSDOF 0
ENDMDL
