MODEL 1
REMARK VINA RESULT:      -3.5      0.000      0.000
REMARK  0 active torsions:
REMARK  status: ('A' for Active; 'I' for Inactive)
ROOT
HETATM    1  C1  UNL     1     -36.047  16.562  -3.404  1.00 20.00     0.089 A 
HETATM    2  C2  UNL     1     -37.563  14.680  -3.954  1.00 20.00     0.089 A 
HETATM    3  C3  UNL     1     -35.372  15.407  -3.710  1.00 20.00     0.109 A 
HETATM    4  C4  UNL     1     -36.236  14.340  -4.052  1.00 20.00     0.109 A 
HETATM    5  C5  UNL     1     -33.607  13.942  -3.733  1.00 20.00     0.202 C 
HETATM    6  C6  UNL     1     -34.416  13.131  -4.750  1.00 20.00     0.202 C 
HETATM    7  O7  UNL     1     -34.021  15.318  -3.699  1.00 20.00    -0.346 OA
HETATM    8  O8  UNL     1     -35.815  13.108  -4.419  1.00 20.00    -0.346 OA
HETATM    9  S9  UNL     1     -37.749  16.325  -3.488  1.00 20.00    -0.108 SA
ENDROOT
TORSDOF 0
ENDMDL
MODEL 2
REMARK VINA RESULT:      -3.5      0.090      2.062
REMARK  0 active torsions:
REMARK  status: ('A' for Active; 'I' for Inactive)
ROOT
HETATM    1  C1  UNL     1     -37.574  14.691  -3.974  1.00 20.00     0.089 A 
HETATM    2  C2  UNL     1     -36.085  16.623  -3.535  1.00 20.00     0.089 A 
HETATM    3  C3  UNL     1     -36.243  14.369  -4.070  1.00 20.00     0.109 A 
HETATM    4  C4  UNL     1     -35.392  15.465  -3.791  1.00 20.00     0.109 A 
HETATM    5  C5  UNL     1     -34.410  13.157  -4.731  1.00 20.00     0.202 C 
HETATM    6  C6  UNL     1     -33.604  14.029  -3.764  1.00 20.00     0.202 C 
HETATM    7  O7  UNL     1     -35.805  13.127  -4.382  1.00 20.00    -0.346 OA
HETATM    8  O8  UNL     1     -34.041  15.399  -3.792  1.00 20.00    -0.346 OA
HETATM    9  S9  UNL     1     -37.783  16.354  -3.588  1.00 20.00    -0.108 SA
ENDROOT
TORSDOF 0
ENDMDL
MODEL 3
REMARK VINA RESULT:      -3.4      2.128      3.167
REMARK  0 active torsions:
REMARK  status: ('A' for Active; 'I' for Inactive)
ROOT
HETATM    1  C1  UNL     1     -34.292  15.383  -3.201  1.00 20.00     0.089 A 
HETATM    2  C2  UNL     1     -35.291  13.370  -4.247  1.00 20.00     0.089 A 
HETATM    3  C3  UNL     1     -35.655  15.473  -3.334  1.00 20.00     0.109 A 
HETATM    4  C4  UNL     1     -36.229  14.312  -3.905  1.00 20.00     0.109 A 
HETATM    5  C5  UNL     1     -37.692  16.517  -3.490  1.00 20.00     0.202 C 
HETATM    6  C6  UNL     1     -38.310  15.120  -3.378  1.00 20.00     0.202 C 
HETATM    7  O7  UNL     1     -36.364  16.557  -2.940  1.00 20.00    -0.346 OA
HETATM    8  O8  UNL     1     -37.555  14.144  -4.116  1.00 20.00    -0.346 OA
HETATM    9  S9  UNL     1     -33.707  13.889  -3.822  1.00 20.00    -0.108 SA
ENDROOT
TORSDOF 0
ENDMDL
MODEL 4
REMARK VINA RESULT:      -3.4      2.128      3.735
REMARK  0 active torsions:
REMARK  status: ('A' for Active; 'I' for Inactive)
ROOT
HETATM    1  C1  UNL     1     -35.290  13.385  -4.225  1.00 20.00     0.089 A 
HETATM    2  C2  UNL     1     -34.306  15.441  -3.254  1.00 20.00     0.089 A 
HETATM    3  C3  UNL     1     -36.236  14.326  -3.904  1.00 20.00     0.109 A 
HETATM    4  C4  UNL     1     -35.672  15.512  -3.377  1.00 20.00     0.109 A 
HETATM    5  C5  UNL     1     -38.322  15.124  -3.381  1.00 20.00     0.202 C 
HETATM    6  C6  UNL     1     -37.723  16.525  -3.545  1.00 20.00     0.202 C 
HETATM    7  O7  UNL     1     -37.562  14.134  -4.096  1.00 20.00    -0.346 OA
HETATM    8  O8  UNL     1     -36.391  16.598  -3.010  1.00 20.00    -0.346 OA
HETATM    9  S9  UNL     1     -33.709  13.936  -3.832  1.00 20.00    -0.108 SA
ENDROOT
TORSDOF 0
ENDMDL
MODEL 5
REMARK VINA RESULT:      -3.4      2.621      3.465
REMARK  0 active torsions:
REMARK  status: ('A' for Active; 'I' for Inactive)
ROOT
HETATM    1  C1  UNL     1     -35.370  14.301  -6.826  1.00 20.00     0.089 A 
HETATM    2  C2  UNL     1     -34.247  16.509  -6.752  1.00 20.00     0.089 A 
HETATM    3  C3  UNL     1     -34.612  14.475  -5.695  1.00 20.00     0.109 A 
HETATM    4  C4  UNL     1     -33.994  15.747  -5.639  1.00 20.00     0.109 A 
HETATM    5  C5  UNL     1     -33.402  13.842  -3.851  1.00 20.00     0.202 C 
HETATM    6  C6  UNL     1     -33.394  15.325  -3.466  1.00 20.00     0.202 C 
HETATM    7  O7  UNL     1     -34.493  13.529  -4.734  1.00 20.00    -0.346 OA
HETATM    8  O8  UNL     1     -33.219  16.171  -4.614  1.00 20.00    -0.346 OA
HETATM    9  S9  UNL     1     -35.285  15.683  -7.847  1.00 20.00    -0.108 SA
ENDROOT
TORSDOF 0
ENDMDL
MODEL 6
REMARK VINA RESULT:      -3.4      2.605      2.839
REMARK  0 active torsions:
REMARK  status: ('A' for Active; 'I' for Inactive)
ROOT
HETATM    1  C1  UNL     1     -34.268  16.527  -6.726  1.00 20.00     0.089 A 
HETATM    2  C2  UNL     1     -35.354  14.307  -6.895  1.00 20.00     0.089 A 
HETATM    3  C3  UNL     1     -34.033  15.736  -5.630  1.00 20.00     0.109 A 
HETATM    4  C4  UNL     1     -34.629  14.457  -5.738  1.00 20.00     0.109 A 
HETATM    5  C5  UNL     1     -33.485  15.259  -3.453  1.00 20.00     0.202 C 
HETATM    6  C6  UNL     1     -33.460  13.788  -3.882  1.00 20.00     0.202 C 
HETATM    7  O7  UNL     1     -33.292  16.142  -4.572  1.00 20.00    -0.346 OA
HETATM    8  O8  UNL     1     -34.521  13.485  -4.803  1.00 20.00    -0.346 OA
HETATM    9  S9  UNL     1     -35.263  15.718  -7.872  1.00 20.00    -0.108 SA
ENDROOT
TORSDOF 0
ENDMDL
MODEL 7
REMARK VINA RESULT:      -3.3      2.452      2.627
REMARK  0 active torsions:
REMARK  status: ('A' for Active; 'I' for Inactive)
ROOT
HETATM    1  C1  UNL     1     -33.390  17.067  -4.934  1.00 20.00     0.089 A 
HETATM    2  C2  UNL     1     -35.052  16.322  -6.614  1.00 20.00     0.089 A 
HETATM    3  C3  UNL     1     -33.802  15.773  -4.737  1.00 20.00     0.109 A 
HETATM    4  C4  UNL     1     -34.729  15.337  -5.713  1.00 20.00     0.109 A 
HETATM    5  C5  UNL     1     -34.176  13.836  -3.565  1.00 20.00     0.202 C 
HETATM    6  C6  UNL     1     -34.516  13.197  -4.916  1.00 20.00     0.202 C 
HETATM    7  O7  UNL     1     -33.347  15.000  -3.722  1.00 20.00    -0.346 OA
HETATM    8  O8  UNL     1     -35.263  14.095  -5.754  1.00 20.00    -0.346 OA
HETATM    9  S9  UNL     1     -34.179  17.768  -6.292  1.00 20.00    -0.108 SA
ENDROOT
TORSDOF 0
ENDMDL
MODEL 8
REMARK VINA RESULT:      -3.3      2.465      3.231
REMARK  0 active torsions:
REMARK  status: ('A' for Active; 'I' for Inactive)
ROOT
HETATM    1  C1  UNL     1     -34.973  16.328  -6.651  1.00 20.00     0.089 A 
HETATM    2  C2  UNL     1     -33.390  17.072  -4.896  1.00 20.00     0.089 A 
HETATM    3  C3  UNL     1     -34.689  15.343  -5.739  1.00 20.00     0.109 A 
HETATM    4  C4  UNL     1     -33.808  15.776  -4.719  1.00 20.00     0.109 A 
HETATM    5  C5  UNL     1     -34.508  13.200  -4.939  1.00 20.00     0.202 C 
HETATM    6  C6  UNL     1     -34.229  13.835  -3.572  1.00 20.00     0.202 C 
HETATM    7  O7  UNL     1     -35.219  14.098  -5.808  1.00 20.00    -0.346 OA
HETATM    8  O8  UNL     1     -33.398  15.002  -3.689  1.00 20.00    -0.346 OA
HETATM    9  S9  UNL     1     -34.117  17.775  -6.286  1.00 20.00    -0.108 SA
ENDROOT
TORSDOF 0
ENDMDL
MODEL 9
REMARK VINA RESULT:      -3.3      2.144      2.548
REMARK  0 active torsions:
REMARK  status: ('A' for Active; 'I' for Inactive)
ROOT
HETATM    1  C1  UNL     1     -33.785  16.187  -2.566  1.00 20.00     0.089 A 
HETATM    2  C2  UNL     1     -34.678  17.326  -4.577  1.00 20.00     0.089 A 
HETATM    3  C3  UNL     1     -34.267  15.309  -3.504  1.00 20.00     0.109 A 
HETATM    4  C4  UNL     1     -34.750  15.957  -4.665  1.00 20.00     0.109 A 
HETATM    5  C5  UNL     1     -35.104  13.327  -4.302  1.00 20.00     0.202 C 
HETATM    6  C6  UNL     1     -34.906  13.917  -5.702  1.00 20.00     0.202 C 
HETATM    7  O7  UNL     1     -34.256  13.966  -3.331  1.00 20.00    -0.346 OA
HETATM    8  O8  UNL     1     -35.251  15.312  -5.744  1.00 20.00    -0.346 OA
HETATM    9  S9  UNL     1     -33.971  17.815  -3.088  1.00 20.00    -0.108 SA
ENDROOT
TORSDOF 0
ENDMDL
