MODEL 1
REMARK VINA RESULT:      -4.3      0.000      0.000
REMARK  2 active torsions:
REMARK  status: ('A' for Active; 'I' for Inactive)
REMARK    1  A    between atoms: C5_5  and  C6_6 
REMARK    2  A    between atoms: C6_6  and  N8_8 
ROOT
HETATM    1  C1  UNL     1     -35.187   4.757   5.959  1.00 20.00     0.135 A 
HETATM    2  C2  UNL     1     -34.904   4.679   4.615  1.00 20.00     0.111 A 
HETATM    3  C3  UNL     1     -33.821   6.343   5.572  1.00 20.00     0.209 A 
HETATM    4  N7  UNL     1     -34.511   5.796   6.548  1.00 20.00    -0.255 NA
HETATM    5  N8  UNL     1     -34.027   5.702   4.382  1.00 20.00    -0.350 N 
ENDROOT
BRANCH   5   6
HETATM    6  C6  UNL     1     -33.423   6.046   3.101  1.00 20.00     0.129 C 
BRANCH   6   7
HETATM    7  C5  UNL     1     -32.148   6.869   3.269  1.00 20.00     0.016 C 
HETATM    8  C4  UNL     1     -32.084   8.005   2.262  1.00 20.00     0.006 C 
ENDBRANCH   6   7
ENDBRANCH   5   6
TORSDOF 2
ENDMDL
MODEL 2
REMARK VINA RESULT:      -4.2      0.690      1.300
REMARK  2 active torsions:
REMARK  status: ('A' for Active; 'I' for Inactive)
REMARK    1  A    between atoms: C5_5  and  C6_6 
REMARK    2  A    between atoms: C6_6  and  N8_8 
ROOT
HETATM    1  C1  UNL     1     -34.555   5.707   6.514  1.00 20.00     0.135 A 
HETATM    2  C2  UNL     1     -33.792   6.364   5.577  1.00 20.00     0.111 A 
HETATM    3  C3  UNL     1     -34.910   4.691   4.678  1.00 20.00     0.209 A 
HETATM    4  N7  UNL     1     -35.246   4.666   5.948  1.00 20.00    -0.255 NA
HETATM    5  N8  UNL     1     -34.030   5.702   4.405  1.00 20.00    -0.350 N 
ENDROOT
BRANCH   5   6
HETATM    6  C6  UNL     1     -33.453   6.015   3.103  1.00 20.00     0.129 C 
BRANCH   6   7
HETATM    7  C5  UNL     1     -32.145   6.793   3.227  1.00 20.00     0.016 C 
HETATM    8  C4  UNL     1     -32.117   7.983   2.282  1.00 20.00     0.006 C 
ENDBRANCH   6   7
ENDBRANCH   5   6
TORSDOF 2
ENDMDL
MODEL 3
REMARK VINA RESULT:      -3.8     11.323     12.418
REMARK  2 active torsions:
REMARK  status: ('A' for Active; 'I' for Inactive)
REMARK    1  A    between atoms: C5_5  and  C6_6 
REMARK    2  A    between atoms: C6_6  and  N8_8 
ROOT
HETATM    1  C1  UNL     1     -34.803  13.741  -5.619  1.00 20.00     0.135 A 
HETATM    2  C2  UNL     1     -34.455  15.013  -5.230  1.00 20.00     0.111 A 
HETATM    3  C3  UNL     1     -34.377  13.602  -3.538  1.00 20.00     0.209 A 
HETATM    4  N7  UNL     1     -34.754  12.868  -4.561  1.00 20.00    -0.255 NA
HETATM    5  N8  UNL     1     -34.184  14.908  -3.893  1.00 20.00    -0.350 N 
ENDROOT
BRANCH   5   6
HETATM    6  C6  UNL     1     -33.767  15.990  -3.009  1.00 20.00     0.129 C 
BRANCH   6   7
HETATM    7  C5  UNL     1     -34.708  16.155  -1.819  1.00 20.00     0.016 C 
HETATM    8  C4  UNL     1     -34.149  17.136  -0.802  1.00 20.00     0.006 C 
ENDBRANCH   6   7
ENDBRANCH   5   6
TORSDOF 2
ENDMDL
MODEL 4
REMARK VINA RESULT:      -3.3     11.478     13.350
REMARK  2 active torsions:
REMARK  status: ('A' for Active; 'I' for Inactive)
REMARK    1  A    between atoms: C5_5  and  C6_6 
REMARK    2  A    between atoms: C6_6  and  N8_8 
ROOT
HETATM    1  C1  UNL     1     -34.256  14.151  -3.500  1.00 20.00     0.135 A 
HETATM    2  C2  UNL     1     -34.109  15.106  -4.479  1.00 20.00     0.111 A 
HETATM    3  C3  UNL     1     -34.752  13.174  -5.325  1.00 20.00     0.209 A 
HETATM    4  N7  UNL     1     -34.655  12.952  -4.034  1.00 20.00    -0.255 NA
HETATM    5  N8  UNL     1     -34.431  14.465  -5.644  1.00 20.00    -0.350 N 
ENDROOT
BRANCH   5   6
HETATM    6  C6  UNL     1     -34.431  15.049  -6.979  1.00 20.00     0.129 C 
BRANCH   6   7
HETATM    7  C5  UNL     1     -35.542  14.479  -7.857  1.00 20.00     0.016 C 
HETATM    8  C4  UNL     1     -36.870  15.166  -7.587  1.00 20.00     0.006 C 
ENDBRANCH   6   7
ENDBRANCH   5   6
TORSDOF 2
ENDMDL
MODEL 5
REMARK VINA RESULT:      -3.3     12.429     13.593
REMARK  2 active torsions:
REMARK  status: ('A' for Active; 'I' for Inactive)
REMARK    1  A    between atoms: C5_5  and  C6_6 
REMARK    2  A    between atoms: C6_6  and  N8_8 
ROOT
HETATM    1  C1  UNL     1     -33.527  17.512  -4.955  1.00 20.00     0.135 A 
HETATM    2  C2  UNL     1     -34.241  17.703  -3.796  1.00 20.00     0.111 A 
HETATM    3  C3  UNL     1     -33.197  15.762  -3.789  1.00 20.00     0.209 A 
HETATM    4  N7  UNL     1     -32.881  16.302  -4.945  1.00 20.00    -0.255 NA
HETATM    5  N8  UNL     1     -34.020  16.573  -3.058  1.00 20.00    -0.350 N 
ENDROOT
BRANCH   5   6
HETATM    6  C6  UNL     1     -34.562  16.285  -1.735  1.00 20.00     0.129 C 
BRANCH   6   7
HETATM    7  C5  UNL     1     -34.083  17.287  -0.688  1.00 20.00     0.016 C 
HETATM    8  C4  UNL     1     -35.056  17.380   0.476  1.00 20.00     0.006 C 
ENDBRANCH   6   7
ENDBRANCH   5   6
TORSDOF 2
ENDMDL
MODEL 6
REMARK VINA RESULT:      -3.3     11.392     13.380
REMARK  2 active torsions:
REMARK  status: ('A' for Active; 'I' for Inactive)
REMARK    1  A    between atoms: C5_5  and  C6_6 
REMARK    2  A    between atoms: C6_6  and  N8_8 
ROOT
HETATM    1  C1  UNL     1     -34.105  13.520  -3.573  1.00 20.00     0.135 A 
HETATM    2  C2  UNL     1     -33.705  14.761  -4.009  1.00 20.00     0.111 A 
HETATM    3  C3  UNL     1     -34.921  13.725  -5.528  1.00 20.00     0.209 A 
HETATM    4  N7  UNL     1     -34.860  12.881  -4.524  1.00 20.00    -0.255 NA
HETATM    5  N8  UNL     1     -34.235  14.879  -5.264  1.00 20.00    -0.350 N 
ENDROOT
BRANCH   5   6
HETATM    6  C6  UNL     1     -34.097  16.023  -6.157  1.00 20.00     0.129 C 
BRANCH   6   7
HETATM    7  C5  UNL     1     -33.535  17.248  -5.439  1.00 20.00     0.016 C 
HETATM    8  C4  UNL     1     -33.765  18.516  -6.243  1.00 20.00     0.006 C 
ENDBRANCH   6   7
ENDBRANCH   5   6
TORSDOF 2
ENDMDL
MODEL 7
REMARK VINA RESULT:      -3.2     10.025     10.995
REMARK  2 active torsions:
REMARK  status: ('A' for Active; 'I' for Inactive)
REMARK    1  A    between atoms: C5_5  and  C6_6 
REMARK    2  A    between atoms: C6_6  and  N8_8 
ROOT
HETATM    1  C1  UNL     1     -41.578   6.555  -1.885  1.00 20.00     0.135 A 
HETATM    2  C2  UNL     1     -42.326   5.638  -2.585  1.00 20.00     0.111 A 
HETATM    3  C3  UNL     1     -40.911   4.647  -1.217  1.00 20.00     0.209 A 
HETATM    4  N7  UNL     1     -40.698   5.931  -1.036  1.00 20.00    -0.255 NA
HETATM    5  N8  UNL     1     -41.888   4.420  -2.146  1.00 20.00    -0.350 N 
ENDROOT
BRANCH   5   6
HETATM    6  C6  UNL     1     -42.372   3.117  -2.588  1.00 20.00     0.129 C 
BRANCH   6   7
HETATM    7  C5  UNL     1     -41.321   2.355  -3.391  1.00 20.00     0.016 C 
HETATM    8  C4  UNL     1     -41.880   1.054  -3.941  1.00 20.00     0.006 C 
ENDBRANCH   6   7
ENDBRANCH   5   6
TORSDOF 2
ENDMDL
MODEL 8
REMARK VINA RESULT:      -3.2      9.817     10.761
REMARK  2 active torsions:
REMARK  status: ('A' for Active; 'I' for Inactive)
REMARK    1  A    between atoms: C5_5  and  C6_6 
REMARK    2  A    between atoms: C6_6  and  N8_8 
ROOT
HETATM    1  C1  UNL     1     -40.623   5.777  -0.588  1.00 20.00     0.135 A 
HETATM    2  C2  UNL     1     -41.141   4.594  -1.063  1.00 20.00     0.111 A 
HETATM    3  C3  UNL     1     -41.815   6.312  -2.269  1.00 20.00     0.209 A 
HETATM    4  N7  UNL     1     -41.048   6.841  -1.343  1.00 20.00    -0.255 NA
HETATM    5  N8  UNL     1     -41.903   4.954  -2.140  1.00 20.00    -0.350 N 
ENDROOT
BRANCH   5   6
HETATM    6  C6  UNL     1     -42.669   4.054  -2.995  1.00 20.00     0.129 C 
BRANCH   6   7
HETATM    7  C5  UNL     1     -42.359   2.587  -2.709  1.00 20.00     0.016 C 
HETATM    8  C4  UNL     1     -41.450   1.995  -3.773  1.00 20.00     0.006 C 
ENDBRANCH   6   7
ENDBRANCH   5   6
TORSDOF 2
ENDMDL
MODEL 9
REMARK VINA RESULT:      -3.2     12.340     13.232
REMARK  2 active torsions:
REMARK  status: ('A' for Active; 'I' for Inactive)
REMARK    1  A    between atoms: C5_5  and  C6_6 
REMARK    2  A    between atoms: C6_6  and  N8_8 
ROOT
HETATM    1  C1  UNL     1     -34.437  15.172  -6.521  1.00 20.00     0.135 A 
HETATM    2  C2  UNL     1     -34.003  16.008  -5.518  1.00 20.00     0.111 A 
HETATM    3  C3  UNL     1     -34.563  14.027  -4.731  1.00 20.00     0.209 A 
HETATM    4  N7  UNL     1     -34.785  13.942  -6.023  1.00 20.00    -0.255 NA
HETATM    5  N8  UNL     1     -34.089  15.260  -4.377  1.00 20.00    -0.350 N 
ENDROOT
BRANCH   5   6
HETATM    6  C6  UNL     1     -33.741  15.697  -3.030  1.00 20.00     0.129 C 
BRANCH   6   7
HETATM    7  C5  UNL     1     -34.962  16.170  -2.245  1.00 20.00     0.016 C 
HETATM    8  C4  UNL     1     -34.581  16.617  -0.844  1.00 20.00     0.006 C 
ENDBRANCH   6   7
ENDBRANCH   5   6
TORSDOF 2
ENDMDL
