MODEL 1
REMARK VINA RESULT:      -4.5      0.000      0.000
REMARK  0 active torsions:
REMARK  status: ('A' for Active; 'I' for Inactive)
ROOT
HETATM    1  C1  UNL     1     -34.356  13.693  -4.726  1.00 20.00     0.226 C 
HETATM    2  C2  UNL     1     -33.671  15.968  -5.077  1.00 20.00     0.043 C 
HETATM    3  C3  UNL     1     -33.157  15.480  -3.724  1.00 20.00     0.081 C 
HETATM    4  C4  UNL     1     -34.727  14.935  -5.524  1.00 20.00     0.035 C 
HETATM    5  C5  UNL     1     -33.757  16.216  -2.536  1.00 20.00     0.032 C 
HETATM    6  C6  UNL     1     -34.638  14.660  -7.024  1.00 20.00     0.025 C 
HETATM    7  C7  UNL     1     -36.149  15.366  -5.154  1.00 20.00     0.025 C 
HETATM    8  N8  UNL     1     -33.493  14.080  -3.711  1.00 20.00    -0.356 N 
HETATM    9  O9  UNL     1     -34.776  12.563  -4.931  1.00 20.00    -0.273 OA
HETATM   10  H22 UNL     1     -33.126  13.427  -3.013  1.00 20.00     0.162 HD
ENDROOT
TORSDOF 0
ENDMDL
MODEL 2
REMARK VINA RESULT:      -4.3      1.281      3.073
REMARK  0 active torsions:
REMARK  status: ('A' for Active; 'I' for Inactive)
ROOT
HETATM    1  C1  UNL     1     -33.996  13.783  -4.234  1.00 20.00     0.226 C 
HETATM    2  C2  UNL     1     -35.527  15.487  -4.955  1.00 20.00     0.043 C 
HETATM    3  C3  UNL     1     -35.493  14.358  -5.982  1.00 20.00     0.081 C 
HETATM    4  C4  UNL     1     -34.303  15.261  -4.042  1.00 20.00     0.035 C 
HETATM    5  C5  UNL     1     -34.942  14.776  -7.337  1.00 20.00     0.032 C 
HETATM    6  C6  UNL     1     -34.636  15.559  -2.580  1.00 20.00     0.025 C 
HETATM    7  C7  UNL     1     -33.093  16.089  -4.482  1.00 20.00     0.025 C 
HETATM    8  N8  UNL     1     -34.676  13.348  -5.362  1.00 20.00    -0.356 N 
HETATM    9  O9  UNL     1     -33.253  13.113  -3.531  1.00 20.00    -0.273 OA
HETATM   10  H22 UNL     1     -34.603  12.393  -5.722  1.00 20.00     0.162 HD
ENDROOT
TORSDOF 0
ENDMDL
MODEL 3
REMARK VINA RESULT:      -4.2      1.869      2.279
REMARK  0 active torsions:
REMARK  status: ('A' for Active; 'I' for Inactive)
ROOT
HETATM    1  C1  UNL     1     -36.399  14.114  -4.238  1.00 20.00     0.226 C 
HETATM    2  C2  UNL     1     -34.519  14.429  -5.700  1.00 20.00     0.043 C 
HETATM    3  C3  UNL     1     -34.175  13.387  -4.638  1.00 20.00     0.081 C 
HETATM    4  C4  UNL     1     -35.802  15.129  -5.203  1.00 20.00     0.035 C 
HETATM    5  C5  UNL     1     -33.062  13.817  -3.694  1.00 20.00     0.032 C 
HETATM    6  C6  UNL     1     -36.766  15.410  -6.355  1.00 20.00     0.025 C 
HETATM    7  C7  UNL     1     -35.497  16.425  -4.447  1.00 20.00     0.025 C 
HETATM    8  N8  UNL     1     -35.417  13.180  -3.940  1.00 20.00    -0.356 N 
HETATM    9  O9  UNL     1     -37.534  14.144  -3.785  1.00 20.00    -0.273 OA
HETATM   10  H22 UNL     1     -35.563  12.410  -3.282  1.00 20.00     0.162 HD
ENDROOT
TORSDOF 0
ENDMDL
MODEL 4
REMARK VINA RESULT:      -4.2      1.415      2.389
REMARK  0 active torsions:
REMARK  status: ('A' for Active; 'I' for Inactive)
ROOT
HETATM    1  C1  UNL     1     -35.035  13.879  -4.648  1.00 20.00     0.226 C 
HETATM    2  C2  UNL     1     -35.714  16.134  -5.123  1.00 20.00     0.043 C 
HETATM    3  C3  UNL     1     -34.418  15.820  -5.867  1.00 20.00     0.081 C 
HETATM    4  C4  UNL     1     -35.884  15.008  -4.080  1.00 20.00     0.035 C 
HETATM    5  C5  UNL     1     -33.230  16.651  -5.408  1.00 20.00     0.032 C 
HETATM    6  C6  UNL     1     -37.345  14.577  -3.959  1.00 20.00     0.025 C 
HETATM    7  C7  UNL     1     -35.340  15.407  -2.706  1.00 20.00     0.025 C 
HETATM    8  N8  UNL     1     -34.212  14.415  -5.628  1.00 20.00    -0.356 N 
HETATM    9  O9  UNL     1     -35.057  12.715  -4.276  1.00 20.00    -0.273 OA
HETATM   10  H22 UNL     1     -33.519  13.861  -6.138  1.00 20.00     0.162 HD
ENDROOT
TORSDOF 0
ENDMDL
MODEL 5
REMARK VINA RESULT:      -4.1      2.227      2.854
REMARK  0 active torsions:
REMARK  status: ('A' for Active; 'I' for Inactive)
ROOT
HETATM    1  C1  UNL     1     -33.670  16.376  -4.431  1.00 20.00     0.226 C 
HETATM    2  C2  UNL     1     -35.359  15.139  -3.255  1.00 20.00     0.043 C 
HETATM    3  C3  UNL     1     -35.161  16.499  -2.589  1.00 20.00     0.081 C 
HETATM    4  C4  UNL     1     -34.151  14.951  -4.196  1.00 20.00     0.035 C 
HETATM    5  C5  UNL     1     -34.614  16.415  -1.172  1.00 20.00     0.032 C 
HETATM    6  C6  UNL     1     -34.567  14.297  -5.513  1.00 20.00     0.025 C 
HETATM    7  C7  UNL     1     -33.028  14.141  -3.542  1.00 20.00     0.025 C 
HETATM    8  N8  UNL     1     -34.255  17.188  -3.471  1.00 20.00    -0.356 N 
HETATM    9  O9  UNL     1     -32.881  16.728  -5.296  1.00 20.00    -0.273 OA
HETATM   10  H22 UNL     1     -34.062  18.190  -3.396  1.00 20.00     0.162 HD
ENDROOT
TORSDOF 0
ENDMDL
MODEL 6
REMARK VINA RESULT:      -4.0      1.883      3.266
REMARK  0 active torsions:
REMARK  status: ('A' for Active; 'I' for Inactive)
ROOT
HETATM    1  C1  UNL     1     -36.312  14.678  -4.338  1.00 20.00     0.226 C 
HETATM    2  C2  UNL     1     -34.370  15.999  -4.842  1.00 20.00     0.043 C 
HETATM    3  C3  UNL     1     -35.176  15.762  -6.117  1.00 20.00     0.081 C 
HETATM    4  C4  UNL     1     -34.923  15.000  -3.803  1.00 20.00     0.035 C 
HETATM    5  C5  UNL     1     -34.444  14.930  -7.160  1.00 20.00     0.032 C 
HETATM    6  C6  UNL     1     -35.012  15.633  -2.415  1.00 20.00     0.025 C 
HETATM    7  C7  UNL     1     -34.095  13.714  -3.740  1.00 20.00     0.025 C 
HETATM    8  N8  UNL     1     -36.372  15.108  -5.656  1.00 20.00    -0.356 N 
HETATM    9  O9  UNL     1     -37.199  14.110  -3.718  1.00 20.00    -0.273 OA
HETATM   10  H22 UNL     1     -37.195  14.973  -6.248  1.00 20.00     0.162 HD
ENDROOT
TORSDOF 0
ENDMDL
MODEL 7
REMARK VINA RESULT:      -4.0      1.510      2.625
REMARK  0 active torsions:
REMARK  status: ('A' for Active; 'I' for Inactive)
ROOT
HETATM    1  C1  UNL     1     -35.086  13.661  -4.393  1.00 20.00     0.226 C 
HETATM    2  C2  UNL     1     -34.930  15.731  -3.185  1.00 20.00     0.043 C 
HETATM    3  C3  UNL     1     -36.396  15.334  -3.337  1.00 20.00     0.081 C 
HETATM    4  C4  UNL     1     -34.148  14.840  -4.174  1.00 20.00     0.035 C 
HETATM    5  C5  UNL     1     -37.209  16.300  -4.186  1.00 20.00     0.032 C 
HETATM    6  C6  UNL     1     -32.823  14.371  -3.574  1.00 20.00     0.025 C 
HETATM    7  C7  UNL     1     -33.898  15.541  -5.512  1.00 20.00     0.025 C 
HETATM    8  N8  UNL     1     -36.342  14.022  -3.926  1.00 20.00    -0.356 N 
HETATM    9  O9  UNL     1     -34.785  12.600  -4.920  1.00 20.00    -0.273 OA
HETATM   10  H22 UNL     1     -37.158  13.409  -3.993  1.00 20.00     0.162 HD
ENDROOT
TORSDOF 0
ENDMDL
MODEL 8
REMARK VINA RESULT:      -4.0      1.938      2.445
REMARK  0 active torsions:
REMARK  status: ('A' for Active; 'I' for Inactive)
ROOT
HETATM    1  C1  UNL     1     -36.188  15.102  -3.279  1.00 20.00     0.226 C 
HETATM    2  C2  UNL     1     -33.787  15.160  -3.267  1.00 20.00     0.043 C 
HETATM    3  C3  UNL     1     -34.331  16.201  -2.291  1.00 20.00     0.081 C 
HETATM    4  C4  UNL     1     -34.987  14.732  -4.138  1.00 20.00     0.035 C 
HETATM    5  C5  UNL     1     -34.012  17.636  -2.682  1.00 20.00     0.032 C 
HETATM    6  C6  UNL     1     -34.965  13.230  -4.419  1.00 20.00     0.025 C 
HETATM    7  C7  UNL     1     -35.051  15.509  -5.456  1.00 20.00     0.025 C 
HETATM    8  N8  UNL     1     -35.750  15.954  -2.277  1.00 20.00    -0.356 N 
HETATM    9  O9  UNL     1     -37.339  14.733  -3.467  1.00 20.00    -0.273 OA
HETATM   10  H22 UNL     1     -36.379  16.372  -1.586  1.00 20.00     0.162 HD
ENDROOT
TORSDOF 0
ENDMDL
MODEL 9
REMARK VINA RESULT:      -4.0     11.875     12.811
REMARK  0 active torsions:
REMARK  status: ('A' for Active; 'I' for Inactive)
ROOT
HETATM    1  C1  UNL     1     -33.950   6.213   5.327  1.00 20.00     0.226 C 
HETATM    2  C2  UNL     1     -33.396   5.224   3.210  1.00 20.00     0.043 C 
HETATM    3  C3  UNL     1     -32.495   6.429   3.465  1.00 20.00     0.081 C 
HETATM    4  C4  UNL     1     -34.543   5.330   4.238  1.00 20.00     0.035 C 
HETATM    5  C5  UNL     1     -32.700   7.569   2.479  1.00 20.00     0.032 C 
HETATM    6  C6  UNL     1     -34.918   3.959   4.798  1.00 20.00     0.025 C 
HETATM    7  C7  UNL     1     -35.782   6.013   3.653  1.00 20.00     0.025 C 
HETATM    8  N8  UNL     1     -32.816   6.824   4.812  1.00 20.00    -0.356 N 
HETATM    9  O9  UNL     1     -34.417   6.374   6.445  1.00 20.00    -0.273 OA
HETATM   10  H22 UNL     1     -32.256   7.496   5.342  1.00 20.00     0.162 HD
ENDROOT
TORSDOF 0
ENDMDL
