MODEL 1
REMARK VINA RESULT:      -4.6      0.000      0.000
REMARK  1 active torsions:
REMARK  status: ('A' for Active; 'I' for Inactive)
REMARK    1  A    between atoms: C3_3  and  O11_11 
ROOT
HETATM    1  C1  UNL     1     -33.842  16.989  -4.752  1.00 20.00    -0.019 A 
HETATM    2  C2  UNL     1     -34.047  17.287  -3.408  1.00 20.00    -0.029 A 
HETATM    3  C3  UNL     1     -33.943  15.674  -5.190  1.00 20.00     0.096 A 
HETATM    4  C4  UNL     1     -34.346  16.240  -2.551  1.00 20.00     0.037 A 
HETATM    5  C5  UNL     1     -34.246  14.700  -4.252  1.00 20.00     0.064 A 
HETATM    6  C6  UNL     1     -33.516  18.075  -5.725  1.00 20.00     0.052 C 
HETATM    7  C7  UNL     1     -33.945  18.689  -2.909  1.00 20.00     0.051 C 
HETATM    8  C8  UNL     1     -34.576  16.499  -1.098  1.00 20.00     0.071 C 
HETATM    9  C9  UNL     1     -34.365  13.269  -4.668  1.00 20.00     0.073 C 
HETATM   10  N10 UNL     1     -34.452  14.950  -2.940  1.00 20.00    -0.255 NA
ENDROOT
BRANCH   3  11
HETATM   11  O11 UNL     1     -33.748  15.353  -6.496  1.00 20.00    -0.358 OA
HETATM   12  H24 UNL     1     -32.889  15.687  -6.802  1.00 20.00     0.217 HD
ENDBRANCH   3  11
TORSDOF 1
ENDMDL
MODEL 2
REMARK VINA RESULT:      -4.5      1.501      3.256
REMARK  1 active torsions:
REMARK  status: ('A' for Active; 'I' for Inactive)
REMARK    1  A    between atoms: C3_3  and  O11_11 
ROOT
HETATM    1  C1  UNL     1     -33.987  16.940  -4.886  1.00 20.00    -0.019 A 
HETATM    2  C2  UNL     1     -34.241  15.635  -5.294  1.00 20.00    -0.029 A 
HETATM    3  C3  UNL     1     -34.041  17.263  -3.535  1.00 20.00     0.096 A 
HETATM    4  C4  UNL     1     -34.543  14.698  -4.319  1.00 20.00     0.037 A 
HETATM    5  C5  UNL     1     -34.353  16.252  -2.639  1.00 20.00     0.064 A 
HETATM    6  C6  UNL     1     -33.656  17.996  -5.891  1.00 20.00     0.052 C 
HETATM    7  C7  UNL     1     -34.190  15.259  -6.737  1.00 20.00     0.051 C 
HETATM    8  C8  UNL     1     -34.824  13.281  -4.698  1.00 20.00     0.071 C 
HETATM    9  C9  UNL     1     -34.426  16.544  -1.175  1.00 20.00     0.073 C 
HETATM   10  N10 UNL     1     -34.605  14.975  -2.998  1.00 20.00    -0.255 NA
ENDROOT
BRANCH   3  11
HETATM   11  O11 UNL     1     -33.798  18.529  -3.106  1.00 20.00    -0.358 OA
HETATM   12  H24 UNL     1     -32.928  18.581  -2.678  1.00 20.00     0.217 HD
ENDBRANCH   3  11
TORSDOF 1
ENDMDL
MODEL 3
REMARK VINA RESULT:      -4.4      2.588      3.841
REMARK  1 active torsions:
REMARK  status: ('A' for Active; 'I' for Inactive)
REMARK    1  A    between atoms: C3_3  and  O11_11 
ROOT
HETATM    1  C1  UNL     1     -34.750  15.927  -2.678  1.00 20.00    -0.019 A 
HETATM    2  C2  UNL     1     -34.203  14.908  -3.450  1.00 20.00    -0.029 A 
HETATM    3  C3  UNL     1     -36.126  16.133  -2.682  1.00 20.00     0.096 A 
HETATM    4  C4  UNL     1     -35.067  14.129  -4.202  1.00 20.00     0.037 A 
HETATM    5  C5  UNL     1     -36.903  15.298  -3.470  1.00 20.00     0.064 A 
HETATM    6  C6  UNL     1     -33.869  16.802  -1.846  1.00 20.00     0.052 C 
HETATM    7  C7  UNL     1     -32.731  14.664  -3.467  1.00 20.00     0.051 C 
HETATM    8  C8  UNL     1     -34.537  13.019  -5.050  1.00 20.00     0.071 C 
HETATM    9  C9  UNL     1     -38.386  15.475  -3.512  1.00 20.00     0.073 C 
HETATM   10  N10 UNL     1     -36.407  14.298  -4.232  1.00 20.00    -0.255 NA
ENDROOT
BRANCH   3  11
HETATM   11  O11 UNL     1     -36.689  17.120  -1.939  1.00 20.00    -0.358 OA
HETATM   12  H24 UNL     1     -36.095  17.381  -1.216  1.00 20.00     0.217 HD
ENDBRANCH   3  11
TORSDOF 1
ENDMDL
MODEL 4
REMARK VINA RESULT:      -4.2      2.038      3.286
REMARK  1 active torsions:
REMARK  status: ('A' for Active; 'I' for Inactive)
REMARK    1  A    between atoms: C3_3  and  O11_11 
ROOT
HETATM    1  C1  UNL     1     -34.849  14.975  -6.607  1.00 20.00    -0.019 A 
HETATM    2  C2  UNL     1     -34.492  16.319  -6.593  1.00 20.00    -0.029 A 
HETATM    3  C3  UNL     1     -34.553  14.171  -5.512  1.00 20.00     0.096 A 
HETATM    4  C4  UNL     1     -33.846  16.806  -5.468  1.00 20.00     0.037 A 
HETATM    5  C5  UNL     1     -33.904  14.755  -4.436  1.00 20.00     0.064 A 
HETATM    6  C6  UNL     1     -35.547  14.391  -7.793  1.00 20.00     0.052 C 
HETATM    7  C7  UNL     1     -34.795  17.206  -7.753  1.00 20.00     0.051 C 
HETATM    8  C8  UNL     1     -33.438  18.242  -5.395  1.00 20.00     0.071 C 
HETATM    9  C9  UNL     1     -33.562  13.937  -3.233  1.00 20.00     0.073 C 
HETATM   10  N10 UNL     1     -33.542  16.056  -4.386  1.00 20.00    -0.255 NA
ENDROOT
BRANCH   3  11
HETATM   11  O11 UNL     1     -34.890  12.855  -5.498  1.00 20.00    -0.358 OA
HETATM   12  H24 UNL     1     -34.302  12.348  -6.081  1.00 20.00     0.217 HD
ENDBRANCH   3  11
TORSDOF 1
ENDMDL
MODEL 5
REMARK VINA RESULT:      -4.2      2.567      3.652
REMARK  1 active torsions:
REMARK  status: ('A' for Active; 'I' for Inactive)
REMARK    1  A    between atoms: C3_3  and  O11_11 
ROOT
HETATM    1  C1  UNL     1     -35.444  14.678  -3.767  1.00 20.00    -0.019 A 
HETATM    2  C2  UNL     1     -34.442  15.609  -3.513  1.00 20.00    -0.029 A 
HETATM    3  C3  UNL     1     -36.778  15.048  -3.636  1.00 20.00     0.096 A 
HETATM    4  C4  UNL     1     -34.824  16.885  -3.133  1.00 20.00     0.037 A 
HETATM    5  C5  UNL     1     -37.055  16.350  -3.250  1.00 20.00     0.064 A 
HETATM    6  C6  UNL     1     -35.095  13.285  -4.180  1.00 20.00     0.052 C 
HETATM    7  C7  UNL     1     -33.002  15.241  -3.646  1.00 20.00     0.051 C 
HETATM    8  C8  UNL     1     -33.792  17.927  -2.848  1.00 20.00     0.071 C 
HETATM    9  C9  UNL     1     -38.471  16.800  -3.092  1.00 20.00     0.073 C 
HETATM   10  N10 UNL     1     -36.109  17.281  -2.995  1.00 20.00    -0.255 NA
ENDROOT
BRANCH   3  11
HETATM   11  O11 UNL     1     -37.778  14.161  -3.877  1.00 20.00    -0.358 OA
HETATM   12  H24 UNL     1     -38.011  14.160  -4.820  1.00 20.00     0.217 HD
ENDBRANCH   3  11
TORSDOF 1
ENDMDL
MODEL 6
REMARK VINA RESULT:      -4.2      2.259      2.944
REMARK  1 active torsions:
REMARK  status: ('A' for Active; 'I' for Inactive)
REMARK    1  A    between atoms: C3_3  and  O11_11 
ROOT
HETATM    1  C1  UNL     1     -36.469  15.087  -3.652  1.00 20.00    -0.019 A 
HETATM    2  C2  UNL     1     -36.192  16.384  -3.235  1.00 20.00    -0.029 A 
HETATM    3  C3  UNL     1     -35.432  14.170  -3.788  1.00 20.00     0.096 A 
HETATM    4  C4  UNL     1     -34.872  16.712  -2.969  1.00 20.00     0.037 A 
HETATM    5  C5  UNL     1     -34.146  14.598  -3.497  1.00 20.00     0.064 A 
HETATM    6  C6  UNL     1     -37.873  14.673  -3.954  1.00 20.00     0.052 C 
HETATM    7  C7  UNL     1     -37.283  17.390  -3.080  1.00 20.00     0.051 C 
HETATM    8  C8  UNL     1     -34.514  18.090  -2.518  1.00 20.00     0.071 C 
HETATM    9  C9  UNL     1     -32.995  13.654  -3.628  1.00 20.00     0.073 C 
HETATM   10  N10 UNL     1     -33.839  15.849  -3.090  1.00 20.00    -0.255 NA
ENDROOT
BRANCH   3  11
HETATM   11  O11 UNL     1     -35.673  12.896  -4.193  1.00 20.00    -0.358 OA
HETATM   12  H24 UNL     1     -35.068  12.648  -4.911  1.00 20.00     0.217 HD
ENDBRANCH   3  11
TORSDOF 1
ENDMDL
MODEL 7
REMARK VINA RESULT:      -4.2      4.908      6.699
REMARK  1 active torsions:
REMARK  status: ('A' for Active; 'I' for Inactive)
REMARK    1  A    between atoms: C3_3  and  O11_11 
ROOT
HETATM    1  C1  UNL     1     -32.248  18.860   2.238  1.00 20.00    -0.019 A 
HETATM    2  C2  UNL     1     -33.383  18.518   2.966  1.00 20.00    -0.029 A 
HETATM    3  C3  UNL     1     -32.285  18.828   0.848  1.00 20.00     0.096 A 
HETATM    4  C4  UNL     1     -34.519  18.153   2.262  1.00 20.00     0.037 A 
HETATM    5  C5  UNL     1     -33.471  18.449   0.240  1.00 20.00     0.064 A 
HETATM    6  C6  UNL     1     -30.992  19.262   2.941  1.00 20.00     0.052 C 
HETATM    7  C7  UNL     1     -33.373  18.542   4.458  1.00 20.00     0.051 C 
HETATM    8  C8  UNL     1     -35.768  17.776   2.990  1.00 20.00     0.071 C 
HETATM    9  C9  UNL     1     -33.565  18.397  -1.251  1.00 20.00     0.073 C 
HETATM   10  N10 UNL     1     -34.592  18.110   0.913  1.00 20.00    -0.255 NA
ENDROOT
BRANCH   3  11
HETATM   11  O11 UNL     1     -31.192  19.158   0.111  1.00 20.00    -0.358 OA
HETATM   12  H24 UNL     1     -31.202  18.687  -0.738  1.00 20.00     0.217 HD
ENDBRANCH   3  11
TORSDOF 1
ENDMDL
MODEL 8
REMARK VINA RESULT:      -4.1      2.508      4.142
REMARK  1 active torsions:
REMARK  status: ('A' for Active; 'I' for Inactive)
REMARK    1  A    between atoms: C3_3  and  O11_11 
ROOT
HETATM    1  C1  UNL     1     -36.180  15.229  -3.412  1.00 20.00    -0.019 A 
HETATM    2  C2  UNL     1     -34.992  14.573  -3.720  1.00 20.00    -0.029 A 
HETATM    3  C3  UNL     1     -36.148  16.393  -2.653  1.00 20.00     0.096 A 
HETATM    4  C4  UNL     1     -33.809  15.120  -3.248  1.00 20.00     0.037 A 
HETATM    5  C5  UNL     1     -34.913  16.858  -2.230  1.00 20.00     0.064 A 
HETATM    6  C6  UNL     1     -37.487  14.688  -3.892  1.00 20.00     0.052 C 
HETATM    7  C7  UNL     1     -34.994  13.322  -4.531  1.00 20.00     0.051 C 
HETATM    8  C8  UNL     1     -32.502  14.461  -3.547  1.00 20.00     0.071 C 
HETATM    9  C9  UNL     1     -34.822  18.104  -1.411  1.00 20.00     0.073 C 
HETATM   10  N10 UNL     1     -33.739  16.249  -2.509  1.00 20.00    -0.255 NA
ENDROOT
BRANCH   3  11
HETATM   11  O11 UNL     1     -37.292  17.055  -2.337  1.00 20.00    -0.358 OA
HETATM   12  H24 UNL     1     -37.127  17.699  -1.630  1.00 20.00     0.217 HD
ENDBRANCH   3  11
TORSDOF 1
ENDMDL
MODEL 9
REMARK VINA RESULT:      -4.1      2.225      3.330
REMARK  1 active torsions:
REMARK  status: ('A' for Active; 'I' for Inactive)
REMARK    1  A    between atoms: C3_3  and  O11_11 
ROOT
HETATM    1  C1  UNL     1     -34.830  15.552  -5.793  1.00 20.00    -0.019 A 
HETATM    2  C2  UNL     1     -36.195  15.371  -5.594  1.00 20.00    -0.029 A 
HETATM    3  C3  UNL     1     -34.011  15.866  -4.714  1.00 20.00     0.096 A 
HETATM    4  C4  UNL     1     -36.687  15.514  -4.307  1.00 20.00     0.037 A 
HETATM    5  C5  UNL     1     -34.603  15.987  -3.466  1.00 20.00     0.064 A 
HETATM    6  C6  UNL     1     -34.240  15.411  -7.159  1.00 20.00     0.052 C 
HETATM    7  C7  UNL     1     -37.098  15.034  -6.733  1.00 20.00     0.051 C 
HETATM    8  C8  UNL     1     -38.144  15.331  -4.033  1.00 20.00     0.071 C 
HETATM    9  C9  UNL     1     -33.770  16.324  -2.272  1.00 20.00     0.073 C 
HETATM   10  N10 UNL     1     -35.923  15.819  -3.235  1.00 20.00    -0.255 NA
ENDROOT
BRANCH   3  11
HETATM   11  O11 UNL     1     -32.675  16.049  -4.878  1.00 20.00    -0.358 OA
HETATM   12  H24 UNL     1     -32.487  16.966  -5.134  1.00 20.00     0.217 HD
ENDBRANCH   3  11
TORSDOF 1
ENDMDL
