MODEL 1
REMARK VINA RESULT:      -4.4      0.000      0.000
REMARK  1 active torsions:
REMARK  status: ('A' for Active; 'I' for Inactive)
REMARK    1  A    between atoms: C4_4  and  C6_6 
REMARK       I    between atoms: C4_4  and  N8_8 
ROOT
HETATM    1  C1  UNL     1     -34.547   5.797   6.586  1.00 20.00     0.135 A 
HETATM    2  C2  UNL     1     -33.638   6.405   5.753  1.00 20.00     0.120 A 
HETATM    3  C3  UNL     1     -34.854   4.928   4.674  1.00 20.00     0.216 A 
HETATM    4  C4  UNL     1     -33.167   6.113   3.313  1.00 20.00     0.228 C 
HETATM    5  N7  UNL     1     -35.300   4.880   5.909  1.00 20.00    -0.254 NA
HETATM    6  N8  UNL     1     -33.834   5.843   4.511  1.00 20.00    -0.286 N 
HETATM    7  O9  UNL     1     -33.485   5.503   2.302  1.00 20.00    -0.273 OA
ENDROOT
BRANCH   4   8
HETATM    8  C6  UNL     1     -32.092   7.154   3.390  1.00 20.00     0.099 C 
HETATM    9  C5  UNL     1     -32.138   8.046   2.170  1.00 20.00     0.014 C 
ENDBRANCH   4   8
TORSDOF 1
ENDMDL
MODEL 2
REMARK VINA RESULT:      -3.9     11.544     12.090
REMARK  1 active torsions:
REMARK  status: ('A' for Active; 'I' for Inactive)
REMARK    1  A    between atoms: C4_4  and  C6_6 
REMARK       I    between atoms: C4_4  and  N8_8 
ROOT
HETATM    1  C1  UNL     1     -33.710  13.211  -4.187  1.00 20.00     0.135 A 
HETATM    2  C2  UNL     1     -33.693  14.399  -3.497  1.00 20.00     0.120 A 
HETATM    3  C3  UNL     1     -35.726  13.874  -4.141  1.00 20.00     0.216 A 
HETATM    4  C4  UNL     1     -35.524  15.990  -2.882  1.00 20.00     0.228 C 
HETATM    5  N7  UNL     1     -34.977  12.890  -4.585  1.00 20.00    -0.254 NA
HETATM    6  N8  UNL     1     -34.999  14.833  -3.465  1.00 20.00    -0.286 N 
HETATM    7  O9  UNL     1     -36.724  16.207  -2.961  1.00 20.00    -0.273 OA
ENDROOT
BRANCH   4   8
HETATM    8  C6  UNL     1     -34.530  16.880  -2.201  1.00 20.00     0.099 C 
HETATM    9  C5  UNL     1     -34.621  16.716  -0.700  1.00 20.00     0.014 C 
ENDBRANCH   4   8
TORSDOF 1
ENDMDL
MODEL 3
REMARK VINA RESULT:      -3.8     12.059     13.524
REMARK  1 active torsions:
REMARK  status: ('A' for Active; 'I' for Inactive)
REMARK    1  A    between atoms: C4_4  and  C6_6 
REMARK       I    between atoms: C4_4  and  N8_8 
ROOT
HETATM    1  C1  UNL     1     -34.535  16.098  -7.425  1.00 20.00     0.135 A 
HETATM    2  C2  UNL     1     -34.079  15.824  -6.157  1.00 20.00     0.120 A 
HETATM    3  C3  UNL     1     -35.280  14.166  -6.955  1.00 20.00     0.216 A 
HETATM    4  C4  UNL     1     -34.385  13.830  -4.677  1.00 20.00     0.228 C 
HETATM    5  N7  UNL     1     -35.280  15.063  -7.916  1.00 20.00    -0.254 NA
HETATM    6  N8  UNL     1     -34.561  14.572  -5.849  1.00 20.00    -0.286 N 
HETATM    7  O9  UNL     1     -34.898  12.724  -4.587  1.00 20.00    -0.273 OA
ENDROOT
BRANCH   4   8
HETATM    8  C6  UNL     1     -33.559  14.486  -3.613  1.00 20.00     0.099 C 
HETATM    9  C5  UNL     1     -34.438  15.319  -2.706  1.00 20.00     0.014 C 
ENDBRANCH   4   8
TORSDOF 1
ENDMDL
MODEL 4
REMARK VINA RESULT:      -3.8     12.011     13.180
REMARK  1 active torsions:
REMARK  status: ('A' for Active; 'I' for Inactive)
REMARK    1  A    between atoms: C4_4  and  C6_6 
REMARK       I    between atoms: C4_4  and  N8_8 
ROOT
HETATM    1  C1  UNL     1     -34.798  15.764  -7.065  1.00 20.00     0.135 A 
HETATM    2  C2  UNL     1     -34.331  15.998  -5.793  1.00 20.00     0.120 A 
HETATM    3  C3  UNL     1     -34.930  13.901  -6.055  1.00 20.00     0.216 A 
HETATM    4  C4  UNL     1     -34.065  14.487  -3.817  1.00 20.00     0.228 C 
HETATM    5  N7  UNL     1     -35.168  14.458  -7.222  1.00 20.00    -0.254 NA
HETATM    6  N8  UNL     1     -34.415  14.792  -5.135  1.00 20.00    -0.286 N 
HETATM    7  O9  UNL     1     -34.216  13.345  -3.407  1.00 20.00    -0.273 OA
ENDROOT
BRANCH   4   8
HETATM    8  C6  UNL     1     -33.525  15.628  -3.010  1.00 20.00     0.099 C 
HETATM    9  C5  UNL     1     -34.540  16.068  -1.979  1.00 20.00     0.014 C 
ENDBRANCH   4   8
TORSDOF 1
ENDMDL
MODEL 5
REMARK VINA RESULT:      -3.7     10.078     10.923
REMARK  1 active torsions:
REMARK  status: ('A' for Active; 'I' for Inactive)
REMARK    1  A    between atoms: C4_4  and  C6_6 
REMARK       I    between atoms: C4_4  and  N8_8 
ROOT
HETATM    1  C1  UNL     1     -40.618   5.889  -0.499  1.00 20.00     0.135 A 
HETATM    2  C2  UNL     1     -41.057   4.684  -0.993  1.00 20.00     0.120 A 
HETATM    3  C3  UNL     1     -41.927   6.370  -2.099  1.00 20.00     0.216 A 
HETATM    4  C4  UNL     1     -42.619   4.127  -2.867  1.00 20.00     0.228 C 
HETATM    5  N7  UNL     1     -41.162   6.934  -1.191  1.00 20.00    -0.254 NA
HETATM    6  N8  UNL     1     -41.907   4.993  -2.031  1.00 20.00    -0.286 N 
HETATM    7  O9  UNL     1     -43.334   4.594  -3.742  1.00 20.00    -0.273 OA
ENDROOT
BRANCH   4   8
HETATM    8  C6  UNL     1     -42.432   2.665  -2.596  1.00 20.00     0.099 C 
HETATM    9  C5  UNL     1     -41.561   2.041  -3.663  1.00 20.00     0.014 C 
ENDBRANCH   4   8
TORSDOF 1
ENDMDL
MODEL 6
REMARK VINA RESULT:      -3.7     11.502     12.479
REMARK  1 active torsions:
REMARK  status: ('A' for Active; 'I' for Inactive)
REMARK    1  A    between atoms: C4_4  and  C6_6 
REMARK       I    between atoms: C4_4  and  N8_8 
ROOT
HETATM    1  C1  UNL     1     -33.353  14.461  -3.787  1.00 20.00     0.135 A 
HETATM    2  C2  UNL     1     -34.399  15.317  -3.537  1.00 20.00     0.120 A 
HETATM    3  C3  UNL     1     -35.115  13.322  -4.112  1.00 20.00     0.216 A 
HETATM    4  C4  UNL     1     -36.877  14.983  -3.627  1.00 20.00     0.228 C 
HETATM    5  N7  UNL     1     -33.805  13.221  -4.144  1.00 20.00    -0.254 NA
HETATM    6  N8  UNL     1     -35.544  14.581  -3.747  1.00 20.00    -0.286 N 
HETATM    7  O9  UNL     1     -37.767  14.177  -3.860  1.00 20.00    -0.273 OA
ENDROOT
BRANCH   4   8
HETATM    8  C6  UNL     1     -37.090  16.408  -3.214  1.00 20.00     0.099 C 
HETATM    9  C5  UNL     1     -37.548  17.233  -4.396  1.00 20.00     0.014 C 
ENDBRANCH   4   8
TORSDOF 1
ENDMDL
MODEL 7
REMARK VINA RESULT:      -3.7     11.438     12.931
REMARK  1 active torsions:
REMARK  status: ('A' for Active; 'I' for Inactive)
REMARK    1  A    between atoms: C4_4  and  C6_6 
REMARK       I    between atoms: C4_4  and  N8_8 
ROOT
HETATM    1  C1  UNL     1     -34.837  13.428  -5.556  1.00 20.00     0.135 A 
HETATM    2  C2  UNL     1     -34.465  14.752  -5.562  1.00 20.00     0.120 A 
HETATM    3  C3  UNL     1     -34.368  13.900  -3.540  1.00 20.00     0.216 A 
HETATM    4  C4  UNL     1     -33.727  16.279  -3.723  1.00 20.00     0.228 C 
HETATM    5  N7  UNL     1     -34.774  12.904  -4.295  1.00 20.00    -0.254 NA
HETATM    6  N8  UNL     1     -34.160  15.061  -4.256  1.00 20.00    -0.286 N 
HETATM    7  O9  UNL     1     -33.507  16.361  -2.523  1.00 20.00    -0.273 OA
ENDROOT
BRANCH   4   8
HETATM    8  C6  UNL     1     -33.575  17.399  -4.706  1.00 20.00     0.099 C 
HETATM    9  C5  UNL     1     -33.721  18.733  -4.008  1.00 20.00     0.014 C 
ENDBRANCH   4   8
TORSDOF 1
ENDMDL
MODEL 8
REMARK VINA RESULT:      -3.7      1.972      4.111
REMARK  1 active torsions:
REMARK  status: ('A' for Active; 'I' for Inactive)
REMARK    1  A    between atoms: C4_4  and  C6_6 
REMARK       I    between atoms: C4_4  and  N8_8 
ROOT
HETATM    1  C1  UNL     1     -32.277   6.763   2.408  1.00 20.00     0.135 A 
HETATM    2  C2  UNL     1     -33.289   6.079   3.039  1.00 20.00     0.120 A 
HETATM    3  C3  UNL     1     -32.248   7.429   4.423  1.00 20.00     0.216 A 
HETATM    4  C4  UNL     1     -34.100   6.123   5.405  1.00 20.00     0.228 C 
HETATM    5  N7  UNL     1     -31.633   7.601   3.274  1.00 20.00    -0.254 NA
HETATM    6  N8  UNL     1     -33.272   6.509   4.347  1.00 20.00    -0.286 N 
HETATM    7  O9  UNL     1     -33.928   6.620   6.509  1.00 20.00    -0.273 OA
ENDROOT
BRANCH   4   8
HETATM    8  C6  UNL     1     -35.146   5.103   5.072  1.00 20.00     0.099 C 
HETATM    9  C5  UNL     1     -34.863   3.805   5.794  1.00 20.00     0.014 C 
ENDBRANCH   4   8
TORSDOF 1
ENDMDL
MODEL 9
REMARK VINA RESULT:      -3.7     12.179     12.799
REMARK  1 active torsions:
REMARK  status: ('A' for Active; 'I' for Inactive)
REMARK    1  A    between atoms: C4_4  and  C6_6 
REMARK       I    between atoms: C4_4  and  N8_8 
ROOT
HETATM    1  C1  UNL     1     -34.459  13.235  -4.760  1.00 20.00     0.135 A 
HETATM    2  C2  UNL     1     -34.098  14.100  -3.753  1.00 20.00     0.120 A 
HETATM    3  C3  UNL     1     -35.204  15.135  -5.344  1.00 20.00     0.216 A 
HETATM    4  C4  UNL     1     -34.483  16.554  -3.455  1.00 20.00     0.228 C 
HETATM    5  N7  UNL     1     -35.146  13.886  -5.746  1.00 20.00    -0.254 NA
HETATM    6  N8  UNL     1     -34.580  15.334  -4.129  1.00 20.00    -0.286 N 
HETATM    7  O9  UNL     1     -34.978  17.554  -3.954  1.00 20.00    -0.273 OA
ENDROOT
BRANCH   4   8
HETATM    8  C6  UNL     1     -33.755  16.515  -2.145  1.00 20.00     0.099 C 
HETATM    9  C5  UNL     1     -34.738  16.563  -0.997  1.00 20.00     0.014 C 
ENDBRANCH   4   8
TORSDOF 1
ENDMDL
