MODEL 1
REMARK VINA RESULT:      -5.3      0.000      0.000
REMARK  0 active torsions:
REMARK  status: ('A' for Active; 'I' for Inactive)
ROOT
HETATM    1  C1  UNL     1     -35.855  14.800  -3.814  1.00 20.00    -0.017 C 
HETATM    2  C2  UNL     1     -34.827  13.722  -3.996  1.00 20.00     0.155 C 
HETATM    3  C3  UNL     1     -37.152  14.585  -4.052  1.00 20.00     0.023 C 
HETATM    4  C4  UNL     1     -33.387  14.164  -3.748  1.00 20.00     0.089 C 
HETATM    5  C5  UNL     1     -34.321  15.936  -2.186  1.00 20.00     0.016 C 
HETATM    6  C6  UNL     1     -35.351  16.134  -3.354  1.00 20.00     0.030 C 
HETATM    7  C7  UNL     1     -33.287  15.641  -3.320  1.00 20.00     0.002 C 
HETATM    8  C8  UNL     1     -34.115  16.671  -4.203  1.00 20.00    -0.036 C 
HETATM    9  C9  UNL     1     -33.770  18.153  -3.958  1.00 20.00     0.016 C 
HETATM   10  C10 UNL     1     -34.129  16.440  -5.718  1.00 20.00     0.016 C 
HETATM   11  O11 UNL     1     -35.115  12.576  -4.324  1.00 20.00    -0.293 OA
ENDROOT
TORSDOF 0
ENDMDL
MODEL 2
REMARK VINA RESULT:      -4.9      2.221      3.661
REMARK  0 active torsions:
REMARK  status: ('A' for Active; 'I' for Inactive)
ROOT
HETATM    1  C1  UNL     1     -34.504  16.501  -2.208  1.00 20.00    -0.017 C 
HETATM    2  C2  UNL     1     -33.840  17.580  -3.012  1.00 20.00     0.155 C 
HETATM    3  C3  UNL     1     -34.611  16.577  -0.878  1.00 20.00     0.023 C 
HETATM    4  C4  UNL     1     -33.743  17.295  -4.508  1.00 20.00     0.089 C 
HETATM    5  C5  UNL     1     -35.806  15.836  -4.246  1.00 20.00     0.016 C 
HETATM    6  C6  UNL     1     -35.038  15.329  -2.974  1.00 20.00     0.030 C 
HETATM    7  C7  UNL     1     -34.390  15.951  -4.897  1.00 20.00     0.002 C 
HETATM    8  C8  UNL     1     -33.987  14.707  -3.995  1.00 20.00    -0.036 C 
HETATM    9  C9  UNL     1     -34.392  13.336  -4.570  1.00 20.00     0.016 C 
HETATM   10  C10 UNL     1     -32.523  14.611  -3.549  1.00 20.00     0.016 C 
HETATM   11  O11 UNL     1     -33.401  18.610  -2.511  1.00 20.00    -0.293 OA
ENDROOT
TORSDOF 0
ENDMDL
MODEL 3
REMARK VINA RESULT:      -4.8      0.865      2.591
REMARK  0 active torsions:
REMARK  status: ('A' for Active; 'I' for Inactive)
ROOT
HETATM    1  C1  UNL     1     -33.454  14.324  -3.811  1.00 20.00    -0.017 C 
HETATM    2  C2  UNL     1     -34.821  13.896  -4.259  1.00 20.00     0.155 C 
HETATM    3  C3  UNL     1     -32.551  13.447  -3.363  1.00 20.00     0.023 C 
HETATM    4  C4  UNL     1     -35.745  15.038  -4.671  1.00 20.00     0.089 C 
HETATM    5  C5  UNL     1     -33.658  16.362  -5.259  1.00 20.00     0.016 C 
HETATM    6  C6  UNL     1     -33.154  15.790  -3.887  1.00 20.00     0.030 C 
HETATM    7  C7  UNL     1     -35.061  16.417  -4.575  1.00 20.00     0.002 C 
HETATM    8  C8  UNL     1     -34.278  16.702  -3.223  1.00 20.00    -0.036 C 
HETATM    9  C9  UNL     1     -33.865  18.173  -3.016  1.00 20.00     0.016 C 
HETATM   10  C10 UNL     1     -34.924  16.212  -1.922  1.00 20.00     0.016 C 
HETATM   11  O11 UNL     1     -35.175  12.722  -4.288  1.00 20.00    -0.293 OA
ENDROOT
TORSDOF 0
ENDMDL
MODEL 4
REMARK VINA RESULT:      -4.8      1.574      2.556
REMARK  0 active torsions:
REMARK  status: ('A' for Active; 'I' for Inactive)
ROOT
HETATM    1  C1  UNL     1     -34.424  14.163  -4.820  1.00 20.00    -0.017 C 
HETATM    2  C2  UNL     1     -34.222  15.176  -5.908  1.00 20.00     0.155 C 
HETATM    3  C3  UNL     1     -34.907  12.943  -5.072  1.00 20.00     0.023 C 
HETATM    4  C4  UNL     1     -33.730  16.539  -5.429  1.00 20.00     0.089 C 
HETATM    5  C5  UNL     1     -32.679  15.338  -3.454  1.00 20.00     0.016 C 
HETATM    6  C6  UNL     1     -34.060  14.592  -3.431  1.00 20.00     0.030 C 
HETATM    7  C7  UNL     1     -33.505  16.584  -3.905  1.00 20.00     0.002 C 
HETATM    8  C8  UNL     1     -34.684  15.997  -3.017  1.00 20.00    -0.036 C 
HETATM    9  C9  UNL     1     -34.583  16.322  -1.514  1.00 20.00     0.016 C 
HETATM   10  C10 UNL     1     -36.118  16.306  -3.465  1.00 20.00     0.016 C 
HETATM   11  O11 UNL     1     -34.439  14.935  -7.091  1.00 20.00    -0.293 OA
ENDROOT
TORSDOF 0
ENDMDL
MODEL 5
REMARK VINA RESULT:      -4.7      1.526      3.129
REMARK  0 active torsions:
REMARK  status: ('A' for Active; 'I' for Inactive)
ROOT
HETATM    1  C1  UNL     1     -34.125  15.290  -3.893  1.00 20.00    -0.017 C 
HETATM    2  C2  UNL     1     -33.912  13.827  -4.145  1.00 20.00     0.155 C 
HETATM    3  C3  UNL     1     -33.588  15.910  -2.838  1.00 20.00     0.023 C 
HETATM    4  C4  UNL     1     -34.658  13.271  -5.355  1.00 20.00     0.089 C 
HETATM    5  C5  UNL     1     -34.563  15.610  -6.342  1.00 20.00     0.016 C 
HETATM    6  C6  UNL     1     -34.976  16.023  -4.885  1.00 20.00     0.030 C 
HETATM    7  C7  UNL     1     -35.461  14.354  -6.103  1.00 20.00     0.002 C 
HETATM    8  C8  UNL     1     -36.360  15.295  -5.192  1.00 20.00    -0.036 C 
HETATM    9  C9  UNL     1     -37.376  16.159  -5.964  1.00 20.00     0.016 C 
HETATM   10  C10 UNL     1     -37.101  14.638  -4.022  1.00 20.00     0.016 C 
HETATM   11  O11 UNL     1     -33.201  13.125  -3.433  1.00 20.00    -0.293 OA
ENDROOT
TORSDOF 0
ENDMDL
MODEL 6
REMARK VINA RESULT:      -4.6      1.251      1.376
REMARK  0 active torsions:
REMARK  status: ('A' for Active; 'I' for Inactive)
ROOT
HETATM    1  C1  UNL     1     -35.666  14.827  -5.338  1.00 20.00    -0.017 C 
HETATM    2  C2  UNL     1     -34.895  13.667  -4.780  1.00 20.00     0.155 C 
HETATM    3  C3  UNL     1     -36.277  14.762  -6.525  1.00 20.00     0.023 C 
HETATM    4  C4  UNL     1     -34.202  13.941  -3.448  1.00 20.00     0.089 C 
HETATM    5  C5  UNL     1     -35.999  15.681  -3.004  1.00 20.00     0.016 C 
HETATM    6  C6  UNL     1     -35.711  16.066  -4.498  1.00 20.00     0.030 C 
HETATM    7  C7  UNL     1     -34.471  15.366  -2.925  1.00 20.00     0.002 C 
HETATM    8  C8  UNL     1     -34.279  16.535  -3.983  1.00 20.00    -0.036 C 
HETATM    9  C9  UNL     1     -34.252  17.953  -3.380  1.00 20.00     0.016 C 
HETATM   10  C10 UNL     1     -33.094  16.418  -4.949  1.00 20.00     0.016 C 
HETATM   11  O11 UNL     1     -34.819  12.582  -5.348  1.00 20.00    -0.293 OA
ENDROOT
TORSDOF 0
ENDMDL
MODEL 7
REMARK VINA RESULT:      -4.6      1.854      3.423
REMARK  0 active torsions:
REMARK  status: ('A' for Active; 'I' for Inactive)
ROOT
HETATM    1  C1  UNL     1     -33.605  14.808  -3.713  1.00 20.00    -0.017 C 
HETATM    2  C2  UNL     1     -34.593  15.484  -2.809  1.00 20.00     0.155 C 
HETATM    3  C3  UNL     1     -32.291  14.842  -3.472  1.00 20.00     0.023 C 
HETATM    4  C4  UNL     1     -36.044  15.405  -3.275  1.00 20.00     0.089 C 
HETATM    5  C5  UNL     1     -35.420  13.255  -4.476  1.00 20.00     0.016 C 
HETATM    6  C6  UNL     1     -34.167  14.097  -4.906  1.00 20.00     0.030 C 
HETATM    7  C7  UNL     1     -36.202  14.603  -4.583  1.00 20.00     0.002 C 
HETATM    8  C8  UNL     1     -35.190  14.981  -5.748  1.00 20.00    -0.036 C 
HETATM    9  C9  UNL     1     -35.549  14.398  -7.128  1.00 20.00     0.016 C 
HETATM   10  C10 UNL     1     -34.866  16.467  -5.939  1.00 20.00     0.016 C 
HETATM   11  O11 UNL     1     -34.266  16.062  -1.777  1.00 20.00    -0.293 OA
ENDROOT
TORSDOF 0
ENDMDL
MODEL 8
REMARK VINA RESULT:      -4.6      2.197      3.740
REMARK  0 active torsions:
REMARK  status: ('A' for Active; 'I' for Inactive)
ROOT
HETATM    1  C1  UNL     1     -33.728  17.120  -4.620  1.00 20.00    -0.017 C 
HETATM    2  C2  UNL     1     -33.817  17.667  -3.226  1.00 20.00     0.155 C 
HETATM    3  C3  UNL     1     -33.617  17.919  -5.686  1.00 20.00     0.023 C 
HETATM    4  C4  UNL     1     -34.011  16.614  -2.138  1.00 20.00     0.089 C 
HETATM    5  C5  UNL     1     -32.842  14.970  -3.681  1.00 20.00     0.016 C 
HETATM    6  C6  UNL     1     -33.774  15.629  -4.758  1.00 20.00     0.030 C 
HETATM    7  C7  UNL     1     -34.041  15.180  -2.701  1.00 20.00     0.002 C 
HETATM    8  C8  UNL     1     -34.979  14.956  -3.964  1.00 20.00    -0.036 C 
HETATM    9  C9  UNL     1     -35.234  13.479  -4.324  1.00 20.00     0.016 C 
HETATM   10  C10 UNL     1     -36.332  15.676  -3.967  1.00 20.00     0.016 C 
HETATM   11  O11 UNL     1     -33.746  18.865  -2.975  1.00 20.00    -0.293 OA
ENDROOT
TORSDOF 0
ENDMDL
MODEL 9
REMARK VINA RESULT:      -4.5      1.695      2.501
REMARK  0 active torsions:
REMARK  status: ('A' for Active; 'I' for Inactive)
ROOT
HETATM    1  C1  UNL     1     -35.748  15.777  -5.829  1.00 20.00    -0.017 C 
HETATM    2  C2  UNL     1     -35.257  14.442  -6.306  1.00 20.00     0.155 C 
HETATM    3  C3  UNL     1     -36.114  16.740  -6.680  1.00 20.00     0.023 C 
HETATM    4  C4  UNL     1     -34.815  13.490  -5.198  1.00 20.00     0.089 C 
HETATM    5  C5  UNL     1     -36.430  14.710  -3.664  1.00 20.00     0.016 C 
HETATM    6  C6  UNL     1     -35.803  15.978  -4.345  1.00 20.00     0.030 C 
HETATM    7  C7  UNL     1     -35.000  14.093  -3.792  1.00 20.00     0.002 C 
HETATM    8  C8  UNL     1     -34.455  15.573  -3.600  1.00 20.00    -0.036 C 
HETATM    9  C9  UNL     1     -34.370  16.044  -2.135  1.00 20.00     0.016 C 
HETATM   10  C10 UNL     1     -33.125  15.923  -4.280  1.00 20.00     0.016 C 
HETATM   11  O11 UNL     1     -35.206  14.137  -7.493  1.00 20.00    -0.293 OA
ENDROOT
TORSDOF 0
ENDMDL
