MODEL 1
REMARK VINA RESULT:      -5.0      0.000      0.000
REMARK  0 active torsions:
REMARK  status: ('A' for Active; 'I' for Inactive)
ROOT
HETATM    1  C1  UNL     1     -34.773  14.132  -5.806  1.00 20.00    -0.024 C 
HETATM    2  C2  UNL     1     -34.390  15.421  -5.705  1.00 20.00    -0.083 C 
HETATM    3  C3  UNL     1     -34.755  13.221  -4.595  1.00 20.00     0.033 C 
HETATM    4  C4  UNL     1     -32.940  14.785  -3.743  1.00 20.00     0.015 C 
HETATM    5  C5  UNL     1     -33.923  15.857  -4.340  1.00 20.00     0.022 C 
HETATM    6  C6  UNL     1     -34.248  14.011  -3.369  1.00 20.00    -0.002 C 
HETATM    7  C7  UNL     1     -34.909  15.444  -3.157  1.00 20.00    -0.036 C 
HETATM    8  C8  UNL     1     -34.391  16.404  -6.823  1.00 20.00     0.043 C 
HETATM    9  C9  UNL     1     -36.419  15.567  -3.398  1.00 20.00     0.016 C 
HETATM   10  C10 UNL     1     -34.604  16.110  -1.800  1.00 20.00     0.016 C 
ENDROOT
TORSDOF 0
ENDMDL
MODEL 2
REMARK VINA RESULT:      -4.7      1.142      3.331
REMARK  0 active torsions:
REMARK  status: ('A' for Active; 'I' for Inactive)
ROOT
HETATM    1  C1  UNL     1     -33.985  17.477  -3.121  1.00 20.00    -0.024 C 
HETATM    2  C2  UNL     1     -34.230  16.483  -2.244  1.00 20.00    -0.083 C 
HETATM    3  C3  UNL     1     -33.652  17.171  -4.567  1.00 20.00     0.033 C 
HETATM    4  C4  UNL     1     -32.803  14.955  -3.654  1.00 20.00     0.015 C 
HETATM    5  C5  UNL     1     -34.114  15.085  -2.795  1.00 20.00     0.022 C 
HETATM    6  C6  UNL     1     -33.650  15.641  -4.777  1.00 20.00    -0.002 C 
HETATM    7  C7  UNL     1     -34.897  14.863  -4.167  1.00 20.00    -0.036 C 
HETATM    8  C8  UNL     1     -34.586  16.674  -0.811  1.00 20.00     0.043 C 
HETATM    9  C9  UNL     1     -36.278  15.512  -4.323  1.00 20.00     0.016 C 
HETATM   10  C10 UNL     1     -35.028  13.391  -4.605  1.00 20.00     0.016 C 
ENDROOT
TORSDOF 0
ENDMDL
MODEL 3
REMARK VINA RESULT:      -4.5      1.279      2.400
REMARK  0 active torsions:
REMARK  status: ('A' for Active; 'I' for Inactive)
ROOT
HETATM    1  C1  UNL     1     -34.748  13.760  -3.772  1.00 20.00    -0.024 C 
HETATM    2  C2  UNL     1     -35.664  14.712  -4.041  1.00 20.00    -0.083 C 
HETATM    3  C3  UNL     1     -33.277  14.107  -3.669  1.00 20.00     0.033 C 
HETATM    4  C4  UNL     1     -33.869  16.039  -5.213  1.00 20.00     0.015 C 
HETATM    5  C5  UNL     1     -35.118  16.100  -4.260  1.00 20.00     0.022 C 
HETATM    6  C6  UNL     1     -33.091  15.619  -3.921  1.00 20.00    -0.002 C 
HETATM    7  C7  UNL     1     -34.092  16.574  -3.135  1.00 20.00    -0.036 C 
HETATM    8  C8  UNL     1     -37.132  14.483  -4.143  1.00 20.00     0.043 C 
HETATM    9  C9  UNL     1     -34.405  16.220  -1.676  1.00 20.00     0.016 C 
HETATM   10  C10 UNL     1     -33.735  18.074  -3.178  1.00 20.00     0.016 C 
ENDROOT
TORSDOF 0
ENDMDL
MODEL 4
REMARK VINA RESULT:      -4.4      1.232      2.421
REMARK  0 active torsions:
REMARK  status: ('A' for Active; 'I' for Inactive)
ROOT
HETATM    1  C1  UNL     1     -36.377  15.537  -5.629  1.00 20.00    -0.024 C 
HETATM    2  C2  UNL     1     -35.466  14.762  -6.252  1.00 20.00    -0.083 C 
HETATM    3  C3  UNL     1     -36.330  15.731  -4.126  1.00 20.00     0.033 C 
HETATM    4  C4  UNL     1     -35.174  13.466  -4.109  1.00 20.00     0.015 C 
HETATM    5  C5  UNL     1     -34.453  14.097  -5.357  1.00 20.00     0.022 C 
HETATM    6  C6  UNL     1     -35.148  14.926  -3.544  1.00 20.00    -0.002 C 
HETATM    7  C7  UNL     1     -33.764  15.087  -4.313  1.00 20.00    -0.036 C 
HETATM    8  C8  UNL     1     -35.409  14.523  -7.721  1.00 20.00     0.043 C 
HETATM    9  C9  UNL     1     -33.384  16.493  -4.795  1.00 20.00     0.016 C 
HETATM   10  C10 UNL     1     -32.538  14.503  -3.583  1.00 20.00     0.016 C 
ENDROOT
TORSDOF 0
ENDMDL
MODEL 5
REMARK VINA RESULT:      -4.4      1.038      3.232
REMARK  0 active torsions:
REMARK  status: ('A' for Active; 'I' for Inactive)
ROOT
HETATM    1  C1  UNL     1     -33.875  14.302  -3.259  1.00 20.00    -0.024 C 
HETATM    2  C2  UNL     1     -34.608  15.391  -2.951  1.00 20.00    -0.083 C 
HETATM    3  C3  UNL     1     -34.195  13.475  -4.488  1.00 20.00     0.033 C 
HETATM    4  C4  UNL     1     -36.557  14.366  -4.180  1.00 20.00     0.015 C 
HETATM    5  C5  UNL     1     -35.758  15.687  -3.879  1.00 20.00     0.022 C 
HETATM    6  C6  UNL     1     -35.413  14.087  -5.212  1.00 20.00    -0.002 C 
HETATM    7  C7  UNL     1     -35.363  15.664  -5.424  1.00 20.00    -0.036 C 
HETATM    8  C8  UNL     1     -34.367  16.283  -1.783  1.00 20.00     0.043 C 
HETATM    9  C9  UNL     1     -34.019  16.278  -5.836  1.00 20.00     0.016 C 
HETATM   10  C10 UNL     1     -36.438  16.231  -6.374  1.00 20.00     0.016 C 
ENDROOT
TORSDOF 0
ENDMDL
MODEL 6
REMARK VINA RESULT:      -4.4      1.037      3.289
REMARK  0 active torsions:
REMARK  status: ('A' for Active; 'I' for Inactive)
ROOT
HETATM    1  C1  UNL     1     -33.994  15.369  -2.917  1.00 20.00    -0.024 C 
HETATM    2  C2  UNL     1     -35.208  15.791  -3.322  1.00 20.00    -0.083 C 
HETATM    3  C3  UNL     1     -33.283  14.245  -3.642  1.00 20.00     0.033 C 
HETATM    4  C4  UNL     1     -35.626  13.502  -4.293  1.00 20.00     0.015 C 
HETATM    5  C5  UNL     1     -35.798  15.052  -4.496  1.00 20.00     0.022 C 
HETATM    6  C6  UNL     1     -34.168  13.748  -4.806  1.00 20.00    -0.002 C 
HETATM    7  C7  UNL     1     -34.795  14.886  -5.725  1.00 20.00    -0.036 C 
HETATM    8  C8  UNL     1     -35.983  16.899  -2.696  1.00 20.00     0.043 C 
HETATM    9  C9  UNL     1     -33.896  16.074  -6.088  1.00 20.00     0.016 C 
HETATM   10  C10 UNL     1     -35.449  14.388  -7.029  1.00 20.00     0.016 C 
ENDROOT
TORSDOF 0
ENDMDL
MODEL 7
REMARK VINA RESULT:      -4.4      1.313      3.172
REMARK  0 active torsions:
REMARK  status: ('A' for Active; 'I' for Inactive)
ROOT
HETATM    1  C1  UNL     1     -33.722  17.672  -2.778  1.00 20.00    -0.024 C 
HETATM    2  C2  UNL     1     -34.008  17.420  -4.071  1.00 20.00    -0.083 C 
HETATM    3  C3  UNL     1     -34.147  16.708  -1.688  1.00 20.00     0.033 C 
HETATM    4  C4  UNL     1     -35.987  16.052  -3.316  1.00 20.00     0.015 C 
HETATM    5  C5  UNL     1     -34.792  16.159  -4.332  1.00 20.00     0.022 C 
HETATM    6  C6  UNL     1     -34.900  15.519  -2.324  1.00 20.00    -0.002 C 
HETATM    7  C7  UNL     1     -34.205  14.870  -3.600  1.00 20.00    -0.036 C 
HETATM    8  C8  UNL     1     -33.620  18.286  -5.219  1.00 20.00     0.043 C 
HETATM    9  C9  UNL     1     -32.682  14.693  -3.559  1.00 20.00     0.016 C 
HETATM   10  C10 UNL     1     -34.812  13.531  -4.065  1.00 20.00     0.016 C 
ENDROOT
TORSDOF 0
ENDMDL
MODEL 8
REMARK VINA RESULT:      -4.3     11.166     12.605
REMARK  0 active torsions:
REMARK  status: ('A' for Active; 'I' for Inactive)
ROOT
HETATM    1  C1  UNL     1     -41.182   4.282  -1.464  1.00 20.00    -0.024 C 
HETATM    2  C2  UNL     1     -42.324   4.591  -2.112  1.00 20.00    -0.083 C 
HETATM    3  C3  UNL     1     -40.421   5.340  -0.690  1.00 20.00     0.033 C 
HETATM    4  C4  UNL     1     -41.512   6.970  -2.308  1.00 20.00     0.015 C 
HETATM    5  C5  UNL     1     -42.747   6.035  -2.036  1.00 20.00     0.022 C 
HETATM    6  C6  UNL     1     -41.160   6.690  -0.809  1.00 20.00    -0.002 C 
HETATM    7  C7  UNL     1     -42.731   6.636  -0.559  1.00 20.00    -0.036 C 
HETATM    8  C8  UNL     1     -43.158   3.627  -2.882  1.00 20.00     0.043 C 
HETATM    9  C9  UNL     1     -43.233   5.749   0.587  1.00 20.00     0.016 C 
HETATM   10  C10 UNL     1     -43.417   8.009  -0.413  1.00 20.00     0.016 C 
ENDROOT
TORSDOF 0
ENDMDL
MODEL 9
REMARK VINA RESULT:      -4.3     11.459     12.964
REMARK  0 active torsions:
REMARK  status: ('A' for Active; 'I' for Inactive)
ROOT
HETATM    1  C1  UNL     1     -41.167   7.007  -1.218  1.00 20.00    -0.024 C 
HETATM    2  C2  UNL     1     -42.345   6.828  -1.848  1.00 20.00    -0.083 C 
HETATM    3  C3  UNL     1     -40.779   6.138  -0.039  1.00 20.00     0.033 C 
HETATM    4  C4  UNL     1     -43.288   5.876   0.287  1.00 20.00     0.015 C 
HETATM    5  C5  UNL     1     -43.233   5.751  -1.279  1.00 20.00     0.022 C 
HETATM    6  C6  UNL     1     -41.913   5.129   0.246  1.00 20.00    -0.002 C 
HETATM    7  C7  UNL     1     -42.486   4.365  -1.028  1.00 20.00    -0.036 C 
HETATM    8  C8  UNL     1     -42.814   7.610  -3.027  1.00 20.00     0.043 C 
HETATM    9  C9  UNL     1     -41.475   3.888  -2.078  1.00 20.00     0.016 C 
HETATM   10  C10 UNL     1     -43.417   3.177  -0.714  1.00 20.00     0.016 C 
ENDROOT
TORSDOF 0
ENDMDL
