MODEL 1
REMARK VINA RESULT:      -3.3      0.000      0.000
REMARK  1 active torsions:
REMARK  status: ('A' for Active; 'I' for Inactive)
REMARK    1  A    between atoms: C3_3  and  N6_6 
ROOT
HETATM    1  C1  UNL     1     -35.269  16.632  -4.262  1.00 20.00     0.123 C 
HETATM    2  C2  UNL     1     -33.754  14.579  -3.673  1.00 20.00     0.123 C 
HETATM    3  C3  UNL     1     -34.694  15.698  -3.176  1.00 20.00     0.242 C 
HETATM    4  S7  UNL     1     -36.423  15.798  -5.401  1.00 20.00    -0.084 SA
HETATM    5  S8  UNL     1     -34.595  13.321  -4.692  1.00 20.00    -0.084 SA
HETATM    6  S9  UNL     1     -35.143  14.474  -6.288  1.00 20.00    -0.025 SA
ENDROOT
BRANCH   3   7
HETATM    7  N6  UNL     1     -33.945  16.542  -2.232  1.00 20.00     0.086 N 
HETATM    8  C4  UNL     1     -34.620  16.572  -0.938  1.00 20.00     0.310 C 
HETATM    9  C5  UNL     1     -33.800  17.892  -2.771  1.00 20.00     0.310 C 
ENDBRANCH   3   7
TORSDOF 1
ENDMDL
MODEL 2
REMARK VINA RESULT:      -3.3      0.953      1.921
REMARK  1 active torsions:
REMARK  status: ('A' for Active; 'I' for Inactive)
REMARK    1  A    between atoms: C3_3  and  N6_6 
ROOT
HETATM    1  C1  UNL     1     -34.583  14.823  -3.089  1.00 20.00     0.123 C 
HETATM    2  C2  UNL     1     -34.138  16.926  -4.584  1.00 20.00     0.123 C 
HETATM    3  C3  UNL     1     -33.684  16.036  -3.408  1.00 20.00     0.242 C 
HETATM    4  S7  UNL     1     -34.589  13.556  -4.400  1.00 20.00    -0.084 SA
HETATM    5  S8  UNL     1     -34.053  16.093  -6.205  1.00 20.00    -0.084 SA
HETATM    6  S9  UNL     1     -35.446  14.625  -5.916  1.00 20.00    -0.025 SA
ENDROOT
BRANCH   3   7
HETATM    7  N6  UNL     1     -33.631  16.866  -2.196  1.00 20.00     0.086 N 
HETATM    8  C4  UNL     1     -34.652  16.436  -1.246  1.00 20.00     0.310 C 
HETATM    9  C5  UNL     1     -33.807  18.274  -2.542  1.00 20.00     0.310 C 
ENDBRANCH   3   7
TORSDOF 1
ENDMDL
MODEL 3
REMARK VINA RESULT:      -3.2      1.228      1.404
REMARK  1 active torsions:
REMARK  status: ('A' for Active; 'I' for Inactive)
REMARK    1  A    between atoms: C3_3  and  N6_6 
ROOT
HETATM    1  C1  UNL     1     -33.448  16.629  -4.424  1.00 20.00     0.123 C 
HETATM    2  C2  UNL     1     -35.033  15.159  -2.946  1.00 20.00     0.123 C 
HETATM    3  C3  UNL     1     -34.465  16.559  -3.266  1.00 20.00     0.242 C 
HETATM    4  S7  UNL     1     -34.173  16.254  -6.055  1.00 20.00    -0.084 SA
HETATM    5  S8  UNL     1     -36.085  14.480  -4.272  1.00 20.00    -0.084 SA
HETATM    6  S9  UNL     1     -34.698  14.300  -5.762  1.00 20.00    -0.025 SA
ENDROOT
BRANCH   3   7
HETATM    7  N6  UNL     1     -33.788  17.067  -2.064  1.00 20.00     0.086 N 
HETATM    8  C4  UNL     1     -34.534  16.689  -0.868  1.00 20.00     0.310 C 
HETATM    9  C5  UNL     1     -33.641  18.517  -2.144  1.00 20.00     0.310 C 
ENDBRANCH   3   7
TORSDOF 1
ENDMDL
MODEL 4
REMARK VINA RESULT:      -3.2      3.016      3.931
REMARK  1 active torsions:
REMARK  status: ('A' for Active; 'I' for Inactive)
REMARK    1  A    between atoms: C3_3  and  N6_6 
ROOT
HETATM    1  C1  UNL     1     -34.285  16.493  -5.461  1.00 20.00     0.123 C 
HETATM    2  C2  UNL     1     -34.544  15.331  -3.130  1.00 20.00     0.123 C 
HETATM    3  C3  UNL     1     -33.903  15.320  -4.534  1.00 20.00     0.242 C 
HETATM    4  S7  UNL     1     -33.655  18.107  -4.890  1.00 20.00    -0.084 SA
HETATM    5  S8  UNL     1     -33.968  16.704  -2.077  1.00 20.00    -0.084 SA
HETATM    6  S9  UNL     1     -34.697  18.289  -3.141  1.00 20.00    -0.025 SA
ENDROOT
BRANCH   3   7
HETATM    7  N6  UNL     1     -34.308  14.081  -5.215  1.00 20.00     0.086 N 
HETATM    8  C4  UNL     1     -35.026  14.395  -6.447  1.00 20.00     0.310 C 
HETATM    9  C5  UNL     1     -35.135  13.267  -4.329  1.00 20.00     0.310 C 
ENDBRANCH   3   7
TORSDOF 1
ENDMDL
MODEL 5
REMARK VINA RESULT:      -3.1      3.059      4.209
REMARK  1 active torsions:
REMARK  status: ('A' for Active; 'I' for Inactive)
REMARK    1  A    between atoms: C3_3  and  N6_6 
ROOT
HETATM    1  C1  UNL     1     -35.074  15.327  -3.631  1.00 20.00     0.123 C 
HETATM    2  C2  UNL     1     -33.481  16.580  -5.289  1.00 20.00     0.123 C 
HETATM    3  C3  UNL     1     -34.716  15.674  -5.091  1.00 20.00     0.242 C 
HETATM    4  S7  UNL     1     -35.636  16.763  -2.657  1.00 20.00    -0.084 SA
HETATM    5  S8  UNL     1     -33.713  18.276  -4.657  1.00 20.00    -0.084 SA
HETATM    6  S9  UNL     1     -33.923  17.880  -2.663  1.00 20.00    -0.025 SA
ENDROOT
BRANCH   3   7
HETATM    7  N6  UNL     1     -34.471  14.404  -5.790  1.00 20.00     0.086 N 
HETATM    8  C4  UNL     1     -35.305  14.318  -6.985  1.00 20.00     0.310 C 
HETATM    9  C5  UNL     1     -34.731  13.279  -4.896  1.00 20.00     0.310 C 
ENDBRANCH   3   7
TORSDOF 1
ENDMDL
MODEL 6
REMARK VINA RESULT:      -3.0      1.846      2.970
REMARK  1 active torsions:
REMARK  status: ('A' for Active; 'I' for Inactive)
REMARK    1  A    between atoms: C3_3  and  N6_6 
ROOT
HETATM    1  C1  UNL     1     -34.638  14.311  -5.944  1.00 20.00     0.123 C 
HETATM    2  C2  UNL     1     -35.362  16.503  -4.708  1.00 20.00     0.123 C 
HETATM    3  C3  UNL     1     -34.214  15.613  -5.232  1.00 20.00     0.242 C 
HETATM    4  S7  UNL     1     -35.503  14.594  -7.525  1.00 20.00    -0.084 SA
HETATM    5  S8  UNL     1     -36.377  17.238  -6.032  1.00 20.00    -0.084 SA
HETATM    6  S9  UNL     1     -37.180  15.541  -6.840  1.00 20.00    -0.025 SA
ENDROOT
BRANCH   3   7
HETATM    7  N6  UNL     1     -33.372  15.228  -4.090  1.00 20.00     0.086 N 
HETATM    8  C4  UNL     1     -33.518  13.801  -3.816  1.00 20.00     0.310 C 
HETATM    9  C5  UNL     1     -33.726  16.018  -2.915  1.00 20.00     0.310 C 
ENDBRANCH   3   7
TORSDOF 1
ENDMDL
MODEL 7
REMARK VINA RESULT:      -3.0      2.972      4.084
REMARK  1 active torsions:
REMARK  status: ('A' for Active; 'I' for Inactive)
REMARK    1  A    between atoms: C3_3  and  N6_6 
ROOT
HETATM    1  C1  UNL     1     -34.474  15.150  -3.214  1.00 20.00     0.123 C 
HETATM    2  C2  UNL     1     -35.065  16.813  -5.148  1.00 20.00     0.123 C 
HETATM    3  C3  UNL     1     -35.390  15.499  -4.405  1.00 20.00     0.242 C 
HETATM    4  S7  UNL     1     -34.638  16.301  -1.808  1.00 20.00    -0.084 SA
HETATM    5  S8  UNL     1     -35.351  18.307  -4.142  1.00 20.00    -0.084 SA
HETATM    6  S9  UNL     1     -33.952  18.017  -2.681  1.00 20.00    -0.025 SA
ENDROOT
BRANCH   3   7
HETATM    7  N6  UNL     1     -35.290  14.390  -5.367  1.00 20.00     0.086 N 
HETATM    8  C4  UNL     1     -34.645  13.239  -4.743  1.00 20.00     0.310 C 
HETATM    9  C5  UNL     1     -34.552  14.817  -6.552  1.00 20.00     0.310 C 
ENDBRANCH   3   7
TORSDOF 1
ENDMDL
MODEL 8
REMARK VINA RESULT:      -3.0      3.048      4.076
REMARK  1 active torsions:
REMARK  status: ('A' for Active; 'I' for Inactive)
REMARK    1  A    between atoms: C3_3  and  N6_6 
ROOT
HETATM    1  C1  UNL     1     -35.628  14.078  -4.695  1.00 20.00     0.123 C 
HETATM    2  C2  UNL     1     -36.266  16.121  -3.187  1.00 20.00     0.123 C 
HETATM    3  C3  UNL     1     -36.617  14.704  -3.691  1.00 20.00     0.242 C 
HETATM    4  S7  UNL     1     -33.994  13.710  -3.975  1.00 20.00    -0.084 SA
HETATM    5  S8  UNL     1     -34.763  16.176  -2.156  1.00 20.00    -0.084 SA
HETATM    6  S9  UNL     1     -33.370  15.607  -3.538  1.00 20.00    -0.025 SA
ENDROOT
BRANCH   3   7
HETATM    7  N6  UNL     1     -37.929  14.763  -4.354  1.00 20.00     0.086 N 
HETATM    8  C4  UNL     1     -37.853  15.606  -5.544  1.00 20.00     0.310 C 
HETATM    9  C5  UNL     1     -38.939  15.266  -3.428  1.00 20.00     0.310 C 
ENDBRANCH   3   7
TORSDOF 1
ENDMDL
MODEL 9
REMARK VINA RESULT:      -3.0      2.554      3.193
REMARK  1 active torsions:
REMARK  status: ('A' for Active; 'I' for Inactive)
REMARK    1  A    between atoms: C3_3  and  N6_6 
ROOT
HETATM    1  C1  UNL     1     -35.029  16.467  -4.044  1.00 20.00     0.123 C 
HETATM    2  C2  UNL     1     -36.570  14.349  -4.041  1.00 20.00     0.123 C 
HETATM    3  C3  UNL     1     -35.378  15.103  -3.412  1.00 20.00     0.242 C 
HETATM    4  S7  UNL     1     -36.314  17.736  -3.791  1.00 20.00    -0.084 SA
HETATM    5  S8  UNL     1     -38.173  15.181  -3.789  1.00 20.00    -0.084 SA
HETATM    6  S9  UNL     1     -37.847  16.897  -4.851  1.00 20.00    -0.025 SA
ENDROOT
BRANCH   3   7
HETATM    7  N6  UNL     1     -34.183  14.253  -3.529  1.00 20.00     0.086 N 
HETATM    8  C4  UNL     1     -32.990  15.081  -3.679  1.00 20.00     0.310 C 
HETATM    9  C5  UNL     1     -34.324  13.340  -4.659  1.00 20.00     0.310 C 
ENDBRANCH   3   7
TORSDOF 1
ENDMDL
