MODEL 1
REMARK VINA RESULT:      -4.2      0.000      0.000
REMARK  2 active torsions:
REMARK  status: ('A' for Active; 'I' for Inactive)
REMARK    1  A    between atoms: C2_2  and  C4_4 
REMARK    2  A    between atoms: C4_4  and  O5_5 
ROOT
HETATM    1  C1  UNL     1     -34.898   6.101   3.795  1.00 20.00     0.052 A 
HETATM    2  C2  UNL     1     -33.470   5.630   3.799  1.00 20.00     0.051 A 
HETATM    3  C3  UNL     1     -34.306   5.517   5.053  1.00 20.00     0.119 A 
HETATM    4 CL6  UNL     1     -34.028   6.595   6.415  1.00 20.00    -0.101 Cl
HETATM    5 CL7  UNL     1     -34.837   3.906   5.539  1.00 20.00    -0.101 Cl
ENDROOT
BRANCH   2   6
HETATM    6  C4  UNL     1     -32.361   6.617   3.655  1.00 20.00     0.172 C 
BRANCH   6   7
HETATM    7  O5  UNL     1     -32.590   7.441   2.513  1.00 20.00    -0.400 OA
HETATM    8  H13 UNL     1     -32.225   6.963   1.753  1.00 20.00     0.209 HD
ENDBRANCH   6   7
ENDBRANCH   2   6
TORSDOF 2
ENDMDL
MODEL 2
REMARK VINA RESULT:      -3.7      2.890      3.490
REMARK  2 active torsions:
REMARK  status: ('A' for Active; 'I' for Inactive)
REMARK    1  A    between atoms: C2_2  and  C4_4 
REMARK    2  A    between atoms: C4_4  and  O5_5 
ROOT
HETATM    1  C1  UNL     1     -33.982   6.698   5.663  1.00 20.00     0.052 A 
HETATM    2  C2  UNL     1     -33.895   5.197   5.615  1.00 20.00     0.051 A 
HETATM    3  C3  UNL     1     -33.923   5.994   4.330  1.00 20.00     0.119 A 
HETATM    4 CL6  UNL     1     -35.363   6.013   3.320  1.00 20.00    -0.101 Cl
HETATM    5 CL7  UNL     1     -32.424   6.109   3.406  1.00 20.00    -0.101 Cl
ENDROOT
BRANCH   2   6
HETATM    6  C4  UNL     1     -35.047   4.370   6.077  1.00 20.00     0.172 C 
BRANCH   6   7
HETATM    7  O5  UNL     1     -35.332   3.355   5.115  1.00 20.00    -0.400 OA
HETATM    8  H13 UNL     1     -35.698   3.808   4.339  1.00 20.00     0.209 HD
ENDBRANCH   6   7
ENDBRANCH   2   6
TORSDOF 2
ENDMDL
MODEL 3
REMARK VINA RESULT:      -3.6     11.853     12.475
REMARK  2 active torsions:
REMARK  status: ('A' for Active; 'I' for Inactive)
REMARK    1  A    between atoms: C2_2  and  C4_4 
REMARK    2  A    between atoms: C4_4  and  O5_5 
ROOT
HETATM    1  C1  UNL     1     -35.584  15.629  -3.357  1.00 20.00     0.052 A 
HETATM    2  C2  UNL     1     -34.515  14.595  -3.132  1.00 20.00     0.051 A 
HETATM    3  C3  UNL     1     -34.147  16.060  -3.197  1.00 20.00     0.119 A 
HETATM    4 CL6  UNL     1     -33.316  16.712  -4.603  1.00 20.00    -0.101 Cl
HETATM    5 CL7  UNL     1     -33.693  16.856  -1.689  1.00 20.00    -0.101 Cl
ENDROOT
BRANCH   2   6
HETATM    6  C4  UNL     1     -34.174  13.629  -4.216  1.00 20.00     0.172 C 
BRANCH   6   7
HETATM    7  O5  UNL     1     -35.127  12.566  -4.235  1.00 20.00    -0.400 OA
HETATM    8  H13 UNL     1     -34.677  11.802  -4.627  1.00 20.00     0.209 HD
ENDBRANCH   6   7
ENDBRANCH   2   6
TORSDOF 2
ENDMDL
MODEL 4
REMARK VINA RESULT:      -3.5     11.865     12.557
REMARK  2 active torsions:
REMARK  status: ('A' for Active; 'I' for Inactive)
REMARK    1  A    between atoms: C2_2  and  C4_4 
REMARK    2  A    between atoms: C4_4  and  O5_5 
ROOT
HETATM    1  C1  UNL     1     -33.288  14.599  -3.799  1.00 20.00     0.052 A 
HETATM    2  C2  UNL     1     -34.623  14.820  -4.455  1.00 20.00     0.051 A 
HETATM    3  C3  UNL     1     -34.082  15.840  -3.479  1.00 20.00     0.119 A 
HETATM    4 CL6  UNL     1     -34.770  15.990  -1.868  1.00 20.00    -0.101 Cl
HETATM    5 CL7  UNL     1     -33.507  17.374  -4.135  1.00 20.00    -0.101 Cl
ENDROOT
BRANCH   2   6
HETATM    6  C4  UNL     1     -35.770  13.923  -4.131  1.00 20.00     0.172 C 
BRANCH   6   7
HETATM    7  O5  UNL     1     -35.341  12.562  -4.153  1.00 20.00    -0.400 OA
HETATM    8  H13 UNL     1     -35.973  12.084  -4.711  1.00 20.00     0.209 HD
ENDBRANCH   6   7
ENDBRANCH   2   6
TORSDOF 2
ENDMDL
MODEL 5
REMARK VINA RESULT:      -3.4     12.953     13.542
REMARK  2 active torsions:
REMARK  status: ('A' for Active; 'I' for Inactive)
REMARK    1  A    between atoms: C2_2  and  C4_4 
REMARK    2  A    between atoms: C4_4  and  O5_5 
ROOT
HETATM    1  C1  UNL     1     -35.542  15.467  -4.825  1.00 20.00     0.052 A 
HETATM    2  C2  UNL     1     -34.318  14.655  -4.505  1.00 20.00     0.051 A 
HETATM    3  C3  UNL     1     -34.282  15.662  -5.632  1.00 20.00     0.119 A 
HETATM    4 CL6  UNL     1     -34.281  15.130  -7.308  1.00 20.00    -0.101 Cl
HETATM    5 CL7  UNL     1     -33.364  17.146  -5.373  1.00 20.00    -0.101 Cl
ENDROOT
BRANCH   2   6
HETATM    6  C4  UNL     1     -34.320  13.181  -4.739  1.00 20.00     0.172 C 
BRANCH   6   7
HETATM    7  O5  UNL     1     -35.433  12.586  -4.074  1.00 20.00    -0.400 OA
HETATM    8  H13 UNL     1     -36.217  13.083  -4.355  1.00 20.00     0.209 HD
ENDBRANCH   6   7
ENDBRANCH   2   6
TORSDOF 2
ENDMDL
MODEL 6
REMARK VINA RESULT:      -3.4      9.057      9.848
REMARK  2 active torsions:
REMARK  status: ('A' for Active; 'I' for Inactive)
REMARK    1  A    between atoms: C2_2  and  C4_4 
REMARK    2  A    between atoms: C4_4  and  O5_5 
ROOT
HETATM    1  C1  UNL     1     -40.764   6.538  -0.503  1.00 20.00     0.052 A 
HETATM    2  C2  UNL     1     -41.564   5.831  -1.562  1.00 20.00     0.051 A 
HETATM    3  C3  UNL     1     -42.267   6.484  -0.394  1.00 20.00     0.119 A 
HETATM    4 CL6  UNL     1     -42.970   5.506   0.888  1.00 20.00    -0.101 Cl
HETATM    5 CL7  UNL     1     -43.166   7.970  -0.707  1.00 20.00    -0.101 Cl
ENDROOT
BRANCH   2   6
HETATM    6  C4  UNL     1     -41.456   4.351  -1.714  1.00 20.00     0.172 C 
BRANCH   6   7
HETATM    7  O5  UNL     1     -40.178   3.910  -1.258  1.00 20.00    -0.400 OA
HETATM    8  H13 UNL     1     -40.340   3.137  -0.696  1.00 20.00     0.209 HD
ENDBRANCH   6   7
ENDBRANCH   2   6
TORSDOF 2
ENDMDL
MODEL 7
REMARK VINA RESULT:      -3.4      2.755      3.061
REMARK  2 active torsions:
REMARK  status: ('A' for Active; 'I' for Inactive)
REMARK    1  A    between atoms: C2_2  and  C4_4 
REMARK    2  A    between atoms: C4_4  and  O5_5 
ROOT
HETATM    1  C1  UNL     1     -34.996   4.054   4.882  1.00 20.00     0.052 A 
HETATM    2  C2  UNL     1     -35.006   5.349   5.647  1.00 20.00     0.051 A 
HETATM    3  C3  UNL     1     -34.934   5.364   4.137  1.00 20.00     0.119 A 
HETATM    4 CL6  UNL     1     -33.436   5.780   3.316  1.00 20.00    -0.101 Cl
HETATM    5 CL7  UNL     1     -36.375   5.874   3.255  1.00 20.00    -0.101 Cl
ENDROOT
BRANCH   2   6
HETATM    6  C4  UNL     1     -33.847   5.712   6.513  1.00 20.00     0.172 C 
BRANCH   6   7
HETATM    7  O5  UNL     1     -33.854   7.116   6.769  1.00 20.00    -0.400 OA
HETATM    8  H13 UNL     1     -33.203   7.269   7.471  1.00 20.00     0.209 HD
ENDBRANCH   6   7
ENDBRANCH   2   6
TORSDOF 2
ENDMDL
MODEL 8
REMARK VINA RESULT:      -3.3     12.045     12.665
REMARK  2 active torsions:
REMARK  status: ('A' for Active; 'I' for Inactive)
REMARK    1  A    between atoms: C2_2  and  C4_4 
REMARK    2  A    between atoms: C4_4  and  O5_5 
ROOT
HETATM    1  C1  UNL     1     -35.397  15.567  -2.967  1.00 20.00     0.052 A 
HETATM    2  C2  UNL     1     -33.896  15.470  -2.929  1.00 20.00     0.051 A 
HETATM    3  C3  UNL     1     -34.596  16.635  -2.266  1.00 20.00     0.119 A 
HETATM    4 CL6  UNL     1     -34.543  18.238  -2.987  1.00 20.00    -0.101 Cl
HETATM    5 CL7  UNL     1     -34.638  16.668  -0.503  1.00 20.00    -0.101 Cl
ENDROOT
BRANCH   2   6
HETATM    6  C4  UNL     1     -33.109  15.612  -4.188  1.00 20.00     0.172 C 
BRANCH   6   7
HETATM    7  O5  UNL     1     -31.811  15.044  -4.014  1.00 20.00    -0.400 OA
HETATM    8  H13 UNL     1     -31.934  14.083  -3.988  1.00 20.00     0.209 HD
ENDBRANCH   6   7
ENDBRANCH   2   6
TORSDOF 2
ENDMDL
MODEL 9
REMARK VINA RESULT:      -3.3      3.014      3.677
REMARK  2 active torsions:
REMARK  status: ('A' for Active; 'I' for Inactive)
REMARK    1  A    between atoms: C2_2  and  C4_4 
REMARK    2  A    between atoms: C4_4  and  O5_5 
ROOT
HETATM    1  C1  UNL     1     -34.746   6.594   4.411  1.00 20.00     0.052 A 
HETATM    2  C2  UNL     1     -34.078   5.364   4.962  1.00 20.00     0.051 A 
HETATM    3  C3  UNL     1     -33.666   5.908   3.613  1.00 20.00     0.119 A 
HETATM    4 CL6  UNL     1     -34.130   5.078   2.134  1.00 20.00    -0.101 Cl
HETATM    5 CL7  UNL     1     -32.097   6.708   3.498  1.00 20.00    -0.101 Cl
ENDROOT
BRANCH   2   6
HETATM    6  C4  UNL     1     -34.856   4.102   5.120  1.00 20.00     0.172 C 
BRANCH   6   7
HETATM    7  O5  UNL     1     -35.549   4.112   6.367  1.00 20.00    -0.400 OA
HETATM    8  H13 UNL     1     -36.157   4.866   6.336  1.00 20.00     0.209 HD
ENDBRANCH   6   7
ENDBRANCH   2   6
TORSDOF 2
ENDMDL
