MODEL 1
REMARK VINA RESULT:      -5.3      0.000      0.000
REMARK  1 active torsions:
REMARK  status: ('A' for Active; 'I' for Inactive)
REMARK    1  A    between atoms: C11_11  and  C12_12 
ROOT
HETATM    1  C1  UNL     1     -34.012  18.091  -6.351  1.00 20.00     0.059 C 
HETATM    2  C12 UNL     1     -34.323  16.766  -6.871  1.00 20.00     0.133 C 
HETATM    3  N13 UNL     1     -33.764  19.158  -5.970  1.00 20.00    -0.197 NA
ENDROOT
BRANCH   2   4
HETATM    4  C11 UNL     1     -34.457  15.898  -5.616  1.00 20.00    -0.027 C 
HETATM    5  C5  UNL     1     -33.210  16.061  -4.715  1.00 20.00     0.015 C 
HETATM    6  C8  UNL     1     -33.343  15.190  -3.452  1.00 20.00    -0.013 C 
HETATM    7  C2  UNL     1     -34.596  15.618  -2.671  1.00 20.00     0.009 C 
HETATM    8  C3  UNL     1     -33.481  13.717  -3.867  1.00 20.00     0.009 C 
HETATM    9  C9  UNL     1     -35.848  15.443  -3.547  1.00 20.00    -0.013 C 
HETATM   10  C4  UNL     1     -35.975  13.968  -3.961  1.00 20.00     0.009 C 
HETATM   11  C6  UNL     1     -35.710  16.313  -4.808  1.00 20.00     0.015 C 
HETATM   12  C10 UNL     1     -34.728  13.532  -4.748  1.00 20.00    -0.013 C 
HETATM   13  C7  UNL     1     -34.592  14.407  -6.007  1.00 20.00     0.015 C 
ENDBRANCH   2   4
TORSDOF 1
ENDMDL
MODEL 2
REMARK VINA RESULT:      -5.3      0.009      2.092
REMARK  1 active torsions:
REMARK  status: ('A' for Active; 'I' for Inactive)
REMARK    1  A    between atoms: C11_11  and  C12_12 
ROOT
HETATM    1  C1  UNL     1     -34.009  18.095  -6.358  1.00 20.00     0.059 C 
HETATM    2  C12 UNL     1     -34.317  16.769  -6.876  1.00 20.00     0.133 C 
HETATM    3  N13 UNL     1     -33.763  19.163  -5.979  1.00 20.00    -0.197 NA
ENDROOT
BRANCH   2   4
HETATM    4  C11 UNL     1     -34.454  15.904  -5.620  1.00 20.00    -0.027 C 
HETATM    5  C5  UNL     1     -34.593  14.412  -6.008  1.00 20.00     0.015 C 
HETATM    6  C8  UNL     1     -34.730  13.540  -4.747  1.00 20.00    -0.013 C 
HETATM    7  C2  UNL     1     -33.484  13.723  -3.865  1.00 20.00     0.009 C 
HETATM    8  C3  UNL     1     -35.976  13.979  -3.962  1.00 20.00     0.009 C 
HETATM    9  C9  UNL     1     -33.343  15.199  -3.454  1.00 20.00    -0.013 C 
HETATM   10  C4  UNL     1     -34.595  15.630  -2.675  1.00 20.00     0.009 C 
HETATM   11  C6  UNL     1     -33.208  16.067  -4.717  1.00 20.00     0.015 C 
HETATM   12  C10 UNL     1     -35.847  15.455  -3.550  1.00 20.00    -0.013 C 
HETATM   13  C7  UNL     1     -35.706  16.322  -4.814  1.00 20.00     0.015 C 
ENDBRANCH   2   4
TORSDOF 1
ENDMDL
MODEL 3
REMARK VINA RESULT:      -5.3      0.023      2.094
REMARK  1 active torsions:
REMARK  status: ('A' for Active; 'I' for Inactive)
REMARK    1  A    between atoms: C11_11  and  C12_12 
ROOT
HETATM    1  C1  UNL     1     -34.016  18.069  -6.375  1.00 20.00     0.059 C 
HETATM    2  C12 UNL     1     -34.321  16.737  -6.881  1.00 20.00     0.133 C 
HETATM    3  N13 UNL     1     -33.772  19.141  -6.004  1.00 20.00    -0.197 NA
ENDROOT
BRANCH   2   4
HETATM    4  C11 UNL     1     -34.452  15.882  -5.618  1.00 20.00    -0.027 C 
HETATM    5  C5  UNL     1     -35.707  16.299  -4.814  1.00 20.00     0.015 C 
HETATM    6  C8  UNL     1     -35.841  15.439  -3.544  1.00 20.00    -0.013 C 
HETATM    7  C2  UNL     1     -35.961  13.959  -3.945  1.00 20.00     0.009 C 
HETATM    8  C3  UNL     1     -34.591  15.628  -2.670  1.00 20.00     0.009 C 
HETATM    9  C9  UNL     1     -34.712  13.522  -4.728  1.00 20.00    -0.013 C 
HETATM   10  C4  UNL     1     -33.467  13.721  -3.849  1.00 20.00     0.009 C 
HETATM   11  C6  UNL     1     -34.581  14.386  -5.995  1.00 20.00     0.015 C 
HETATM   12  C10 UNL     1     -33.335  15.199  -3.447  1.00 20.00    -0.013 C 
HETATM   13  C7  UNL     1     -33.207  16.059  -4.717  1.00 20.00     0.015 C 
ENDBRANCH   2   4
TORSDOF 1
ENDMDL
MODEL 4
REMARK VINA RESULT:      -5.1      2.194      3.619
REMARK  1 active torsions:
REMARK  status: ('A' for Active; 'I' for Inactive)
REMARK    1  A    between atoms: C11_11  and  C12_12 
ROOT
HETATM    1  C1  UNL     1     -38.260  14.955  -3.799  1.00 20.00     0.059 C 
HETATM    2  C12 UNL     1     -37.273  15.728  -3.057  1.00 20.00     0.133 C 
HETATM    3  N13 UNL     1     -39.070  14.353  -4.370  1.00 20.00    -0.197 NA
ENDROOT
BRANCH   2   4
HETATM    4  C11 UNL     1     -35.945  15.384  -3.736  1.00 20.00    -0.027 C 
HETATM    5  C5  UNL     1     -34.763  15.655  -2.775  1.00 20.00     0.015 C 
HETATM    6  C8  UNL     1     -33.427  15.309  -3.456  1.00 20.00    -0.013 C 
HETATM    7  C2  UNL     1     -33.430  13.824  -3.854  1.00 20.00     0.009 C 
HETATM    8  C3  UNL     1     -33.264  16.172  -4.718  1.00 20.00     0.009 C 
HETATM    9  C9  UNL     1     -34.587  13.542  -4.826  1.00 20.00    -0.013 C 
HETATM   10  C4  UNL     1     -34.419  14.413  -6.081  1.00 20.00     0.009 C 
HETATM   11  C6  UNL     1     -35.921  13.891  -4.142  1.00 20.00     0.015 C 
HETATM   12  C10 UNL     1     -34.420  15.901  -5.695  1.00 20.00    -0.013 C 
HETATM   13  C7  UNL     1     -35.754  16.244  -5.008  1.00 20.00     0.015 C 
ENDBRANCH   2   4
TORSDOF 1
ENDMDL
MODEL 5
REMARK VINA RESULT:      -5.1      2.192      3.804
REMARK  1 active torsions:
REMARK  status: ('A' for Active; 'I' for Inactive)
REMARK    1  A    between atoms: C11_11  and  C12_12 
ROOT
HETATM    1  C1  UNL     1     -38.266  14.985  -3.794  1.00 20.00     0.059 C 
HETATM    2  C12 UNL     1     -37.274  15.759  -3.061  1.00 20.00     0.133 C 
HETATM    3  N13 UNL     1     -39.081  14.381  -4.357  1.00 20.00    -0.197 NA
ENDROOT
BRANCH   2   4
HETATM    4  C11 UNL     1     -35.948  15.400  -3.739  1.00 20.00    -0.027 C 
HETATM    5  C5  UNL     1     -35.935  13.905  -4.135  1.00 20.00     0.015 C 
HETATM    6  C8  UNL     1     -34.604  13.542  -4.818  1.00 20.00    -0.013 C 
HETATM    7  C2  UNL     1     -34.429  14.404  -6.078  1.00 20.00     0.009 C 
HETATM    8  C3  UNL     1     -33.445  13.822  -3.847  1.00 20.00     0.009 C 
HETATM    9  C9  UNL     1     -34.420  15.895  -5.699  1.00 20.00    -0.013 C 
HETATM   10  C4  UNL     1     -33.263  16.163  -4.725  1.00 20.00     0.009 C 
HETATM   11  C6  UNL     1     -35.752  16.252  -5.016  1.00 20.00     0.015 C 
HETATM   12  C10 UNL     1     -33.431  15.309  -3.458  1.00 20.00    -0.013 C 
HETATM   13  C7  UNL     1     -34.765  15.668  -2.779  1.00 20.00     0.015 C 
ENDBRANCH   2   4
TORSDOF 1
ENDMDL
MODEL 6
REMARK VINA RESULT:      -5.1      2.192      3.592
REMARK  1 active torsions:
REMARK  status: ('A' for Active; 'I' for Inactive)
REMARK    1  A    between atoms: C11_11  and  C12_12 
ROOT
HETATM    1  C1  UNL     1     -38.265  14.967  -3.798  1.00 20.00     0.059 C 
HETATM    2  C12 UNL     1     -37.275  15.729  -3.049  1.00 20.00     0.133 C 
HETATM    3  N13 UNL     1     -39.077  14.372  -4.375  1.00 20.00    -0.197 NA
ENDROOT
BRANCH   2   4
HETATM    4  C11 UNL     1     -35.949  15.387  -3.731  1.00 20.00    -0.027 C 
HETATM    5  C5  UNL     1     -35.760  16.249  -5.002  1.00 20.00     0.015 C 
HETATM    6  C8  UNL     1     -34.426  15.908  -5.690  1.00 20.00    -0.013 C 
HETATM    7  C2  UNL     1     -33.269  16.180  -4.715  1.00 20.00     0.009 C 
HETATM    8  C3  UNL     1     -34.423  14.421  -6.079  1.00 20.00     0.009 C 
HETATM    9  C9  UNL     1     -33.430  15.315  -3.453  1.00 20.00    -0.013 C 
HETATM   10  C4  UNL     1     -33.432  13.831  -3.852  1.00 20.00     0.009 C 
HETATM   11  C6  UNL     1     -34.766  15.658  -2.770  1.00 20.00     0.015 C 
HETATM   12  C10 UNL     1     -34.589  13.548  -4.824  1.00 20.00    -0.013 C 
HETATM   13  C7  UNL     1     -35.923  13.895  -4.138  1.00 20.00     0.015 C 
ENDBRANCH   2   4
TORSDOF 1
ENDMDL
MODEL 7
REMARK VINA RESULT:      -5.0      2.111      3.433
REMARK  1 active torsions:
REMARK  status: ('A' for Active; 'I' for Inactive)
REMARK    1  A    between atoms: C11_11  and  C12_12 
ROOT
HETATM    1  C1  UNL     1     -34.230  16.848  -1.393  1.00 20.00     0.059 C 
HETATM    2  C12 UNL     1     -33.565  17.018  -2.678  1.00 20.00     0.133 C 
HETATM    3  N13 UNL     1     -34.736  16.735  -0.355  1.00 20.00    -0.197 NA
ENDROOT
BRANCH   2   4
HETATM    4  C11 UNL     1     -34.381  16.145  -3.635  1.00 20.00    -0.027 C 
HETATM    5  C5  UNL     1     -33.714  16.111  -5.031  1.00 20.00     0.015 C 
HETATM    6  C8  UNL     1     -34.531  15.232  -5.996  1.00 20.00    -0.013 C 
HETATM    7  C2  UNL     1     -34.612  13.803  -5.435  1.00 20.00     0.009 C 
HETATM    8  C3  UNL     1     -35.951  15.807  -6.123  1.00 20.00     0.009 C 
HETATM    9  C9  UNL     1     -35.291  13.816  -4.055  1.00 20.00    -0.013 C 
HETATM   10  C4  UNL     1     -36.706  14.398  -4.191  1.00 20.00     0.009 C 
HETATM   11  C6  UNL     1     -34.471  14.697  -3.095  1.00 20.00     0.015 C 
HETATM   12  C10 UNL     1     -36.637  15.830  -4.747  1.00 20.00    -0.013 C 
HETATM   13  C7  UNL     1     -35.814  16.706  -3.786  1.00 20.00     0.015 C 
ENDBRANCH   2   4
TORSDOF 1
ENDMDL
MODEL 8
REMARK VINA RESULT:      -5.0      2.111      3.484
REMARK  1 active torsions:
REMARK  status: ('A' for Active; 'I' for Inactive)
REMARK    1  A    between atoms: C11_11  and  C12_12 
ROOT
HETATM    1  C1  UNL     1     -34.239  16.881  -1.390  1.00 20.00     0.059 C 
HETATM    2  C12 UNL     1     -33.609  17.091  -2.686  1.00 20.00     0.133 C 
HETATM    3  N13 UNL     1     -34.719  16.737  -0.344  1.00 20.00    -0.197 NA
ENDROOT
BRANCH   2   4
HETATM    4  C11 UNL     1     -34.395  16.181  -3.633  1.00 20.00    -0.027 C 
HETATM    5  C5  UNL     1     -35.841  16.705  -3.805  1.00 20.00     0.015 C 
HETATM    6  C8  UNL     1     -36.633  15.791  -4.758  1.00 20.00    -0.013 C 
HETATM    7  C2  UNL     1     -35.936  15.761  -6.128  1.00 20.00     0.009 C 
HETATM    8  C3  UNL     1     -36.673  14.368  -4.178  1.00 20.00     0.009 C 
HETATM    9  C9  UNL     1     -34.503  15.223  -5.978  1.00 20.00    -0.013 C 
HETATM   10  C4  UNL     1     -34.553  13.803  -5.392  1.00 20.00     0.009 C 
HETATM   11  C6  UNL     1     -33.716  16.138  -5.023  1.00 20.00     0.015 C 
HETATM   12  C10 UNL     1     -35.244  13.823  -4.019  1.00 20.00    -0.013 C 
HETATM   13  C7  UNL     1     -34.455  14.742  -3.068  1.00 20.00     0.015 C 
ENDBRANCH   2   4
TORSDOF 1
ENDMDL
MODEL 9
REMARK VINA RESULT:      -5.0      2.329      3.695
REMARK  1 active torsions:
REMARK  status: ('A' for Active; 'I' for Inactive)
REMARK    1  A    between atoms: C11_11  and  C12_12 
ROOT
HETATM    1  C1  UNL     1     -37.890  14.736  -4.574  1.00 20.00     0.059 C 
HETATM    2  C12 UNL     1     -36.934  15.163  -5.586  1.00 20.00     0.133 C 
HETATM    3  N13 UNL     1     -38.675  14.388  -3.793  1.00 20.00    -0.197 NA
ENDROOT
BRANCH   2   4
HETATM    4  C11 UNL     1     -35.716  15.617  -4.777  1.00 20.00    -0.027 C 
HETATM    5  C5  UNL     1     -35.280  14.505  -3.793  1.00 20.00     0.015 C 
HETATM    6  C8  UNL     1     -34.054  14.958  -2.979  1.00 20.00    -0.013 C 
HETATM    7  C2  UNL     1     -32.896  15.270  -3.940  1.00 20.00     0.009 C 
HETATM    8  C3  UNL     1     -34.413  16.226  -2.188  1.00 20.00     0.009 C 
HETATM    9  C9  UNL     1     -33.305  16.389  -4.913  1.00 20.00    -0.013 C 
HETATM   10  C4  UNL     1     -33.667  17.650  -4.113  1.00 20.00     0.009 C 
HETATM   11  C6  UNL     1     -34.532  15.932  -5.723  1.00 20.00     0.015 C 
HETATM   12  C10 UNL     1     -34.830  17.350  -3.153  1.00 20.00    -0.013 C 
HETATM   13  C7  UNL     1     -36.053  16.890  -3.966  1.00 20.00     0.015 C 
ENDBRANCH   2   4
TORSDOF 1
ENDMDL
