MODEL 1
REMARK VINA RESULT:      -4.6      0.000      0.000
REMARK  2 active torsions:
REMARK  status: ('A' for Active; 'I' for Inactive)
REMARK    1  A    between atoms: C3_3  and  C10_10 
REMARK    2  A    between atoms: C5_5  and  C10_10 
ROOT
HETATM    1  C1  UNL     1     -33.225  16.084  -4.858  1.00 20.00    -0.023 C 
HETATM    2  C2  UNL     1     -34.325  15.562  -5.417  1.00 20.00    -0.079 C 
HETATM    3  C4  UNL     1     -33.014  15.586  -3.467  1.00 20.00     0.033 C 
HETATM    4  C5  UNL     1     -34.395  15.008  -3.098  1.00 20.00     0.007 C 
HETATM    5  C6  UNL     1     -35.033  14.609  -4.471  1.00 20.00    -0.021 C 
HETATM    6  C7  UNL     1     -34.789  15.815  -6.809  1.00 20.00     0.044 C 
HETATM    7  C8  UNL     1     -34.656  13.156  -4.823  1.00 20.00     0.020 C 
HETATM    8  C9  UNL     1     -36.560  14.746  -4.509  1.00 20.00     0.020 C 
ENDROOT
BRANCH   4   9
HETATM    9  C10 UNL     1     -35.190  16.043  -2.291  1.00 20.00     0.075 C 
BRANCH   9  10
HETATM   10  C3  UNL     1     -34.394  16.617  -1.148  1.00 20.00     0.231 C 
HETATM   11  O11 UNL     1     -34.841  16.858  -0.032  1.00 20.00    -0.307 OA
ENDBRANCH   9  10
ENDBRANCH   4   9
TORSDOF 2
ENDMDL
MODEL 2
REMARK VINA RESULT:      -4.5      1.162      1.829
REMARK  2 active torsions:
REMARK  status: ('A' for Active; 'I' for Inactive)
REMARK    1  A    between atoms: C3_3  and  C10_10 
REMARK    2  A    between atoms: C5_5  and  C10_10 
ROOT
HETATM    1  C1  UNL     1     -34.374  13.551  -5.007  1.00 20.00    -0.023 C 
HETATM    2  C2  UNL     1     -35.250  14.436  -5.499  1.00 20.00    -0.079 C 
HETATM    3  C4  UNL     1     -34.284  13.620  -3.519  1.00 20.00     0.033 C 
HETATM    4  C5  UNL     1     -34.923  14.987  -3.201  1.00 20.00     0.007 C 
HETATM    5  C6  UNL     1     -35.901  15.249  -4.394  1.00 20.00    -0.021 C 
HETATM    6  C7  UNL     1     -35.610  14.589  -6.936  1.00 20.00     0.044 C 
HETATM    7  C8  UNL     1     -37.291  14.664  -4.073  1.00 20.00     0.020 C 
HETATM    8  C9  UNL     1     -36.062  16.732  -4.752  1.00 20.00     0.020 C 
ENDROOT
BRANCH   4   9
HETATM    9  C10 UNL     1     -33.823  16.042  -3.021  1.00 20.00     0.075 C 
BRANCH   9  10
HETATM   10  C3  UNL     1     -33.949  16.789  -1.719  1.00 20.00     0.231 C 
HETATM   11  O11 UNL     1     -34.603  16.411  -0.753  1.00 20.00    -0.307 OA
ENDBRANCH   9  10
ENDBRANCH   4   9
TORSDOF 2
ENDMDL
MODEL 3
REMARK VINA RESULT:      -4.4     11.484     12.628
REMARK  2 active torsions:
REMARK  status: ('A' for Active; 'I' for Inactive)
REMARK    1  A    between atoms: C3_3  and  C10_10 
REMARK    2  A    between atoms: C5_5  and  C10_10 
ROOT
HETATM    1  C1  UNL     1     -34.080   5.765   6.107  1.00 20.00    -0.023 C 
HETATM    2  C2  UNL     1     -34.536   4.957   5.142  1.00 20.00    -0.079 C 
HETATM    3  C4  UNL     1     -33.771   7.132   5.592  1.00 20.00     0.033 C 
HETATM    4  C5  UNL     1     -33.699   6.914   4.068  1.00 20.00     0.007 C 
HETATM    5  C6  UNL     1     -34.612   5.671   3.805  1.00 20.00    -0.021 C 
HETATM    6  C7  UNL     1     -34.981   3.548   5.334  1.00 20.00     0.044 C 
HETATM    7  C8  UNL     1     -36.062   6.130   3.546  1.00 20.00     0.020 C 
HETATM    8  C9  UNL     1     -34.153   4.800   2.629  1.00 20.00     0.020 C 
ENDROOT
BRANCH   4   9
HETATM    9  C10 UNL     1     -32.235   6.744   3.639  1.00 20.00     0.075 C 
BRANCH   9  10
HETATM   10  C3  UNL     1     -31.843   7.695   2.539  1.00 20.00     0.231 C 
HETATM   11  O11 UNL     1     -32.511   8.654   2.168  1.00 20.00    -0.307 OA
ENDBRANCH   9  10
ENDBRANCH   4   9
TORSDOF 2
ENDMDL
MODEL 4
REMARK VINA RESULT:      -4.4      2.306      3.956
REMARK  2 active torsions:
REMARK  status: ('A' for Active; 'I' for Inactive)
REMARK    1  A    between atoms: C3_3  and  C10_10 
REMARK    2  A    between atoms: C5_5  and  C10_10 
ROOT
HETATM    1  C1  UNL     1     -33.407  15.779  -2.935  1.00 20.00    -0.023 C 
HETATM    2  C2  UNL     1     -34.455  16.410  -2.390  1.00 20.00    -0.079 C 
HETATM    3  C4  UNL     1     -33.474  15.769  -4.426  1.00 20.00     0.033 C 
HETATM    4  C5  UNL     1     -34.949  16.117  -4.705  1.00 20.00     0.007 C 
HETATM    5  C6  UNL     1     -35.403  16.938  -3.452  1.00 20.00    -0.021 C 
HETATM    6  C7  UNL     1     -34.665  16.637  -0.933  1.00 20.00     0.044 C 
HETATM    7  C8  UNL     1     -35.135  18.439  -3.683  1.00 20.00     0.020 C 
HETATM    8  C9  UNL     1     -36.881  16.752  -3.088  1.00 20.00     0.020 C 
ENDROOT
BRANCH   4   9
HETATM    9  C10 UNL     1     -35.745  14.829  -4.957  1.00 20.00     0.075 C 
BRANCH   9  10
HETATM   10  C3  UNL     1     -34.859  13.668  -5.328  1.00 20.00     0.231 C 
HETATM   11  O11 UNL     1     -34.832  12.590  -4.744  1.00 20.00    -0.307 OA
ENDBRANCH   9  10
ENDBRANCH   4   9
TORSDOF 2
ENDMDL
MODEL 5
REMARK VINA RESULT:      -4.2      2.236      3.651
REMARK  2 active torsions:
REMARK  status: ('A' for Active; 'I' for Inactive)
REMARK    1  A    between atoms: C3_3  and  C10_10 
REMARK    2  A    between atoms: C5_5  and  C10_10 
ROOT
HETATM    1  C1  UNL     1     -34.700  13.741  -5.154  1.00 20.00    -0.023 C 
HETATM    2  C2  UNL     1     -33.948  14.263  -4.177  1.00 20.00    -0.079 C 
HETATM    3  C4  UNL     1     -35.704  14.719  -5.670  1.00 20.00     0.033 C 
HETATM    4  C5  UNL     1     -35.742  15.787  -4.559  1.00 20.00     0.007 C 
HETATM    5  C6  UNL     1     -34.332  15.701  -3.884  1.00 20.00    -0.021 C 
HETATM    6  C7  UNL     1     -32.826  13.568  -3.486  1.00 20.00     0.044 C 
HETATM    7  C8  UNL     1     -33.350  16.654  -4.595  1.00 20.00     0.020 C 
HETATM    8  C9  UNL     1     -34.340  16.030  -2.386  1.00 20.00     0.020 C 
ENDROOT
BRANCH   4   9
HETATM    9  C10 UNL     1     -36.927  15.516  -3.622  1.00 20.00     0.075 C 
BRANCH   9  10
HETATM   10  C3  UNL     1     -38.132  14.989  -4.355  1.00 20.00     0.231 C 
HETATM   11  O11 UNL     1     -38.892  14.125  -3.930  1.00 20.00    -0.307 OA
ENDBRANCH   9  10
ENDBRANCH   4   9
TORSDOF 2
ENDMDL
MODEL 6
REMARK VINA RESULT:      -4.2      0.913      2.564
REMARK  2 active torsions:
REMARK  status: ('A' for Active; 'I' for Inactive)
REMARK    1  A    between atoms: C3_3  and  C10_10 
REMARK    2  A    between atoms: C5_5  and  C10_10 
ROOT
HETATM    1  C1  UNL     1     -36.386  14.774  -3.804  1.00 20.00    -0.023 C 
HETATM    2  C2  UNL     1     -35.166  14.440  -4.244  1.00 20.00    -0.079 C 
HETATM    3  C4  UNL     1     -36.421  16.160  -3.252  1.00 20.00     0.033 C 
HETATM    4  C5  UNL     1     -34.930  16.476  -3.024  1.00 20.00     0.007 C 
HETATM    5  C6  UNL     1     -34.176  15.576  -4.058  1.00 20.00    -0.021 C 
HETATM    6  C7  UNL     1     -34.805  13.150  -4.895  1.00 20.00     0.044 C 
HETATM    7  C8  UNL     1     -34.005  16.335  -5.390  1.00 20.00     0.020 C 
HETATM    8  C9  UNL     1     -32.797  15.102  -3.581  1.00 20.00     0.020 C 
ENDROOT
BRANCH   4   9
HETATM    9  C10 UNL     1     -34.566  16.218  -1.555  1.00 20.00     0.075 C 
BRANCH   9  10
HETATM   10  C3  UNL     1     -34.091  17.463  -0.853  1.00 20.00     0.231 C 
HETATM   11  O11 UNL     1     -34.195  17.674   0.351  1.00 20.00    -0.307 OA
ENDBRANCH   9  10
ENDBRANCH   4   9
TORSDOF 2
ENDMDL
MODEL 7
REMARK VINA RESULT:      -4.2      2.322      3.809
REMARK  2 active torsions:
REMARK  status: ('A' for Active; 'I' for Inactive)
REMARK    1  A    between atoms: C3_3  and  C10_10 
REMARK    2  A    between atoms: C5_5  and  C10_10 
ROOT
HETATM    1  C1  UNL     1     -33.784  16.110  -2.694  1.00 20.00    -0.023 C 
HETATM    2  C2  UNL     1     -34.573  17.083  -3.166  1.00 20.00    -0.079 C 
HETATM    3  C4  UNL     1     -33.025  15.428  -3.783  1.00 20.00     0.033 C 
HETATM    4  C5  UNL     1     -33.796  15.846  -5.051  1.00 20.00     0.007 C 
HETATM    5  C6  UNL     1     -34.459  17.213  -4.674  1.00 20.00    -0.021 C 
HETATM    6  C7  UNL     1     -35.422  17.985  -2.338  1.00 20.00     0.044 C 
HETATM    7  C8  UNL     1     -33.505  18.373  -5.022  1.00 20.00     0.020 C 
HETATM    8  C9  UNL     1     -35.807  17.460  -5.362  1.00 20.00     0.020 C 
ENDROOT
BRANCH   4   9
HETATM    9  C10 UNL     1     -34.780  14.736  -5.446  1.00 20.00     0.075 C 
BRANCH   9  10
HETATM   10  C3  UNL     1     -34.373  13.388  -4.913  1.00 20.00     0.231 C 
HETATM   11  O11 UNL     1     -35.110  12.622  -4.301  1.00 20.00    -0.307 OA
ENDBRANCH   9  10
ENDBRANCH   4   9
TORSDOF 2
ENDMDL
MODEL 8
REMARK VINA RESULT:      -4.2      2.703      4.453
REMARK  2 active torsions:
REMARK  status: ('A' for Active; 'I' for Inactive)
REMARK    1  A    between atoms: C3_3  and  C10_10 
REMARK    2  A    between atoms: C5_5  and  C10_10 
ROOT
HETATM    1  C1  UNL     1     -35.782  14.267  -3.763  1.00 20.00    -0.023 C 
HETATM    2  C2  UNL     1     -34.947  15.245  -3.388  1.00 20.00    -0.079 C 
HETATM    3  C4  UNL     1     -35.278  13.529  -4.959  1.00 20.00     0.033 C 
HETATM    4  C5  UNL     1     -34.209  14.485  -5.525  1.00 20.00     0.007 C 
HETATM    5  C6  UNL     1     -33.725  15.311  -4.287  1.00 20.00    -0.021 C 
HETATM    6  C7  UNL     1     -35.131  16.133  -2.207  1.00 20.00     0.044 C 
HETATM    7  C8  UNL     1     -32.543  14.593  -3.606  1.00 20.00     0.020 C 
HETATM    8  C9  UNL     1     -33.302  16.746  -4.625  1.00 20.00     0.020 C 
ENDROOT
BRANCH   4   9
HETATM    9  C10 UNL     1     -34.814  15.318  -6.664  1.00 20.00     0.075 C 
BRANCH   9  10
HETATM   10  C3  UNL     1     -35.625  14.484  -7.620  1.00 20.00     0.231 C 
HETATM   11  O11 UNL     1     -36.796  14.696  -7.918  1.00 20.00    -0.307 OA
ENDBRANCH   9  10
ENDBRANCH   4   9
TORSDOF 2
ENDMDL
MODEL 9
REMARK VINA RESULT:      -4.2      2.366      3.718
REMARK  2 active torsions:
REMARK  status: ('A' for Active; 'I' for Inactive)
REMARK    1  A    between atoms: C3_3  and  C10_10 
REMARK    2  A    between atoms: C5_5  and  C10_10 
ROOT
HETATM    1  C1  UNL     1     -33.526  17.754  -4.777  1.00 20.00    -0.023 C 
HETATM    2  C2  UNL     1     -33.931  17.903  -3.509  1.00 20.00    -0.079 C 
HETATM    3  C4  UNL     1     -34.038  16.488  -5.382  1.00 20.00     0.033 C 
HETATM    4  C5  UNL     1     -34.465  15.668  -4.148  1.00 20.00     0.007 C 
HETATM    5  C6  UNL     1     -34.799  16.742  -3.060  1.00 20.00    -0.021 C 
HETATM    6  C7  UNL     1     -33.636  19.077  -2.641  1.00 20.00     0.044 C 
HETATM    7  C8  UNL     1     -36.286  17.141  -3.154  1.00 20.00     0.020 C 
HETATM    8  C9  UNL     1     -34.501  16.286  -1.625  1.00 20.00     0.020 C 
ENDROOT
BRANCH   4   9
HETATM    9  C10 UNL     1     -33.347  14.687  -3.768  1.00 20.00     0.075 C 
BRANCH   9  10
HETATM   10  C3  UNL     1     -33.796  13.250  -3.834  1.00 20.00     0.231 C 
HETATM   11  O11 UNL     1     -34.857  12.867  -4.314  1.00 20.00    -0.307 OA
ENDBRANCH   9  10
ENDBRANCH   4   9
TORSDOF 2
ENDMDL
