MODEL 1
REMARK VINA RESULT:      -5.2      0.000      0.000
REMARK  1 active torsions:
REMARK  status: ('A' for Active; 'I' for Inactive)
REMARK    1  A    between atoms: C1_1  and  C10_10 
ROOT
HETATM    1  C2  UNL     1     -33.116  14.396  -3.730  1.00 20.00     0.009 C 
HETATM    2  C3  UNL     1     -34.136  16.622  -4.341  1.00 20.00     0.010 C 
HETATM    3  C4  UNL     1     -34.497  14.678  -5.823  1.00 20.00     0.010 C 
HETATM    4  C5  UNL     1     -35.095  15.451  -2.570  1.00 20.00     0.022 C 
HETATM    5  C6  UNL     1     -35.456  13.503  -4.052  1.00 20.00     0.022 C 
HETATM    6  C7  UNL     1     -33.716  15.724  -3.177  1.00 20.00    -0.013 C 
HETATM    7  C8  UNL     1     -34.093  13.696  -4.721  1.00 20.00    -0.013 C 
HETATM    8  C9  UNL     1     -35.220  15.755  -4.999  1.00 20.00     0.002 C 
HETATM    9  C10 UNL     1     -35.859  14.961  -3.806  1.00 20.00     0.024 C 
ENDROOT
BRANCH   9  10
HETATM   10  C1  UNL     1     -37.334  15.157  -3.681  1.00 20.00     0.132 C 
HETATM   11  C11 UNL     1     -37.819  16.572  -3.522  1.00 20.00     0.091 C 
HETATM   12  O12 UNL     1     -38.116  14.208  -3.710  1.00 20.00    -0.298 OA
ENDBRANCH   9  10
TORSDOF 1
ENDMDL
MODEL 2
REMARK VINA RESULT:      -5.0      0.710      1.919
REMARK  1 active torsions:
REMARK  status: ('A' for Active; 'I' for Inactive)
REMARK    1  A    between atoms: C1_1  and  C10_10 
ROOT
HETATM    1  C2  UNL     1     -33.171  15.902  -4.524  1.00 20.00     0.009 C 
HETATM    2  C3  UNL     1     -34.649  14.461  -5.976  1.00 20.00     0.010 C 
HETATM    3  C4  UNL     1     -34.076  13.697  -3.697  1.00 20.00     0.010 C 
HETATM    4  C5  UNL     1     -35.580  16.404  -5.092  1.00 20.00     0.022 C 
HETATM    5  C6  UNL     1     -35.006  15.641  -2.809  1.00 20.00     0.022 C 
HETATM    6  C7  UNL     1     -34.247  15.900  -5.652  1.00 20.00    -0.013 C 
HETATM    7  C8  UNL     1     -33.651  15.104  -3.275  1.00 20.00    -0.013 C 
HETATM    8  C9  UNL     1     -35.251  14.018  -4.634  1.00 20.00     0.002 C 
HETATM    9  C10 UNL     1     -35.870  15.331  -4.036  1.00 20.00     0.024 C 
ENDROOT
BRANCH   9  10
HETATM   10  C1  UNL     1     -37.326  15.215  -3.723  1.00 20.00     0.132 C 
HETATM   11  C11 UNL     1     -38.058  16.494  -3.421  1.00 20.00     0.091 C 
HETATM   12  O12 UNL     1     -37.900  14.127  -3.716  1.00 20.00    -0.298 OA
ENDBRANCH   9  10
TORSDOF 1
ENDMDL
MODEL 3
REMARK VINA RESULT:      -5.0      1.551      2.755
REMARK  1 active torsions:
REMARK  status: ('A' for Active; 'I' for Inactive)
REMARK    1  A    between atoms: C1_1  and  C10_10 
ROOT
HETATM    1  C2  UNL     1     -34.625  14.452  -5.945  1.00 20.00     0.009 C 
HETATM    2  C3  UNL     1     -33.668  13.841  -3.691  1.00 20.00     0.010 C 
HETATM    3  C4  UNL     1     -32.958  15.944  -4.778  1.00 20.00     0.010 C 
HETATM    4  C5  UNL     1     -35.885  14.553  -3.759  1.00 20.00     0.022 C 
HETATM    5  C6  UNL     1     -35.176  16.659  -4.848  1.00 20.00     0.022 C 
HETATM    6  C7  UNL     1     -34.899  13.729  -4.591  1.00 20.00    -0.013 C 
HETATM    7  C8  UNL     1     -34.159  15.922  -5.724  1.00 20.00    -0.013 C 
HETATM    8  C9  UNL     1     -33.585  15.363  -3.500  1.00 20.00     0.002 C 
HETATM    9  C10 UNL     1     -35.079  15.842  -3.555  1.00 20.00     0.024 C 
ENDROOT
BRANCH   9  10
HETATM   10  C1  UNL     1     -35.507  16.599  -2.341  1.00 20.00     0.132 C 
HETATM   11  C11 UNL     1     -34.632  16.477  -1.123  1.00 20.00     0.091 C 
HETATM   12  O12 UNL     1     -36.523  17.291  -2.337  1.00 20.00    -0.298 OA
ENDBRANCH   9  10
TORSDOF 1
ENDMDL
MODEL 4
REMARK VINA RESULT:      -5.0      1.535      2.856
REMARK  1 active torsions:
REMARK  status: ('A' for Active; 'I' for Inactive)
REMARK    1  A    between atoms: C1_1  and  C10_10 
ROOT
HETATM    1  C2  UNL     1     -35.085  16.582  -2.038  1.00 20.00     0.009 C 
HETATM    2  C3  UNL     1     -35.963  17.076  -4.352  1.00 20.00     0.010 C 
HETATM    3  C4  UNL     1     -33.530  16.805  -4.013  1.00 20.00     0.010 C 
HETATM    4  C5  UNL     1     -36.320  14.936  -3.502  1.00 20.00     0.022 C 
HETATM    5  C6  UNL     1     -33.884  14.664  -3.161  1.00 20.00     0.022 C 
HETATM    6  C7  UNL     1     -36.278  16.389  -3.023  1.00 20.00    -0.013 C 
HETATM    7  C8  UNL     1     -33.741  16.107  -2.669  1.00 20.00    -0.013 C 
HETATM    8  C9  UNL     1     -34.733  16.274  -4.808  1.00 20.00     0.002 C 
HETATM    9  C10 UNL     1     -34.972  14.836  -4.227  1.00 20.00     0.024 C 
ENDROOT
BRANCH   9  10
HETATM   10  C1  UNL     1     -34.959  13.763  -5.266  1.00 20.00     0.132 C 
HETATM   11  C11 UNL     1     -35.165  14.198  -6.692  1.00 20.00     0.091 C 
HETATM   12  O12 UNL     1     -34.786  12.582  -4.972  1.00 20.00    -0.298 OA
ENDBRANCH   9  10
TORSDOF 1
ENDMDL
MODEL 5
REMARK VINA RESULT:      -5.0      1.902      3.217
REMARK  1 active torsions:
REMARK  status: ('A' for Active; 'I' for Inactive)
REMARK    1  A    between atoms: C1_1  and  C10_10 
ROOT
HETATM    1  C2  UNL     1     -34.659  15.619  -2.521  1.00 20.00     0.009 C 
HETATM    2  C3  UNL     1     -33.382  13.922  -3.884  1.00 20.00     0.010 C 
HETATM    3  C4  UNL     1     -35.850  13.963  -4.005  1.00 20.00     0.010 C 
HETATM    4  C5  UNL     1     -33.310  16.141  -4.591  1.00 20.00     0.022 C 
HETATM    5  C6  UNL     1     -35.781  16.184  -4.711  1.00 20.00     0.022 C 
HETATM    6  C7  UNL     1     -33.335  15.331  -3.292  1.00 20.00    -0.013 C 
HETATM    7  C8  UNL     1     -35.908  15.374  -3.418  1.00 20.00    -0.013 C 
HETATM    8  C9  UNL     1     -34.570  14.054  -4.851  1.00 20.00     0.002 C 
HETATM    9  C10 UNL     1     -34.524  15.551  -5.318  1.00 20.00     0.024 C 
ENDROOT
BRANCH   9  10
HETATM   10  C1  UNL     1     -34.437  15.710  -6.801  1.00 20.00     0.132 C 
HETATM   11  C11 UNL     1     -34.502  17.114  -7.337  1.00 20.00     0.091 C 
HETATM   12  O12 UNL     1     -34.314  14.740  -7.547  1.00 20.00    -0.298 OA
ENDBRANCH   9  10
TORSDOF 1
ENDMDL
MODEL 6
REMARK VINA RESULT:      -4.9      1.733      3.217
REMARK  1 active torsions:
REMARK  status: ('A' for Active; 'I' for Inactive)
REMARK    1  A    between atoms: C1_1  and  C10_10 
ROOT
HETATM    1  C2  UNL     1     -33.393  13.689  -3.814  1.00 20.00     0.009 C 
HETATM    2  C3  UNL     1     -35.882  14.006  -4.084  1.00 20.00     0.010 C 
HETATM    3  C4  UNL     1     -34.596  15.623  -2.728  1.00 20.00     0.010 C 
HETATM    4  C5  UNL     1     -34.534  14.476  -5.925  1.00 20.00     0.022 C 
HETATM    5  C6  UNL     1     -33.245  16.095  -4.569  1.00 20.00     0.022 C 
HETATM    6  C7  UNL     1     -34.614  13.485  -4.761  1.00 20.00    -0.013 C 
HETATM    7  C8  UNL     1     -33.273  15.171  -3.348  1.00 20.00    -0.013 C 
HETATM    8  C9  UNL     1     -35.539  15.496  -3.935  1.00 20.00     0.002 C 
HETATM    9  C10 UNL     1     -34.625  15.809  -5.171  1.00 20.00     0.024 C 
ENDROOT
BRANCH   9  10
HETATM   10  C1  UNL     1     -35.140  16.918  -6.029  1.00 20.00     0.132 C 
HETATM   11  C11 UNL     1     -34.796  16.858  -7.493  1.00 20.00     0.091 C 
HETATM   12  O12 UNL     1     -35.814  17.834  -5.562  1.00 20.00    -0.298 OA
ENDBRANCH   9  10
TORSDOF 1
ENDMDL
MODEL 7
REMARK VINA RESULT:      -4.9     10.781     12.279
REMARK  1 active torsions:
REMARK  status: ('A' for Active; 'I' for Inactive)
REMARK    1  A    between atoms: C1_1  and  C10_10 
ROOT
HETATM    1  C2  UNL     1     -40.813   7.247  -0.430  1.00 20.00     0.009 C 
HETATM    2  C3  UNL     1     -42.300   5.469   0.570  1.00 20.00     0.010 C 
HETATM    3  C4  UNL     1     -43.306   7.248  -0.819  1.00 20.00     0.010 C 
HETATM    4  C5  UNL     1     -40.934   4.848  -1.212  1.00 20.00     0.022 C 
HETATM    5  C6  UNL     1     -41.939   6.630  -2.604  1.00 20.00     0.022 C 
HETATM    6  C7  UNL     1     -40.902   5.756   0.020  1.00 20.00    -0.013 C 
HETATM    7  C8  UNL     1     -41.951   7.611  -1.430  1.00 20.00    -0.013 C 
HETATM    8  C9  UNL     1     -43.160   5.724  -0.677  1.00 20.00     0.002 C 
HETATM    9  C10 UNL     1     -42.235   5.314  -1.876  1.00 20.00     0.024 C 
ENDROOT
BRANCH   9  10
HETATM   10  C1  UNL     1     -42.833   4.268  -2.759  1.00 20.00     0.132 C 
HETATM   11  C11 UNL     1     -42.689   2.839  -2.311  1.00 20.00     0.091 C 
HETATM   12  O12 UNL     1     -43.417   4.560  -3.801  1.00 20.00    -0.298 OA
ENDBRANCH   9  10
TORSDOF 1
ENDMDL
MODEL 8
REMARK VINA RESULT:      -4.9      2.027      3.012
REMARK  1 active torsions:
REMARK  status: ('A' for Active; 'I' for Inactive)
REMARK    1  A    between atoms: C1_1  and  C10_10 
ROOT
HETATM    1  C2  UNL     1     -34.716  13.907  -5.677  1.00 20.00     0.009 C 
HETATM    2  C3  UNL     1     -35.847  16.164  -5.684  1.00 20.00     0.010 C 
HETATM    3  C4  UNL     1     -36.494  14.491  -3.984  1.00 20.00     0.010 C 
HETATM    4  C5  UNL     1     -33.642  16.070  -4.938  1.00 20.00     0.022 C 
HETATM    5  C6  UNL     1     -34.288  14.394  -3.237  1.00 20.00     0.022 C 
HETATM    6  C7  UNL     1     -34.544  15.424  -5.993  1.00 20.00    -0.013 C 
HETATM    7  C8  UNL     1     -35.219  13.680  -4.220  1.00 20.00    -0.013 C 
HETATM    8  C9  UNL     1     -35.966  15.922  -4.171  1.00 20.00     0.002 C 
HETATM    9  C10 UNL     1     -34.480  15.850  -3.672  1.00 20.00     0.024 C 
ENDROOT
BRANCH   9  10
HETATM   10  C1  UNL     1     -34.163  16.838  -2.598  1.00 20.00     0.132 C 
HETATM   11  C11 UNL     1     -34.586  16.478  -1.200  1.00 20.00     0.091 C 
HETATM   12  O12 UNL     1     -33.582  17.894  -2.843  1.00 20.00    -0.298 OA
ENDBRANCH   9  10
TORSDOF 1
ENDMDL
MODEL 9
REMARK VINA RESULT:      -4.8      1.663      2.994
REMARK  1 active torsions:
REMARK  status: ('A' for Active; 'I' for Inactive)
REMARK    1  A    between atoms: C1_1  and  C10_10 
ROOT
HETATM    1  C2  UNL     1     -33.747  17.082  -2.699  1.00 20.00     0.009 C 
HETATM    2  C3  UNL     1     -36.054  16.077  -2.892  1.00 20.00     0.010 C 
HETATM    3  C4  UNL     1     -35.203  17.514  -4.714  1.00 20.00     0.010 C 
HETATM    4  C5  UNL     1     -34.234  14.649  -3.168  1.00 20.00     0.022 C 
HETATM    5  C6  UNL     1     -33.381  16.087  -4.991  1.00 20.00     0.022 C 
HETATM    6  C7  UNL     1     -34.647  15.863  -2.332  1.00 20.00    -0.013 C 
HETATM    7  C8  UNL     1     -33.760  17.361  -4.232  1.00 20.00    -0.013 C 
HETATM    8  C9  UNL     1     -35.763  16.117  -4.401  1.00 20.00     0.002 C 
HETATM    9  C10 UNL     1     -34.531  15.161  -4.583  1.00 20.00     0.024 C 
ENDROOT
BRANCH   9  10
HETATM   10  C1  UNL     1     -34.776  14.053  -5.553  1.00 20.00     0.132 C 
HETATM   11  C11 UNL     1     -34.957  14.442  -6.995  1.00 20.00     0.091 C 
HETATM   12  O12 UNL     1     -34.823  12.878  -5.193  1.00 20.00    -0.298 OA
ENDBRANCH   9  10
TORSDOF 1
ENDMDL
