MODEL 1
REMARK VINA RESULT:      -4.0      0.000      0.000
REMARK  1 active torsions:
REMARK  status: ('A' for Active; 'I' for Inactive)
REMARK    1  A    between atoms: C5_5  and  C6_6 
ROOT
HETATM    1  C1  UNL     1     -34.009   6.792   6.637  1.00 20.00     0.014 C 
HETATM    2  C2  UNL     1     -34.232   6.125   5.664  1.00 20.00    -0.091 C 
HETATM    3  C4  UNL     1     -34.749   3.848   4.896  1.00 20.00     0.046 C 
HETATM    4  C6  UNL     1     -34.504   5.301   4.472  1.00 20.00     0.095 C 
HETATM    5 CL7  UNL     1     -36.015   5.924   3.729  1.00 20.00    -0.105 Cl
ENDROOT
BRANCH   4   6
HETATM    6  C5  UNL     1     -33.338   5.360   3.463  1.00 20.00     0.034 C 
HETATM    7  C3  UNL     1     -32.747   6.745   3.213  1.00 20.00     0.008 C 
ENDBRANCH   4   6
TORSDOF 1
ENDMDL
MODEL 2
REMARK VINA RESULT:      -3.8      1.347      2.734
REMARK  1 active torsions:
REMARK  status: ('A' for Active; 'I' for Inactive)
REMARK    1  A    between atoms: C5_5  and  C6_6 
ROOT
HETATM    1  C1  UNL     1     -32.451   6.152   3.353  1.00 20.00     0.014 C 
HETATM    2  C2  UNL     1     -33.417   5.765   3.953  1.00 20.00    -0.091 C 
HETATM    3  C4  UNL     1     -35.875   5.769   3.967  1.00 20.00     0.046 C 
HETATM    4  C6  UNL     1     -34.606   5.295   4.687  1.00 20.00     0.095 C 
HETATM    5 CL7  UNL     1     -34.582   3.500   4.641  1.00 20.00    -0.105 Cl
ENDROOT
BRANCH   4   6
HETATM    6  C5  UNL     1     -34.612   5.801   6.144  1.00 20.00     0.034 C 
HETATM    7  C3  UNL     1     -33.677   6.971   6.443  1.00 20.00     0.008 C 
ENDBRANCH   4   6
TORSDOF 1
ENDMDL
MODEL 3
REMARK VINA RESULT:      -3.6      1.354      1.753
REMARK  1 active torsions:
REMARK  status: ('A' for Active; 'I' for Inactive)
REMARK    1  A    between atoms: C5_5  and  C6_6 
ROOT
HETATM    1  C1  UNL     1     -34.870   4.060   5.961  1.00 20.00     0.014 C 
HETATM    2  C2  UNL     1     -34.777   4.758   4.988  1.00 20.00    -0.091 C 
HETATM    3  C4  UNL     1     -34.088   4.789   2.629  1.00 20.00     0.046 C 
HETATM    4  C6  UNL     1     -34.657   5.611   3.792  1.00 20.00     0.095 C 
HETATM    5 CL7  UNL     1     -36.316   6.131   3.342  1.00 20.00    -0.105 Cl
ENDROOT
BRANCH   4   6
HETATM    6  C5  UNL     1     -33.757   6.836   4.055  1.00 20.00     0.034 C 
HETATM    7  C3  UNL     1     -32.372   6.792   3.414  1.00 20.00     0.008 C 
ENDBRANCH   4   6
TORSDOF 1
ENDMDL
MODEL 4
REMARK VINA RESULT:      -3.5     12.043     12.680
REMARK  1 active torsions:
REMARK  status: ('A' for Active; 'I' for Inactive)
REMARK    1  A    between atoms: C5_5  and  C6_6 
ROOT
HETATM    1  C1  UNL     1     -34.604  16.495  -1.078  1.00 20.00     0.014 C 
HETATM    2  C2  UNL     1     -34.558  16.036  -2.187  1.00 20.00    -0.091 C 
HETATM    3  C4  UNL     1     -35.796  15.827  -4.300  1.00 20.00     0.046 C 
HETATM    4  C6  UNL     1     -34.507  15.472  -3.548  1.00 20.00     0.095 C 
HETATM    5 CL7  UNL     1     -33.136  16.259  -4.398  1.00 20.00    -0.105 Cl
ENDROOT
BRANCH   4   6
HETATM    6  C5  UNL     1     -34.323  13.940  -3.522  1.00 20.00     0.034 C 
HETATM    7  C3  UNL     1     -34.669  13.209  -4.817  1.00 20.00     0.008 C 
ENDBRANCH   4   6
TORSDOF 1
ENDMDL
MODEL 5
REMARK VINA RESULT:      -3.5      1.632      2.554
REMARK  1 active torsions:
REMARK  status: ('A' for Active; 'I' for Inactive)
REMARK    1  A    between atoms: C5_5  and  C6_6 
ROOT
HETATM    1  C1  UNL     1     -33.667   7.173   6.628  1.00 20.00     0.014 C 
HETATM    2  C2  UNL     1     -33.861   6.512   5.645  1.00 20.00    -0.091 C 
HETATM    3  C4  UNL     1     -35.311   6.265   3.675  1.00 20.00     0.046 C 
HETATM    4  C6  UNL     1     -34.105   5.702   4.437  1.00 20.00     0.095 C 
HETATM    5 CL7  UNL     1     -32.659   5.867   3.386  1.00 20.00    -0.105 Cl
ENDROOT
BRANCH   4   6
HETATM    6  C5  UNL     1     -34.356   4.220   4.788  1.00 20.00     0.034 C 
HETATM    7  C3  UNL     1     -35.180   3.967   6.048  1.00 20.00     0.008 C 
ENDBRANCH   4   6
TORSDOF 1
ENDMDL
MODEL 6
REMARK VINA RESULT:      -3.5      0.802      2.896
REMARK  1 active torsions:
REMARK  status: ('A' for Active; 'I' for Inactive)
REMARK    1  A    between atoms: C5_5  and  C6_6 
ROOT
HETATM    1  C1  UNL     1     -32.189   6.375   3.042  1.00 20.00     0.014 C 
HETATM    2  C2  UNL     1     -33.104   6.097   3.767  1.00 20.00    -0.091 C 
HETATM    3  C4  UNL     1     -34.234   6.715   5.861  1.00 20.00     0.046 C 
HETATM    4  C6  UNL     1     -34.225   5.757   4.663  1.00 20.00     0.095 C 
HETATM    5 CL7  UNL     1     -35.742   6.014   3.738  1.00 20.00    -0.105 Cl
ENDROOT
BRANCH   4   6
HETATM    6  C5  UNL     1     -34.133   4.300   5.161  1.00 20.00     0.034 C 
HETATM    7  C3  UNL     1     -35.168   3.889   6.206  1.00 20.00     0.008 C 
ENDBRANCH   4   6
TORSDOF 1
ENDMDL
MODEL 7
REMARK VINA RESULT:      -3.5     12.016     12.780
REMARK  1 active torsions:
REMARK  status: ('A' for Active; 'I' for Inactive)
REMARK    1  A    between atoms: C5_5  and  C6_6 
ROOT
HETATM    1  C1  UNL     1     -34.419  16.614  -1.170  1.00 20.00     0.014 C 
HETATM    2  C2  UNL     1     -34.213  16.149  -2.258  1.00 20.00    -0.091 C 
HETATM    3  C4  UNL     1     -33.706  16.720  -4.594  1.00 20.00     0.046 C 
HETATM    4  C6  UNL     1     -33.962  15.584  -3.597  1.00 20.00     0.095 C 
HETATM    5 CL7  UNL     1     -32.467  14.597  -3.485  1.00 20.00    -0.105 Cl
ENDROOT
BRANCH   4   6
HETATM    6  C5  UNL     1     -35.147  14.722  -4.080  1.00 20.00     0.034 C 
HETATM    7  C3  UNL     1     -34.800  13.299  -4.509  1.00 20.00     0.008 C 
ENDBRANCH   4   6
TORSDOF 1
ENDMDL
MODEL 8
REMARK VINA RESULT:      -3.5     11.713     12.696
REMARK  1 active torsions:
REMARK  status: ('A' for Active; 'I' for Inactive)
REMARK    1  A    between atoms: C5_5  and  C6_6 
ROOT
HETATM    1  C1  UNL     1     -34.603  16.270  -1.661  1.00 20.00     0.014 C 
HETATM    2  C2  UNL     1     -34.544  15.619  -2.668  1.00 20.00    -0.091 C 
HETATM    3  C4  UNL     1     -33.426  13.704  -3.728  1.00 20.00     0.046 C 
HETATM    4  C6  UNL     1     -34.465  14.819  -3.904  1.00 20.00     0.095 C 
HETATM    5 CL7  UNL     1     -36.069  14.049  -4.141  1.00 20.00    -0.105 Cl
ENDROOT
BRANCH   4   6
HETATM    6  C5  UNL     1     -34.094  15.689  -5.122  1.00 20.00     0.034 C 
HETATM    7  C3  UNL     1     -34.434  15.098  -6.488  1.00 20.00     0.008 C 
ENDBRANCH   4   6
TORSDOF 1
ENDMDL
MODEL 9
REMARK VINA RESULT:      -3.4      9.605     10.423
REMARK  1 active torsions:
REMARK  status: ('A' for Active; 'I' for Inactive)
REMARK    1  A    between atoms: C5_5  and  C6_6 
ROOT
HETATM    1  C1  UNL     1     -41.531   2.191  -3.445  1.00 20.00     0.014 C 
HETATM    2  C2  UNL     1     -41.737   3.118  -2.710  1.00 20.00    -0.091 C 
HETATM    3  C4  UNL     1     -42.490   5.457  -2.632  1.00 20.00     0.046 C 
HETATM    4  C6  UNL     1     -41.988   4.261  -1.813  1.00 20.00     0.095 C 
HETATM    5 CL7  UNL     1     -43.298   3.773  -0.686  1.00 20.00    -0.105 Cl
ENDROOT
BRANCH   4   6
HETATM    6  C5  UNL     1     -40.719   4.659  -1.031  1.00 20.00     0.034 C 
HETATM    7  C3  UNL     1     -40.768   6.017  -0.335  1.00 20.00     0.008 C 
ENDBRANCH   4   6
TORSDOF 1
ENDMDL
