MODEL 1
REMARK VINA RESULT:      -5.0      0.000      0.000
REMARK  0 active torsions:
REMARK  status: ('A' for Active; 'I' for Inactive)
ROOT
HETATM    1  C1  UNL     1     -34.647  14.873  -5.919  1.00 20.00    -0.080 C 
HETATM    2  C2  UNL     1     -34.316  15.048  -7.202  1.00 20.00     0.015 C 
HETATM    3  C3  UNL     1     -34.829  13.524  -5.255  1.00 20.00     0.039 C 
HETATM    4  C4  UNL     1     -36.613  14.564  -3.866  1.00 20.00     0.007 C 
HETATM    5  C5  UNL     1     -36.396  15.917  -4.574  1.00 20.00     0.015 C 
HETATM    6  C6  UNL     1     -35.186  13.967  -3.817  1.00 20.00    -0.002 C 
HETATM    7  C7  UNL     1     -34.866  15.936  -4.836  1.00 20.00    -0.014 C 
HETATM    8  C8  UNL     1     -34.286  15.211  -3.584  1.00 20.00    -0.033 C 
HETATM    9  C9  UNL     1     -34.326  17.328  -5.118  1.00 20.00     0.021 C 
HETATM   10  C10 UNL     1     -34.540  15.915  -2.235  1.00 20.00     0.016 C 
HETATM   11  C11 UNL     1     -32.770  14.920  -3.640  1.00 20.00     0.016 C 
ENDROOT
TORSDOF 0
ENDMDL
MODEL 2
REMARK VINA RESULT:      -4.9      1.069      2.670
REMARK  0 active torsions:
REMARK  status: ('A' for Active; 'I' for Inactive)
ROOT
HETATM    1  C1  UNL     1     -34.559  15.148  -5.712  1.00 20.00    -0.080 C 
HETATM    2  C2  UNL     1     -35.100  14.740  -6.865  1.00 20.00     0.015 C 
HETATM    3  C3  UNL     1     -33.432  16.153  -5.599  1.00 20.00     0.039 C 
HETATM    4  C4  UNL     1     -32.625  14.871  -3.625  1.00 20.00     0.007 C 
HETATM    5  C5  UNL     1     -33.787  13.868  -3.782  1.00 20.00     0.015 C 
HETATM    6  C6  UNL     1     -33.263  16.211  -4.064  1.00 20.00    -0.002 C 
HETATM    7  C7  UNL     1     -34.955  14.759  -4.283  1.00 20.00    -0.014 C 
HETATM    8  C8  UNL     1     -34.719  16.104  -3.531  1.00 20.00    -0.033 C 
HETATM    9  C9  UNL     1     -36.318  14.115  -4.096  1.00 20.00     0.021 C 
HETATM   10  C10 UNL     1     -34.812  16.028  -1.993  1.00 20.00     0.016 C 
HETATM   11  C11 UNL     1     -35.640  17.266  -3.963  1.00 20.00     0.016 C 
ENDROOT
TORSDOF 0
ENDMDL
MODEL 3
REMARK VINA RESULT:      -4.8      0.674      3.254
REMARK  0 active torsions:
REMARK  status: ('A' for Active; 'I' for Inactive)
ROOT
HETATM    1  C1  UNL     1     -34.922  15.939  -2.645  1.00 20.00    -0.080 C 
HETATM    2  C2  UNL     1     -34.491  16.326  -1.440  1.00 20.00     0.015 C 
HETATM    3  C3  UNL     1     -36.301  16.232  -3.198  1.00 20.00     0.039 C 
HETATM    4  C4  UNL     1     -36.194  14.026  -4.346  1.00 20.00     0.007 C 
HETATM    5  C5  UNL     1     -34.793  13.770  -3.755  1.00 20.00     0.015 C 
HETATM    6  C6  UNL     1     -36.194  15.556  -4.584  1.00 20.00    -0.002 C 
HETATM    7  C7  UNL     1     -34.155  15.184  -3.736  1.00 20.00    -0.014 C 
HETATM    8  C8  UNL     1     -34.733  15.849  -5.022  1.00 20.00    -0.033 C 
HETATM    9  C9  UNL     1     -32.640  15.154  -3.617  1.00 20.00     0.021 C 
HETATM   10  C10 UNL     1     -34.337  15.174  -6.351  1.00 20.00     0.016 C 
HETATM   11  C11 UNL     1     -34.407  17.350  -5.186  1.00 20.00     0.016 C 
ENDROOT
TORSDOF 0
ENDMDL
MODEL 4
REMARK VINA RESULT:      -4.6      1.052      2.708
REMARK  0 active torsions:
REMARK  status: ('A' for Active; 'I' for Inactive)
ROOT
HETATM    1  C1  UNL     1     -35.856  16.350  -4.512  1.00 20.00    -0.080 C 
HETATM    2  C2  UNL     1     -36.691  16.942  -5.373  1.00 20.00     0.015 C 
HETATM    3  C3  UNL     1     -36.188  16.044  -3.067  1.00 20.00     0.039 C 
HETATM    4  C4  UNL     1     -33.799  16.491  -2.531  1.00 20.00     0.007 C 
HETATM    5  C5  UNL     1     -33.509  16.800  -4.015  1.00 20.00     0.015 C 
HETATM    6  C6  UNL     1     -34.870  15.376  -2.613  1.00 20.00    -0.002 C 
HETATM    7  C7  UNL     1     -34.443  15.815  -4.768  1.00 20.00    -0.014 C 
HETATM    8  C8  UNL     1     -34.432  14.551  -3.855  1.00 20.00    -0.033 C 
HETATM    9  C9  UNL     1     -34.039  15.601  -6.217  1.00 20.00     0.021 C 
HETATM   10  C10 UNL     1     -33.060  13.865  -3.691  1.00 20.00     0.016 C 
HETATM   11  C11 UNL     1     -35.424  13.441  -4.263  1.00 20.00     0.016 C 
ENDROOT
TORSDOF 0
ENDMDL
MODEL 5
REMARK VINA RESULT:      -4.6      0.979      3.288
REMARK  0 active torsions:
REMARK  status: ('A' for Active; 'I' for Inactive)
ROOT
HETATM    1  C1  UNL     1     -34.585  15.908  -3.238  1.00 20.00    -0.080 C 
HETATM    2  C2  UNL     1     -34.761  16.032  -1.918  1.00 20.00     0.015 C 
HETATM    3  C3  UNL     1     -33.256  16.068  -3.945  1.00 20.00     0.039 C 
HETATM    4  C4  UNL     1     -34.511  17.035  -5.865  1.00 20.00     0.007 C 
HETATM    5  C5  UNL     1     -35.841  16.858  -5.102  1.00 20.00     0.015 C 
HETATM    6  C6  UNL     1     -33.685  15.808  -5.408  1.00 20.00    -0.002 C 
HETATM    7  C7  UNL     1     -35.619  15.543  -4.308  1.00 20.00    -0.014 C 
HETATM    8  C8  UNL     1     -34.753  14.686  -5.281  1.00 20.00    -0.033 C 
HETATM    9  C9  UNL     1     -36.914  14.911  -3.827  1.00 20.00     0.021 C 
HETATM   10  C10 UNL     1     -35.427  14.318  -6.619  1.00 20.00     0.016 C 
HETATM   11  C11 UNL     1     -34.218  13.364  -4.689  1.00 20.00     0.016 C 
ENDROOT
TORSDOF 0
ENDMDL
MODEL 6
REMARK VINA RESULT:      -4.6      1.236      2.467
REMARK  0 active torsions:
REMARK  status: ('A' for Active; 'I' for Inactive)
ROOT
HETATM    1  C1  UNL     1     -34.440  14.340  -4.343  1.00 20.00    -0.080 C 
HETATM    2  C2  UNL     1     -34.637  13.163  -4.946  1.00 20.00     0.015 C 
HETATM    3  C3  UNL     1     -33.189  14.714  -3.576  1.00 20.00     0.039 C 
HETATM    4  C4  UNL     1     -34.644  16.036  -2.050  1.00 20.00     0.007 C 
HETATM    5  C5  UNL     1     -35.891  15.624  -2.858  1.00 20.00     0.015 C 
HETATM    6  C6  UNL     1     -33.550  16.152  -3.139  1.00 20.00    -0.002 C 
HETATM    7  C7  UNL     1     -35.362  15.564  -4.316  1.00 20.00    -0.014 C 
HETATM    8  C8  UNL     1     -34.321  16.724  -4.360  1.00 20.00    -0.033 C 
HETATM    9  C9  UNL     1     -36.470  15.615  -5.355  1.00 20.00     0.021 C 
HETATM   10  C10 UNL     1     -34.894  18.137  -4.126  1.00 20.00     0.016 C 
HETATM   11  C11 UNL     1     -33.487  16.805  -5.657  1.00 20.00     0.016 C 
ENDROOT
TORSDOF 0
ENDMDL
MODEL 7
REMARK VINA RESULT:      -4.5      1.098      2.843
REMARK  0 active torsions:
REMARK  status: ('A' for Active; 'I' for Inactive)
ROOT
HETATM    1  C1  UNL     1     -33.909  14.342  -4.286  1.00 20.00    -0.080 C 
HETATM    2  C2  UNL     1     -33.169  13.451  -3.617  1.00 20.00     0.015 C 
HETATM    3  C3  UNL     1     -34.710  14.029  -5.532  1.00 20.00     0.039 C 
HETATM    4  C4  UNL     1     -34.188  16.332  -6.320  1.00 20.00     0.007 C 
HETATM    5  C5  UNL     1     -33.376  16.603  -5.036  1.00 20.00     0.015 C 
HETATM    6  C6  UNL     1     -35.331  15.416  -5.819  1.00 20.00    -0.002 C 
HETATM    7  C7  UNL     1     -34.160  15.816  -3.951  1.00 20.00    -0.014 C 
HETATM    8  C8  UNL     1     -35.644  15.976  -4.404  1.00 20.00    -0.033 C 
HETATM    9  C9  UNL     1     -33.837  16.267  -2.537  1.00 20.00     0.021 C 
HETATM   10  C10 UNL     1     -36.180  17.423  -4.415  1.00 20.00     0.016 C 
HETATM   11  C11 UNL     1     -36.666  15.143  -3.601  1.00 20.00     0.016 C 
ENDROOT
TORSDOF 0
ENDMDL
MODEL 8
REMARK VINA RESULT:      -4.5      1.081      2.793
REMARK  0 active torsions:
REMARK  status: ('A' for Active; 'I' for Inactive)
ROOT
HETATM    1  C1  UNL     1     -33.930  17.339  -3.958  1.00 20.00    -0.080 C 
HETATM    2  C2  UNL     1     -33.630  18.505  -3.376  1.00 20.00     0.015 C 
HETATM    3  C3  UNL     1     -33.530  16.954  -5.366  1.00 20.00     0.039 C 
HETATM    4  C4  UNL     1     -35.678  15.707  -5.525  1.00 20.00     0.007 C 
HETATM    5  C5  UNL     1     -36.046  16.129  -4.088  1.00 20.00     0.015 C 
HETATM    6  C6  UNL     1     -34.141  15.537  -5.452  1.00 20.00    -0.002 C 
HETATM    7  C7  UNL     1     -34.674  16.139  -3.362  1.00 20.00    -0.014 C 
HETATM    8  C8  UNL     1     -33.914  14.954  -4.030  1.00 20.00    -0.033 C 
HETATM    9  C9  UNL     1     -34.800  16.089  -1.848  1.00 20.00     0.021 C 
HETATM   10  C10 UNL     1     -34.545  13.561  -3.823  1.00 20.00     0.016 C 
HETATM   11  C11 UNL     1     -32.429  14.819  -3.628  1.00 20.00     0.016 C 
ENDROOT
TORSDOF 0
ENDMDL
MODEL 9
REMARK VINA RESULT:      -4.5      1.061      3.186
REMARK  0 active torsions:
REMARK  status: ('A' for Active; 'I' for Inactive)
ROOT
HETATM    1  C1  UNL     1     -33.490  15.301  -4.138  1.00 20.00    -0.080 C 
HETATM    2  C2  UNL     1     -32.441  14.677  -3.593  1.00 20.00     0.015 C 
HETATM    3  C3  UNL     1     -33.461  16.713  -4.685  1.00 20.00     0.039 C 
HETATM    4  C4  UNL     1     -35.811  16.955  -3.902  1.00 20.00     0.007 C 
HETATM    5  C5  UNL     1     -35.792  15.513  -3.354  1.00 20.00     0.015 C 
HETATM    6  C6  UNL     1     -34.923  16.856  -5.166  1.00 20.00    -0.002 C 
HETATM    7  C7  UNL     1     -34.903  14.759  -4.379  1.00 20.00    -0.014 C 
HETATM    8  C8  UNL     1     -35.262  15.449  -5.731  1.00 20.00    -0.033 C 
HETATM    9  C9  UNL     1     -35.081  13.251  -4.327  1.00 20.00     0.021 C 
HETATM   10  C10 UNL     1     -36.729  15.298  -6.182  1.00 20.00     0.016 C 
HETATM   11  C11 UNL     1     -34.394  15.020  -6.934  1.00 20.00     0.016 C 
ENDROOT
TORSDOF 0
ENDMDL
