MODEL 1
REMARK VINA RESULT:      -4.2      0.000      0.000
REMARK  2 active torsions:
REMARK  status: ('A' for Active; 'I' for Inactive)
REMARK    1  A    between atoms: C1_1  and  C7_7 
REMARK    2  A    between atoms: C7_7  and  S10_10 
ROOT
HETATM    1  C1  UNL     1     -35.074  15.021  -3.557  1.00 20.00     0.009 A 
HETATM    2  C2  UNL     1     -34.066  14.060  -3.752  1.00 20.00     0.068 A 
HETATM    3  C3  UNL     1     -36.221  14.366  -3.920  1.00 20.00     0.084 A 
HETATM    4  C4  UNL     1     -32.619  14.204  -3.523  1.00 20.00     0.073 C 
HETATM    5  C5  UNL     1     -37.639  14.746  -3.969  1.00 20.00     0.079 C 
HETATM    6  N8  UNL     1     -34.551  12.900  -4.202  1.00 20.00    -0.133 NA
HETATM    7  O9  UNL     1     -35.923  13.100  -4.307  1.00 20.00    -0.217 OA
ENDROOT
BRANCH   1   8
HETATM    8  C7  UNL     1     -34.933  16.435  -3.065  1.00 20.00     0.116 C 
BRANCH   8   9
HETATM    9  S10 UNL     1     -34.727  16.515  -1.270  1.00 20.00    -0.169 SA
HETATM   10  C6  UNL     1     -33.536  17.875  -1.197  1.00 20.00     0.090 C 
ENDBRANCH   8   9
ENDBRANCH   1   8
TORSDOF 2
ENDMDL
MODEL 2
REMARK VINA RESULT:      -4.1      1.269      1.512
REMARK  2 active torsions:
REMARK  status: ('A' for Active; 'I' for Inactive)
REMARK    1  A    between atoms: C1_1  and  C7_7 
REMARK    2  A    between atoms: C7_7  and  S10_10 
ROOT
HETATM    1  C1  UNL     1     -35.098  14.901  -3.452  1.00 20.00     0.009 A 
HETATM    2  C2  UNL     1     -34.116  13.934  -3.734  1.00 20.00     0.068 A 
HETATM    3  C3  UNL     1     -36.257  14.328  -3.903  1.00 20.00     0.084 A 
HETATM    4  C4  UNL     1     -32.670  14.004  -3.467  1.00 20.00     0.073 C 
HETATM    5  C5  UNL     1     -37.661  14.758  -3.934  1.00 20.00     0.079 C 
HETATM    6  N8  UNL     1     -34.628  12.847  -4.316  1.00 20.00    -0.133 NA
HETATM    7  O9  UNL     1     -35.990  13.103  -4.420  1.00 20.00    -0.217 OA
ENDROOT
BRANCH   1   8
HETATM    8  C7  UNL     1     -34.921  16.248  -2.806  1.00 20.00     0.116 C 
BRANCH   8   9
HETATM    9  S10 UNL     1     -35.109  17.601  -3.990  1.00 20.00    -0.169 SA
HETATM   10  C6  UNL     1     -33.557  17.385  -4.894  1.00 20.00     0.090 C 
ENDBRANCH   8   9
ENDBRANCH   1   8
TORSDOF 2
ENDMDL
MODEL 3
REMARK VINA RESULT:      -4.1      0.770      2.572
REMARK  2 active torsions:
REMARK  status: ('A' for Active; 'I' for Inactive)
REMARK    1  A    between atoms: C1_1  and  C7_7 
REMARK    2  A    between atoms: C7_7  and  S10_10 
ROOT
HETATM    1  C1  UNL     1     -34.740  15.062  -3.561  1.00 20.00     0.009 A 
HETATM    2  C2  UNL     1     -35.761  14.193  -3.986  1.00 20.00     0.068 A 
HETATM    3  C3  UNL     1     -33.598  14.323  -3.720  1.00 20.00     0.084 A 
HETATM    4  C4  UNL     1     -37.210  14.449  -4.035  1.00 20.00     0.073 C 
HETATM    5  C5  UNL     1     -32.173  14.586  -3.481  1.00 20.00     0.079 C 
HETATM    6  N8  UNL     1     -35.287  13.007  -4.377  1.00 20.00    -0.133 NA
HETATM    7  O9  UNL     1     -33.911  13.096  -4.207  1.00 20.00    -0.217 OA
ENDROOT
BRANCH   1   8
HETATM    8  C7  UNL     1     -34.868  16.471  -3.052  1.00 20.00     0.116 C 
BRANCH   8   9
HETATM    9  S10 UNL     1     -34.693  16.565  -1.255  1.00 20.00    -0.169 SA
HETATM   10  C6  UNL     1     -33.497  17.919  -1.172  1.00 20.00     0.090 C 
ENDBRANCH   8   9
ENDBRANCH   1   8
TORSDOF 2
ENDMDL
MODEL 4
REMARK VINA RESULT:      -3.8      1.373      3.001
REMARK  2 active torsions:
REMARK  status: ('A' for Active; 'I' for Inactive)
REMARK    1  A    between atoms: C1_1  and  C7_7 
REMARK    2  A    between atoms: C7_7  and  S10_10 
ROOT
HETATM    1  C1  UNL     1     -34.976  14.846  -3.445  1.00 20.00     0.009 A 
HETATM    2  C2  UNL     1     -36.108  14.215  -3.992  1.00 20.00     0.068 A 
HETATM    3  C3  UNL     1     -33.958  13.966  -3.699  1.00 20.00     0.084 A 
HETATM    4  C4  UNL     1     -37.497  14.701  -4.014  1.00 20.00     0.073 C 
HETATM    5  C5  UNL     1     -32.517  13.966  -3.416  1.00 20.00     0.079 C 
HETATM    6  N8  UNL     1     -35.812  13.034  -4.542  1.00 20.00    -0.133 NA
HETATM    7  O9  UNL     1     -34.444  12.881  -4.353  1.00 20.00    -0.217 OA
ENDROOT
BRANCH   1   8
HETATM    8  C7  UNL     1     -34.897  16.175  -2.746  1.00 20.00     0.116 C 
BRANCH   8   9
HETATM    9  S10 UNL     1     -34.025  17.414  -3.732  1.00 20.00    -0.169 SA
HETATM   10  C6  UNL     1     -35.291  17.695  -4.992  1.00 20.00     0.090 C 
ENDBRANCH   8   9
ENDBRANCH   1   8
TORSDOF 2
ENDMDL
MODEL 5
REMARK VINA RESULT:      -3.8      1.419      2.750
REMARK  2 active torsions:
REMARK  status: ('A' for Active; 'I' for Inactive)
REMARK    1  A    between atoms: C1_1  and  C7_7 
REMARK    2  A    between atoms: C7_7  and  S10_10 
ROOT
HETATM    1  C1  UNL     1     -35.483  15.484  -3.347  1.00 20.00     0.009 A 
HETATM    2  C2  UNL     1     -36.874  15.379  -3.524  1.00 20.00     0.068 A 
HETATM    3  C3  UNL     1     -35.012  14.257  -3.732  1.00 20.00     0.084 A 
HETATM    4  C4  UNL     1     -37.902  16.400  -3.267  1.00 20.00     0.073 C 
HETATM    5  C5  UNL     1     -33.673  13.658  -3.809  1.00 20.00     0.079 C 
HETATM    6  N8  UNL     1     -37.236  14.178  -3.982  1.00 20.00    -0.133 NA
HETATM    7  O9  UNL     1     -36.048  13.469  -4.113  1.00 20.00    -0.217 OA
ENDROOT
BRANCH   1   8
HETATM    8  C7  UNL     1     -34.693  16.665  -2.853  1.00 20.00     0.116 C 
BRANCH   8   9
HETATM    9  S10 UNL     1     -34.580  16.704  -1.049  1.00 20.00    -0.169 SA
HETATM   10  C6  UNL     1     -35.700  18.090  -0.739  1.00 20.00     0.090 C 
ENDBRANCH   8   9
ENDBRANCH   1   8
TORSDOF 2
ENDMDL
MODEL 6
REMARK VINA RESULT:      -3.7      2.746      3.865
REMARK  2 active torsions:
REMARK  status: ('A' for Active; 'I' for Inactive)
REMARK    1  A    between atoms: C1_1  and  C7_7 
REMARK    2  A    between atoms: C7_7  and  S10_10 
ROOT
HETATM    1  C1  UNL     1     -34.884  15.175  -4.320  1.00 20.00     0.009 A 
HETATM    2  C2  UNL     1     -34.190  15.550  -5.484  1.00 20.00     0.068 A 
HETATM    3  C3  UNL     1     -34.328  15.958  -3.344  1.00 20.00     0.084 A 
HETATM    4  C4  UNL     1     -34.365  15.034  -6.852  1.00 20.00     0.073 C 
HETATM    5  C5  UNL     1     -34.557  16.103  -1.901  1.00 20.00     0.079 C 
HETATM    6  N8  UNL     1     -33.273  16.491  -5.246  1.00 20.00    -0.133 NA
HETATM    7  O9  UNL     1     -33.366  16.747  -3.884  1.00 20.00    -0.217 OA
ENDROOT
BRANCH   1   8
HETATM    8  C7  UNL     1     -35.981  14.157  -4.176  1.00 20.00     0.116 C 
BRANCH   8   9
HETATM    9  S10 UNL     1     -37.600  14.926  -3.940  1.00 20.00    -0.169 SA
HETATM   10  C6  UNL     1     -37.938  15.374  -5.659  1.00 20.00     0.090 C 
ENDBRANCH   8   9
ENDBRANCH   1   8
TORSDOF 2
ENDMDL
MODEL 7
REMARK VINA RESULT:      -3.6      2.376      2.611
REMARK  2 active torsions:
REMARK  status: ('A' for Active; 'I' for Inactive)
REMARK    1  A    between atoms: C1_1  and  C7_7 
REMARK    2  A    between atoms: C7_7  and  S10_10 
ROOT
HETATM    1  C1  UNL     1     -34.941  15.435  -4.861  1.00 20.00     0.009 A 
HETATM    2  C2  UNL     1     -34.618  14.869  -3.615  1.00 20.00     0.068 A 
HETATM    3  C3  UNL     1     -34.936  14.365  -5.715  1.00 20.00     0.084 A 
HETATM    4  C4  UNL     1     -34.478  15.550  -2.317  1.00 20.00     0.073 C 
HETATM    5  C5  UNL     1     -35.185  14.209  -7.154  1.00 20.00     0.079 C 
HETATM    6  N8  UNL     1     -34.425  13.550  -3.692  1.00 20.00    -0.133 NA
HETATM    7  O9  UNL     1     -34.630  13.234  -5.030  1.00 20.00    -0.217 OA
ENDROOT
BRANCH   1   8
HETATM    8  C7  UNL     1     -35.228  16.875  -5.184  1.00 20.00     0.116 C 
BRANCH   8   9
HETATM    9  S10 UNL     1     -33.718  17.816  -5.506  1.00 20.00    -0.169 SA
HETATM   10  C6  UNL     1     -33.719  18.845  -4.018  1.00 20.00     0.090 C 
ENDBRANCH   8   9
ENDBRANCH   1   8
TORSDOF 2
ENDMDL
MODEL 8
REMARK VINA RESULT:      -3.6      2.477      3.016
REMARK  2 active torsions:
REMARK  status: ('A' for Active; 'I' for Inactive)
REMARK    1  A    between atoms: C1_1  and  C7_7 
REMARK    2  A    between atoms: C7_7  and  S10_10 
ROOT
HETATM    1  C1  UNL     1     -33.932  15.751  -4.679  1.00 20.00     0.009 A 
HETATM    2  C2  UNL     1     -34.298  14.574  -5.356  1.00 20.00     0.068 A 
HETATM    3  C3  UNL     1     -33.866  16.690  -5.674  1.00 20.00     0.084 A 
HETATM    4  C4  UNL     1     -34.518  13.233  -4.791  1.00 20.00     0.073 C 
HETATM    5  C5  UNL     1     -33.547  18.124  -5.702  1.00 20.00     0.079 C 
HETATM    6  N8  UNL     1     -34.447  14.770  -6.669  1.00 20.00    -0.133 NA
HETATM    7  O9  UNL     1     -34.172  16.118  -6.865  1.00 20.00    -0.217 OA
ENDROOT
BRANCH   1   8
HETATM    8  C7  UNL     1     -33.672  15.939  -3.210  1.00 20.00     0.116 C 
BRANCH   8   9
HETATM    9  S10 UNL     1     -35.195  16.238  -2.282  1.00 20.00    -0.169 SA
HETATM   10  C6  UNL     1     -34.457  16.818  -0.735  1.00 20.00     0.090 C 
ENDBRANCH   8   9
ENDBRANCH   1   8
TORSDOF 2
ENDMDL
MODEL 9
REMARK VINA RESULT:      -3.6      3.302      4.531
REMARK  2 active torsions:
REMARK  status: ('A' for Active; 'I' for Inactive)
REMARK    1  A    between atoms: C1_1  and  C7_7 
REMARK    2  A    between atoms: C7_7  and  S10_10 
ROOT
HETATM    1  C1  UNL     1     -34.349  16.575  -2.989  1.00 20.00     0.009 A 
HETATM    2  C2  UNL     1     -34.215  17.297  -1.790  1.00 20.00     0.068 A 
HETATM    3  C3  UNL     1     -33.793  17.401  -3.930  1.00 20.00     0.084 A 
HETATM    4  C4  UNL     1     -34.639  16.899  -0.438  1.00 20.00     0.073 C 
HETATM    5  C5  UNL     1     -33.588  17.300  -5.381  1.00 20.00     0.079 C 
HETATM    6  N8  UNL     1     -33.623  18.480  -1.975  1.00 20.00    -0.133 NA
HETATM    7  O9  UNL     1     -33.357  18.541  -3.338  1.00 20.00    -0.217 OA
ENDROOT
BRANCH   1   8
HETATM    8  C7  UNL     1     -34.956  15.215  -3.195  1.00 20.00     0.116 C 
BRANCH   8   9
HETATM    9  S10 UNL     1     -33.732  13.993  -3.720  1.00 20.00    -0.169 SA
HETATM   10  C6  UNL     1     -34.684  13.209  -5.043  1.00 20.00     0.090 C 
ENDBRANCH   8   9
ENDBRANCH   1   8
TORSDOF 2
ENDMDL
