MODEL 1
REMARK VINA RESULT:      -6.0      0.000      0.000
REMARK  1 active torsions:
REMARK  status: ('A' for Active; 'I' for Inactive)
REMARK    1  A    between atoms: C4_4  and  C7_7 
ROOT
HETATM    1  C1  UNL     1     -33.328   5.962   2.303  1.00 20.00     0.015 A 
HETATM    2  C2  UNL     1     -34.222   5.058   2.881  1.00 20.00     0.008 A 
HETATM    3  C3  UNL     1     -32.960   7.043   4.451  1.00 20.00     0.022 A 
HETATM    4  C4  UNL     1     -32.702   6.947   3.082  1.00 20.00     0.002 A 
HETATM    5  C5  UNL     1     -34.463   5.152   4.241  1.00 20.00    -0.052 A 
HETATM    6  C6  UNL     1     -33.838   6.135   5.018  1.00 20.00    -0.051 A 
HETATM    7  C8  UNL     1     -35.398   4.331   5.071  1.00 20.00     0.039 C 
HETATM    8  C9  UNL     1     -34.299   6.063   6.440  1.00 20.00     0.039 C 
HETATM    9  C10 UNL     1     -34.894   4.648   6.487  1.00 20.00     0.009 C 
ENDROOT
BRANCH   4  10
HETATM   10  C7  UNL     1     -31.779   7.882   2.456  1.00 20.00     0.269 C 
HETATM   11  O11 UNL     1     -32.120   8.676   1.574  1.00 20.00    -0.301 OA
ENDBRANCH   4  10
TORSDOF 1
ENDMDL
MODEL 2
REMARK VINA RESULT:      -5.2     11.414     12.632
REMARK  1 active torsions:
REMARK  status: ('A' for Active; 'I' for Inactive)
REMARK    1  A    between atoms: C4_4  and  C7_7 
ROOT
HETATM    1  C1  UNL     1     -33.709  15.894  -4.979  1.00 20.00     0.015 A 
HETATM    2  C2  UNL     1     -33.516  17.142  -4.383  1.00 20.00     0.008 A 
HETATM    3  C3  UNL     1     -34.519  14.966  -2.880  1.00 20.00     0.022 A 
HETATM    4  C4  UNL     1     -34.206  14.813  -4.233  1.00 20.00     0.002 A 
HETATM    5  C5  UNL     1     -33.840  17.288  -3.045  1.00 20.00    -0.052 A 
HETATM    6  C6  UNL     1     -34.336  16.211  -2.301  1.00 20.00    -0.051 A 
HETATM    7  C8  UNL     1     -33.688  18.503  -2.186  1.00 20.00     0.039 C 
HETATM    8  C9  UNL     1     -34.560  16.605  -0.876  1.00 20.00     0.039 C 
HETATM    9  C10 UNL     1     -34.581  18.137  -0.992  1.00 20.00     0.009 C 
ENDROOT
BRANCH   4  10
HETATM   10  C7  UNL     1     -34.392  13.521  -4.874  1.00 20.00     0.269 C 
HETATM   11  O11 UNL     1     -35.090  12.624  -4.392  1.00 20.00    -0.301 OA
ENDBRANCH   4  10
TORSDOF 1
ENDMDL
MODEL 3
REMARK VINA RESULT:      -4.7     11.368     12.190
REMARK  1 active torsions:
REMARK  status: ('A' for Active; 'I' for Inactive)
REMARK    1  A    between atoms: C4_4  and  C7_7 
ROOT
HETATM    1  C1  UNL     1     -36.004  14.925  -3.844  1.00 20.00     0.015 A 
HETATM    2  C2  UNL     1     -36.552  16.008  -3.153  1.00 20.00     0.008 A 
HETATM    3  C3  UNL     1     -33.837  15.297  -2.802  1.00 20.00     0.022 A 
HETATM    4  C4  UNL     1     -34.656  14.572  -3.670  1.00 20.00     0.002 A 
HETATM    5  C5  UNL     1     -35.735  16.713  -2.285  1.00 20.00    -0.052 A 
HETATM    6  C6  UNL     1     -34.391  16.362  -2.113  1.00 20.00    -0.051 A 
HETATM    7  C8  UNL     1     -36.079  17.921  -1.471  1.00 20.00     0.039 C 
HETATM    8  C9  UNL     1     -33.712  17.303  -1.168  1.00 20.00     0.039 C 
HETATM    9  C10 UNL     1     -34.919  17.941  -0.465  1.00 20.00     0.009 C 
ENDROOT
BRANCH   4  10
HETATM   10  C7  UNL     1     -34.107  13.444  -4.406  1.00 20.00     0.269 C 
HETATM   11  O11 UNL     1     -34.807  12.548  -4.887  1.00 20.00    -0.301 OA
ENDBRANCH   4  10
TORSDOF 1
ENDMDL
MODEL 4
REMARK VINA RESULT:      -4.6     11.401     12.641
REMARK  1 active torsions:
REMARK  status: ('A' for Active; 'I' for Inactive)
REMARK    1  A    between atoms: C4_4  and  C7_7 
ROOT
HETATM    1  C1  UNL     1     -33.681  17.415  -3.311  1.00 20.00     0.015 A 
HETATM    2  C2  UNL     1     -33.741  16.889  -4.603  1.00 20.00     0.008 A 
HETATM    3  C3  UNL     1     -34.731  15.416  -2.400  1.00 20.00     0.022 A 
HETATM    4  C4  UNL     1     -34.173  16.684  -2.217  1.00 20.00     0.002 A 
HETATM    5  C5  UNL     1     -34.284  15.627  -4.774  1.00 20.00    -0.052 A 
HETATM    6  C6  UNL     1     -34.775  14.899  -3.684  1.00 20.00    -0.051 A 
HETATM    7  C8  UNL     1     -34.489  14.876  -6.052  1.00 20.00     0.039 C 
HETATM    8  C9  UNL     1     -35.355  13.594  -4.131  1.00 20.00     0.039 C 
HETATM    9  C10 UNL     1     -34.725  13.453  -5.526  1.00 20.00     0.009 C 
ENDROOT
BRANCH   4  10
HETATM   10  C7  UNL     1     -34.106  17.255  -0.881  1.00 20.00     0.269 C 
HETATM   11  O11 UNL     1     -34.845  16.899   0.042  1.00 20.00    -0.301 OA
ENDBRANCH   4  10
TORSDOF 1
ENDMDL
MODEL 5
REMARK VINA RESULT:      -4.6     11.758     12.989
REMARK  1 active torsions:
REMARK  status: ('A' for Active; 'I' for Inactive)
REMARK    1  A    between atoms: C4_4  and  C7_7 
ROOT
HETATM    1  C1  UNL     1     -34.759  14.984  -4.318  1.00 20.00     0.015 A 
HETATM    2  C2  UNL     1     -34.924  15.083  -2.935  1.00 20.00     0.008 A 
HETATM    3  C3  UNL     1     -33.754  17.199  -4.402  1.00 20.00     0.022 A 
HETATM    4  C4  UNL     1     -34.179  16.035  -5.046  1.00 20.00     0.002 A 
HETATM    5  C5  UNL     1     -34.489  16.235  -2.302  1.00 20.00    -0.052 A 
HETATM    6  C6  UNL     1     -33.911  17.283  -3.029  1.00 20.00    -0.051 A 
HETATM    7  C8  UNL     1     -34.590  16.585  -0.851  1.00 20.00     0.039 C 
HETATM    8  C9  UNL     1     -33.574  18.431  -2.131  1.00 20.00     0.039 C 
HETATM    9  C10 UNL     1     -33.591  17.748  -0.755  1.00 20.00     0.009 C 
ENDROOT
BRANCH   4  10
HETATM   10  C7  UNL     1     -34.024  15.913  -6.488  1.00 20.00     0.269 C 
HETATM   11  O11 UNL     1     -34.240  14.863  -7.101  1.00 20.00    -0.301 OA
ENDBRANCH   4  10
TORSDOF 1
ENDMDL
MODEL 6
REMARK VINA RESULT:      -4.5     10.096     11.342
REMARK  1 active torsions:
REMARK  status: ('A' for Active; 'I' for Inactive)
REMARK    1  A    between atoms: C4_4  and  C7_7 
ROOT
HETATM    1  C1  UNL     1     -41.544   3.141  -2.584  1.00 20.00     0.015 A 
HETATM    2  C2  UNL     1     -40.903   3.970  -1.661  1.00 20.00     0.008 A 
HETATM    3  C3  UNL     1     -43.163   4.885  -3.095  1.00 20.00     0.022 A 
HETATM    4  C4  UNL     1     -42.666   3.595  -3.296  1.00 20.00     0.002 A 
HETATM    5  C5  UNL     1     -41.395   5.251  -1.477  1.00 20.00    -0.052 A 
HETATM    6  C6  UNL     1     -42.514   5.704  -2.187  1.00 20.00    -0.051 A 
HETATM    7  C8  UNL     1     -40.907   6.299  -0.527  1.00 20.00     0.039 C 
HETATM    8  C9  UNL     1     -42.878   7.095  -1.776  1.00 20.00     0.039 C 
HETATM    9  C10 UNL     1     -41.577   7.556  -1.101  1.00 20.00     0.009 C 
ENDROOT
BRANCH   4  10
HETATM   10  C7  UNL     1     -43.321   2.711  -4.248  1.00 20.00     0.269 C 
HETATM   11  O11 UNL     1     -42.767   2.290  -5.267  1.00 20.00    -0.301 OA
ENDBRANCH   4  10
TORSDOF 1
ENDMDL
MODEL 7
REMARK VINA RESULT:      -4.5     11.926     14.549
REMARK  1 active torsions:
REMARK  status: ('A' for Active; 'I' for Inactive)
REMARK    1  A    between atoms: C4_4  and  C7_7 
ROOT
HETATM    1  C1  UNL     1     -33.468  15.837  -3.994  1.00 20.00     0.015 A 
HETATM    2  C2  UNL     1     -33.421  17.149  -4.470  1.00 20.00     0.008 A 
HETATM    3  C3  UNL     1     -34.453  15.066  -6.081  1.00 20.00     0.022 A 
HETATM    4  C4  UNL     1     -33.980  14.803  -4.794  1.00 20.00     0.002 A 
HETATM    5  C5  UNL     1     -33.880  17.398  -5.752  1.00 20.00    -0.052 A 
HETATM    6  C6  UNL     1     -34.392  16.367  -6.549  1.00 20.00    -0.051 A 
HETATM    7  C8  UNL     1     -33.967  18.713  -6.462  1.00 20.00     0.039 C 
HETATM    8  C9  UNL     1     -34.869  16.897  -7.864  1.00 20.00     0.039 C 
HETATM    9  C10 UNL     1     -34.152  18.255  -7.916  1.00 20.00     0.009 C 
ENDROOT
BRANCH   4  10
HETATM   10  C7  UNL     1     -34.025  13.445  -4.273  1.00 20.00     0.269 C 
HETATM   11  O11 UNL     1     -35.023  12.723  -4.358  1.00 20.00    -0.301 OA
ENDBRANCH   4  10
TORSDOF 1
ENDMDL
MODEL 8
REMARK VINA RESULT:      -4.4     11.422     12.424
REMARK  1 active torsions:
REMARK  status: ('A' for Active; 'I' for Inactive)
REMARK    1  A    between atoms: C4_4  and  C7_7 
ROOT
HETATM    1  C1  UNL     1     -35.669  17.286  -2.423  1.00 20.00     0.015 A 
HETATM    2  C2  UNL     1     -36.281  16.223  -3.091  1.00 20.00     0.008 A 
HETATM    3  C3  UNL     1     -33.503  16.185  -2.559  1.00 20.00     0.022 A 
HETATM    4  C4  UNL     1     -34.290  17.267  -2.158  1.00 20.00     0.002 A 
HETATM    5  C5  UNL     1     -35.491  15.161  -3.495  1.00 20.00    -0.052 A 
HETATM    6  C6  UNL     1     -34.116  15.141  -3.231  1.00 20.00    -0.051 A 
HETATM    7  C8  UNL     1     -35.919  13.904  -4.186  1.00 20.00     0.039 C 
HETATM    8  C9  UNL     1     -33.498  13.870  -3.720  1.00 20.00     0.039 C 
HETATM    9  C10 UNL     1     -34.572  13.374  -4.700  1.00 20.00     0.009 C 
ENDROOT
BRANCH   4  10
HETATM   10  C7  UNL     1     -33.677  18.383  -1.454  1.00 20.00     0.269 C 
HETATM   11  O11 UNL     1     -32.952  19.213  -2.010  1.00 20.00    -0.301 OA
ENDBRANCH   4  10
TORSDOF 1
ENDMDL
MODEL 9
REMARK VINA RESULT:      -4.4      0.762      1.979
REMARK  1 active torsions:
REMARK  status: ('A' for Active; 'I' for Inactive)
REMARK    1  A    between atoms: C4_4  and  C7_7 
ROOT
HETATM    1  C1  UNL     1     -32.194   7.742   4.389  1.00 20.00     0.015 A 
HETATM    2  C2  UNL     1     -32.768   7.201   5.542  1.00 20.00     0.008 A 
HETATM    3  C3  UNL     1     -33.377   6.140   2.992  1.00 20.00     0.022 A 
HETATM    4  C4  UNL     1     -32.496   7.215   3.123  1.00 20.00     0.002 A 
HETATM    5  C5  UNL     1     -33.650   6.143   5.401  1.00 20.00    -0.052 A 
HETATM    6  C6  UNL     1     -33.951   5.617   4.139  1.00 20.00    -0.051 A 
HETATM    7  C8  UNL     1     -34.355   5.380   6.477  1.00 20.00     0.039 C 
HETATM    8  C9  UNL     1     -34.883   4.453   4.254  1.00 20.00     0.039 C 
HETATM    9  C10 UNL     1     -35.446   4.663   5.669  1.00 20.00     0.009 C 
ENDROOT
BRANCH   4  10
HETATM   10  C7  UNL     1     -31.880   7.791   1.938  1.00 20.00     0.269 C 
HETATM   11  O11 UNL     1     -32.211   8.885   1.471  1.00 20.00    -0.301 OA
ENDBRANCH   4  10
TORSDOF 1
ENDMDL
