MODEL 1
REMARK VINA RESULT:      -4.4      0.000      0.000
REMARK  2 active torsions:
REMARK  status: ('A' for Active; 'I' for Inactive)
REMARK    1  A    between atoms: C3_3  and  C9_9 
REMARK    2  A    between atoms: C4_4  and  C10_10 
ROOT
HETATM    1  C1  UNL     1     -35.443  13.625  -4.271  1.00 20.00     0.009 A 
HETATM    2  C2  UNL     1     -34.358  14.019  -3.610  1.00 20.00     0.009 A 
HETATM    3  C3  UNL     1     -36.259  14.808  -4.670  1.00 20.00     0.076 A 
HETATM    4  C4  UNL     1     -34.336  15.506  -3.500  1.00 20.00     0.076 A 
HETATM    5  C5  UNL     1     -37.638  14.794  -4.016  1.00 20.00     0.050 C 
HETATM    6  C6  UNL     1     -34.402  15.969  -2.047  1.00 20.00     0.050 C 
HETATM    7  O11 UNL     1     -35.536  15.959  -4.172  1.00 20.00    -0.362 OA
ENDROOT
BRANCH   3   8
HETATM    8  C9  UNL     1     -36.370  14.936  -6.187  1.00 20.00     0.037 C 
HETATM    9  C7  UNL     1     -35.205  14.310  -6.881  1.00 20.00     0.008 C 
ENDBRANCH   3   8
BRANCH   4  10
HETATM   10  C10 UNL     1     -33.132  16.111  -4.217  1.00 20.00     0.037 C 
HETATM   11  C8  UNL     1     -33.523  17.276  -5.068  1.00 20.00     0.008 C 
ENDBRANCH   4  10
TORSDOF 2
ENDMDL
MODEL 2
REMARK VINA RESULT:      -4.4     10.779     12.176
REMARK  2 active torsions:
REMARK  status: ('A' for Active; 'I' for Inactive)
REMARK    1  A    between atoms: C3_3  and  C9_9 
REMARK    2  A    between atoms: C4_4  and  C10_10 
ROOT
HETATM    1  C1  UNL     1     -40.698   6.054  -0.376  1.00 20.00     0.009 A 
HETATM    2  C2  UNL     1     -41.031   7.284  -0.757  1.00 20.00     0.009 A 
HETATM    3  C3  UNL     1     -41.771   5.091  -0.756  1.00 20.00     0.076 A 
HETATM    4  C4  UNL     1     -42.361   7.270  -1.432  1.00 20.00     0.076 A 
HETATM    5  C5  UNL     1     -42.401   4.430   0.466  1.00 20.00     0.050 C 
HETATM    6  C6  UNL     1     -43.394   8.097  -0.670  1.00 20.00     0.050 C 
HETATM    7  O11 UNL     1     -42.788   5.887  -1.411  1.00 20.00    -0.362 OA
ENDROOT
BRANCH   3   8
HETATM    8  C9  UNL     1     -41.271   4.047  -1.751  1.00 20.00     0.037 C 
HETATM    9  C7  UNL     1     -42.320   3.690  -2.752  1.00 20.00     0.008 C 
ENDBRANCH   3   8
BRANCH   4  10
HETATM   10  C10 UNL     1     -42.264   7.717  -2.888  1.00 20.00     0.037 C 
HETATM   11  C8  UNL     1     -43.417   7.217  -3.697  1.00 20.00     0.008 C 
ENDBRANCH   4  10
TORSDOF 2
ENDMDL
MODEL 3
REMARK VINA RESULT:      -4.4      1.393      3.651
REMARK  2 active torsions:
REMARK  status: ('A' for Active; 'I' for Inactive)
REMARK    1  A    between atoms: C3_3  and  C9_9 
REMARK    2  A    between atoms: C4_4  and  C10_10 
ROOT
HETATM    1  C1  UNL     1     -34.508  13.526  -4.032  1.00 20.00     0.009 A 
HETATM    2  C2  UNL     1     -35.118  13.455  -5.212  1.00 20.00     0.009 A 
HETATM    3  C3  UNL     1     -34.139  14.939  -3.730  1.00 20.00     0.076 A 
HETATM    4  C4  UNL     1     -35.220  14.813  -5.820  1.00 20.00     0.076 A 
HETATM    5  C5  UNL     1     -32.627  15.119  -3.615  1.00 20.00     0.050 C 
HETATM    6  C6  UNL     1     -34.447  14.907  -7.133  1.00 20.00     0.050 C 
HETATM    7  O11 UNL     1     -34.599  15.709  -4.866  1.00 20.00    -0.362 OA
ENDROOT
BRANCH   3   8
HETATM    8  C9  UNL     1     -34.851  15.458  -2.484  1.00 20.00     0.037 C 
HETATM    9  C7  UNL     1     -34.107  16.590  -1.854  1.00 20.00     0.008 C 
ENDBRANCH   3   8
BRANCH   4  10
HETATM   10  C10 UNL     1     -36.672  15.246  -6.003  1.00 20.00     0.037 C 
HETATM   11  C8  UNL     1     -36.895  16.646  -5.531  1.00 20.00     0.008 C 
ENDBRANCH   4  10
TORSDOF 2
ENDMDL
MODEL 4
REMARK VINA RESULT:      -4.3      1.356      2.776
REMARK  2 active torsions:
REMARK  status: ('A' for Active; 'I' for Inactive)
REMARK    1  A    between atoms: C3_3  and  C9_9 
REMARK    2  A    between atoms: C4_4  and  C10_10 
ROOT
HETATM    1  C1  UNL     1     -33.615  16.538  -5.665  1.00 20.00     0.009 A 
HETATM    2  C2  UNL     1     -33.190  16.159  -4.463  1.00 20.00     0.009 A 
HETATM    3  C3  UNL     1     -34.825  15.756  -6.052  1.00 20.00     0.076 A 
HETATM    4  C4  UNL     1     -34.073  15.086  -3.921  1.00 20.00     0.076 A 
HETATM    5  C5  UNL     1     -34.579  14.906  -7.296  1.00 20.00     0.050 C 
HETATM    6  C6  UNL     1     -33.314  13.778  -3.710  1.00 20.00     0.050 C 
HETATM    7  O11 UNL     1     -35.078  14.864  -4.940  1.00 20.00    -0.362 OA
ENDROOT
BRANCH   3   8
HETATM    8  C9  UNL     1     -36.047  16.652  -6.230  1.00 20.00     0.037 C 
HETATM    9  C7  UNL     1     -37.266  16.054  -5.608  1.00 20.00     0.008 C 
ENDBRANCH   3   8
BRANCH   4  10
HETATM   10  C10 UNL     1     -34.782  15.524  -2.642  1.00 20.00     0.037 C 
HETATM   11  C8  UNL     1     -34.007  16.573  -1.913  1.00 20.00     0.008 C 
ENDBRANCH   4  10
TORSDOF 2
ENDMDL
MODEL 5
REMARK VINA RESULT:      -4.3      1.323      3.498
REMARK  2 active torsions:
REMARK  status: ('A' for Active; 'I' for Inactive)
REMARK    1  A    between atoms: C3_3  and  C9_9 
REMARK    2  A    between atoms: C4_4  and  C10_10 
ROOT
HETATM    1  C1  UNL     1     -35.456  14.867  -3.917  1.00 20.00     0.009 A 
HETATM    2  C2  UNL     1     -35.898  15.272  -5.104  1.00 20.00     0.009 A 
HETATM    3  C3  UNL     1     -33.987  15.105  -3.808  1.00 20.00     0.076 A 
HETATM    4  C4  UNL     1     -34.772  15.822  -5.911  1.00 20.00     0.076 A 
HETATM    5  C5  UNL     1     -33.212  13.801  -3.641  1.00 20.00     0.050 C 
HETATM    6  C6  UNL     1     -34.532  15.008  -7.180  1.00 20.00     0.050 C 
HETATM    7  O11 UNL     1     -33.600  15.700  -5.070  1.00 20.00    -0.362 OA
ENDROOT
BRANCH   3   8
HETATM    8  C9  UNL     1     -33.652  16.092  -2.694  1.00 20.00     0.037 C 
HETATM    9  C7  UNL     1     -34.751  16.180  -1.686  1.00 20.00     0.008 C 
ENDBRANCH   3   8
BRANCH   4  10
HETATM   10  C10 UNL     1     -34.973  17.300  -6.235  1.00 20.00     0.037 C 
HETATM   11  C8  UNL     1     -33.740  18.098  -5.962  1.00 20.00     0.008 C 
ENDBRANCH   4  10
TORSDOF 2
ENDMDL
MODEL 6
REMARK VINA RESULT:      -4.2      1.400      2.908
REMARK  2 active torsions:
REMARK  status: ('A' for Active; 'I' for Inactive)
REMARK    1  A    between atoms: C3_3  and  C9_9 
REMARK    2  A    between atoms: C4_4  and  C10_10 
ROOT
HETATM    1  C1  UNL     1     -35.854  15.643  -4.804  1.00 20.00     0.009 A 
HETATM    2  C2  UNL     1     -35.593  16.708  -4.051  1.00 20.00     0.009 A 
HETATM    3  C3  UNL     1     -34.582  14.997  -5.238  1.00 20.00     0.076 A 
HETATM    4  C4  UNL     1     -34.119  16.883  -3.903  1.00 20.00     0.076 A 
HETATM    5  C5  UNL     1     -34.419  15.026  -6.755  1.00 20.00     0.050 C 
HETATM    6  C6  UNL     1     -33.640  18.199  -4.508  1.00 20.00     0.050 C 
HETATM    7  O11 UNL     1     -33.526  15.798  -4.656  1.00 20.00    -0.362 OA
ENDROOT
BRANCH   3   8
HETATM    8  C9  UNL     1     -34.454  13.575  -4.697  1.00 20.00     0.037 C 
HETATM    9  C7  UNL     1     -33.287  13.439  -3.776  1.00 20.00     0.008 C 
ENDBRANCH   3   8
BRANCH   4  10
HETATM   10  C10 UNL     1     -33.674  16.751  -2.448  1.00 20.00     0.037 C 
HETATM   11  C8  UNL     1     -34.802  16.335  -1.561  1.00 20.00     0.008 C 
ENDBRANCH   4  10
TORSDOF 2
ENDMDL
MODEL 7
REMARK VINA RESULT:      -4.2      1.341      3.225
REMARK  2 active torsions:
REMARK  status: ('A' for Active; 'I' for Inactive)
REMARK    1  A    between atoms: C3_3  and  C9_9 
REMARK    2  A    between atoms: C4_4  and  C10_10 
ROOT
HETATM    1  C1  UNL     1     -33.281  16.233  -4.080  1.00 20.00     0.009 A 
HETATM    2  C2  UNL     1     -33.346  16.736  -5.309  1.00 20.00     0.009 A 
HETATM    3  C3  UNL     1     -34.496  15.415  -3.795  1.00 20.00     0.076 A 
HETATM    4  C4  UNL     1     -34.610  16.306  -5.974  1.00 20.00     0.076 A 
HETATM    5  C5  UNL     1     -35.315  15.995  -2.645  1.00 20.00     0.050 C 
HETATM    6  C6  UNL     1     -35.506  17.495  -6.311  1.00 20.00     0.050 C 
HETATM    7  O11 UNL     1     -35.297  15.486  -4.999  1.00 20.00    -0.362 OA
ENDROOT
BRANCH   3   8
HETATM    8  C9  UNL     1     -34.149  13.951  -3.541  1.00 20.00     0.037 C 
HETATM    9  C7  UNL     1     -34.992  13.033  -4.363  1.00 20.00     0.008 C 
ENDBRANCH   3   8
BRANCH   4  10
HETATM   10  C10 UNL     1     -34.340  15.451  -7.210  1.00 20.00     0.037 C 
HETATM   11  C8  UNL     1     -35.539  14.648  -7.597  1.00 20.00     0.008 C 
ENDBRANCH   4  10
TORSDOF 2
ENDMDL
MODEL 8
REMARK VINA RESULT:      -4.2      1.349      3.878
REMARK  2 active torsions:
REMARK  status: ('A' for Active; 'I' for Inactive)
REMARK    1  A    between atoms: C3_3  and  C9_9 
REMARK    2  A    between atoms: C4_4  and  C10_10 
ROOT
HETATM    1  C1  UNL     1     -33.503  17.064  -4.941  1.00 20.00     0.009 A 
HETATM    2  C2  UNL     1     -33.832  16.243  -5.935  1.00 20.00     0.009 A 
HETATM    3  C3  UNL     1     -34.446  16.889  -3.799  1.00 20.00     0.076 A 
HETATM    4  C4  UNL     1     -35.027  15.435  -5.559  1.00 20.00     0.076 A 
HETATM    5  C5  UNL     1     -35.236  18.164  -3.514  1.00 20.00     0.050 C 
HETATM    6  C6  UNL     1     -36.214  15.715  -6.476  1.00 20.00     0.050 C 
HETATM    7  O11 UNL     1     -35.379  15.867  -4.222  1.00 20.00    -0.362 OA
ENDROOT
BRANCH   3   8
HETATM    8  C9  UNL     1     -33.732  16.392  -2.544  1.00 20.00     0.037 C 
HETATM    9  C7  UNL     1     -34.648  16.360  -1.365  1.00 20.00     0.008 C 
ENDBRANCH   3   8
BRANCH   4  10
HETATM   10  C10 UNL     1     -34.711  13.942  -5.508  1.00 20.00     0.037 C 
HETATM   11  C8  UNL     1     -35.182  13.320  -4.234  1.00 20.00     0.008 C 
ENDBRANCH   4  10
TORSDOF 2
ENDMDL
MODEL 9
REMARK VINA RESULT:      -4.2      1.019      3.843
REMARK  2 active torsions:
REMARK  status: ('A' for Active; 'I' for Inactive)
REMARK    1  A    between atoms: C3_3  and  C9_9 
REMARK    2  A    between atoms: C4_4  and  C10_10 
ROOT
HETATM    1  C1  UNL     1     -33.245  15.732  -3.324  1.00 20.00     0.009 A 
HETATM    2  C2  UNL     1     -33.569  14.598  -3.940  1.00 20.00     0.009 A 
HETATM    3  C3  UNL     1     -34.251  16.789  -3.635  1.00 20.00     0.076 A 
HETATM    4  C4  UNL     1     -34.824  14.780  -4.725  1.00 20.00     0.076 A 
HETATM    5  C5  UNL     1     -33.628  17.962  -4.386  1.00 20.00     0.050 C 
HETATM    6  C6  UNL     1     -34.592  14.581  -6.221  1.00 20.00     0.050 C 
HETATM    7  O11 UNL     1     -35.217  16.156  -4.508  1.00 20.00    -0.362 OA
ENDROOT
BRANCH   3   8
HETATM    8  C9  UNL     1     -34.982  17.263  -2.381  1.00 20.00     0.037 C 
HETATM    9  C7  UNL     1     -34.576  16.480  -1.176  1.00 20.00     0.008 C 
ENDBRANCH   3   8
BRANCH   4  10
HETATM   10  C10 UNL     1     -35.947  13.879  -4.217  1.00 20.00     0.037 C 
HETATM   11  C8  UNL     1     -37.207  14.646  -3.984  1.00 20.00     0.008 C 
ENDBRANCH   4  10
TORSDOF 2
ENDMDL
