MODEL 1
REMARK VINA RESULT:      -4.5      0.000      0.000
REMARK  1 active torsions:
REMARK  status: ('A' for Active; 'I' for Inactive)
REMARK    1  A    between atoms: C5_5  and  C7_7 
ROOT
HETATM    1  C1  UNL     1     -34.133   6.347   6.214  1.00 20.00     0.010 C 
HETATM    2  C2  UNL     1     -34.869   4.973   6.170  1.00 20.00    -0.004 A 
HETATM    3  C3  UNL     1     -33.763   6.514   4.709  1.00 20.00    -0.004 A 
HETATM    4  C4  UNL     1     -35.544   4.853   4.816  1.00 20.00    -0.000 A 
HETATM    5  C5  UNL     1     -34.245   4.151   5.058  1.00 20.00    -0.000 A 
HETATM    6  C6  UNL     1     -34.842   5.832   3.889  1.00 20.00    -0.000 A 
HETATM    7  C7  UNL     1     -33.543   5.129   4.130  1.00 20.00    -0.000 A 
ENDROOT
TORSDOF 1
ENDMDL
MODEL 2
REMARK VINA RESULT:      -4.5      0.008      2.059
REMARK  1 active torsions:
REMARK  status: ('A' for Active; 'I' for Inactive)
REMARK    1  A    between atoms: C5_5  and  C7_7 
ROOT
HETATM    1  C1  UNL     1     -34.138   6.356   6.206  1.00 20.00     0.010 C 
HETATM    2  C2  UNL     1     -33.762   6.515   4.701  1.00 20.00    -0.004 A 
HETATM    3  C3  UNL     1     -34.874   4.983   6.167  1.00 20.00    -0.004 A 
HETATM    4  C4  UNL     1     -33.541   5.127   4.130  1.00 20.00    -0.000 A 
HETATM    5  C5  UNL     1     -34.838   5.829   3.881  1.00 20.00    -0.000 A 
HETATM    6  C6  UNL     1     -34.247   4.153   5.061  1.00 20.00    -0.000 A 
HETATM    7  C7  UNL     1     -35.545   4.855   4.812  1.00 20.00    -0.000 A 
ENDROOT
TORSDOF 1
ENDMDL
MODEL 3
REMARK VINA RESULT:      -4.3      0.693      1.967
REMARK  1 active torsions:
REMARK  status: ('A' for Active; 'I' for Inactive)
REMARK    1  A    between atoms: C5_5  and  C7_7 
ROOT
HETATM    1  C1  UNL     1     -35.206   5.383   3.835  1.00 20.00     0.010 C 
HETATM    2  C2  UNL     1     -35.419   4.307   4.943  1.00 20.00    -0.004 A 
HETATM    3  C3  UNL     1     -34.140   6.287   4.524  1.00 20.00    -0.004 A 
HETATM    4  C4  UNL     1     -34.108   4.147   5.691  1.00 20.00    -0.000 A 
HETATM    5  C5  UNL     1     -35.200   4.978   6.286  1.00 20.00    -0.000 A 
HETATM    6  C6  UNL     1     -33.295   5.404   5.424  1.00 20.00    -0.000 A 
HETATM    7  C7  UNL     1     -34.387   6.236   6.021  1.00 20.00    -0.000 A 
ENDROOT
TORSDOF 1
ENDMDL
MODEL 4
REMARK VINA RESULT:      -4.2      0.682      2.327
REMARK  1 active torsions:
REMARK  status: ('A' for Active; 'I' for Inactive)
REMARK    1  A    between atoms: C5_5  and  C7_7 
ROOT
HETATM    1  C1  UNL     1     -35.195   5.397   3.818  1.00 20.00     0.010 C 
HETATM    2  C2  UNL     1     -34.120   6.289   4.511  1.00 20.00    -0.004 A 
HETATM    3  C3  UNL     1     -35.425   4.325   4.926  1.00 20.00    -0.004 A 
HETATM    4  C4  UNL     1     -34.373   6.240   6.007  1.00 20.00    -0.000 A 
HETATM    5  C5  UNL     1     -33.291   5.395   5.414  1.00 20.00    -0.000 A 
HETATM    6  C6  UNL     1     -35.203   4.993   6.270  1.00 20.00    -0.000 A 
HETATM    7  C7  UNL     1     -34.119   4.148   5.678  1.00 20.00    -0.000 A 
ENDROOT
TORSDOF 1
ENDMDL
MODEL 5
REMARK VINA RESULT:      -3.8      8.361      9.421
REMARK  1 active torsions:
REMARK  status: ('A' for Active; 'I' for Inactive)
REMARK    1  A    between atoms: C5_5  and  C7_7 
ROOT
HETATM    1  C1  UNL     1     -43.084   6.079   0.070  1.00 20.00     0.010 C 
HETATM    2  C2  UNL     1     -41.804   5.195   0.174  1.00 20.00    -0.004 A 
HETATM    3  C3  UNL     1     -42.635   7.095  -1.023  1.00 20.00    -0.004 A 
HETATM    4  C4  UNL     1     -41.145   5.172  -1.194  1.00 20.00    -0.000 A 
HETATM    5  C5  UNL     1     -40.608   6.077  -0.131  1.00 20.00    -0.000 A 
HETATM    6  C6  UNL     1     -41.674   6.378  -1.954  1.00 20.00    -0.000 A 
HETATM    7  C7  UNL     1     -41.135   7.284  -0.892  1.00 20.00    -0.000 A 
ENDROOT
TORSDOF 1
ENDMDL
MODEL 6
REMARK VINA RESULT:      -3.7      8.355      9.527
REMARK  1 active torsions:
REMARK  status: ('A' for Active; 'I' for Inactive)
REMARK    1  A    between atoms: C5_5  and  C7_7 
ROOT
HETATM    1  C1  UNL     1     -43.080   6.082   0.082  1.00 20.00     0.010 C 
HETATM    2  C2  UNL     1     -42.634   7.103  -1.008  1.00 20.00    -0.004 A 
HETATM    3  C3  UNL     1     -41.800   5.198   0.177  1.00 20.00    -0.004 A 
HETATM    4  C4  UNL     1     -41.133   7.290  -0.881  1.00 20.00    -0.000 A 
HETATM    5  C5  UNL     1     -41.677   6.391  -1.945  1.00 20.00    -0.000 A 
HETATM    6  C6  UNL     1     -40.604   6.080  -0.128  1.00 20.00    -0.000 A 
HETATM    7  C7  UNL     1     -41.147   5.180  -1.193  1.00 20.00    -0.000 A 
ENDROOT
TORSDOF 1
ENDMDL
MODEL 7
REMARK VINA RESULT:      -3.7      8.412      9.553
REMARK  1 active torsions:
REMARK  status: ('A' for Active; 'I' for Inactive)
REMARK    1  A    between atoms: C5_5  and  C7_7 
ROOT
HETATM    1  C1  UNL     1     -41.926   6.512  -2.267  1.00 20.00     0.010 C 
HETATM    2  C2  UNL     1     -41.444   6.922  -0.843  1.00 20.00    -0.004 A 
HETATM    3  C3  UNL     1     -41.937   4.960  -2.122  1.00 20.00    -0.004 A 
HETATM    4  C4  UNL     1     -41.951   5.879   0.136  1.00 20.00    -0.000 A 
HETATM    5  C5  UNL     1     -40.530   5.825  -0.330  1.00 20.00    -0.000 A 
HETATM    6  C6  UNL     1     -42.265   4.633  -0.677  1.00 20.00    -0.000 A 
HETATM    7  C7  UNL     1     -40.843   4.578  -1.142  1.00 20.00    -0.000 A 
ENDROOT
TORSDOF 1
ENDMDL
MODEL 8
REMARK VINA RESULT:      -3.7      8.422      9.571
REMARK  1 active torsions:
REMARK  status: ('A' for Active; 'I' for Inactive)
REMARK    1  A    between atoms: C5_5  and  C7_7 
ROOT
HETATM    1  C1  UNL     1     -41.934   6.480  -2.286  1.00 20.00     0.010 C 
HETATM    2  C2  UNL     1     -41.935   4.929  -2.124  1.00 20.00    -0.004 A 
HETATM    3  C3  UNL     1     -41.462   6.909  -0.863  1.00 20.00    -0.004 A 
HETATM    4  C4  UNL     1     -40.842   4.567  -1.135  1.00 20.00    -0.000 A 
HETATM    5  C5  UNL     1     -42.266   4.615  -0.677  1.00 20.00    -0.000 A 
HETATM    6  C6  UNL     1     -40.542   5.824  -0.335  1.00 20.00    -0.000 A 
HETATM    7  C7  UNL     1     -41.965   5.872   0.124  1.00 20.00    -0.000 A 
ENDROOT
TORSDOF 1
ENDMDL
MODEL 9
REMARK VINA RESULT:      -3.7      8.365      9.526
REMARK  1 active torsions:
REMARK  status: ('A' for Active; 'I' for Inactive)
REMARK    1  A    between atoms: C5_5  and  C7_7 
ROOT
HETATM    1  C1  UNL     1     -41.600   4.771  -1.935  1.00 20.00     0.010 C 
HETATM    2  C2  UNL     1     -41.292   4.715  -0.408  1.00 20.00    -0.004 A 
HETATM    3  C3  UNL     1     -41.934   6.284  -2.098  1.00 20.00    -0.004 A 
HETATM    4  C4  UNL     1     -40.704   6.055  -0.005  1.00 20.00    -0.000 A 
HETATM    5  C5  UNL     1     -42.145   5.767   0.274  1.00 20.00    -0.000 A 
HETATM    6  C6  UNL     1     -41.112   7.052  -1.079  1.00 20.00    -0.000 A 
HETATM    7  C7  UNL     1     -42.553   6.765  -0.799  1.00 20.00    -0.000 A 
ENDROOT
TORSDOF 1
ENDMDL
