MODEL 1
REMARK VINA RESULT:      -4.9      0.000      0.000
REMARK  2 active torsions:
REMARK  status: ('A' for Active; 'I' for Inactive)
REMARK    1  A    between atoms: C1_1  and  C6_6 
REMARK    2  A    between atoms: C7_7  and  C9_9 
ROOT
HETATM    1  C2  UNL     1     -36.102  14.941  -3.669  1.00 20.00     0.015 C 
HETATM    2  C3  UNL     1     -33.579  14.904  -3.761  1.00 20.00     0.015 C 
HETATM    3  C4  UNL     1     -36.049  16.058  -2.628  1.00 20.00     0.005 C 
HETATM    4  C5  UNL     1     -33.522  16.020  -2.721  1.00 20.00     0.005 C 
HETATM    5  C6  UNL     1     -34.871  14.966  -4.568  1.00 20.00     0.087 C 
HETATM    6  C7  UNL     1     -34.755  16.005  -1.805  1.00 20.00    -0.015 C 
ENDROOT
BRANCH   5   7
HETATM    7  C1  UNL     1     -34.921  13.734  -5.452  1.00 20.00     0.177 C 
HETATM    8  O10 UNL     1     -34.714  12.639  -4.861  1.00 20.00    -0.648 OA
HETATM    9  O11 UNL     1     -35.166  13.965  -6.669  1.00 20.00    -0.648 OA
ENDBRANCH   5   7
BRANCH   6  10
HETATM   10  C9  UNL     1     -34.701  17.162  -0.809  1.00 20.00     0.000 C 
HETATM   11  C8  UNL     1     -33.392  17.878  -0.867  1.00 20.00     0.005 C 
ENDBRANCH   6  10
TORSDOF 2
ENDMDL
MODEL 2
REMARK VINA RESULT:      -4.6      1.156      1.943
REMARK  2 active torsions:
REMARK  status: ('A' for Active; 'I' for Inactive)
REMARK    1  A    between atoms: C1_1  and  C6_6 
REMARK    2  A    between atoms: C7_7  and  C9_9 
ROOT
HETATM    1  C2  UNL     1     -34.069  16.052  -5.216  1.00 20.00     0.015 C 
HETATM    2  C3  UNL     1     -34.733  14.892  -3.075  1.00 20.00     0.015 C 
HETATM    3  C4  UNL     1     -33.508  17.223  -4.411  1.00 20.00     0.005 C 
HETATM    4  C5  UNL     1     -34.174  16.061  -2.266  1.00 20.00     0.005 C 
HETATM    5  C6  UNL     1     -34.020  14.757  -4.415  1.00 20.00     0.087 C 
HETATM    6  C7  UNL     1     -34.221  17.374  -3.060  1.00 20.00    -0.015 C 
ENDROOT
BRANCH   5   7
HETATM    7  C1  UNL     1     -34.744  13.691  -5.216  1.00 20.00     0.177 C 
HETATM    8  O10 UNL     1     -35.079  14.031  -6.384  1.00 20.00    -0.648 OA
HETATM    9  O11 UNL     1     -34.917  12.598  -4.609  1.00 20.00    -0.648 OA
ENDBRANCH   5   7
BRANCH   6  10
HETATM   10  C9  UNL     1     -33.608  18.516  -2.252  1.00 20.00     0.000 C 
HETATM   11  C8  UNL     1     -33.389  18.126  -0.827  1.00 20.00     0.005 C 
ENDBRANCH   6  10
TORSDOF 2
ENDMDL
MODEL 3
REMARK VINA RESULT:      -4.5      2.521      3.569
REMARK  2 active torsions:
REMARK  status: ('A' for Active; 'I' for Inactive)
REMARK    1  A    between atoms: C1_1  and  C6_6 
REMARK    2  A    between atoms: C7_7  and  C9_9 
ROOT
HETATM    1  C2  UNL     1     -33.447  15.731  -3.834  1.00 20.00     0.015 C 
HETATM    2  C3  UNL     1     -34.378  15.069  -6.085  1.00 20.00     0.015 C 
HETATM    3  C4  UNL     1     -33.607  17.206  -4.200  1.00 20.00     0.005 C 
HETATM    4  C5  UNL     1     -34.539  16.542  -6.455  1.00 20.00     0.005 C 
HETATM    5  C6  UNL     1     -34.458  14.866  -4.576  1.00 20.00     0.087 C 
HETATM    6  C7  UNL     1     -33.523  17.426  -5.717  1.00 20.00    -0.015 C 
ENDROOT
BRANCH   5   7
HETATM    7  C1  UNL     1     -34.122  13.415  -4.289  1.00 20.00     0.177 C 
HETATM    8  O10 UNL     1     -33.042  13.226  -3.662  1.00 20.00    -0.648 OA
HETATM    9  O11 UNL     1     -34.968  12.581  -4.714  1.00 20.00    -0.648 OA
ENDBRANCH   5   7
BRANCH   6  10
HETATM   10  C9  UNL     1     -33.739  18.898  -6.061  1.00 20.00     0.000 C 
HETATM   11  C8  UNL     1     -35.070  19.125  -6.699  1.00 20.00     0.005 C 
ENDBRANCH   6  10
TORSDOF 2
ENDMDL
MODEL 4
REMARK VINA RESULT:      -4.4     11.559     12.268
REMARK  2 active torsions:
REMARK  status: ('A' for Active; 'I' for Inactive)
REMARK    1  A    between atoms: C1_1  and  C6_6 
REMARK    2  A    between atoms: C7_7  and  C9_9 
ROOT
HETATM    1  C2  UNL     1     -34.287   5.295   3.299  1.00 20.00     0.015 C 
HETATM    2  C3  UNL     1     -33.363   6.618   5.241  1.00 20.00     0.015 C 
HETATM    3  C4  UNL     1     -33.274   5.956   2.365  1.00 20.00     0.005 C 
HETATM    4  C5  UNL     1     -32.350   7.281   4.310  1.00 20.00     0.005 C 
HETATM    5  C6  UNL     1     -33.763   5.239   4.729  1.00 20.00     0.087 C 
HETATM    6  C7  UNL     1     -32.866   7.348   2.865  1.00 20.00    -0.015 C 
ENDROOT
BRANCH   5   7
HETATM    7  C1  UNL     1     -34.887   4.729   5.612  1.00 20.00     0.177 C 
HETATM    8  O10 UNL     1     -35.132   5.431   6.631  1.00 20.00    -0.648 OA
HETATM    9  O11 UNL     1     -35.433   3.664   5.210  1.00 20.00    -0.648 OA
ENDBRANCH   5   7
BRANCH   6  10
HETATM   10  C9  UNL     1     -31.815   7.966   1.945  1.00 20.00     0.000 C 
HETATM   11  C8  UNL     1     -32.329   9.192   1.266  1.00 20.00     0.005 C 
ENDBRANCH   6  10
TORSDOF 2
ENDMDL
MODEL 5
REMARK VINA RESULT:      -4.3      3.007      4.774
REMARK  2 active torsions:
REMARK  status: ('A' for Active; 'I' for Inactive)
REMARK    1  A    between atoms: C1_1  and  C6_6 
REMARK    2  A    between atoms: C7_7  and  C9_9 
ROOT
HETATM    1  C2  UNL     1     -34.971  15.362  -2.441  1.00 20.00     0.015 C 
HETATM    2  C3  UNL     1     -33.673  17.087  -3.750  1.00 20.00     0.015 C 
HETATM    3  C4  UNL     1     -34.992  14.447  -3.664  1.00 20.00     0.005 C 
HETATM    4  C5  UNL     1     -33.693  16.176  -4.976  1.00 20.00     0.005 C 
HETATM    5  C6  UNL     1     -33.754  16.279  -2.460  1.00 20.00     0.087 C 
HETATM    6  C7  UNL     1     -34.917  15.247  -4.972  1.00 20.00    -0.015 C 
ENDROOT
BRANCH   5   7
HETATM    7  C1  UNL     1     -33.899  17.260  -1.311  1.00 20.00     0.177 C 
HETATM    8  O10 UNL     1     -33.343  18.379  -1.486  1.00 20.00    -0.648 OA
HETATM    9  O11 UNL     1     -34.561  16.828  -0.327  1.00 20.00    -0.648 OA
ENDBRANCH   5   7
BRANCH   6  10
HETATM   10  C9  UNL     1     -34.886  14.310  -6.177  1.00 20.00     0.000 C 
HETATM   11  C8  UNL     1     -34.508  15.033  -7.428  1.00 20.00     0.005 C 
ENDBRANCH   6  10
TORSDOF 2
ENDMDL
MODEL 6
REMARK VINA RESULT:      -4.3      1.434      1.935
REMARK  2 active torsions:
REMARK  status: ('A' for Active; 'I' for Inactive)
REMARK    1  A    between atoms: C1_1  and  C6_6 
REMARK    2  A    between atoms: C7_7  and  C9_9 
ROOT
HETATM    1  C2  UNL     1     -35.903  14.886  -3.469  1.00 20.00     0.015 C 
HETATM    2  C3  UNL     1     -33.494  15.461  -2.981  1.00 20.00     0.015 C 
HETATM    3  C4  UNL     1     -36.318  16.311  -3.106  1.00 20.00     0.005 C 
HETATM    4  C5  UNL     1     -33.905  16.886  -2.617  1.00 20.00     0.005 C 
HETATM    5  C6  UNL     1     -34.468  14.843  -3.978  1.00 20.00     0.087 C 
HETATM    6  C7  UNL     1     -35.349  16.945  -2.099  1.00 20.00    -0.015 C 
ENDROOT
BRANCH   5   7
HETATM    7  C1  UNL     1     -34.084  13.385  -4.152  1.00 20.00     0.177 C 
HETATM    8  O10 UNL     1     -34.978  12.650  -4.657  1.00 20.00    -0.648 OA
HETATM    9  O11 UNL     1     -32.917  13.095  -3.769  1.00 20.00    -0.648 OA
ENDBRANCH   5   7
BRANCH   6  10
HETATM   10  C9  UNL     1     -35.754  18.385  -1.793  1.00 20.00     0.000 C 
HETATM   11  C8  UNL     1     -37.107  18.705  -2.340  1.00 20.00     0.005 C 
ENDBRANCH   6  10
TORSDOF 2
ENDMDL
MODEL 7
REMARK VINA RESULT:      -4.3      2.975      4.789
REMARK  2 active torsions:
REMARK  status: ('A' for Active; 'I' for Inactive)
REMARK    1  A    between atoms: C1_1  and  C6_6 
REMARK    2  A    between atoms: C7_7  and  C9_9 
ROOT
HETATM    1  C2  UNL     1     -34.611  15.104  -3.048  1.00 20.00     0.015 C 
HETATM    2  C3  UNL     1     -33.716  17.267  -3.992  1.00 20.00     0.015 C 
HETATM    3  C4  UNL     1     -34.463  14.443  -4.417  1.00 20.00     0.005 C 
HETATM    4  C5  UNL     1     -33.568  16.611  -5.363  1.00 20.00     0.005 C 
HETATM    5  C6  UNL     1     -33.609  16.239  -2.872  1.00 20.00     0.087 C 
HETATM    6  C7  UNL     1     -34.574  15.467  -5.555  1.00 20.00    -0.015 C 
ENDROOT
BRANCH   5   7
HETATM    7  C1  UNL     1     -33.935  16.942  -1.568  1.00 20.00     0.177 C 
HETATM    8  O10 UNL     1     -34.710  16.314  -0.796  1.00 20.00    -0.648 OA
HETATM    9  O11 UNL     1     -33.384  18.069  -1.423  1.00 20.00    -0.648 OA
ENDBRANCH   5   7
BRANCH   6  10
HETATM   10  C9  UNL     1     -34.370  14.792  -6.910  1.00 20.00     0.000 C 
HETATM   11  C8  UNL     1     -35.515  15.052  -7.833  1.00 20.00     0.005 C 
ENDBRANCH   6  10
TORSDOF 2
ENDMDL
MODEL 8
REMARK VINA RESULT:      -4.2      2.596      3.613
REMARK  2 active torsions:
REMARK  status: ('A' for Active; 'I' for Inactive)
REMARK    1  A    between atoms: C1_1  and  C6_6 
REMARK    2  A    between atoms: C7_7  and  C9_9 
ROOT
HETATM    1  C2  UNL     1     -35.611  14.950  -5.540  1.00 20.00     0.015 C 
HETATM    2  C3  UNL     1     -33.415  15.732  -4.570  1.00 20.00     0.015 C 
HETATM    3  C4  UNL     1     -35.727  16.251  -6.331  1.00 20.00     0.005 C 
HETATM    4  C5  UNL     1     -33.528  17.035  -5.359  1.00 20.00     0.005 C 
HETATM    5  C6  UNL     1     -34.153  14.596  -5.271  1.00 20.00     0.087 C 
HETATM    6  C7  UNL     1     -34.993  17.405  -5.635  1.00 20.00    -0.015 C 
ENDROOT
BRANCH   5   7
HETATM    7  C1  UNL     1     -34.133  13.395  -4.345  1.00 20.00     0.177 C 
HETATM    8  O10 UNL     1     -35.173  12.680  -4.368  1.00 20.00    -0.648 OA
HETATM    9  O11 UNL     1     -33.075  13.264  -3.669  1.00 20.00    -0.648 OA
ENDBRANCH   5   7
BRANCH   6  10
HETATM   10  C9  UNL     1     -35.078  18.681  -6.470  1.00 20.00     0.000 C 
HETATM   11  C8  UNL     1     -34.245  18.587  -7.706  1.00 20.00     0.005 C 
ENDBRANCH   6  10
TORSDOF 2
ENDMDL
MODEL 9
REMARK VINA RESULT:      -4.2     11.892     13.140
REMARK  2 active torsions:
REMARK  status: ('A' for Active; 'I' for Inactive)
REMARK    1  A    between atoms: C1_1  and  C6_6 
REMARK    2  A    between atoms: C7_7  and  C9_9 
ROOT
HETATM    1  C2  UNL     1     -40.894   3.982  -1.710  1.00 20.00     0.015 C 
HETATM    2  C3  UNL     1     -42.920   4.607  -3.080  1.00 20.00     0.015 C 
HETATM    3  C4  UNL     1     -40.967   5.324  -0.985  1.00 20.00     0.005 C 
HETATM    4  C5  UNL     1     -42.997   5.951  -2.358  1.00 20.00     0.005 C 
HETATM    5  C6  UNL     1     -42.268   3.545  -2.202  1.00 20.00     0.087 C 
HETATM    6  C7  UNL     1     -41.617   6.406  -1.859  1.00 20.00    -0.015 C 
ENDROOT
BRANCH   5   7
HETATM    7  C1  UNL     1     -42.079   2.300  -3.049  1.00 20.00     0.177 C 
HETATM    8  O10 UNL     1     -43.021   1.462  -2.991  1.00 20.00    -0.648 OA
HETATM    9  O11 UNL     1     -41.002   2.265  -3.706  1.00 20.00    -0.648 OA
ENDBRANCH   5   7
BRANCH   6  10
HETATM   10  C9  UNL     1     -41.728   7.723  -1.094  1.00 20.00     0.000 C 
HETATM   11  C8  UNL     1     -43.148   8.055  -0.772  1.00 20.00     0.005 C 
ENDBRANCH   6  10
TORSDOF 2
ENDMDL
