MODEL 1
REMARK VINA RESULT:      -4.9      0.000      0.000
REMARK  0 active torsions:
REMARK  status: ('A' for Active; 'I' for Inactive)
ROOT
HETATM    1  C1  UNL     1     -34.764  13.671  -4.838  1.00 20.00     0.128 C 
HETATM    2  C2  UNL     1     -34.534  14.545  -6.050  1.00 20.00     0.087 C 
HETATM    3  C3  UNL     1     -34.785  14.329  -3.477  1.00 20.00     0.087 C 
HETATM    4  C4  UNL     1     -34.365  16.617  -4.553  1.00 20.00     0.018 C 
HETATM    5  C5  UNL     1     -34.987  15.996  -5.834  1.00 20.00    -0.041 C 
HETATM    6  C6  UNL     1     -33.961  15.625  -3.429  1.00 20.00    -0.041 C 
HETATM    7  C7  UNL     1     -34.552  16.834  -7.055  1.00 20.00     0.015 C 
HETATM    8  C8  UNL     1     -36.529  16.063  -5.763  1.00 20.00     0.015 C 
HETATM    9  C9  UNL     1     -32.455  15.296  -3.525  1.00 20.00     0.015 C 
HETATM   10  C10 UNL     1     -34.190  16.301  -2.060  1.00 20.00     0.015 C 
HETATM   11  O11 UNL     1     -34.929  12.457  -4.956  1.00 20.00    -0.298 OA
ENDROOT
TORSDOF 0
ENDMDL
MODEL 2
REMARK VINA RESULT:      -4.9      0.014      3.338
REMARK  0 active torsions:
REMARK  status: ('A' for Active; 'I' for Inactive)
ROOT
HETATM    1  C1  UNL     1     -34.768  13.679  -4.844  1.00 20.00     0.128 C 
HETATM    2  C2  UNL     1     -34.787  14.337  -3.482  1.00 20.00     0.087 C 
HETATM    3  C3  UNL     1     -34.533  14.553  -6.055  1.00 20.00     0.087 C 
HETATM    4  C4  UNL     1     -34.350  16.623  -4.555  1.00 20.00     0.018 C 
HETATM    5  C5  UNL     1     -33.954  15.626  -3.431  1.00 20.00    -0.041 C 
HETATM    6  C6  UNL     1     -34.976  16.007  -5.836  1.00 20.00    -0.041 C 
HETATM    7  C7  UNL     1     -34.179  16.302  -2.062  1.00 20.00     0.015 C 
HETATM    8  C8  UNL     1     -32.450  15.286  -3.527  1.00 20.00     0.015 C 
HETATM    9  C9  UNL     1     -36.517  16.085  -5.766  1.00 20.00     0.015 C 
HETATM   10  C10 UNL     1     -34.536  16.843  -7.057  1.00 20.00     0.015 C 
HETATM   11  O11 UNL     1     -34.940  12.466  -4.962  1.00 20.00    -0.298 OA
ENDROOT
TORSDOF 0
ENDMDL
MODEL 3
REMARK VINA RESULT:      -4.9      1.327      3.307
REMARK  0 active torsions:
REMARK  status: ('A' for Active; 'I' for Inactive)
ROOT
HETATM    1  C1  UNL     1     -34.925  13.668  -4.616  1.00 20.00     0.128 C 
HETATM    2  C2  UNL     1     -34.431  14.316  -3.342  1.00 20.00     0.087 C 
HETATM    3  C3  UNL     1     -35.819  14.476  -5.528  1.00 20.00     0.087 C 
HETATM    4  C4  UNL     1     -35.691  16.470  -3.923  1.00 20.00     0.018 C 
HETATM    5  C5  UNL     1     -34.351  15.846  -3.444  1.00 20.00    -0.041 C 
HETATM    6  C6  UNL     1     -36.612  15.559  -4.780  1.00 20.00    -0.041 C 
HETATM    7  C7  UNL     1     -34.007  16.414  -2.051  1.00 20.00     0.015 C 
HETATM    8  C8  UNL     1     -33.205  16.253  -4.397  1.00 20.00     0.015 C 
HETATM    9  C9  UNL     1     -37.690  14.903  -3.889  1.00 20.00     0.015 C 
HETATM   10  C10 UNL     1     -37.350  16.431  -5.817  1.00 20.00     0.015 C 
HETATM   11  O11 UNL     1     -34.609  12.513  -4.901  1.00 20.00    -0.298 OA
ENDROOT
TORSDOF 0
ENDMDL
MODEL 4
REMARK VINA RESULT:      -4.9      1.329      1.560
REMARK  0 active torsions:
REMARK  status: ('A' for Active; 'I' for Inactive)
ROOT
HETATM    1  C1  UNL     1     -34.938  13.669  -4.610  1.00 20.00     0.128 C 
HETATM    2  C2  UNL     1     -35.828  14.478  -5.526  1.00 20.00     0.087 C 
HETATM    3  C3  UNL     1     -34.446  14.317  -3.336  1.00 20.00     0.087 C 
HETATM    4  C4  UNL     1     -35.707  16.471  -3.920  1.00 20.00     0.018 C 
HETATM    5  C5  UNL     1     -36.624  15.560  -4.781  1.00 20.00    -0.041 C 
HETATM    6  C6  UNL     1     -34.368  15.848  -3.438  1.00 20.00    -0.041 C 
HETATM    7  C7  UNL     1     -37.360  16.432  -5.820  1.00 20.00     0.015 C 
HETATM    8  C8  UNL     1     -37.704  14.903  -3.893  1.00 20.00     0.015 C 
HETATM    9  C9  UNL     1     -33.219  16.256  -4.387  1.00 20.00     0.015 C 
HETATM   10  C10 UNL     1     -34.027  16.416  -2.044  1.00 20.00     0.015 C 
HETATM   11  O11 UNL     1     -34.622  12.514  -4.895  1.00 20.00    -0.298 OA
ENDROOT
TORSDOF 0
ENDMDL
MODEL 5
REMARK VINA RESULT:      -4.8      2.167      3.739
REMARK  0 active torsions:
REMARK  status: ('A' for Active; 'I' for Inactive)
ROOT
HETATM    1  C1  UNL     1     -33.646  16.895  -4.451  1.00 20.00     0.128 C 
HETATM    2  C2  UNL     1     -33.656  17.195  -2.969  1.00 20.00     0.087 C 
HETATM    3  C3  UNL     1     -34.326  15.632  -4.929  1.00 20.00     0.087 C 
HETATM    4  C4  UNL     1     -34.975  15.044  -2.520  1.00 20.00     0.018 C 
HETATM    5  C5  UNL     1     -34.854  16.568  -2.242  1.00 20.00    -0.041 C 
HETATM    6  C6  UNL     1     -34.367  14.534  -3.855  1.00 20.00    -0.041 C 
HETATM    7  C7  UNL     1     -34.677  16.785  -0.724  1.00 20.00     0.015 C 
HETATM    8  C8  UNL     1     -36.157  17.288  -2.654  1.00 20.00     0.015 C 
HETATM    9  C9  UNL     1     -32.945  13.978  -3.614  1.00 20.00     0.015 C 
HETATM   10  C10 UNL     1     -35.227  13.366  -4.380  1.00 20.00     0.015 C 
HETATM   11  O11 UNL     1     -33.099  17.658  -5.247  1.00 20.00    -0.298 OA
ENDROOT
TORSDOF 0
ENDMDL
MODEL 6
REMARK VINA RESULT:      -4.7      2.162      3.502
REMARK  0 active torsions:
REMARK  status: ('A' for Active; 'I' for Inactive)
ROOT
HETATM    1  C1  UNL     1     -33.746  16.989  -4.461  1.00 20.00     0.128 C 
HETATM    2  C2  UNL     1     -34.383  15.697  -4.921  1.00 20.00     0.087 C 
HETATM    3  C3  UNL     1     -33.728  17.289  -2.980  1.00 20.00     0.087 C 
HETATM    4  C4  UNL     1     -34.936  15.080  -2.496  1.00 20.00     0.018 C 
HETATM    5  C5  UNL     1     -34.344  14.598  -3.849  1.00 20.00    -0.041 C 
HETATM    6  C6  UNL     1     -34.877  16.608  -2.220  1.00 20.00    -0.041 C 
HETATM    7  C7  UNL     1     -35.166  13.393  -4.352  1.00 20.00     0.015 C 
HETATM    8  C8  UNL     1     -32.893  14.107  -3.650  1.00 20.00     0.015 C 
HETATM    9  C9  UNL     1     -36.222  17.269  -2.594  1.00 20.00     0.015 C 
HETATM   10  C10 UNL     1     -34.667  16.834  -0.708  1.00 20.00     0.015 C 
HETATM   11  O11 UNL     1     -33.255  17.775  -5.272  1.00 20.00    -0.298 OA
ENDROOT
TORSDOF 0
ENDMDL
MODEL 7
REMARK VINA RESULT:      -4.6      2.036      3.163
REMARK  0 active torsions:
REMARK  status: ('A' for Active; 'I' for Inactive)
ROOT
HETATM    1  C1  UNL     1     -36.465  16.062  -3.370  1.00 20.00     0.128 C 
HETATM    2  C2  UNL     1     -35.698  14.766  -3.502  1.00 20.00     0.087 C 
HETATM    3  C3  UNL     1     -35.693  17.319  -3.040  1.00 20.00     0.087 C 
HETATM    4  C4  UNL     1     -33.504  15.986  -2.992  1.00 20.00     0.018 C 
HETATM    5  C5  UNL     1     -34.235  14.978  -3.920  1.00 20.00    -0.041 C 
HETATM    6  C6  UNL     1     -34.394  17.035  -2.270  1.00 20.00    -0.041 C 
HETATM    7  C7  UNL     1     -33.504  13.621  -3.857  1.00 20.00     0.015 C 
HETATM    8  C8  UNL     1     -34.170  15.462  -5.386  1.00 20.00     0.015 C 
HETATM    9  C9  UNL     1     -34.722  16.559  -0.838  1.00 20.00     0.015 C 
HETATM   10  C10 UNL     1     -33.604  18.354  -2.139  1.00 20.00     0.015 C 
HETATM   11  O11 UNL     1     -37.686  16.092  -3.527  1.00 20.00    -0.298 OA
ENDROOT
TORSDOF 0
ENDMDL
MODEL 8
REMARK VINA RESULT:      -4.6      2.069      3.667
REMARK  0 active torsions:
REMARK  status: ('A' for Active; 'I' for Inactive)
ROOT
HETATM    1  C1  UNL     1     -36.445  16.147  -3.302  1.00 20.00     0.128 C 
HETATM    2  C2  UNL     1     -35.663  17.395  -2.959  1.00 20.00     0.087 C 
HETATM    3  C3  UNL     1     -35.688  14.847  -3.451  1.00 20.00     0.087 C 
HETATM    4  C4  UNL     1     -33.484  16.046  -2.925  1.00 20.00     0.018 C 
HETATM    5  C5  UNL     1     -34.366  17.094  -2.193  1.00 20.00    -0.041 C 
HETATM    6  C6  UNL     1     -34.223  15.055  -3.865  1.00 20.00    -0.041 C 
HETATM    7  C7  UNL     1     -33.566  18.405  -2.046  1.00 20.00     0.015 C 
HETATM    8  C8  UNL     1     -34.699  16.603  -0.766  1.00 20.00     0.015 C 
HETATM    9  C9  UNL     1     -34.154  15.554  -5.326  1.00 20.00     0.015 C 
HETATM   10  C10 UNL     1     -33.502  13.691  -3.818  1.00 20.00     0.015 C 
HETATM   11  O11 UNL     1     -37.666  16.189  -3.457  1.00 20.00    -0.298 OA
ENDROOT
TORSDOF 0
ENDMDL
MODEL 9
REMARK VINA RESULT:      -4.5      1.557      3.602
REMARK  0 active torsions:
REMARK  status: ('A' for Active; 'I' for Inactive)
ROOT
HETATM    1  C1  UNL     1     -36.785  14.715  -4.134  1.00 20.00     0.128 C 
HETATM    2  C2  UNL     1     -35.908  15.373  -3.094  1.00 20.00     0.087 C 
HETATM    3  C3  UNL     1     -36.339  14.760  -5.578  1.00 20.00     0.087 C 
HETATM    4  C4  UNL     1     -34.236  16.064  -4.909  1.00 20.00     0.018 C 
HETATM    5  C5  UNL     1     -34.429  15.424  -3.507  1.00 20.00    -0.041 C 
HETATM    6  C6  UNL     1     -35.440  15.967  -5.886  1.00 20.00    -0.041 C 
HETATM    7  C7  UNL     1     -33.657  16.261  -2.466  1.00 20.00     0.015 C 
HETATM    8  C8  UNL     1     -33.826  14.002  -3.485  1.00 20.00     0.015 C 
HETATM    9  C9  UNL     1     -36.270  17.269  -5.840  1.00 20.00     0.015 C 
HETATM   10  C10 UNL     1     -34.903  15.823  -7.326  1.00 20.00     0.015 C 
HETATM   11  O11 UNL     1     -37.836  14.159  -3.814  1.00 20.00    -0.298 OA
ENDROOT
TORSDOF 0
ENDMDL
