MODEL 1
REMARK VINA RESULT:      -3.6      0.000      0.000
REMARK  1 active torsions:
REMARK  status: ('A' for Active; 'I' for Inactive)
REMARK    1  A    between atoms: C1_1  and  C3_3 
ROOT
HETATM    1  C1  UNL     1     -34.422   5.700   3.656  1.00 20.00     0.000 C 
HETATM    2  C2  UNL     1     -33.209   6.196   3.913  1.00 20.00     0.081 C 
HETATM    3 CL4  UNL     1     -32.328   7.139   2.785  1.00 20.00    -0.097 Cl
ENDROOT
BRANCH   1   4
HETATM    4  C3  UNL     1     -35.198   4.884   4.638  1.00 20.00     0.142 C 
HETATM    5 CL5  UNL     1     -34.721   5.318   6.293  1.00 20.00    -0.126 Cl
ENDBRANCH   1   4
TORSDOF 1
ENDMDL
MODEL 2
REMARK VINA RESULT:      -3.5      1.318      1.400
REMARK  1 active torsions:
REMARK  status: ('A' for Active; 'I' for Inactive)
REMARK    1  A    between atoms: C1_1  and  C3_3 
ROOT
HETATM    1  C1  UNL     1     -33.843   6.343   5.311  1.00 20.00     0.000 C 
HETATM    2  C2  UNL     1     -33.560   5.973   4.059  1.00 20.00     0.081 C 
HETATM    3 CL4  UNL     1     -32.643   6.943   2.984  1.00 20.00    -0.097 Cl
ENDROOT
BRANCH   1   4
HETATM    4  C3  UNL     1     -34.633   5.498   6.255  1.00 20.00     0.142 C 
HETATM    5 CL5  UNL     1     -34.958   3.913   5.520  1.00 20.00    -0.126 Cl
ENDBRANCH   1   4
TORSDOF 1
ENDMDL
MODEL 3
REMARK VINA RESULT:      -3.4      1.358      3.708
REMARK  1 active torsions:
REMARK  status: ('A' for Active; 'I' for Inactive)
REMARK    1  A    between atoms: C1_1  and  C3_3 
ROOT
HETATM    1  C1  UNL     1     -33.272   6.143   3.362  1.00 20.00     0.000 C 
HETATM    2  C2  UNL     1     -33.940   5.881   4.488  1.00 20.00     0.081 C 
HETATM    3 CL4  UNL     1     -35.371   4.938   4.527  1.00 20.00    -0.097 Cl
ENDROOT
BRANCH   1   4
HETATM    4  C3  UNL     1     -32.020   6.956   3.323  1.00 20.00     0.142 C 
HETATM    5 CL5  UNL     1     -32.137   8.184   2.044  1.00 20.00    -0.126 Cl
ENDBRANCH   1   4
TORSDOF 1
ENDMDL
MODEL 4
REMARK VINA RESULT:      -3.3      2.410      2.828
REMARK  1 active torsions:
REMARK  status: ('A' for Active; 'I' for Inactive)
REMARK    1  A    between atoms: C1_1  and  C3_3 
ROOT
HETATM    1  C1  UNL     1     -34.492   5.297   6.253  1.00 20.00     0.000 C 
HETATM    2  C2  UNL     1     -33.980   6.498   5.970  1.00 20.00     0.081 C 
HETATM    3 CL4  UNL     1     -33.320   7.536   7.164  1.00 20.00    -0.097 Cl
ENDROOT
BRANCH   1   4
HETATM    4  C3  UNL     1     -35.060   4.385   5.216  1.00 20.00     0.142 C 
HETATM    5 CL5  UNL     1     -35.002   5.171   3.624  1.00 20.00    -0.126 Cl
ENDBRANCH   1   4
TORSDOF 1
ENDMDL
MODEL 5
REMARK VINA RESULT:      -3.2      1.721      1.893
REMARK  1 active torsions:
REMARK  status: ('A' for Active; 'I' for Inactive)
REMARK    1  A    between atoms: C1_1  and  C3_3 
ROOT
HETATM    1  C1  UNL     1     -34.835   5.009   4.976  1.00 20.00     0.000 C 
HETATM    2  C2  UNL     1     -34.157   5.662   4.028  1.00 20.00     0.081 C 
HETATM    3 CL4  UNL     1     -34.270   5.273   2.363  1.00 20.00    -0.097 Cl
ENDROOT
BRANCH   1   4
HETATM    4  C3  UNL     1     -34.746   5.349   6.427  1.00 20.00     0.142 C 
HETATM    5 CL5  UNL     1     -33.850   6.869   6.638  1.00 20.00    -0.126 Cl
ENDBRANCH   1   4
TORSDOF 1
ENDMDL
MODEL 6
REMARK VINA RESULT:      -3.2      0.840      3.531
REMARK  1 active torsions:
REMARK  status: ('A' for Active; 'I' for Inactive)
REMARK    1  A    between atoms: C1_1  and  C3_3 
ROOT
HETATM    1  C1  UNL     1     -33.698   5.939   4.458  1.00 20.00     0.000 C 
HETATM    2  C2  UNL     1     -34.684   5.057   4.644  1.00 20.00     0.081 C 
HETATM    3 CL4  UNL     1     -35.218   4.566   6.196  1.00 20.00    -0.097 Cl
ENDROOT
BRANCH   1   4
HETATM    4  C3  UNL     1     -33.235   6.376   3.108  1.00 20.00     0.142 C 
HETATM    5 CL5  UNL     1     -31.793   7.403   3.266  1.00 20.00    -0.126 Cl
ENDBRANCH   1   4
TORSDOF 1
ENDMDL
MODEL 7
REMARK VINA RESULT:      -3.2      1.366      1.456
REMARK  1 active torsions:
REMARK  status: ('A' for Active; 'I' for Inactive)
REMARK    1  A    between atoms: C1_1  and  C3_3 
ROOT
HETATM    1  C1  UNL     1     -33.566   6.587   3.721  1.00 20.00     0.000 C 
HETATM    2  C2  UNL     1     -32.321   6.879   3.334  1.00 20.00     0.081 C 
HETATM    3 CL4  UNL     1     -31.969   7.972   2.062  1.00 20.00    -0.097 Cl
ENDROOT
BRANCH   1   4
HETATM    4  C3  UNL     1     -33.877   5.643   4.834  1.00 20.00     0.142 C 
HETATM    5 CL5  UNL     1     -35.449   4.867   4.547  1.00 20.00    -0.126 Cl
ENDBRANCH   1   4
TORSDOF 1
ENDMDL
MODEL 8
REMARK VINA RESULT:      -2.8      1.366      3.488
REMARK  1 active torsions:
REMARK  status: ('A' for Active; 'I' for Inactive)
REMARK    1  A    between atoms: C1_1  and  C3_3 
ROOT
HETATM    1  C1  UNL     1     -33.945   6.069   4.921  1.00 20.00     0.000 C 
HETATM    2  C2  UNL     1     -34.637   4.938   5.083  1.00 20.00     0.081 C 
HETATM    3 CL4  UNL     1     -35.302   4.457   6.587  1.00 20.00    -0.097 Cl
ENDROOT
BRANCH   1   4
HETATM    4  C3  UNL     1     -33.371   6.497   3.611  1.00 20.00     0.142 C 
HETATM    5 CL5  UNL     1     -33.835   5.343   2.342  1.00 20.00    -0.126 Cl
ENDBRANCH   1   4
TORSDOF 1
ENDMDL
MODEL 9
REMARK VINA RESULT:      -2.7      2.623      3.220
REMARK  1 active torsions:
REMARK  status: ('A' for Active; 'I' for Inactive)
REMARK    1  A    between atoms: C1_1  and  C3_3 
ROOT
HETATM    1  C1  UNL     1     -32.067   7.691   2.922  1.00 20.00     0.000 C 
HETATM    2  C2  UNL     1     -32.356   8.189   1.717  1.00 20.00     0.081 C 
HETATM    3 CL4  UNL     1     -32.223   9.855   1.339  1.00 20.00    -0.097 Cl
ENDROOT
BRANCH   1   4
HETATM    4  C3  UNL     1     -32.173   6.239   3.254  1.00 20.00     0.142 C 
HETATM    5 CL5  UNL     1     -33.881   5.751   3.292  1.00 20.00    -0.126 Cl
ENDBRANCH   1   4
TORSDOF 1
ENDMDL
