MODEL 1
REMARK VINA RESULT:      -4.8      0.000      0.000
REMARK  2 active torsions:
REMARK  status: ('A' for Active; 'I' for Inactive)
REMARK    1  A    between atoms: C2_2  and  C4_4 
REMARK    2  A    between atoms: C5_5  and  C9_9 
ROOT
HETATM    1  C1  UNL     1     -33.564  15.082  -3.722  1.00 20.00    -0.016 C 
HETATM    2  C2  UNL     1     -34.794  14.641  -4.020  1.00 20.00    -0.024 C 
HETATM    3  C6  UNL     1     -33.299  16.052  -2.605  1.00 20.00     0.036 C 
HETATM    4  C7  UNL     1     -36.035  15.082  -3.305  1.00 20.00     0.042 C 
HETATM    5  C8  UNL     1     -35.808  16.333  -2.449  1.00 20.00     0.014 C 
HETATM    6  C9  UNL     1     -34.498  16.232  -1.657  1.00 20.00     0.017 C 
ENDROOT
BRANCH   6   7
HETATM    7  C5  UNL     1     -34.299  17.430  -0.780  1.00 20.00    -0.089 C 
HETATM    8  C3  UNL     1     -33.476  18.430  -1.124  1.00 20.00     0.014 C 
HETATM    9  C10 UNL     1     -35.074  17.445   0.504  1.00 20.00     0.043 C 
ENDBRANCH   6   7
BRANCH   2  10
HETATM   10  C4  UNL     1     -34.927  13.688  -5.126  1.00 20.00     0.265 C 
HETATM   11  O11 UNL     1     -34.815  12.479  -4.970  1.00 20.00    -0.302 OA
ENDBRANCH   2  10
TORSDOF 2
ENDMDL
MODEL 2
REMARK VINA RESULT:      -4.5      1.489      1.565
REMARK  2 active torsions:
REMARK  status: ('A' for Active; 'I' for Inactive)
REMARK    1  A    between atoms: C2_2  and  C4_4 
REMARK    2  A    between atoms: C5_5  and  C9_9 
ROOT
HETATM    1  C1  UNL     1     -33.954  16.643  -4.767  1.00 20.00    -0.016 C 
HETATM    2  C2  UNL     1     -34.394  15.376  -4.732  1.00 20.00    -0.024 C 
HETATM    3  C6  UNL     1     -33.728  17.456  -3.524  1.00 20.00     0.036 C 
HETATM    4  C7  UNL     1     -34.738  14.646  -3.470  1.00 20.00     0.042 C 
HETATM    5  C8  UNL     1     -34.874  15.585  -2.265  1.00 20.00     0.014 C 
HETATM    6  C9  UNL     1     -33.738  16.616  -2.235  1.00 20.00     0.017 C 
ENDROOT
BRANCH   6   7
HETATM    7  C5  UNL     1     -33.839  17.501  -1.031  1.00 20.00    -0.089 C 
HETATM    8  C3  UNL     1     -33.054  18.576  -0.874  1.00 20.00     0.014 C 
HETATM    9  C10 UNL     1     -34.871  17.116  -0.012  1.00 20.00     0.043 C 
ENDBRANCH   6   7
BRANCH   2  10
HETATM   10  C4  UNL     1     -34.568  14.680  -6.010  1.00 20.00     0.265 C 
HETATM   11  O11 UNL     1     -34.104  15.106  -7.060  1.00 20.00    -0.302 OA
ENDBRANCH   2  10
TORSDOF 2
ENDMDL
MODEL 3
REMARK VINA RESULT:      -4.5      1.289      1.703
REMARK  2 active torsions:
REMARK  status: ('A' for Active; 'I' for Inactive)
REMARK    1  A    between atoms: C2_2  and  C4_4 
REMARK    2  A    between atoms: C5_5  and  C9_9 
ROOT
HETATM    1  C1  UNL     1     -33.895  16.801  -4.678  1.00 20.00    -0.016 C 
HETATM    2  C2  UNL     1     -34.319  15.530  -4.734  1.00 20.00    -0.024 C 
HETATM    3  C6  UNL     1     -33.728  17.542  -3.381  1.00 20.00     0.036 C 
HETATM    4  C7  UNL     1     -34.701  14.723  -3.532  1.00 20.00     0.042 C 
HETATM    5  C8  UNL     1     -34.896  15.586  -2.280  1.00 20.00     0.014 C 
HETATM    6  C9  UNL     1     -33.775  16.626  -2.145  1.00 20.00     0.017 C 
ENDROOT
BRANCH   6   7
HETATM    7  C5  UNL     1     -33.934  17.437  -0.896  1.00 20.00    -0.089 C 
HETATM    8  C3  UNL     1     -34.866  17.146   0.024  1.00 20.00     0.014 C 
HETATM    9  C10 UNL     1     -32.992  18.592  -0.733  1.00 20.00     0.043 C 
ENDBRANCH   6   7
BRANCH   2  10
HETATM   10  C4  UNL     1     -34.435  14.909  -6.057  1.00 20.00     0.265 C 
HETATM   11  O11 UNL     1     -35.227  14.007  -6.294  1.00 20.00    -0.302 OA
ENDBRANCH   2  10
TORSDOF 2
ENDMDL
MODEL 4
REMARK VINA RESULT:      -4.4      2.259      3.256
REMARK  2 active torsions:
REMARK  status: ('A' for Active; 'I' for Inactive)
REMARK    1  A    between atoms: C2_2  and  C4_4 
REMARK    2  A    between atoms: C5_5  and  C9_9 
ROOT
HETATM    1  C1  UNL     1     -34.296  16.430  -2.320  1.00 20.00    -0.016 C 
HETATM    2  C2  UNL     1     -33.845  17.440  -3.077  1.00 20.00    -0.024 C 
HETATM    3  C6  UNL     1     -34.546  16.572  -0.845  1.00 20.00     0.036 C 
HETATM    4  C7  UNL     1     -33.510  18.799  -2.542  1.00 20.00     0.042 C 
HETATM    5  C8  UNL     1     -33.399  18.820  -1.013  1.00 20.00     0.014 C 
HETATM    6  C9  UNL     1     -34.545  18.033  -0.364  1.00 20.00     0.017 C 
ENDROOT
BRANCH   6   7
HETATM    7  C5  UNL     1     -34.467  18.095   1.131  1.00 20.00    -0.089 C 
HETATM    8  C3  UNL     1     -35.433  17.589   1.912  1.00 20.00     0.014 C 
HETATM    9  C10 UNL     1     -33.248  18.754   1.702  1.00 20.00     0.043 C 
ENDBRANCH   6   7
BRANCH   2  10
HETATM   10  C4  UNL     1     -33.648  17.185  -4.507  1.00 20.00     0.265 C 
HETATM   11  O11 UNL     1     -32.808  16.399  -4.926  1.00 20.00    -0.302 OA
ENDBRANCH   2  10
TORSDOF 2
ENDMDL
MODEL 5
REMARK VINA RESULT:      -4.3      3.125      5.276
REMARK  2 active torsions:
REMARK  status: ('A' for Active; 'I' for Inactive)
REMARK    1  A    between atoms: C2_2  and  C4_4 
REMARK    2  A    between atoms: C5_5  and  C9_9 
ROOT
HETATM    1  C1  UNL     1     -34.795  17.051  -0.029  1.00 20.00    -0.016 C 
HETATM    2  C2  UNL     1     -34.094  18.176   0.171  1.00 20.00    -0.024 C 
HETATM    3  C6  UNL     1     -34.754  16.292  -1.325  1.00 20.00     0.036 C 
HETATM    4  C7  UNL     1     -33.226  18.816  -0.869  1.00 20.00     0.042 C 
HETATM    5  C8  UNL     1     -33.489  18.265  -2.276  1.00 20.00     0.014 C 
HETATM    6  C9  UNL     1     -33.612  16.736  -2.257  1.00 20.00     0.017 C 
ENDROOT
BRANCH   6   7
HETATM    7  C5  UNL     1     -33.818  16.191  -3.637  1.00 20.00    -0.089 C 
HETATM    8  C3  UNL     1     -33.509  16.900  -4.732  1.00 20.00     0.014 C 
HETATM    9  C10 UNL     1     -34.389  14.807  -3.722  1.00 20.00     0.043 C 
ENDBRANCH   6   7
BRANCH   2  10
HETATM   10  C4  UNL     1     -34.207  18.825   1.481  1.00 20.00     0.265 C 
HETATM   11  O11 UNL     1     -33.453  18.568   2.410  1.00 20.00    -0.302 OA
ENDBRANCH   2  10
TORSDOF 2
ENDMDL
MODEL 6
REMARK VINA RESULT:      -4.3      0.976      1.831
REMARK  2 active torsions:
REMARK  status: ('A' for Active; 'I' for Inactive)
REMARK    1  A    between atoms: C2_2  and  C4_4 
REMARK    2  A    between atoms: C5_5  and  C9_9 
ROOT
HETATM    1  C1  UNL     1     -35.915  14.942  -3.702  1.00 20.00    -0.016 C 
HETATM    2  C2  UNL     1     -34.641  14.684  -4.033  1.00 20.00    -0.024 C 
HETATM    3  C6  UNL     1     -36.295  16.013  -2.719  1.00 20.00     0.036 C 
HETATM    4  C7  UNL     1     -33.464  15.400  -3.445  1.00 20.00     0.042 C 
HETATM    5  C8  UNL     1     -33.828  16.199  -2.188  1.00 20.00     0.014 C 
HETATM    6  C9  UNL     1     -35.139  16.973  -2.385  1.00 20.00     0.017 C 
ENDROOT
BRANCH   6   7
HETATM    7  C5  UNL     1     -35.471  17.796  -1.178  1.00 20.00    -0.089 C 
HETATM    8  C3  UNL     1     -36.247  18.886  -1.256  1.00 20.00     0.014 C 
HETATM    9  C10 UNL     1     -34.885  17.329   0.121  1.00 20.00     0.043 C 
ENDBRANCH   6   7
BRANCH   2  10
HETATM   10  C4  UNL     1     -34.394  13.621  -5.012  1.00 20.00     0.265 C 
HETATM   11  O11 UNL     1     -34.805  12.478  -4.860  1.00 20.00    -0.302 OA
ENDBRANCH   2  10
TORSDOF 2
ENDMDL
MODEL 7
REMARK VINA RESULT:      -4.2     12.139     14.250
REMARK  2 active torsions:
REMARK  status: ('A' for Active; 'I' for Inactive)
REMARK    1  A    between atoms: C2_2  and  C4_4 
REMARK    2  A    between atoms: C5_5  and  C9_9 
ROOT
HETATM    1  C1  UNL     1     -42.740   5.935  -2.592  1.00 20.00    -0.016 C 
HETATM    2  C2  UNL     1     -41.856   6.215  -1.623  1.00 20.00    -0.024 C 
HETATM    3  C6  UNL     1     -42.924   4.550  -3.144  1.00 20.00     0.036 C 
HETATM    4  C7  UNL     1     -40.939   5.200  -1.010  1.00 20.00     0.042 C 
HETATM    5  C8  UNL     1     -40.861   3.907  -1.829  1.00 20.00     0.014 C 
HETATM    6  C9  UNL     1     -42.254   3.458  -2.291  1.00 20.00     0.017 C 
ENDROOT
BRANCH   6   7
HETATM    7  C5  UNL     1     -42.186   2.167  -3.047  1.00 20.00    -0.089 C 
HETATM    8  C3  UNL     1     -41.230   1.929  -3.957  1.00 20.00     0.014 C 
HETATM    9  C10 UNL     1     -43.248   1.158  -2.729  1.00 20.00     0.043 C 
ENDBRANCH   6   7
BRANCH   2  10
HETATM   10  C4  UNL     1     -41.772   7.602  -1.157  1.00 20.00     0.265 C 
HETATM   11  O11 UNL     1     -42.749   8.223  -0.758  1.00 20.00    -0.302 OA
ENDBRANCH   2  10
TORSDOF 2
ENDMDL
MODEL 8
REMARK VINA RESULT:      -4.2      1.783      2.357
REMARK  2 active torsions:
REMARK  status: ('A' for Active; 'I' for Inactive)
REMARK    1  A    between atoms: C2_2  and  C4_4 
REMARK    2  A    between atoms: C5_5  and  C9_9 
ROOT
HETATM    1  C1  UNL     1     -34.418  18.041  -3.316  1.00 20.00    -0.016 C 
HETATM    2  C2  UNL     1     -34.883  16.784  -3.283  1.00 20.00    -0.024 C 
HETATM    3  C6  UNL     1     -33.782  18.700  -2.125  1.00 20.00     0.036 C 
HETATM    4  C7  UNL     1     -34.853  15.914  -2.063  1.00 20.00     0.042 C 
HETATM    5  C8  UNL     1     -34.568  16.706  -0.782  1.00 20.00     0.014 C 
HETATM    6  C9  UNL     1     -33.431  17.715  -0.996  1.00 20.00     0.017 C 
ENDROOT
BRANCH   6   7
HETATM    7  C5  UNL     1     -33.115  18.454   0.268  1.00 20.00    -0.089 C 
HETATM    8  C3  UNL     1     -31.974  19.140   0.421  1.00 20.00     0.014 C 
HETATM    9  C10 UNL     1     -34.149  18.381   1.351  1.00 20.00     0.043 C 
ENDBRANCH   6   7
BRANCH   2  10
HETATM   10  C4  UNL     1     -35.475  16.244  -4.511  1.00 20.00     0.265 C 
HETATM   11  O11 UNL     1     -34.912  15.401  -5.198  1.00 20.00    -0.302 OA
ENDBRANCH   2  10
TORSDOF 2
ENDMDL
MODEL 9
REMARK VINA RESULT:      -4.2     12.063     13.546
REMARK  2 active torsions:
REMARK  status: ('A' for Active; 'I' for Inactive)
REMARK    1  A    between atoms: C2_2  and  C4_4 
REMARK    2  A    between atoms: C5_5  and  C9_9 
ROOT
HETATM    1  C1  UNL     1     -41.432   2.982  -2.716  1.00 20.00    -0.016 C 
HETATM    2  C2  UNL     1     -42.536   3.095  -3.468  1.00 20.00    -0.024 C 
HETATM    3  C6  UNL     1     -40.979   4.064  -1.777  1.00 20.00     0.036 C 
HETATM    4  C7  UNL     1     -43.417   4.307  -3.484  1.00 20.00     0.042 C 
HETATM    5  C8  UNL     1     -42.751   5.526  -2.835  1.00 20.00     0.014 C 
HETATM    6  C9  UNL     1     -42.048   5.142  -1.526  1.00 20.00     0.017 C 
ENDROOT
BRANCH   6   7
HETATM    7  C5  UNL     1     -41.442   6.341  -0.863  1.00 20.00    -0.089 C 
HETATM    8  C3  UNL     1     -40.505   6.225   0.089  1.00 20.00     0.014 C 
HETATM    9  C10 UNL     1     -41.942   7.676  -1.327  1.00 20.00     0.043 C 
ENDBRANCH   6   7
BRANCH   2  10
HETATM   10  C4  UNL     1     -42.883   1.969  -4.341  1.00 20.00     0.265 C 
HETATM   11  O11 UNL     1     -43.023   2.093  -5.551  1.00 20.00    -0.302 OA
ENDBRANCH   2  10
TORSDOF 2
ENDMDL
