MODEL 1
REMARK VINA RESULT:      -3.8      0.000      0.000
REMARK  2 active torsions:
REMARK  status: ('A' for Active; 'I' for Inactive)
REMARK    1  A    between atoms: C2_2  and  C4_4 
REMARK    2  A    between atoms: C3_3  and  C4_4 
ROOT
HETATM    1  C4  UNL     1     -33.939   6.516   4.115  1.00 20.00     0.127 C 
HETATM    2 CL7  UNL     1     -35.077   5.316   3.429  1.00 20.00    -0.121 Cl
ENDROOT
BRANCH   1   3
HETATM    3  C2  UNL     1     -32.616   6.456   3.361  1.00 20.00     0.164 A 
HETATM    4  C1  UNL     1     -32.163   7.594   2.492  1.00 20.00     0.201 A 
HETATM    5  O5  UNL     1     -31.632   7.393   3.811  1.00 20.00    -0.380 OA
ENDBRANCH   1   3
BRANCH   1   6
HETATM    6  C3  UNL     1     -33.795   6.332   5.626  1.00 20.00     0.137 C 
HETATM    7 CL6  UNL     1     -34.826   5.041   6.293  1.00 20.00    -0.129 Cl
ENDBRANCH   1   6
TORSDOF 2
ENDMDL
MODEL 2
REMARK VINA RESULT:      -3.5      1.588      1.898
REMARK  2 active torsions:
REMARK  status: ('A' for Active; 'I' for Inactive)
REMARK    1  A    between atoms: C2_2  and  C4_4 
REMARK    2  A    between atoms: C3_3  and  C4_4 
ROOT
HETATM    1  C4  UNL     1     -33.700   5.857   4.916  1.00 20.00     0.127 C 
HETATM    2 CL7  UNL     1     -33.833   6.843   6.405  1.00 20.00    -0.121 Cl
ENDROOT
BRANCH   1   3
HETATM    3  C2  UNL     1     -33.362   6.758   3.734  1.00 20.00     0.164 A 
HETATM    4  C1  UNL     1     -31.940   7.122   3.415  1.00 20.00     0.201 A 
HETATM    5  O5  UNL     1     -32.644   6.110   2.679  1.00 20.00    -0.380 OA
ENDBRANCH   1   3
BRANCH   1   6
HETATM    6  C3  UNL     1     -34.957   5.012   4.706  1.00 20.00     0.137 C 
HETATM    7 CL6  UNL     1     -35.325   3.924   6.068  1.00 20.00    -0.129 Cl
ENDBRANCH   1   6
TORSDOF 2
ENDMDL
MODEL 3
REMARK VINA RESULT:      -3.2      2.729      3.786
REMARK  2 active torsions:
REMARK  status: ('A' for Active; 'I' for Inactive)
REMARK    1  A    between atoms: C2_2  and  C4_4 
REMARK    2  A    between atoms: C3_3  and  C4_4 
ROOT
HETATM    1  C4  UNL     1     -33.757   6.503   4.104  1.00 20.00     0.127 C 
HETATM    2 CL7  UNL     1     -33.690   6.658   5.886  1.00 20.00    -0.121 Cl
ENDROOT
BRANCH   1   3
HETATM    3  C2  UNL     1     -34.535   5.247   3.728  1.00 20.00     0.164 A 
HETATM    4  C1  UNL     1     -35.187   4.393   4.778  1.00 20.00     0.201 A 
HETATM    5  O5  UNL     1     -35.942   5.320   3.981  1.00 20.00    -0.380 OA
ENDBRANCH   1   3
BRANCH   1   6
HETATM    6  C3  UNL     1     -32.355   6.563   3.496  1.00 20.00     0.137 C 
HETATM    7 CL6  UNL     1     -32.134   7.895   2.334  1.00 20.00    -0.129 Cl
ENDBRANCH   1   6
TORSDOF 2
ENDMDL
MODEL 4
REMARK VINA RESULT:      -3.2      2.507      3.596
REMARK  2 active torsions:
REMARK  status: ('A' for Active; 'I' for Inactive)
REMARK    1  A    between atoms: C2_2  and  C4_4 
REMARK    2  A    between atoms: C3_3  and  C4_4 
ROOT
HETATM    1  C4  UNL     1     -33.730   5.514   4.092  1.00 20.00     0.127 C 
HETATM    2 CL7  UNL     1     -34.322   5.249   2.424  1.00 20.00    -0.121 Cl
ENDROOT
BRANCH   1   3
HETATM    3  C2  UNL     1     -34.893   5.406   5.072  1.00 20.00     0.164 A 
HETATM    4  C1  UNL     1     -34.984   4.269   6.049  1.00 20.00     0.201 A 
HETATM    5  O5  UNL     1     -34.531   5.572   6.446  1.00 20.00    -0.380 OA
ENDBRANCH   1   3
BRANCH   1   6
HETATM    6  C3  UNL     1     -32.959   6.830   4.196  1.00 20.00     0.137 C 
HETATM    7 CL6  UNL     1     -32.203   7.341   2.666  1.00 20.00    -0.129 Cl
ENDBRANCH   1   6
TORSDOF 2
ENDMDL
MODEL 5
REMARK VINA RESULT:      -3.1      2.293      2.937
REMARK  2 active torsions:
REMARK  status: ('A' for Active; 'I' for Inactive)
REMARK    1  A    between atoms: C2_2  and  C4_4 
REMARK    2  A    between atoms: C3_3  and  C4_4 
ROOT
HETATM    1  C4  UNL     1     -34.003   6.311   4.243  1.00 20.00     0.127 C 
HETATM    2 CL7  UNL     1     -32.604   6.257   3.127  1.00 20.00    -0.121 Cl
ENDROOT
BRANCH   1   3
HETATM    3  C2  UNL     1     -33.520   6.130   5.677  1.00 20.00     0.164 A 
HETATM    4  C1  UNL     1     -33.542   7.270   6.655  1.00 20.00     0.201 A 
HETATM    5  O5  UNL     1     -34.546   6.242   6.669  1.00 20.00    -0.380 OA
ENDBRANCH   1   3
BRANCH   1   6
HETATM    6  C3  UNL     1     -35.076   5.306   3.824  1.00 20.00     0.137 C 
HETATM    7 CL6  UNL     1     -35.115   3.837   4.830  1.00 20.00    -0.129 Cl
ENDBRANCH   1   6
TORSDOF 2
ENDMDL
MODEL 6
REMARK VINA RESULT:      -3.1     11.335     11.931
REMARK  2 active torsions:
REMARK  status: ('A' for Active; 'I' for Inactive)
REMARK    1  A    between atoms: C2_2  and  C4_4 
REMARK    2  A    between atoms: C3_3  and  C4_4 
ROOT
HETATM    1  C4  UNL     1     -34.350  15.682  -3.923  1.00 20.00     0.127 C 
HETATM    2 CL7  UNL     1     -35.568  16.838  -4.545  1.00 20.00    -0.121 Cl
ENDROOT
BRANCH   1   3
HETATM    3  C2  UNL     1     -35.001  14.321  -3.706  1.00 20.00     0.164 A 
HETATM    4  C1  UNL     1     -34.810  13.202  -4.690  1.00 20.00     0.201 A 
HETATM    5  O5  UNL     1     -34.079  13.255  -3.454  1.00 20.00    -0.380 OA
ENDBRANCH   1   3
BRANCH   1   6
HETATM    6  C3  UNL     1     -33.654  16.237  -2.679  1.00 20.00     0.137 C 
HETATM    7 CL6  UNL     1     -34.699  16.292  -1.238  1.00 20.00    -0.129 Cl
ENDBRANCH   1   6
TORSDOF 2
ENDMDL
MODEL 7
REMARK VINA RESULT:      -3.0     11.141     12.213
REMARK  2 active torsions:
REMARK  status: ('A' for Active; 'I' for Inactive)
REMARK    1  A    between atoms: C2_2  and  C4_4 
REMARK    2  A    between atoms: C3_3  and  C4_4 
ROOT
HETATM    1  C4  UNL     1     -34.415  15.457  -3.374  1.00 20.00     0.127 C 
HETATM    2 CL7  UNL     1     -34.546  16.091  -1.705  1.00 20.00    -0.121 Cl
ENDROOT
BRANCH   1   3
HETATM    3  C2  UNL     1     -34.482  13.935  -3.350  1.00 20.00     0.164 A 
HETATM    4  C1  UNL     1     -35.136  13.167  -4.463  1.00 20.00     0.201 A 
HETATM    5  O5  UNL     1     -33.708  13.289  -4.366  1.00 20.00    -0.380 OA
ENDBRANCH   1   3
BRANCH   1   6
HETATM    6  C3  UNL     1     -33.170  16.007  -4.072  1.00 20.00     0.137 C 
HETATM    7 CL6  UNL     1     -33.453  16.495  -5.762  1.00 20.00    -0.129 Cl
ENDBRANCH   1   6
TORSDOF 2
ENDMDL
MODEL 8
REMARK VINA RESULT:      -2.9     11.523     12.550
REMARK  2 active torsions:
REMARK  status: ('A' for Active; 'I' for Inactive)
REMARK    1  A    between atoms: C2_2  and  C4_4 
REMARK    2  A    between atoms: C3_3  and  C4_4 
ROOT
HETATM    1  C4  UNL     1     -33.649  15.515  -3.492  1.00 20.00     0.127 C 
HETATM    2 CL7  UNL     1     -34.536  15.881  -1.980  1.00 20.00    -0.121 Cl
ENDROOT
BRANCH   1   3
HETATM    3  C2  UNL     1     -34.266  16.292  -4.649  1.00 20.00     0.164 A 
HETATM    4  C1  UNL     1     -33.526  17.419  -5.311  1.00 20.00     0.201 A 
HETATM    5  O5  UNL     1     -33.604  16.113  -5.905  1.00 20.00    -0.380 OA
ENDBRANCH   1   3
BRANCH   1   6
HETATM    6  C3  UNL     1     -33.577  14.007  -3.732  1.00 20.00     0.137 C 
HETATM    7 CL6  UNL     1     -35.130  13.284  -4.222  1.00 20.00    -0.129 Cl
ENDBRANCH   1   6
TORSDOF 2
ENDMDL
MODEL 9
REMARK VINA RESULT:      -2.9     12.004     13.083
REMARK  2 active torsions:
REMARK  status: ('A' for Active; 'I' for Inactive)
REMARK    1  A    between atoms: C2_2  and  C4_4 
REMARK    2  A    between atoms: C3_3  and  C4_4 
ROOT
HETATM    1  C4  UNL     1     -35.358  15.090  -5.251  1.00 20.00     0.127 C 
HETATM    2 CL7  UNL     1     -34.393  16.595  -5.332  1.00 20.00    -0.121 Cl
ENDROOT
BRANCH   1   3
HETATM    3  C2  UNL     1     -34.427  13.891  -5.108  1.00 20.00     0.164 A 
HETATM    4  C1  UNL     1     -33.909  13.465  -3.764  1.00 20.00     0.201 A 
HETATM    5  O5  UNL     1     -34.994  12.778  -4.408  1.00 20.00    -0.380 OA
ENDBRANCH   1   3
BRANCH   1   6
HETATM    6  C3  UNL     1     -36.314  14.988  -6.440  1.00 20.00     0.137 C 
HETATM    7 CL6  UNL     1     -35.556  14.336  -7.915  1.00 20.00    -0.129 Cl
ENDBRANCH   1   6
TORSDOF 2
ENDMDL
