MODEL 1
REMARK VINA RESULT:      -4.3      0.000      0.000
REMARK  1 active torsions:
REMARK  status: ('A' for Active; 'I' for Inactive)
REMARK    1  A    between atoms: C3_3  and  C8_8 
ROOT
HETATM    1  C1  UNL     1     -34.637  17.129  -4.040  1.00 20.00    -0.026 C 
HETATM    2  C2  UNL     1     -35.702  16.314  -4.001  1.00 20.00    -0.025 C 
HETATM    3  C4  UNL     1     -34.640  16.119  -1.961  1.00 20.00     0.017 C 
HETATM    4  C5  UNL     1     -33.066  15.288  -3.543  1.00 20.00     0.021 C 
HETATM    5  C6  UNL     1     -33.650  16.620  -3.018  1.00 20.00     0.009 C 
HETATM    6  C7  UNL     1     -35.418  15.254  -2.958  1.00 20.00     0.019 C 
HETATM    7  C8  UNL     1     -34.287  14.326  -3.464  1.00 20.00     0.055 C 
ENDROOT
BRANCH   7   8
HETATM    8  C3  UNL     1     -34.598  13.664  -4.771  1.00 20.00     0.236 C 
HETATM    9  O9  UNL     1     -34.881  12.475  -4.875  1.00 20.00    -0.306 OA
ENDBRANCH   7   8
TORSDOF 1
ENDMDL
MODEL 2
REMARK VINA RESULT:      -4.2      1.546      2.177
REMARK  1 active torsions:
REMARK  status: ('A' for Active; 'I' for Inactive)
REMARK    1  A    between atoms: C3_3  and  C8_8 
ROOT
HETATM    1  C1  UNL     1     -33.831  16.602  -3.177  1.00 20.00    -0.026 C 
HETATM    2  C2  UNL     1     -34.538  15.709  -2.469  1.00 20.00    -0.025 C 
HETATM    3  C4  UNL     1     -33.031  14.507  -3.740  1.00 20.00     0.017 C 
HETATM    4  C5  UNL     1     -34.457  15.562  -5.329  1.00 20.00     0.021 C 
HETATM    5  C6  UNL     1     -33.278  15.877  -4.380  1.00 20.00     0.009 C 
HETATM    6  C7  UNL     1     -34.464  14.390  -3.207  1.00 20.00     0.019 C 
HETATM    7  C8  UNL     1     -35.261  14.496  -4.530  1.00 20.00     0.055 C 
ENDROOT
BRANCH   7   8
HETATM    8  C3  UNL     1     -36.697  14.872  -4.332  1.00 20.00     0.236 C 
HETATM    9  O9  UNL     1     -37.518  14.142  -3.785  1.00 20.00    -0.306 OA
ENDBRANCH   7   8
TORSDOF 1
ENDMDL
MODEL 3
REMARK VINA RESULT:      -4.1      1.633      2.766
REMARK  1 active torsions:
REMARK  status: ('A' for Active; 'I' for Inactive)
REMARK    1  A    between atoms: C3_3  and  C8_8 
ROOT
HETATM    1  C1  UNL     1     -33.915  13.722  -3.739  1.00 20.00    -0.026 C 
HETATM    2  C2  UNL     1     -34.411  13.776  -4.984  1.00 20.00    -0.025 C 
HETATM    3  C4  UNL     1     -33.597  15.881  -4.502  1.00 20.00     0.017 C 
HETATM    4  C5  UNL     1     -35.378  15.553  -2.956  1.00 20.00     0.021 C 
HETATM    5  C6  UNL     1     -33.911  15.134  -3.202  1.00 20.00     0.009 C 
HETATM    6  C7  UNL     1     -34.746  15.223  -5.273  1.00 20.00     0.019 C 
HETATM    7  C8  UNL     1     -35.950  15.655  -4.400  1.00 20.00     0.055 C 
ENDROOT
BRANCH   7   8
HETATM    8  C3  UNL     1     -37.171  14.813  -4.609  1.00 20.00     0.236 C 
HETATM    9  O9  UNL     1     -37.751  14.228  -3.700  1.00 20.00    -0.306 OA
ENDBRANCH   7   8
TORSDOF 1
ENDMDL
MODEL 4
REMARK VINA RESULT:      -4.1      1.501      1.812
REMARK  1 active torsions:
REMARK  status: ('A' for Active; 'I' for Inactive)
REMARK    1  A    between atoms: C3_3  and  C8_8 
ROOT
HETATM    1  C1  UNL     1     -33.539  16.197  -4.906  1.00 20.00    -0.026 C 
HETATM    2  C2  UNL     1     -34.714  16.755  -4.580  1.00 20.00    -0.025 C 
HETATM    3  C4  UNL     1     -33.653  16.232  -2.597  1.00 20.00     0.017 C 
HETATM    4  C5  UNL     1     -34.041  14.131  -3.649  1.00 20.00     0.021 C 
HETATM    5  C6  UNL     1     -33.104  15.358  -3.729  1.00 20.00     0.009 C 
HETATM    6  C7  UNL     1     -35.067  16.278  -3.188  1.00 20.00     0.019 C 
HETATM    7  C8  UNL     1     -35.399  14.766  -3.232  1.00 20.00     0.055 C 
ENDROOT
BRANCH   7   8
HETATM    8  C3  UNL     1     -36.517  14.428  -4.169  1.00 20.00     0.236 C 
HETATM    9  O9  UNL     1     -37.659  14.179  -3.796  1.00 20.00    -0.306 OA
ENDBRANCH   7   8
TORSDOF 1
ENDMDL
MODEL 5
REMARK VINA RESULT:      -4.1     11.553     12.557
REMARK  1 active torsions:
REMARK  status: ('A' for Active; 'I' for Inactive)
REMARK    1  A    between atoms: C3_3  and  C8_8 
ROOT
HETATM    1  C1  UNL     1     -34.423   4.805   5.616  1.00 20.00    -0.026 C 
HETATM    2  C2  UNL     1     -34.125   6.113   5.626  1.00 20.00    -0.025 C 
HETATM    3  C4  UNL     1     -35.774   5.819   4.037  1.00 20.00     0.017 C 
HETATM    4  C5  UNL     1     -33.910   4.589   3.209  1.00 20.00     0.021 C 
HETATM    5  C6  UNL     1     -35.032   4.499   4.269  1.00 20.00     0.009 C 
HETATM    6  C7  UNL     1     -34.525   6.675   4.279  1.00 20.00     0.019 C 
HETATM    7  C8  UNL     1     -33.585   6.111   3.186  1.00 20.00     0.055 C 
ENDROOT
BRANCH   7   8
HETATM    8  C3  UNL     1     -32.138   6.406   3.435  1.00 20.00     0.236 C 
HETATM    9  O9  UNL     1     -31.668   7.539   3.427  1.00 20.00    -0.306 OA
ENDBRANCH   7   8
TORSDOF 1
ENDMDL
MODEL 6
REMARK VINA RESULT:      -4.1     11.312     12.453
REMARK  1 active torsions:
REMARK  status: ('A' for Active; 'I' for Inactive)
REMARK    1  A    between atoms: C3_3  and  C8_8 
ROOT
HETATM    1  C1  UNL     1     -42.615   5.383   0.239  1.00 20.00    -0.026 C 
HETATM    2  C2  UNL     1     -43.074   4.882  -0.918  1.00 20.00    -0.025 C 
HETATM    3  C4  UNL     1     -40.775   4.678  -0.972  1.00 20.00     0.017 C 
HETATM    4  C5  UNL     1     -41.173   7.025  -0.913  1.00 20.00     0.021 C 
HETATM    5  C6  UNL     1     -41.178   5.784   0.009  1.00 20.00     0.009 C 
HETATM    6  C7  UNL     1     -41.945   4.961  -1.922  1.00 20.00     0.019 C 
HETATM    7  C8  UNL     1     -41.668   6.444  -2.269  1.00 20.00     0.055 C 
ENDROOT
BRANCH   7   8
HETATM    8  C3  UNL     1     -42.864   7.162  -2.813  1.00 20.00     0.236 C 
HETATM    9  O9  UNL     1     -43.417   6.853  -3.865  1.00 20.00    -0.306 OA
ENDBRANCH   7   8
TORSDOF 1
ENDMDL
MODEL 7
REMARK VINA RESULT:      -4.1      0.904      2.050
REMARK  1 active torsions:
REMARK  status: ('A' for Active; 'I' for Inactive)
REMARK    1  A    between atoms: C3_3  and  C8_8 
ROOT
HETATM    1  C1  UNL     1     -34.147  15.878  -2.406  1.00 20.00    -0.026 C 
HETATM    2  C2  UNL     1     -33.433  15.810  -3.540  1.00 20.00    -0.025 C 
HETATM    3  C4  UNL     1     -35.271  17.132  -3.990  1.00 20.00     0.017 C 
HETATM    4  C5  UNL     1     -36.177  14.986  -3.496  1.00 20.00     0.021 C 
HETATM    5  C6  UNL     1     -35.565  16.220  -2.794  1.00 20.00     0.009 C 
HETATM    6  C7  UNL     1     -34.380  16.096  -4.685  1.00 20.00     0.019 C 
HETATM    7  C8  UNL     1     -35.379  14.923  -4.831  1.00 20.00     0.055 C 
ENDROOT
BRANCH   7   8
HETATM    8  C3  UNL     1     -34.716  13.599  -5.056  1.00 20.00     0.236 C 
HETATM    9  O9  UNL     1     -34.984  12.591  -4.411  1.00 20.00    -0.306 OA
ENDBRANCH   7   8
TORSDOF 1
ENDMDL
MODEL 8
REMARK VINA RESULT:      -4.0      0.928      1.781
REMARK  1 active torsions:
REMARK  status: ('A' for Active; 'I' for Inactive)
REMARK    1  A    between atoms: C3_3  and  C8_8 
ROOT
HETATM    1  C1  UNL     1     -35.748  16.511  -2.883  1.00 20.00    -0.026 C 
HETATM    2  C2  UNL     1     -34.789  15.889  -2.179  1.00 20.00    -0.025 C 
HETATM    3  C4  UNL     1     -33.720  17.139  -3.800  1.00 20.00     0.017 C 
HETATM    4  C5  UNL     1     -34.980  15.524  -5.014  1.00 20.00     0.021 C 
HETATM    5  C6  UNL     1     -35.160  16.846  -4.233  1.00 20.00     0.009 C 
HETATM    6  C7  UNL     1     -33.566  15.802  -3.065  1.00 20.00     0.019 C 
HETATM    7  C8  UNL     1     -33.842  14.815  -4.226  1.00 20.00     0.055 C 
ENDROOT
BRANCH   7   8
HETATM    8  C3  UNL     1     -34.217  13.441  -3.763  1.00 20.00     0.236 C 
HETATM    9  O9  UNL     1     -34.989  12.709  -4.374  1.00 20.00    -0.306 OA
ENDBRANCH   7   8
TORSDOF 1
ENDMDL
MODEL 9
REMARK VINA RESULT:      -4.0     11.807     12.897
REMARK  1 active torsions:
REMARK  status: ('A' for Active; 'I' for Inactive)
REMARK    1  A    between atoms: C3_3  and  C8_8 
ROOT
HETATM    1  C1  UNL     1     -42.751   5.537   0.473  1.00 20.00    -0.026 C 
HETATM    2  C2  UNL     1     -41.745   4.658   0.352  1.00 20.00    -0.025 C 
HETATM    3  C4  UNL     1     -41.004   6.645  -0.559  1.00 20.00     0.017 C 
HETATM    4  C5  UNL     1     -42.811   5.975  -1.958  1.00 20.00     0.021 C 
HETATM    5  C6  UNL     1     -42.536   6.604  -0.573  1.00 20.00     0.009 C 
HETATM    6  C7  UNL     1     -40.865   5.135  -0.782  1.00 20.00     0.019 C 
HETATM    7  C8  UNL     1     -41.625   4.981  -2.122  1.00 20.00     0.055 C 
ENDROOT
BRANCH   7   8
HETATM    8  C3  UNL     1     -42.070   3.577  -2.397  1.00 20.00     0.236 C 
HETATM    9  O9  UNL     1     -41.377   2.752  -2.983  1.00 20.00    -0.306 OA
ENDBRANCH   7   8
TORSDOF 1
ENDMDL
