MODEL 1
REMARK VINA RESULT:      -3.8      0.000      0.000
REMARK  2 active torsions:
REMARK  status: ('A' for Active; 'I' for Inactive)
REMARK    1  A    between atoms: C1_1  and  C2_2 
REMARK    2  A    between atoms: C2_2  and  C3_3 
ROOT
HETATM    1  C1  UNL     1     -34.891   4.774   5.387  1.00 20.00     0.173 C 
HETATM    2  O4  UNL     1     -35.072   3.524   5.316  1.00 20.00    -0.648 OA
HETATM    3  O5  UNL     1     -34.810   5.514   6.406  1.00 20.00    -0.648 OA
ENDROOT
BRANCH   1   4
HETATM    4  C2  UNL     1     -34.738   5.465   4.028  1.00 20.00     0.128 C 
BRANCH   4   5
HETATM    5  C3  UNL     1     -33.714   6.586   3.940  1.00 20.00     0.125 C 
HETATM    6 CL6  UNL     1     -32.246   6.050   3.086  1.00 20.00    -0.130 Cl
ENDBRANCH   4   5
ENDBRANCH   1   4
TORSDOF 2
ENDMDL
MODEL 2
REMARK VINA RESULT:      -3.7      0.060      1.320
REMARK  2 active torsions:
REMARK  status: ('A' for Active; 'I' for Inactive)
REMARK    1  A    between atoms: C1_1  and  C2_2 
REMARK    2  A    between atoms: C2_2  and  C3_3 
ROOT
HETATM    1  C1  UNL     1     -34.925   4.755   5.363  1.00 20.00     0.173 C 
HETATM    2  O4  UNL     1     -34.860   5.506   6.379  1.00 20.00    -0.648 OA
HETATM    3  O5  UNL     1     -35.143   3.514   5.298  1.00 20.00    -0.648 OA
ENDROOT
BRANCH   1   4
HETATM    4  C2  UNL     1     -34.717   5.483   4.030  1.00 20.00     0.128 C 
BRANCH   4   5
HETATM    5  C3  UNL     1     -33.661   6.577   4.004  1.00 20.00     0.125 C 
HETATM    6 CL6  UNL     1     -32.248   6.083   3.040  1.00 20.00    -0.130 Cl
ENDBRANCH   4   5
ENDBRANCH   1   4
TORSDOF 2
ENDMDL
MODEL 3
REMARK VINA RESULT:      -3.5      2.484      2.873
REMARK  2 active torsions:
REMARK  status: ('A' for Active; 'I' for Inactive)
REMARK    1  A    between atoms: C1_1  and  C2_2 
REMARK    2  A    between atoms: C2_2  and  C3_3 
ROOT
HETATM    1  C1  UNL     1     -34.953   5.349   3.757  1.00 20.00     0.173 C 
HETATM    2  O4  UNL     1     -36.128   5.763   3.540  1.00 20.00    -0.648 OA
HETATM    3  O5  UNL     1     -33.888   5.599   3.128  1.00 20.00    -0.648 OA
ENDROOT
BRANCH   1   4
HETATM    4  C2  UNL     1     -34.827   4.421   4.970  1.00 20.00     0.128 C 
BRANCH   4   5
HETATM    5  C3  UNL     1     -34.909   5.072   6.342  1.00 20.00     0.125 C 
HETATM    6 CL6  UNL     1     -33.969   6.584   6.392  1.00 20.00    -0.130 Cl
ENDBRANCH   4   5
ENDBRANCH   1   4
TORSDOF 2
ENDMDL
MODEL 4
REMARK VINA RESULT:      -3.4     12.027     12.298
REMARK  2 active torsions:
REMARK  status: ('A' for Active; 'I' for Inactive)
REMARK    1  A    between atoms: C1_1  and  C2_2 
REMARK    2  A    between atoms: C2_2  and  C3_3 
ROOT
HETATM    1  C1  UNL     1     -34.240  13.418  -3.910  1.00 20.00     0.173 C 
HETATM    2  O4  UNL     1     -34.971  12.679  -4.630  1.00 20.00    -0.648 OA
HETATM    3  O5  UNL     1     -33.031  13.270  -3.581  1.00 20.00    -0.648 OA
ENDROOT
BRANCH   1   4
HETATM    4  C2  UNL     1     -34.942  14.674  -3.381  1.00 20.00     0.128 C 
BRANCH   4   5
HETATM    5  C3  UNL     1     -34.052  15.775  -2.830  1.00 20.00     0.125 C 
HETATM    6 CL6  UNL     1     -34.624  16.327  -1.236  1.00 20.00    -0.130 Cl
ENDBRANCH   4   5
ENDBRANCH   1   4
TORSDOF 2
ENDMDL
MODEL 5
REMARK VINA RESULT:      -3.4      2.726      3.102
REMARK  2 active torsions:
REMARK  status: ('A' for Active; 'I' for Inactive)
REMARK    1  A    between atoms: C1_1  and  C2_2 
REMARK    2  A    between atoms: C2_2  and  C3_3 
ROOT
HETATM    1  C1  UNL     1     -33.163   6.159   3.805  1.00 20.00     0.173 C 
HETATM    2  O4  UNL     1     -32.189   6.112   3.000  1.00 20.00    -0.648 OA
HETATM    3  O5  UNL     1     -33.254   6.747   4.917  1.00 20.00    -0.648 OA
ENDROOT
BRANCH   1   4
HETATM    4  C2  UNL     1     -34.404   5.393   3.334  1.00 20.00     0.128 C 
BRANCH   4   5
HETATM    5  C3  UNL     1     -35.464   5.094   4.382  1.00 20.00     0.125 C 
HETATM    6 CL6  UNL     1     -34.881   3.893   5.560  1.00 20.00    -0.130 Cl
ENDBRANCH   4   5
ENDBRANCH   1   4
TORSDOF 2
ENDMDL
MODEL 6
REMARK VINA RESULT:      -3.4     12.094     12.387
REMARK  2 active torsions:
REMARK  status: ('A' for Active; 'I' for Inactive)
REMARK    1  A    between atoms: C1_1  and  C2_2 
REMARK    2  A    between atoms: C2_2  and  C3_3 
ROOT
HETATM    1  C1  UNL     1     -34.162  13.426  -4.007  1.00 20.00     0.173 C 
HETATM    2  O4  UNL     1     -32.963  13.303  -3.623  1.00 20.00    -0.648 OA
HETATM    3  O5  UNL     1     -34.832  12.693  -4.786  1.00 20.00    -0.648 OA
ENDROOT
BRANCH   1   4
HETATM    4  C2  UNL     1     -34.888  14.641  -3.419  1.00 20.00     0.128 C 
BRANCH   4   5
HETATM    5  C3  UNL     1     -34.019  15.736  -2.823  1.00 20.00     0.125 C 
HETATM    6 CL6  UNL     1     -34.701  16.334  -1.290  1.00 20.00    -0.130 Cl
ENDBRANCH   4   5
ENDBRANCH   1   4
TORSDOF 2
ENDMDL
MODEL 7
REMARK VINA RESULT:      -3.4      1.213      1.787
REMARK  2 active torsions:
REMARK  status: ('A' for Active; 'I' for Inactive)
REMARK    1  A    between atoms: C1_1  and  C2_2 
REMARK    2  A    between atoms: C2_2  and  C3_3 
ROOT
HETATM    1  C1  UNL     1     -34.390   5.751   5.404  1.00 20.00     0.173 C 
HETATM    2  O4  UNL     1     -33.937   6.504   6.313  1.00 20.00    -0.648 OA
HETATM    3  O5  UNL     1     -35.040   4.674   5.507  1.00 20.00    -0.648 OA
ENDROOT
BRANCH   1   4
HETATM    4  C2  UNL     1     -34.108   6.244   3.980  1.00 20.00     0.128 C 
BRANCH   4   5
HETATM    5  C3  UNL     1     -32.663   6.193   3.511  1.00 20.00     0.125 C 
HETATM    6 CL6  UNL     1     -32.250   7.630   2.546  1.00 20.00    -0.130 Cl
ENDBRANCH   4   5
ENDBRANCH   1   4
TORSDOF 2
ENDMDL
MODEL 8
REMARK VINA RESULT:      -3.3      2.321      2.604
REMARK  2 active torsions:
REMARK  status: ('A' for Active; 'I' for Inactive)
REMARK    1  A    between atoms: C1_1  and  C2_2 
REMARK    2  A    between atoms: C2_2  and  C3_3 
ROOT
HETATM    1  C1  UNL     1     -35.140   4.690   4.838  1.00 20.00     0.173 C 
HETATM    2  O4  UNL     1     -35.518   5.423   3.878  1.00 20.00    -0.648 OA
HETATM    3  O5  UNL     1     -35.145   3.432   4.933  1.00 20.00    -0.648 OA
ENDROOT
BRANCH   1   4
HETATM    4  C2  UNL     1     -34.588   5.464   6.040  1.00 20.00     0.128 C 
BRANCH   4   5
HETATM    5  C3  UNL     1     -33.645   6.618   5.738  1.00 20.00     0.125 C 
HETATM    6 CL6  UNL     1     -33.368   7.618   7.185  1.00 20.00    -0.130 Cl
ENDBRANCH   4   5
ENDBRANCH   1   4
TORSDOF 2
ENDMDL
MODEL 9
REMARK VINA RESULT:      -3.3      1.381      1.597
REMARK  2 active torsions:
REMARK  status: ('A' for Active; 'I' for Inactive)
REMARK    1  A    between atoms: C1_1  and  C2_2 
REMARK    2  A    between atoms: C2_2  and  C3_3 
ROOT
HETATM    1  C1  UNL     1     -35.001   5.048   4.583  1.00 20.00     0.173 C 
HETATM    2  O4  UNL     1     -35.906   5.409   3.777  1.00 20.00    -0.648 OA
HETATM    3  O5  UNL     1     -34.967   4.049   5.352  1.00 20.00    -0.648 OA
ENDROOT
BRANCH   1   4
HETATM    4  C2  UNL     1     -33.773   5.965   4.600  1.00 20.00     0.128 C 
BRANCH   4   5
HETATM    5  C3  UNL     1     -33.070   6.194   3.272  1.00 20.00     0.125 C 
HETATM    6 CL6  UNL     1     -31.757   7.386   3.437  1.00 20.00    -0.130 Cl
ENDBRANCH   4   5
ENDBRANCH   1   4
TORSDOF 2
ENDMDL
