MODEL 1
REMARK VINA RESULT:      -4.2      0.000      0.000
REMARK  0 active torsions:
REMARK  status: ('A' for Active; 'I' for Inactive)
ROOT
HETATM    1  C1  UNL     1     -32.978   5.972   3.795  1.00 20.00    -0.021 C 
HETATM    2  C2  UNL     1     -33.829   5.374   2.938  1.00 20.00    -0.021 C 
HETATM    3  C3  UNL     1     -34.253   5.058   5.699  1.00 20.00    -0.021 C 
HETATM    4  C4  UNL     1     -35.104   4.459   4.842  1.00 20.00    -0.021 C 
HETATM    5  C5  UNL     1     -35.094   6.700   4.326  1.00 20.00     0.024 C 
HETATM    6  C6  UNL     1     -33.779   6.338   5.032  1.00 20.00     0.031 C 
HETATM    7  C7  UNL     1     -35.190   5.344   3.611  1.00 20.00     0.031 C 
ENDROOT
TORSDOF 0
ENDMDL
MODEL 2
REMARK VINA RESULT:      -4.2      0.062      2.438
REMARK  0 active torsions:
REMARK  status: ('A' for Active; 'I' for Inactive)
ROOT
HETATM    1  C1  UNL     1     -35.118   4.468   4.916  1.00 20.00    -0.021 C 
HETATM    2  C2  UNL     1     -34.283   5.103   5.762  1.00 20.00    -0.021 C 
HETATM    3  C3  UNL     1     -33.824   5.322   2.998  1.00 20.00    -0.021 C 
HETATM    4  C4  UNL     1     -32.989   5.957   3.843  1.00 20.00    -0.021 C 
HETATM    5  C5  UNL     1     -35.116   6.689   4.321  1.00 20.00     0.024 C 
HETATM    6  C6  UNL     1     -35.194   5.308   3.654  1.00 20.00     0.031 C 
HETATM    7  C7  UNL     1     -33.808   6.361   5.056  1.00 20.00     0.031 C 
ENDROOT
TORSDOF 0
ENDMDL
MODEL 3
REMARK VINA RESULT:      -4.1      0.965      2.254
REMARK  0 active torsions:
REMARK  status: ('A' for Active; 'I' for Inactive)
ROOT
HETATM    1  C1  UNL     1     -35.606   4.971   4.266  1.00 20.00    -0.021 C 
HETATM    2  C2  UNL     1     -34.824   5.979   3.829  1.00 20.00    -0.021 C 
HETATM    3  C3  UNL     1     -34.880   5.412   6.582  1.00 20.00    -0.021 C 
HETATM    4  C4  UNL     1     -34.098   6.418   6.146  1.00 20.00    -0.021 C 
HETATM    5  C5  UNL     1     -33.469   4.531   4.993  1.00 20.00     0.024 C 
HETATM    6  C6  UNL     1     -34.918   4.369   5.478  1.00 20.00     0.031 C 
HETATM    7  C7  UNL     1     -33.621   6.041   4.755  1.00 20.00     0.031 C 
ENDROOT
TORSDOF 0
ENDMDL
MODEL 4
REMARK VINA RESULT:      -4.1      0.961      2.365
REMARK  0 active torsions:
REMARK  status: ('A' for Active; 'I' for Inactive)
ROOT
HETATM    1  C1  UNL     1     -34.099   6.400   6.160  1.00 20.00    -0.021 C 
HETATM    2  C2  UNL     1     -34.908   5.395   6.555  1.00 20.00    -0.021 C 
HETATM    3  C3  UNL     1     -34.792   6.037   3.820  1.00 20.00    -0.021 C 
HETATM    4  C4  UNL     1     -35.600   5.033   4.214  1.00 20.00    -0.021 C 
HETATM    5  C5  UNL     1     -33.486   4.531   4.968  1.00 20.00     0.024 C 
HETATM    6  C6  UNL     1     -33.605   6.049   4.768  1.00 20.00     0.031 C 
HETATM    7  C7  UNL     1     -34.946   4.384   5.422  1.00 20.00     0.031 C 
ENDROOT
TORSDOF 0
ENDMDL
MODEL 5
REMARK VINA RESULT:      -3.8      8.016      9.267
REMARK  0 active torsions:
REMARK  status: ('A' for Active; 'I' for Inactive)
ROOT
HETATM    1  C1  UNL     1     -42.280   5.404   0.459  1.00 20.00    -0.021 C 
HETATM    2  C2  UNL     1     -42.933   4.894  -0.605  1.00 20.00    -0.021 C 
HETATM    3  C3  UNL     1     -41.074   6.960  -1.029  1.00 20.00    -0.021 C 
HETATM    4  C4  UNL     1     -41.727   6.450  -2.092  1.00 20.00    -0.021 C 
HETATM    5  C5  UNL     1     -40.683   4.694  -1.037  1.00 20.00     0.024 C 
HETATM    6  C6  UNL     1     -40.906   5.830  -0.027  1.00 20.00     0.031 C 
HETATM    7  C7  UNL     1     -41.989   4.985  -1.792  1.00 20.00     0.031 C 
ENDROOT
TORSDOF 0
ENDMDL
MODEL 6
REMARK VINA RESULT:      -3.8      8.043      9.236
REMARK  0 active torsions:
REMARK  status: ('A' for Active; 'I' for Inactive)
ROOT
HETATM    1  C1  UNL     1     -41.746   6.410  -2.130  1.00 20.00    -0.021 C 
HETATM    2  C2  UNL     1     -41.101   6.961  -1.081  1.00 20.00    -0.021 C 
HETATM    3  C3  UNL     1     -42.944   4.894  -0.596  1.00 20.00    -0.021 C 
HETATM    4  C4  UNL     1     -42.300   5.444   0.452  1.00 20.00    -0.021 C 
HETATM    5  C5  UNL     1     -40.690   4.700  -1.012  1.00 20.00     0.024 C 
HETATM    6  C6  UNL     1     -41.995   4.954  -1.781  1.00 20.00     0.031 C 
HETATM    7  C7  UNL     1     -40.928   5.867  -0.042  1.00 20.00     0.031 C 
ENDROOT
TORSDOF 0
ENDMDL
MODEL 7
REMARK VINA RESULT:      -3.7      8.097      9.161
REMARK  0 active torsions:
REMARK  status: ('A' for Active; 'I' for Inactive)
ROOT
HETATM    1  C1  UNL     1     -40.945   7.132  -0.836  1.00 20.00    -0.021 C 
HETATM    2  C2  UNL     1     -41.954   7.083  -1.731  1.00 20.00    -0.021 C 
HETATM    3  C3  UNL     1     -40.702   4.681  -0.979  1.00 20.00    -0.021 C 
HETATM    4  C4  UNL     1     -41.709   4.632  -1.872  1.00 20.00    -0.021 C 
HETATM    5  C5  UNL     1     -42.523   5.684   0.003  1.00 20.00     0.024 C 
HETATM    6  C6  UNL     1     -40.995   5.839  -0.041  1.00 20.00     0.031 C 
HETATM    7  C7  UNL     1     -42.667   5.758  -1.524  1.00 20.00     0.031 C 
ENDROOT
TORSDOF 0
ENDMDL
MODEL 8
REMARK VINA RESULT:      -3.7      8.123      9.384
REMARK  0 active torsions:
REMARK  status: ('A' for Active; 'I' for Inactive)
ROOT
HETATM    1  C1  UNL     1     -41.835   4.687  -1.858  1.00 20.00    -0.021 C 
HETATM    2  C2  UNL     1     -40.768   4.737  -1.034  1.00 20.00    -0.021 C 
HETATM    3  C3  UNL     1     -42.076   7.137  -1.693  1.00 20.00    -0.021 C 
HETATM    4  C4  UNL     1     -41.011   7.187  -0.870  1.00 20.00    -0.021 C 
HETATM    5  C5  UNL     1     -42.522   5.732   0.072  1.00 20.00     0.024 C 
HETATM    6  C6  UNL     1     -42.770   5.809  -1.442  1.00 20.00     0.031 C 
HETATM    7  C7  UNL     1     -41.001   5.893  -0.076  1.00 20.00     0.031 C 
ENDROOT
TORSDOF 0
ENDMDL
MODEL 9
REMARK VINA RESULT:      -3.6     11.605     12.412
REMARK  0 active torsions:
REMARK  status: ('A' for Active; 'I' for Inactive)
ROOT
HETATM    1  C1  UNL     1     -33.375  13.792  -3.731  1.00 20.00    -0.021 C 
HETATM    2  C2  UNL     1     -34.699  13.594  -3.893  1.00 20.00    -0.021 C 
HETATM    3  C3  UNL     1     -33.835  15.927  -2.585  1.00 20.00    -0.021 C 
HETATM    4  C4  UNL     1     -35.158  15.730  -2.746  1.00 20.00    -0.021 C 
HETATM    5  C5  UNL     1     -34.203  15.632  -4.835  1.00 20.00     0.024 C 
HETATM    6  C6  UNL     1     -33.142  15.291  -3.777  1.00 20.00     0.031 C 
HETATM    7  C7  UNL     1     -35.338  14.964  -4.045  1.00 20.00     0.031 C 
ENDROOT
TORSDOF 0
ENDMDL
