MODEL 1
REMARK VINA RESULT:      -5.5      0.000      0.000
REMARK  1 active torsions:
REMARK  status: ('A' for Active; 'I' for Inactive)
REMARK    1  A    between atoms: C6_6  and  C10_10 
ROOT
HETATM    1  C1  UNL     1     -36.375  14.410  -3.768  1.00 20.00     0.127 C 
HETATM    2  C2  UNL     1     -35.353  13.462  -4.355  1.00 20.00     0.082 C 
HETATM    3  C3  UNL     1     -35.856  15.646  -3.066  1.00 20.00     0.083 C 
HETATM    4  C4  UNL     1     -33.520  15.196  -3.923  1.00 20.00     0.010 C 
HETATM    5  C5  UNL     1     -34.153  14.217  -4.934  1.00 20.00    -0.011 C 
HETATM    6  C6  UNL     1     -34.387  15.466  -2.682  1.00 20.00    -0.004 C 
HETATM    7  C7  UNL     1     -34.532  14.939  -6.233  1.00 20.00     0.010 C 
HETATM    8  O11 UNL     1     -37.582  14.181  -3.846  1.00 20.00    -0.298 OA
ENDROOT
BRANCH   6   9
HETATM    9  C10 UNL     1     -33.870  16.681  -1.914  1.00 20.00    -0.018 C 
HETATM   10  C8  UNL     1     -33.958  17.938  -2.776  1.00 20.00     0.010 C 
HETATM   11  C9  UNL     1     -34.651  16.865  -0.614  1.00 20.00     0.010 C 
ENDBRANCH   6   9
TORSDOF 1
ENDMDL
MODEL 2
REMARK VINA RESULT:      -5.0      1.514      1.843
REMARK  1 active torsions:
REMARK  status: ('A' for Active; 'I' for Inactive)
REMARK    1  A    between atoms: C6_6  and  C10_10 
ROOT
HETATM    1  C1  UNL     1     -34.733  13.787  -4.560  1.00 20.00     0.127 C 
HETATM    2  C2  UNL     1     -34.572  14.509  -5.880  1.00 20.00     0.082 C 
HETATM    3  C3  UNL     1     -34.604  14.610  -3.297  1.00 20.00     0.083 C 
HETATM    4  C4  UNL     1     -34.628  16.750  -4.643  1.00 20.00     0.010 C 
HETATM    5  C5  UNL     1     -35.167  15.919  -5.827  1.00 20.00    -0.011 C 
HETATM    6  C6  UNL     1     -33.877  15.923  -3.586  1.00 20.00    -0.004 C 
HETATM    7  C7  UNL     1     -36.700  15.868  -5.808  1.00 20.00     0.010 C 
HETATM    8  O11 UNL     1     -34.949  12.577  -4.514  1.00 20.00    -0.298 OA
ENDROOT
BRANCH   6   9
HETATM    9  C10 UNL     1     -33.682  16.732  -2.304  1.00 20.00    -0.018 C 
HETATM   10  C8  UNL     1     -33.724  18.228  -2.603  1.00 20.00     0.010 C 
HETATM   11  C9  UNL     1     -34.741  16.360  -1.269  1.00 20.00     0.010 C 
ENDBRANCH   6   9
TORSDOF 1
ENDMDL
MODEL 3
REMARK VINA RESULT:      -4.9      0.779      1.335
REMARK  1 active torsions:
REMARK  status: ('A' for Active; 'I' for Inactive)
REMARK    1  A    between atoms: C6_6  and  C10_10 
ROOT
HETATM    1  C1  UNL     1     -36.303  14.575  -3.646  1.00 20.00     0.127 C 
HETATM    2  C2  UNL     1     -35.010  13.834  -3.906  1.00 20.00     0.082 C 
HETATM    3  C3  UNL     1     -36.211  15.912  -2.944  1.00 20.00     0.083 C 
HETATM    4  C4  UNL     1     -33.696  15.916  -3.203  1.00 20.00     0.010 C 
HETATM    5  C5  UNL     1     -33.871  14.797  -4.252  1.00 20.00    -0.011 C 
HETATM    6  C6  UNL     1     -34.871  16.045  -2.220  1.00 20.00    -0.004 C 
HETATM    7  C7  UNL     1     -34.054  15.385  -5.656  1.00 20.00     0.010 C 
HETATM    8  O11 UNL     1     -37.390  14.104  -3.981  1.00 20.00    -0.298 OA
ENDROOT
BRANCH   6   9
HETATM    9  C10 UNL     1     -34.794  17.363  -1.452  1.00 20.00    -0.018 C 
HETATM   10  C8  UNL     1     -34.800  17.109   0.053  1.00 20.00     0.010 C 
HETATM   11  C9  UNL     1     -33.548  18.148  -1.860  1.00 20.00     0.010 C 
ENDBRANCH   6   9
TORSDOF 1
ENDMDL
MODEL 4
REMARK VINA RESULT:      -4.5     11.484     12.202
REMARK  1 active torsions:
REMARK  status: ('A' for Active; 'I' for Inactive)
REMARK    1  A    between atoms: C6_6  and  C10_10 
ROOT
HETATM    1  C1  UNL     1     -34.342   5.791   5.750  1.00 20.00     0.127 C 
HETATM    2  C2  UNL     1     -34.848   4.648   4.897  1.00 20.00     0.082 C 
HETATM    3  C3  UNL     1     -33.383   6.768   5.106  1.00 20.00     0.083 C 
HETATM    4  C4  UNL     1     -33.823   5.759   2.830  1.00 20.00     0.010 C 
HETATM    5  C5  UNL     1     -35.068   5.085   3.445  1.00 20.00    -0.011 C 
HETATM    6  C6  UNL     1     -32.750   6.153   3.858  1.00 20.00    -0.004 C 
HETATM    7  C7  UNL     1     -36.299   5.991   3.324  1.00 20.00     0.010 C 
HETATM    8  O11 UNL     1     -34.686   5.915   6.924  1.00 20.00    -0.298 OA
ENDROOT
BRANCH   6   9
HETATM    9  C10 UNL     1     -31.729   7.106   3.237  1.00 20.00    -0.018 C 
HETATM   10  C8  UNL     1     -32.387   7.973   2.167  1.00 20.00     0.010 C 
HETATM   11  C9  UNL     1     -31.086   7.978   4.314  1.00 20.00     0.010 C 
ENDBRANCH   6   9
TORSDOF 1
ENDMDL
MODEL 5
REMARK VINA RESULT:      -4.5      1.875      2.382
REMARK  1 active torsions:
REMARK  status: ('A' for Active; 'I' for Inactive)
REMARK    1  A    between atoms: C6_6  and  C10_10 
ROOT
HETATM    1  C1  UNL     1     -34.340  16.275  -5.402  1.00 20.00     0.127 C 
HETATM    2  C2  UNL     1     -35.521  15.347  -5.226  1.00 20.00     0.082 C 
HETATM    3  C3  UNL     1     -33.620  16.730  -4.152  1.00 20.00     0.083 C 
HETATM    4  C4  UNL     1     -34.907  15.060  -2.757  1.00 20.00     0.010 C 
HETATM    5  C5  UNL     1     -35.295  14.360  -4.076  1.00 20.00    -0.011 C 
HETATM    6  C6  UNL     1     -34.507  16.536  -2.922  1.00 20.00    -0.004 C 
HETATM    7  C7  UNL     1     -34.257  13.298  -4.459  1.00 20.00     0.010 C 
HETATM    8  O11 UNL     1     -33.984  16.654  -6.517  1.00 20.00    -0.298 OA
ENDROOT
BRANCH   6   9
HETATM    9  C10 UNL     1     -33.816  17.055  -1.662  1.00 20.00    -0.018 C 
HETATM   10  C8  UNL     1     -33.472  18.534  -1.810  1.00 20.00     0.010 C 
HETATM   11  C9  UNL     1     -34.698  16.827  -0.436  1.00 20.00     0.010 C 
ENDBRANCH   6   9
TORSDOF 1
ENDMDL
MODEL 6
REMARK VINA RESULT:      -4.5      1.860      3.174
REMARK  1 active torsions:
REMARK  status: ('A' for Active; 'I' for Inactive)
REMARK    1  A    between atoms: C6_6  and  C10_10 
ROOT
HETATM    1  C1  UNL     1     -34.864  13.492  -4.367  1.00 20.00     0.127 C 
HETATM    2  C2  UNL     1     -33.880  13.991  -3.332  1.00 20.00     0.082 C 
HETATM    3  C3  UNL     1     -36.144  14.279  -4.549  1.00 20.00     0.083 C 
HETATM    4  C4  UNL     1     -35.245  16.145  -3.100  1.00 20.00     0.010 C 
HETATM    5  C5  UNL     1     -33.845  15.522  -3.283  1.00 20.00    -0.011 C 
HETATM    6  C6  UNL     1     -36.406  15.163  -3.330  1.00 20.00    -0.004 C 
HETATM    7  C7  UNL     1     -33.148  16.096  -4.522  1.00 20.00     0.010 C 
HETATM    8  O11 UNL     1     -34.640  12.478  -5.028  1.00 20.00    -0.298 OA
ENDROOT
BRANCH   6   9
HETATM    9  C10 UNL     1     -37.730  15.912  -3.473  1.00 20.00    -0.018 C 
HETATM   10  C8  UNL     1     -37.611  17.015  -4.521  1.00 20.00     0.010 C 
HETATM   11  C9  UNL     1     -38.856  14.945  -3.834  1.00 20.00     0.010 C 
ENDBRANCH   6   9
TORSDOF 1
ENDMDL
MODEL 7
REMARK VINA RESULT:      -4.5      1.729      4.190
REMARK  1 active torsions:
REMARK  status: ('A' for Active; 'I' for Inactive)
REMARK    1  A    between atoms: C6_6  and  C10_10 
ROOT
HETATM    1  C1  UNL     1     -35.188  17.778  -3.944  1.00 20.00     0.127 C 
HETATM    2  C2  UNL     1     -33.956  17.924  -3.079  1.00 20.00     0.082 C 
HETATM    3  C3  UNL     1     -35.441  16.426  -4.574  1.00 20.00     0.083 C 
HETATM    4  C4  UNL     1     -33.615  15.388  -3.167  1.00 20.00     0.010 C 
HETATM    5  C5  UNL     1     -33.677  16.648  -2.279  1.00 20.00    -0.011 C 
HETATM    6  C6  UNL     1     -34.158  15.596  -4.591  1.00 20.00    -0.004 C 
HETATM    7  C7  UNL     1     -34.699  16.473  -1.149  1.00 20.00     0.010 C 
HETATM    8  O11 UNL     1     -35.951  18.725  -4.138  1.00 20.00    -0.298 OA
ENDROOT
BRANCH   6   9
HETATM    9  C10 UNL     1     -34.385  14.254  -5.285  1.00 20.00    -0.018 C 
HETATM   10  C8  UNL     1     -35.101  13.282  -4.351  1.00 20.00     0.010 C 
HETATM   11  C9  UNL     1     -35.181  14.446  -6.575  1.00 20.00     0.010 C 
ENDBRANCH   6   9
TORSDOF 1
ENDMDL
MODEL 8
REMARK VINA RESULT:      -4.5      2.196      3.078
REMARK  1 active torsions:
REMARK  status: ('A' for Active; 'I' for Inactive)
REMARK    1  A    between atoms: C6_6  and  C10_10 
ROOT
HETATM    1  C1  UNL     1     -33.684  13.914  -4.189  1.00 20.00     0.127 C 
HETATM    2  C2  UNL     1     -34.767  13.528  -5.172  1.00 20.00     0.082 C 
HETATM    3  C3  UNL     1     -33.331  15.381  -4.080  1.00 20.00     0.083 C 
HETATM    4  C4  UNL     1     -35.335  16.005  -5.490  1.00 20.00     0.010 C 
HETATM    5  C5  UNL     1     -35.876  14.583  -5.228  1.00 20.00    -0.011 C 
HETATM    6  C6  UNL     1     -33.813  16.140  -5.317  1.00 20.00    -0.004 C 
HETATM    7  C7  UNL     1     -36.733  14.548  -3.957  1.00 20.00     0.010 C 
HETATM    8  O11 UNL     1     -33.103  13.066  -3.511  1.00 20.00    -0.298 OA
ENDROOT
BRANCH   6   9
HETATM    9  C10 UNL     1     -33.403  17.610  -5.249  1.00 20.00    -0.018 C 
HETATM   10  C8  UNL     1     -33.997  18.386  -6.422  1.00 20.00     0.010 C 
HETATM   11  C9  UNL     1     -33.837  18.227  -3.921  1.00 20.00     0.010 C 
ENDBRANCH   6   9
TORSDOF 1
ENDMDL
MODEL 9
REMARK VINA RESULT:      -4.4      1.912      3.790
REMARK  1 active torsions:
REMARK  status: ('A' for Active; 'I' for Inactive)
REMARK    1  A    between atoms: C6_6  and  C10_10 
ROOT
HETATM    1  C1  UNL     1     -34.840  13.714  -4.600  1.00 20.00     0.127 C 
HETATM    2  C2  UNL     1     -34.643  14.551  -3.355  1.00 20.00     0.082 C 
HETATM    3  C3  UNL     1     -34.646  14.396  -5.936  1.00 20.00     0.083 C 
HETATM    4  C4  UNL     1     -33.681  16.436  -4.797  1.00 20.00     0.010 C 
HETATM    5  C5  UNL     1     -33.509  15.565  -3.535  1.00 20.00    -0.011 C 
HETATM    6  C6  UNL     1     -34.741  15.913  -5.781  1.00 20.00    -0.004 C 
HETATM    7  C7  UNL     1     -32.143  14.869  -3.530  1.00 20.00     0.010 C 
HETATM    8  O11 UNL     1     -35.157  12.526  -4.530  1.00 20.00    -0.298 OA
ENDROOT
BRANCH   6   9
HETATM    9  C10 UNL     1     -34.614  16.610  -7.135  1.00 20.00    -0.018 C 
HETATM   10  C8  UNL     1     -35.922  16.509  -7.915  1.00 20.00     0.010 C 
HETATM   11  C9  UNL     1     -34.209  18.071  -6.950  1.00 20.00     0.010 C 
ENDBRANCH   6   9
TORSDOF 1
ENDMDL
