MODEL 1
REMARK VINA RESULT:      -3.5      0.000      0.000
REMARK  1 active torsions:
REMARK  status: ('A' for Active; 'I' for Inactive)
REMARK    1  A    between atoms: C1_1  and  C6_6 
ROOT
HETATM    1  C3  UNL     1     -32.593  14.293  -3.510  1.00 20.00     0.022 C 
HETATM    2  C4  UNL     1     -34.755  15.412  -2.876  1.00 20.00     0.022 C 
HETATM    3  C5  UNL     1     -33.551  16.102  -4.947  1.00 20.00     0.022 C 
HETATM    4  C6  UNL     1     -33.894  14.908  -4.040  1.00 20.00     0.009 C 
ENDROOT
BRANCH   4   5
HETATM    5  C1  UNL     1     -34.650  13.843  -4.859  1.00 20.00     0.130 C 
HETATM    6  C2  UNL     1     -35.099  14.195  -6.258  1.00 20.00     0.091 C 
HETATM    7  O7  UNL     1     -34.912  12.730  -4.397  1.00 20.00    -0.298 OA
ENDBRANCH   4   5
TORSDOF 1
ENDMDL
MODEL 2
REMARK VINA RESULT:      -3.5      0.047      1.645
REMARK  1 active torsions:
REMARK  status: ('A' for Active; 'I' for Inactive)
REMARK    1  A    between atoms: C1_1  and  C6_6 
ROOT
HETATM    1  C3  UNL     1     -34.790  15.349  -2.903  1.00 20.00     0.022 C 
HETATM    2  C4  UNL     1     -33.519  16.083  -4.945  1.00 20.00     0.022 C 
HETATM    3  C5  UNL     1     -32.620  14.260  -3.501  1.00 20.00     0.022 C 
HETATM    4  C6  UNL     1     -33.906  14.887  -4.067  1.00 20.00     0.009 C 
ENDROOT
BRANCH   4   5
HETATM    5  C1  UNL     1     -34.673  13.831  -4.887  1.00 20.00     0.130 C 
HETATM    6  C2  UNL     1     -35.116  14.189  -6.286  1.00 20.00     0.091 C 
HETATM    7  O7  UNL     1     -34.947  12.720  -4.426  1.00 20.00    -0.298 OA
ENDBRANCH   4   5
TORSDOF 1
ENDMDL
MODEL 3
REMARK VINA RESULT:      -3.5      0.097      1.641
REMARK  1 active torsions:
REMARK  status: ('A' for Active; 'I' for Inactive)
REMARK    1  A    between atoms: C1_1  and  C6_6 
ROOT
HETATM    1  C3  UNL     1     -33.576  16.049  -4.942  1.00 20.00     0.022 C 
HETATM    2  C4  UNL     1     -32.636  14.219  -3.494  1.00 20.00     0.022 C 
HETATM    3  C5  UNL     1     -34.807  15.293  -2.900  1.00 20.00     0.022 C 
HETATM    4  C6  UNL     1     -33.918  14.836  -4.069  1.00 20.00     0.009 C 
ENDROOT
BRANCH   4   5
HETATM    5  C1  UNL     1     -34.684  13.807  -4.924  1.00 20.00     0.130 C 
HETATM    6  C2  UNL     1     -35.166  14.224  -6.292  1.00 20.00     0.091 C 
HETATM    7  O7  UNL     1     -34.926  12.669  -4.513  1.00 20.00    -0.298 OA
ENDBRANCH   4   5
TORSDOF 1
ENDMDL
MODEL 4
REMARK VINA RESULT:      -3.5      1.259      2.554
REMARK  1 active torsions:
REMARK  status: ('A' for Active; 'I' for Inactive)
REMARK    1  A    between atoms: C1_1  and  C6_6 
ROOT
HETATM    1  C3  UNL     1     -36.858  14.704  -3.744  1.00 20.00     0.022 C 
HETATM    2  C4  UNL     1     -35.069  15.993  -4.955  1.00 20.00     0.022 C 
HETATM    3  C5  UNL     1     -34.960  15.729  -2.478  1.00 20.00     0.022 C 
HETATM    4  C6  UNL     1     -35.362  15.037  -3.792  1.00 20.00     0.009 C 
ENDROOT
BRANCH   4   5
HETATM    5  C1  UNL     1     -34.565  13.727  -3.946  1.00 20.00     0.130 C 
HETATM    6  C2  UNL     1     -33.088  13.742  -3.633  1.00 20.00     0.091 C 
HETATM    7  O7  UNL     1     -35.095  12.684  -4.335  1.00 20.00    -0.298 OA
ENDBRANCH   4   5
TORSDOF 1
ENDMDL
MODEL 5
REMARK VINA RESULT:      -3.5     11.999     12.836
REMARK  1 active torsions:
REMARK  status: ('A' for Active; 'I' for Inactive)
REMARK    1  A    between atoms: C1_1  and  C6_6 
ROOT
HETATM    1  C3  UNL     1     -34.868   3.983   4.830  1.00 20.00     0.022 C 
HETATM    2  C4  UNL     1     -34.005   4.954   2.675  1.00 20.00     0.022 C 
HETATM    3  C5  UNL     1     -36.021   5.933   3.769  1.00 20.00     0.022 C 
HETATM    4  C6  UNL     1     -34.656   5.273   4.027  1.00 20.00     0.009 C 
ENDROOT
BRANCH   4   5
HETATM    5  C1  UNL     1     -33.770   6.231   4.848  1.00 20.00     0.130 C 
HETATM    6  C2  UNL     1     -34.088   6.429   6.311  1.00 20.00     0.091 C 
HETATM    7  O7  UNL     1     -32.831   6.847   4.339  1.00 20.00    -0.298 OA
ENDBRANCH   4   5
TORSDOF 1
ENDMDL
MODEL 6
REMARK VINA RESULT:      -3.5     11.991     12.832
REMARK  1 active torsions:
REMARK  status: ('A' for Active; 'I' for Inactive)
REMARK    1  A    between atoms: C1_1  and  C6_6 
ROOT
HETATM    1  C3  UNL     1     -33.867   5.003   2.720  1.00 20.00     0.022 C 
HETATM    2  C4  UNL     1     -35.978   5.953   3.704  1.00 20.00     0.022 C 
HETATM    3  C5  UNL     1     -34.875   3.988   4.772  1.00 20.00     0.022 C 
HETATM    4  C6  UNL     1     -34.624   5.305   4.019  1.00 20.00     0.009 C 
ENDROOT
BRANCH   4   5
HETATM    5  C1  UNL     1     -33.762   6.239   4.892  1.00 20.00     0.130 C 
HETATM    6  C2  UNL     1     -34.127   6.403   6.348  1.00 20.00     0.091 C 
HETATM    7  O7  UNL     1     -32.803   6.862   4.429  1.00 20.00    -0.298 OA
ENDBRANCH   4   5
TORSDOF 1
ENDMDL
MODEL 7
REMARK VINA RESULT:      -3.5     12.005     12.824
REMARK  1 active torsions:
REMARK  status: ('A' for Active; 'I' for Inactive)
REMARK    1  A    between atoms: C1_1  and  C6_6 
ROOT
HETATM    1  C3  UNL     1     -36.010   5.993   3.738  1.00 20.00     0.022 C 
HETATM    2  C4  UNL     1     -34.932   3.986   4.804  1.00 20.00     0.022 C 
HETATM    3  C5  UNL     1     -33.989   4.943   2.703  1.00 20.00     0.022 C 
HETATM    4  C6  UNL     1     -34.681   5.288   4.033  1.00 20.00     0.009 C 
ENDROOT
BRANCH   4   5
HETATM    5  C1  UNL     1     -33.782   6.240   4.847  1.00 20.00     0.130 C 
HETATM    6  C2  UNL     1     -34.090   6.445   6.311  1.00 20.00     0.091 C 
HETATM    7  O7  UNL     1     -32.839   6.846   4.331  1.00 20.00    -0.298 OA
ENDBRANCH   4   5
TORSDOF 1
ENDMDL
MODEL 8
REMARK VINA RESULT:      -3.5      1.116      2.662
REMARK  1 active torsions:
REMARK  status: ('A' for Active; 'I' for Inactive)
REMARK    1  A    between atoms: C1_1  and  C6_6 
ROOT
HETATM    1  C3  UNL     1     -36.260  15.339  -5.018  1.00 20.00     0.022 C 
HETATM    2  C4  UNL     1     -35.167  14.342  -7.053  1.00 20.00     0.022 C 
HETATM    3  C5  UNL     1     -33.909  15.947  -5.618  1.00 20.00     0.022 C 
HETATM    4  C6  UNL     1     -34.947  14.812  -5.609  1.00 20.00     0.009 C 
ENDROOT
BRANCH   4   5
HETATM    5  C1  UNL     1     -34.434  13.654  -4.730  1.00 20.00     0.130 C 
HETATM    6  C2  UNL     1     -33.312  13.932  -3.758  1.00 20.00     0.091 C 
HETATM    7  O7  UNL     1     -34.900  12.515  -4.816  1.00 20.00    -0.298 OA
ENDBRANCH   4   5
TORSDOF 1
ENDMDL
MODEL 9
REMARK VINA RESULT:      -3.5     12.154     13.006
REMARK  1 active torsions:
REMARK  status: ('A' for Active; 'I' for Inactive)
REMARK    1  A    between atoms: C1_1  and  C6_6 
ROOT
HETATM    1  C3  UNL     1     -36.094   6.049   3.387  1.00 20.00     0.022 C 
HETATM    2  C4  UNL     1     -33.993   4.870   2.661  1.00 20.00     0.022 C 
HETATM    3  C5  UNL     1     -33.859   6.836   4.190  1.00 20.00     0.022 C 
HETATM    4  C6  UNL     1     -34.693   5.598   3.816  1.00 20.00     0.009 C 
ENDROOT
BRANCH   4   5
HETATM    5  C1  UNL     1     -34.821   4.676   5.045  1.00 20.00     0.130 C 
HETATM    6  C2  UNL     1     -34.585   5.267   6.415  1.00 20.00     0.091 C 
HETATM    7  O7  UNL     1     -35.088   3.477   4.935  1.00 20.00    -0.298 OA
ENDBRANCH   4   5
TORSDOF 1
ENDMDL
