MODEL 1
REMARK VINA RESULT:      -4.4      0.000      0.000
REMARK  1 active torsions:
REMARK  status: ('A' for Active; 'I' for Inactive)
REMARK    1  A    between atoms: C3_3  and  C6_6 
ROOT
HETATM    1  C1  UNL     1     -33.818   6.576   5.793  1.00 20.00     0.100 C 
HETATM    2  C2  UNL     1     -33.230   6.110   3.347  1.00 20.00     0.169 A 
HETATM    3  C3  UNL     1     -34.137   5.941   4.548  1.00 20.00     0.174 A 
HETATM    4  C4  UNL     1     -31.976   6.912   3.371  1.00 20.00     0.044 C 
HETATM    5  N7  UNL     1     -33.560   7.090   6.801  1.00 20.00    -0.194 NA
HETATM    6  O8  UNL     1     -34.428   6.879   3.499  1.00 20.00    -0.354 OA
ENDROOT
BRANCH   3   7
HETATM    7  C6  UNL     1     -35.082   4.784   4.591  1.00 20.00     0.052 C 
HETATM    8  C5  UNL     1     -35.005   4.015   5.884  1.00 20.00     0.009 C 
ENDBRANCH   3   7
TORSDOF 1
ENDMDL
MODEL 2
REMARK VINA RESULT:      -4.0     11.927     12.703
REMARK  1 active torsions:
REMARK  status: ('A' for Active; 'I' for Inactive)
REMARK    1  A    between atoms: C3_3  and  C6_6 
ROOT
HETATM    1  C1  UNL     1     -36.568  14.277  -4.060  1.00 20.00     0.100 C 
HETATM    2  C2  UNL     1     -34.653  14.188  -5.755  1.00 20.00     0.169 A 
HETATM    3  C3  UNL     1     -35.165  14.161  -4.330  1.00 20.00     0.174 A 
HETATM    4  C4  UNL     1     -35.538  14.340  -6.942  1.00 20.00     0.044 C 
HETATM    5  N7  UNL     1     -37.703  14.370  -3.842  1.00 20.00    -0.194 NA
HETATM    6  O8  UNL     1     -34.827  12.959  -5.041  1.00 20.00    -0.354 OA
ENDROOT
BRANCH   3   7
HETATM    7  C6  UNL     1     -34.224  14.476  -3.211  1.00 20.00     0.052 C 
HETATM    8  C5  UNL     1     -34.623  15.707  -2.442  1.00 20.00     0.009 C 
ENDBRANCH   3   7
TORSDOF 1
ENDMDL
MODEL 3
REMARK VINA RESULT:      -3.9     12.204     13.175
REMARK  1 active torsions:
REMARK  status: ('A' for Active; 'I' for Inactive)
REMARK    1  A    between atoms: C3_3  and  C6_6 
ROOT
HETATM    1  C1  UNL     1     -33.650  14.343  -3.805  1.00 20.00     0.100 C 
HETATM    2  C2  UNL     1     -33.940  16.384  -5.320  1.00 20.00     0.169 A 
HETATM    3  C3  UNL     1     -33.627  15.766  -3.974  1.00 20.00     0.174 A 
HETATM    4  C4  UNL     1     -34.294  15.587  -6.527  1.00 20.00     0.044 C 
HETATM    5  N7  UNL     1     -33.669  13.191  -3.668  1.00 20.00    -0.194 NA
HETATM    6  O8  UNL     1     -32.592  16.207  -4.869  1.00 20.00    -0.354 OA
ENDROOT
BRANCH   3   7
HETATM    7  C6  UNL     1     -33.745  16.604  -2.742  1.00 20.00     0.052 C 
HETATM    8  C5  UNL     1     -34.783  16.087  -1.781  1.00 20.00     0.009 C 
ENDBRANCH   3   7
TORSDOF 1
ENDMDL
MODEL 4
REMARK VINA RESULT:      -3.8     12.623     13.677
REMARK  1 active torsions:
REMARK  status: ('A' for Active; 'I' for Inactive)
REMARK    1  A    between atoms: C3_3  and  C6_6 
ROOT
HETATM    1  C1  UNL     1     -34.719  13.704  -4.996  1.00 20.00     0.100 C 
HETATM    2  C2  UNL     1     -33.743  16.051  -4.700  1.00 20.00     0.169 A 
HETATM    3  C3  UNL     1     -34.410  14.990  -5.550  1.00 20.00     0.174 A 
HETATM    4  C4  UNL     1     -33.363  15.843  -3.276  1.00 20.00     0.044 C 
HETATM    5  N7  UNL     1     -34.970  12.664  -4.548  1.00 20.00    -0.194 NA
HETATM    6  O8  UNL     1     -35.155  16.057  -4.940  1.00 20.00    -0.354 OA
ENDROOT
BRANCH   3   7
HETATM    7  C6  UNL     1     -34.332  15.093  -7.039  1.00 20.00     0.052 C 
HETATM    8  C5  UNL     1     -35.512  14.464  -7.731  1.00 20.00     0.009 C 
ENDBRANCH   3   7
TORSDOF 1
ENDMDL
MODEL 5
REMARK VINA RESULT:      -3.6     12.476     13.050
REMARK  1 active torsions:
REMARK  status: ('A' for Active; 'I' for Inactive)
REMARK    1  A    between atoms: C3_3  and  C6_6 
ROOT
HETATM    1  C1  UNL     1     -36.661  14.552  -3.985  1.00 20.00     0.100 C 
HETATM    2  C2  UNL     1     -34.376  15.510  -3.344  1.00 20.00     0.169 A 
HETATM    3  C3  UNL     1     -35.292  14.806  -4.324  1.00 20.00     0.174 A 
HETATM    4  C4  UNL     1     -34.813  15.967  -1.996  1.00 20.00     0.044 C 
HETATM    5  N7  UNL     1     -37.769  14.347  -3.710  1.00 20.00    -0.194 NA
HETATM    6  O8  UNL     1     -34.992  16.208  -4.433  1.00 20.00    -0.354 OA
ENDROOT
BRANCH   3   7
HETATM    7  C6  UNL     1     -34.693  13.982  -5.418  1.00 20.00     0.052 C 
HETATM    8  C5  UNL     1     -35.227  14.342  -6.779  1.00 20.00     0.009 C 
ENDBRANCH   3   7
TORSDOF 1
ENDMDL
MODEL 6
REMARK VINA RESULT:      -3.5     11.969     12.930
REMARK  1 active torsions:
REMARK  status: ('A' for Active; 'I' for Inactive)
REMARK    1  A    between atoms: C3_3  and  C6_6 
ROOT
HETATM    1  C1  UNL     1     -34.964  14.448  -5.934  1.00 20.00     0.100 C 
HETATM    2  C2  UNL     1     -34.461  13.759  -3.522  1.00 20.00     0.169 A 
HETATM    3  C3  UNL     1     -35.439  14.080  -4.633  1.00 20.00     0.174 A 
HETATM    4  C4  UNL     1     -32.982  13.809  -3.689  1.00 20.00     0.044 C 
HETATM    5  N7  UNL     1     -34.580  14.745  -6.987  1.00 20.00    -0.194 NA
HETATM    6  O8  UNL     1     -35.107  12.728  -4.276  1.00 20.00    -0.354 OA
ENDROOT
BRANCH   3   7
HETATM    7  C6  UNL     1     -36.841  14.462  -4.282  1.00 20.00     0.052 C 
HETATM    8  C5  UNL     1     -37.225  15.820  -4.806  1.00 20.00     0.009 C 
ENDBRANCH   3   7
TORSDOF 1
ENDMDL
MODEL 7
REMARK VINA RESULT:      -3.5     12.370     12.942
REMARK  1 active torsions:
REMARK  status: ('A' for Active; 'I' for Inactive)
REMARK    1  A    between atoms: C3_3  and  C6_6 
ROOT
HETATM    1  C1  UNL     1     -33.764  16.152  -4.345  1.00 20.00     0.100 C 
HETATM    2  C2  UNL     1     -35.096  14.046  -3.764  1.00 20.00     0.169 A 
HETATM    3  C3  UNL     1     -34.726  15.493  -3.512  1.00 20.00     0.174 A 
HETATM    4  C4  UNL     1     -34.500  13.224  -4.854  1.00 20.00     0.044 C 
HETATM    5  N7  UNL     1     -32.986  16.686  -5.019  1.00 20.00    -0.194 NA
HETATM    6  O8  UNL     1     -35.921  15.123  -4.219  1.00 20.00    -0.354 OA
ENDROOT
BRANCH   3   7
HETATM    7  C6  UNL     1     -34.991  16.089  -2.166  1.00 20.00     0.052 C 
HETATM    8  C5  UNL     1     -33.815  16.859  -1.627  1.00 20.00     0.009 C 
ENDBRANCH   3   7
TORSDOF 1
ENDMDL
MODEL 8
REMARK VINA RESULT:      -3.5     10.240     11.043
REMARK  1 active torsions:
REMARK  status: ('A' for Active; 'I' for Inactive)
REMARK    1  A    between atoms: C3_3  and  C6_6 
ROOT
HETATM    1  C1  UNL     1     -42.651   5.896  -2.911  1.00 20.00     0.100 C 
HETATM    2  C2  UNL     1     -41.323   3.979  -1.858  1.00 20.00     0.169 A 
HETATM    3  C3  UNL     1     -41.786   5.421  -1.871  1.00 20.00     0.174 A 
HETATM    4  C4  UNL     1     -41.710   2.983  -2.895  1.00 20.00     0.044 C 
HETATM    5  N7  UNL     1     -43.350   6.282  -3.752  1.00 20.00    -0.194 NA
HETATM    6  O8  UNL     1     -42.406   4.428  -1.036  1.00 20.00    -0.354 OA
ENDROOT
BRANCH   3   7
HETATM    7  C6  UNL     1     -41.010   6.443  -1.105  1.00 20.00     0.052 C 
HETATM    8  C5  UNL     1     -41.742   7.751  -0.969  1.00 20.00     0.009 C 
ENDBRANCH   3   7
TORSDOF 1
ENDMDL
MODEL 9
REMARK VINA RESULT:      -3.5     11.955     12.633
REMARK  1 active torsions:
REMARK  status: ('A' for Active; 'I' for Inactive)
REMARK    1  A    between atoms: C3_3  and  C6_6 
ROOT
HETATM    1  C1  UNL     1     -35.126  13.777  -4.106  1.00 20.00     0.100 C 
HETATM    2  C2  UNL     1     -34.418  16.208  -3.737  1.00 20.00     0.169 A 
HETATM    3  C3  UNL     1     -35.408  15.075  -3.567  1.00 20.00     0.174 A 
HETATM    4  C4  UNL     1     -33.125  16.067  -4.462  1.00 20.00     0.044 C 
HETATM    5  N7  UNL     1     -34.899  12.727  -4.543  1.00 20.00    -0.194 NA
HETATM    6  O8  UNL     1     -34.499  15.457  -2.520  1.00 20.00    -0.354 OA
ENDROOT
BRANCH   3   7
HETATM    7  C6  UNL     1     -36.836  15.395  -3.261  1.00 20.00     0.052 C 
HETATM    8  C5  UNL     1     -37.799  14.738  -4.214  1.00 20.00     0.009 C 
ENDBRANCH   3   7
TORSDOF 1
ENDMDL
