MODEL 1
REMARK VINA RESULT:      -4.8      0.000      0.000
REMARK  0 active torsions:
REMARK  status: ('A' for Active; 'I' for Inactive)
ROOT
HETATM    1  C1  UNL     1     -34.809   3.829   5.464  1.00 20.00    -0.029 C 
HETATM    2  C2  UNL     1     -34.456   4.646   6.460  1.00 20.00    -0.023 C 
HETATM    3  C3  UNL     1     -33.442   6.346   4.034  1.00 20.00     0.264 C 
HETATM    4  C4  UNL     1     -35.244   4.587   4.251  1.00 20.00     0.042 C 
HETATM    5  C5  UNL     1     -33.382   6.930   6.256  1.00 20.00     0.188 C 
HETATM    6  C6  UNL     1     -34.622   6.087   6.081  1.00 20.00     0.046 C 
HETATM    7  C7  UNL     1     -34.816   6.020   4.573  1.00 20.00     0.098 C 
HETATM    8  O8  UNL     1     -33.086   6.218   2.872  1.00 20.00    -0.265 OA
HETATM    9  O9  UNL     1     -32.642   6.819   5.035  1.00 20.00    -0.320 OA
ENDROOT
TORSDOF 0
ENDMDL
MODEL 2
REMARK VINA RESULT:      -4.7     12.095     12.692
REMARK  0 active torsions:
REMARK  status: ('A' for Active; 'I' for Inactive)
ROOT
HETATM    1  C1  UNL     1     -35.437  15.930  -2.564  1.00 20.00    -0.029 C 
HETATM    2  C2  UNL     1     -34.109  16.024  -2.458  1.00 20.00    -0.023 C 
HETATM    3  C3  UNL     1     -34.289  13.478  -4.273  1.00 20.00     0.264 C 
HETATM    4  C4  UNL     1     -35.853  15.430  -3.910  1.00 20.00     0.042 C 
HETATM    5  C5  UNL     1     -32.379  14.543  -3.567  1.00 20.00     0.188 C 
HETATM    6  C6  UNL     1     -33.421  15.623  -3.729  1.00 20.00     0.046 C 
HETATM    7  C7  UNL     1     -34.535  14.949  -4.518  1.00 20.00     0.098 C 
HETATM    8  O8  UNL     1     -35.058  12.572  -4.558  1.00 20.00    -0.265 OA
HETATM    9  O9  UNL     1     -33.069  13.294  -3.688  1.00 20.00    -0.320 OA
ENDROOT
TORSDOF 0
ENDMDL
MODEL 3
REMARK VINA RESULT:      -4.6     12.052     13.015
REMARK  0 active torsions:
REMARK  status: ('A' for Active; 'I' for Inactive)
ROOT
HETATM    1  C1  UNL     1     -33.247  16.166  -4.299  1.00 20.00    -0.029 C 
HETATM    2  C2  UNL     1     -34.426  16.601  -3.845  1.00 20.00    -0.023 C 
HETATM    3  C3  UNL     1     -35.110  13.565  -4.187  1.00 20.00     0.264 C 
HETATM    4  C4  UNL     1     -32.934  14.791  -3.802  1.00 20.00     0.042 C 
HETATM    5  C5  UNL     1     -36.484  15.208  -3.356  1.00 20.00     0.188 C 
HETATM    6  C6  UNL     1     -35.082  15.594  -2.949  1.00 20.00     0.046 C 
HETATM    7  C7  UNL     1     -34.264  14.335  -3.200  1.00 20.00     0.098 C 
HETATM    8  O8  UNL     1     -34.751  12.579  -4.813  1.00 20.00    -0.265 OA
HETATM    9  O9  UNL     1     -36.353  14.123  -4.280  1.00 20.00    -0.320 OA
ENDROOT
TORSDOF 0
ENDMDL
MODEL 4
REMARK VINA RESULT:      -4.5      1.647      3.099
REMARK  0 active torsions:
REMARK  status: ('A' for Active; 'I' for Inactive)
ROOT
HETATM    1  C1  UNL     1     -32.642   5.987   2.916  1.00 20.00    -0.029 C 
HETATM    2  C2  UNL     1     -33.592   5.048   2.899  1.00 20.00    -0.023 C 
HETATM    3  C3  UNL     1     -34.073   6.197   5.772  1.00 20.00     0.264 C 
HETATM    4  C4  UNL     1     -33.073   7.199   3.678  1.00 20.00     0.042 C 
HETATM    5  C5  UNL     1     -35.283   4.552   4.719  1.00 20.00     0.188 C 
HETATM    6  C6  UNL     1     -34.824   5.491   3.630  1.00 20.00     0.046 C 
HETATM    7  C7  UNL     1     -34.345   6.725   4.382  1.00 20.00     0.098 C 
HETATM    8  O8  UNL     1     -33.489   6.801   6.659  1.00 20.00    -0.265 OA
HETATM    9  O9  UNL     1     -34.585   4.938   5.907  1.00 20.00    -0.320 OA
ENDROOT
TORSDOF 0
ENDMDL
MODEL 5
REMARK VINA RESULT:      -4.3     12.218     13.656
REMARK  0 active torsions:
REMARK  status: ('A' for Active; 'I' for Inactive)
ROOT
HETATM    1  C1  UNL     1     -34.119  15.504  -6.812  1.00 20.00    -0.029 C 
HETATM    2  C2  UNL     1     -35.023  14.570  -6.508  1.00 20.00    -0.023 C 
HETATM    3  C3  UNL     1     -33.287  14.452  -3.905  1.00 20.00     0.264 C 
HETATM    4  C4  UNL     1     -33.692  16.278  -5.606  1.00 20.00     0.042 C 
HETATM    5  C5  UNL     1     -35.197  13.255  -4.350  1.00 20.00     0.188 C 
HETATM    6  C6  UNL     1     -35.367  14.583  -5.049  1.00 20.00     0.046 C 
HETATM    7  C7  UNL     1     -34.273  15.458  -4.452  1.00 20.00     0.098 C 
HETATM    8  O8  UNL     1     -32.159  14.706  -3.509  1.00 20.00    -0.265 OA
HETATM    9  O9  UNL     1     -33.837  13.202  -3.907  1.00 20.00    -0.320 OA
ENDROOT
TORSDOF 0
ENDMDL
MODEL 6
REMARK VINA RESULT:      -4.2     12.395     13.718
REMARK  0 active torsions:
REMARK  status: ('A' for Active; 'I' for Inactive)
ROOT
HETATM    1  C1  UNL     1     -33.235  15.935  -3.444  1.00 20.00    -0.029 C 
HETATM    2  C2  UNL     1     -33.385  16.374  -4.697  1.00 20.00    -0.023 C 
HETATM    3  C3  UNL     1     -35.018  13.710  -4.900  1.00 20.00     0.264 C 
HETATM    4  C4  UNL     1     -34.455  15.223  -2.955  1.00 20.00     0.042 C 
HETATM    5  C5  UNL     1     -34.732  15.287  -6.546  1.00 20.00     0.188 C 
HETATM    6  C6  UNL     1     -34.743  16.046  -5.241  1.00 20.00     0.046 C 
HETATM    7  C7  UNL     1     -35.278  15.040  -4.231  1.00 20.00     0.098 C 
HETATM    8  O8  UNL     1     -35.113  12.615  -4.364  1.00 20.00    -0.265 OA
HETATM    9  O9  UNL     1     -34.665  13.898  -6.206  1.00 20.00    -0.320 OA
ENDROOT
TORSDOF 0
ENDMDL
MODEL 7
REMARK VINA RESULT:      -4.1     12.658     13.438
REMARK  0 active torsions:
REMARK  status: ('A' for Active; 'I' for Inactive)
ROOT
HETATM    1  C1  UNL     1     -34.415  15.366  -6.338  1.00 20.00    -0.029 C 
HETATM    2  C2  UNL     1     -33.744  15.868  -5.298  1.00 20.00    -0.023 C 
HETATM    3  C3  UNL     1     -36.094  14.487  -3.757  1.00 20.00     0.264 C 
HETATM    4  C4  UNL     1     -35.039  14.047  -6.011  1.00 20.00     0.042 C 
HETATM    5  C5  UNL     1     -34.299  15.591  -2.842  1.00 20.00     0.188 C 
HETATM    6  C6  UNL     1     -33.790  14.952  -4.112  1.00 20.00     0.046 C 
HETATM    7  C7  UNL     1     -34.883  13.962  -4.492  1.00 20.00     0.098 C 
HETATM    8  O8  UNL     1     -37.245  14.113  -3.926  1.00 20.00    -0.265 OA
HETATM    9  O9  UNL     1     -35.723  15.447  -2.859  1.00 20.00    -0.320 OA
ENDROOT
TORSDOF 0
ENDMDL
MODEL 8
REMARK VINA RESULT:      -4.1     12.596     13.787
REMARK  0 active torsions:
REMARK  status: ('A' for Active; 'I' for Inactive)
ROOT
HETATM    1  C1  UNL     1     -33.364  13.634  -3.687  1.00 20.00    -0.029 C 
HETATM    2  C2  UNL     1     -32.913  14.890  -3.747  1.00 20.00    -0.023 C 
HETATM    3  C3  UNL     1     -34.767  14.903  -6.270  1.00 20.00     0.264 C 
HETATM    4  C4  UNL     1     -34.783  13.531  -4.147  1.00 20.00     0.042 C 
HETATM    5  C5  UNL     1     -33.564  16.670  -5.427  1.00 20.00     0.188 C 
HETATM    6  C6  UNL     1     -33.969  15.836  -4.235  1.00 20.00     0.046 C 
HETATM    7  C7  UNL     1     -35.036  14.899  -4.783  1.00 20.00     0.098 C 
HETATM    8  O8  UNL     1     -35.263  14.137  -7.083  1.00 20.00    -0.265 OA
HETATM    9  O9  UNL     1     -33.889  15.898  -6.589  1.00 20.00    -0.320 OA
ENDROOT
TORSDOF 0
ENDMDL
MODEL 9
REMARK VINA RESULT:      -4.1     12.794     13.571
REMARK  0 active torsions:
REMARK  status: ('A' for Active; 'I' for Inactive)
ROOT
HETATM    1  C1  UNL     1     -35.092  15.882  -2.327  1.00 20.00    -0.029 C 
HETATM    2  C2  UNL     1     -35.390  14.793  -3.042  1.00 20.00    -0.023 C 
HETATM    3  C3  UNL     1     -33.376  16.155  -5.016  1.00 20.00     0.264 C 
HETATM    4  C4  UNL     1     -33.666  16.293  -2.509  1.00 20.00     0.042 C 
HETATM    5  C5  UNL     1     -34.423  14.127  -5.286  1.00 20.00     0.188 C 
HETATM    6  C6  UNL     1     -34.200  14.285  -3.801  1.00 20.00     0.046 C 
HETATM    7  C7  UNL     1     -33.213  15.439  -3.695  1.00 20.00     0.098 C 
HETATM    8  O8  UNL     1     -32.917  17.253  -5.290  1.00 20.00    -0.265 OA
HETATM    9  O9  UNL     1     -34.110  15.392  -5.879  1.00 20.00    -0.320 OA
ENDROOT
TORSDOF 0
ENDMDL
