MODEL 1
REMARK VINA RESULT:      -4.8      0.000      0.000
REMARK  1 active torsions:
REMARK  status: ('A' for Active; 'I' for Inactive)
REMARK    1  A    between atoms: C6_6  and  C10_10 
ROOT
HETATM    1  C1  UNL     1     -33.464  17.015  -2.350  1.00 20.00     0.053 A 
HETATM    2  C2  UNL     1     -34.507  16.617  -1.601  1.00 20.00    -0.075 A 
HETATM    3  C3  UNL     1     -33.610  16.345  -3.663  1.00 20.00     0.159 A 
HETATM    4  C4  UNL     1     -36.184  16.066  -3.487  1.00 20.00     0.029 A 
HETATM    5  C5  UNL     1     -35.431  15.669  -2.249  1.00 20.00     0.032 A 
HETATM    6  C6  UNL     1     -34.812  15.447  -3.630  1.00 20.00     0.035 A 
HETATM    7  C7  UNL     1     -34.770  17.067  -0.205  1.00 20.00     0.044 C 
HETATM    8  O11 UNL     1     -32.878  16.489  -4.626  1.00 20.00    -0.292 OA
ENDROOT
BRANCH   6   9
HETATM    9  C10 UNL     1     -34.709  14.050  -4.165  1.00 20.00    -0.006 C 
HETATM   10  C8  UNL     1     -34.930  14.010  -5.685  1.00 20.00     0.011 C 
HETATM   11  C9  UNL     1     -33.352  13.414  -3.826  1.00 20.00     0.011 C 
ENDBRANCH   6   9
TORSDOF 1
ENDMDL
MODEL 2
REMARK VINA RESULT:      -4.7      1.662      4.016
REMARK  1 active torsions:
REMARK  status: ('A' for Active; 'I' for Inactive)
REMARK    1  A    between atoms: C6_6  and  C10_10 
ROOT
HETATM    1  C1  UNL     1     -36.194  15.210  -3.396  1.00 20.00     0.053 A 
HETATM    2  C2  UNL     1     -35.027  14.585  -3.627  1.00 20.00    -0.075 A 
HETATM    3  C3  UNL     1     -35.855  16.537  -2.832  1.00 20.00     0.159 A 
HETATM    4  C4  UNL     1     -33.504  16.650  -3.925  1.00 20.00     0.029 A 
HETATM    5  C5  UNL     1     -33.816  15.340  -3.258  1.00 20.00     0.032 A 
HETATM    6  C6  UNL     1     -34.366  16.646  -2.683  1.00 20.00     0.035 A 
HETATM    7  C7  UNL     1     -34.896  13.222  -4.216  1.00 20.00     0.044 C 
HETATM    8  O11 UNL     1     -36.648  17.412  -2.532  1.00 20.00    -0.292 OA
ENDROOT
BRANCH   6   9
HETATM    9  C10 UNL     1     -33.786  17.180  -1.407  1.00 20.00    -0.006 C 
HETATM   10  C8  UNL     1     -33.464  18.679  -1.517  1.00 20.00     0.011 C 
HETATM   11  C9  UNL     1     -34.727  16.944  -0.216  1.00 20.00     0.011 C 
ENDBRANCH   6   9
TORSDOF 1
ENDMDL
MODEL 3
REMARK VINA RESULT:      -4.6      1.854      2.929
REMARK  1 active torsions:
REMARK  status: ('A' for Active; 'I' for Inactive)
REMARK    1  A    between atoms: C6_6  and  C10_10 
ROOT
HETATM    1  C1  UNL     1     -34.643  14.285  -3.159  1.00 20.00     0.053 A 
HETATM    2  C2  UNL     1     -34.488  15.612  -3.015  1.00 20.00    -0.075 A 
HETATM    3  C3  UNL     1     -34.634  14.017  -4.616  1.00 20.00     0.159 A 
HETATM    4  C4  UNL     1     -33.250  16.127  -5.223  1.00 20.00     0.029 A 
HETATM    5  C5  UNL     1     -34.382  16.380  -4.268  1.00 20.00     0.032 A 
HETATM    6  C6  UNL     1     -34.519  15.316  -5.357  1.00 20.00     0.035 A 
HETATM    7  C7  UNL     1     -34.419  16.322  -1.705  1.00 20.00     0.044 C 
HETATM    8  O11 UNL     1     -34.708  12.921  -5.143  1.00 20.00    -0.292 OA
ENDROOT
BRANCH   6   9
HETATM    9  C10 UNL     1     -35.419  15.585  -6.527  1.00 20.00    -0.006 C 
HETATM   10  C8  UNL     1     -34.920  14.878  -7.797  1.00 20.00     0.011 C 
HETATM   11  C9  UNL     1     -36.866  15.156  -6.237  1.00 20.00     0.011 C 
ENDBRANCH   6   9
TORSDOF 1
ENDMDL
MODEL 4
REMARK VINA RESULT:      -4.5      1.861      2.706
REMARK  1 active torsions:
REMARK  status: ('A' for Active; 'I' for Inactive)
REMARK    1  A    between atoms: C6_6  and  C10_10 
ROOT
HETATM    1  C1  UNL     1     -36.031  15.902  -2.806  1.00 20.00     0.053 A 
HETATM    2  C2  UNL     1     -34.792  16.097  -2.325  1.00 20.00    -0.075 A 
HETATM    3  C3  UNL     1     -35.870  15.412  -4.194  1.00 20.00     0.159 A 
HETATM    4  C4  UNL     1     -33.503  14.421  -3.809  1.00 20.00     0.029 A 
HETATM    5  C5  UNL     1     -33.692  15.808  -3.262  1.00 20.00     0.032 A 
HETATM    6  C6  UNL     1     -34.411  15.382  -4.542  1.00 20.00     0.035 A 
HETATM    7  C7  UNL     1     -34.481  16.571  -0.945  1.00 20.00     0.044 C 
HETATM    8  O11 UNL     1     -36.770  15.083  -4.947  1.00 20.00    -0.292 OA
ENDROOT
BRANCH   6   9
HETATM    9  C10 UNL     1     -33.950  15.941  -5.856  1.00 20.00    -0.006 C 
HETATM   10  C8  UNL     1     -34.290  14.998  -7.021  1.00 20.00     0.011 C 
HETATM   11  C9  UNL     1     -34.557  17.327  -6.124  1.00 20.00     0.011 C 
ENDBRANCH   6   9
TORSDOF 1
ENDMDL
MODEL 5
REMARK VINA RESULT:      -4.4      1.217      3.938
REMARK  1 active torsions:
REMARK  status: ('A' for Active; 'I' for Inactive)
REMARK    1  A    between atoms: C6_6  and  C10_10 
ROOT
HETATM    1  C1  UNL     1     -34.138  16.254  -6.150  1.00 20.00     0.053 A 
HETATM    2  C2  UNL     1     -34.767  15.068  -6.197  1.00 20.00    -0.075 A 
HETATM    3  C3  UNL     1     -33.931  16.564  -4.717  1.00 20.00     0.159 A 
HETATM    4  C4  UNL     1     -33.967  14.087  -3.945  1.00 20.00     0.029 A 
HETATM    5  C5  UNL     1     -35.074  14.458  -4.891  1.00 20.00     0.032 A 
HETATM    6  C6  UNL     1     -34.549  15.481  -3.882  1.00 20.00     0.035 A 
HETATM    7  C7  UNL     1     -35.154  14.361  -7.451  1.00 20.00     0.044 C 
HETATM    8  O11 UNL     1     -33.355  17.540  -4.270  1.00 20.00    -0.292 OA
ENDROOT
BRANCH   6   9
HETATM    9  C10 UNL     1     -35.403  15.847  -2.705  1.00 20.00    -0.006 C 
HETATM   10  C8  UNL     1     -34.551  16.268  -1.498  1.00 20.00     0.011 C 
HETATM   11  C9  UNL     1     -36.391  16.971  -3.053  1.00 20.00     0.011 C 
ENDBRANCH   6   9
TORSDOF 1
ENDMDL
MODEL 6
REMARK VINA RESULT:      -4.2      1.679      2.307
REMARK  1 active torsions:
REMARK  status: ('A' for Active; 'I' for Inactive)
REMARK    1  A    between atoms: C6_6  and  C10_10 
ROOT
HETATM    1  C1  UNL     1     -33.441  18.967  -2.532  1.00 20.00     0.053 A 
HETATM    2  C2  UNL     1     -33.231  18.516  -1.283  1.00 20.00    -0.075 A 
HETATM    3  C3  UNL     1     -34.230  17.925  -3.228  1.00 20.00     0.159 A 
HETATM    4  C4  UNL     1     -35.274  16.951  -1.061  1.00 20.00     0.029 A 
HETATM    5  C5  UNL     1     -33.792  17.186  -0.984  1.00 20.00     0.032 A 
HETATM    6  C6  UNL     1     -34.435  16.760  -2.305  1.00 20.00     0.035 A 
HETATM    7  C7  UNL     1     -32.493  19.261  -0.224  1.00 20.00     0.044 C 
HETATM    8  O11 UNL     1     -34.652  17.988  -4.369  1.00 20.00    -0.292 OA
ENDROOT
BRANCH   6   9
HETATM    9  C10 UNL     1     -34.208  15.365  -2.808  1.00 20.00    -0.006 C 
HETATM   10  C8  UNL     1     -35.455  14.809  -3.512  1.00 20.00     0.011 C 
HETATM   11  C9  UNL     1     -33.006  15.299  -3.763  1.00 20.00     0.011 C 
ENDBRANCH   6   9
TORSDOF 1
ENDMDL
MODEL 7
REMARK VINA RESULT:      -4.2      1.979      4.006
REMARK  1 active torsions:
REMARK  status: ('A' for Active; 'I' for Inactive)
REMARK    1  A    between atoms: C6_6  and  C10_10 
ROOT
HETATM    1  C1  UNL     1     -34.895  14.243  -6.636  1.00 20.00     0.053 A 
HETATM    2  C2  UNL     1     -35.046  15.576  -6.552  1.00 20.00    -0.075 A 
HETATM    3  C3  UNL     1     -34.915  13.729  -5.247  1.00 20.00     0.159 A 
HETATM    4  C4  UNL     1     -36.300  15.708  -4.297  1.00 20.00     0.029 A 
HETATM    5  C5  UNL     1     -35.160  16.118  -5.186  1.00 20.00     0.032 A 
HETATM    6  C6  UNL     1     -35.033  14.882  -4.294  1.00 20.00     0.035 A 
HETATM    7  C7  UNL     1     -35.103  16.500  -7.720  1.00 20.00     0.044 C 
HETATM    8  O11 UNL     1     -34.848  12.559  -4.915  1.00 20.00    -0.292 OA
ENDROOT
BRANCH   6   9
HETATM    9  C10 UNL     1     -34.142  14.942  -3.089  1.00 20.00    -0.006 C 
HETATM   10  C8  UNL     1     -32.660  15.013  -3.487  1.00 20.00     0.011 C 
HETATM   11  C9  UNL     1     -34.490  16.138  -2.190  1.00 20.00     0.011 C 
ENDBRANCH   6   9
TORSDOF 1
ENDMDL
MODEL 8
REMARK VINA RESULT:      -4.2      2.588      3.892
REMARK  1 active torsions:
REMARK  status: ('A' for Active; 'I' for Inactive)
REMARK    1  A    between atoms: C6_6  and  C10_10 
ROOT
HETATM    1  C1  UNL     1     -35.044  14.392  -3.359  1.00 20.00     0.053 A 
HETATM    2  C2  UNL     1     -34.037  14.787  -4.156  1.00 20.00    -0.075 A 
HETATM    3  C3  UNL     1     -36.273  14.427  -4.186  1.00 20.00     0.159 A 
HETATM    4  C4  UNL     1     -35.031  14.112  -6.443  1.00 20.00     0.029 A 
HETATM    5  C5  UNL     1     -34.418  15.141  -5.536  1.00 20.00     0.032 A 
HETATM    6  C6  UNL     1     -35.933  14.939  -5.555  1.00 20.00     0.035 A 
HETATM    7  C7  UNL     1     -32.609  14.880  -3.738  1.00 20.00     0.044 C 
HETATM    8  O11 UNL     1     -37.388  14.096  -3.826  1.00 20.00    -0.292 OA
ENDROOT
BRANCH   6   9
HETATM    9  C10 UNL     1     -36.799  15.986  -6.191  1.00 20.00    -0.006 C 
HETATM   10  C8  UNL     1     -37.984  15.360  -6.941  1.00 20.00     0.011 C 
HETATM   11  C9  UNL     1     -37.321  16.992  -5.154  1.00 20.00     0.011 C 
ENDBRANCH   6   9
TORSDOF 1
ENDMDL
MODEL 9
REMARK VINA RESULT:      -4.1      2.328      3.784
REMARK  1 active torsions:
REMARK  status: ('A' for Active; 'I' for Inactive)
REMARK    1  A    between atoms: C6_6  and  C10_10 
ROOT
HETATM    1  C1  UNL     1     -33.592  17.662  -5.814  1.00 20.00     0.053 A 
HETATM    2  C2  UNL     1     -34.556  17.577  -6.746  1.00 20.00    -0.075 A 
HETATM    3  C3  UNL     1     -33.470  16.314  -5.211  1.00 20.00     0.159 A 
HETATM    4  C4  UNL     1     -34.386  15.057  -7.288  1.00 20.00     0.029 A 
HETATM    5  C5  UNL     1     -35.195  16.256  -6.882  1.00 20.00     0.032 A 
HETATM    6  C6  UNL     1     -34.496  15.405  -5.821  1.00 20.00     0.035 A 
HETATM    7  C7  UNL     1     -34.996  18.703  -7.618  1.00 20.00     0.044 C 
HETATM    8  O11 UNL     1     -32.670  15.982  -4.354  1.00 20.00    -0.292 OA
ENDROOT
BRANCH   6   9
HETATM    9  C10 UNL     1     -35.323  14.521  -4.936  1.00 20.00    -0.006 C 
HETATM   10  C8  UNL     1     -34.613  13.189  -4.645  1.00 20.00     0.011 C 
HETATM   11  C9  UNL     1     -35.672  15.216  -3.611  1.00 20.00     0.011 C 
ENDBRANCH   6   9
TORSDOF 1
ENDMDL
