MODEL 1
REMARK VINA RESULT:      -3.3      0.000      0.000
REMARK  1 active torsions:
REMARK  status: ('A' for Active; 'I' for Inactive)
REMARK    1  A    between atoms: C1_1  and  C5_5 
ROOT
HETATM    1  C2  UNL     1     -35.693   5.661   4.086  1.00 20.00     0.022 C 
HETATM    2  C3  UNL     1     -34.493   3.860   5.359  1.00 20.00     0.022 C 
HETATM    3  C4  UNL     1     -34.421   6.233   6.175  1.00 20.00     0.022 C 
HETATM    4  C5  UNL     1     -34.462   5.332   4.936  1.00 20.00     0.002 C 
ENDROOT
BRANCH   4   5
HETATM    5  C1  UNL     1     -33.222   5.628   4.100  1.00 20.00     0.239 C 
HETATM    6  O6  UNL     1     -33.242   6.013   2.935  1.00 20.00    -0.306 OA
ENDBRANCH   4   5
TORSDOF 1
ENDMDL
MODEL 2
REMARK VINA RESULT:      -3.2      1.519      2.536
REMARK  1 active torsions:
REMARK  status: ('A' for Active; 'I' for Inactive)
REMARK    1  A    between atoms: C1_1  and  C5_5 
ROOT
HETATM    1  C2  UNL     1     -34.479   3.790   5.199  1.00 20.00     0.022 C 
HETATM    2  C3  UNL     1     -35.777   5.590   4.026  1.00 20.00     0.022 C 
HETATM    3  C4  UNL     1     -33.269   5.682   4.074  1.00 20.00     0.022 C 
HETATM    4  C5  UNL     1     -34.526   5.282   4.853  1.00 20.00     0.002 C 
ENDROOT
BRANCH   4   5
HETATM    5  C1  UNL     1     -34.536   6.066   6.161  1.00 20.00     0.239 C 
HETATM    6  O6  UNL     1     -33.637   6.813   6.533  1.00 20.00    -0.306 OA
ENDBRANCH   4   5
TORSDOF 1
ENDMDL
MODEL 3
REMARK VINA RESULT:      -3.2      0.036      1.767
REMARK  1 active torsions:
REMARK  status: ('A' for Active; 'I' for Inactive)
REMARK    1  A    between atoms: C1_1  and  C5_5 
ROOT
HETATM    1  C2  UNL     1     -34.482   3.854   5.316  1.00 20.00     0.022 C 
HETATM    2  C3  UNL     1     -34.452   6.202   6.204  1.00 20.00     0.022 C 
HETATM    3  C4  UNL     1     -35.698   5.677   4.089  1.00 20.00     0.022 C 
HETATM    4  C5  UNL     1     -34.469   5.339   4.939  1.00 20.00     0.002 C 
ENDROOT
BRANCH   4   5
HETATM    5  C1  UNL     1     -33.228   5.597   4.092  1.00 20.00     0.239 C 
HETATM    6  O6  UNL     1     -33.245   5.976   2.926  1.00 20.00    -0.306 OA
ENDBRANCH   4   5
TORSDOF 1
ENDMDL
MODEL 4
REMARK VINA RESULT:      -3.2     11.980     12.598
REMARK  1 active torsions:
REMARK  status: ('A' for Active; 'I' for Inactive)
REMARK    1  A    between atoms: C1_1  and  C5_5 
ROOT
HETATM    1  C2  UNL     1     -34.072  15.635  -5.087  1.00 20.00     0.022 C 
HETATM    2  C3  UNL     1     -34.578  15.630  -2.628  1.00 20.00     0.022 C 
HETATM    3  C4  UNL     1     -32.821  14.092  -3.550  1.00 20.00     0.022 C 
HETATM    4  C5  UNL     1     -34.167  14.769  -3.827  1.00 20.00     0.002 C 
ENDROOT
BRANCH   4   5
HETATM    5  C1  UNL     1     -35.198  13.676  -4.086  1.00 20.00     0.239 C 
HETATM    6  O6  UNL     1     -34.950  12.594  -4.608  1.00 20.00    -0.306 OA
ENDBRANCH   4   5
TORSDOF 1
ENDMDL
MODEL 5
REMARK VINA RESULT:      -3.2     12.001     12.609
REMARK  1 active torsions:
REMARK  status: ('A' for Active; 'I' for Inactive)
REMARK    1  A    between atoms: C1_1  and  C5_5 
ROOT
HETATM    1  C2  UNL     1     -34.652  15.572  -2.655  1.00 20.00     0.022 C 
HETATM    2  C3  UNL     1     -32.831  14.104  -3.567  1.00 20.00     0.022 C 
HETATM    3  C4  UNL     1     -34.073  15.659  -5.097  1.00 20.00     0.022 C 
HETATM    4  C5  UNL     1     -34.185  14.756  -3.865  1.00 20.00     0.002 C 
ENDROOT
BRANCH   4   5
HETATM    5  C1  UNL     1     -35.243  13.698  -4.154  1.00 20.00     0.239 C 
HETATM    6  O6  UNL     1     -35.003  12.562  -4.550  1.00 20.00    -0.306 OA
ENDBRANCH   4   5
TORSDOF 1
ENDMDL
MODEL 6
REMARK VINA RESULT:      -3.2     11.980     12.625
REMARK  1 active torsions:
REMARK  status: ('A' for Active; 'I' for Inactive)
REMARK    1  A    between atoms: C1_1  and  C5_5 
ROOT
HETATM    1  C2  UNL     1     -32.835  14.121  -3.534  1.00 20.00     0.022 C 
HETATM    2  C3  UNL     1     -34.050  15.731  -5.029  1.00 20.00     0.022 C 
HETATM    3  C4  UNL     1     -34.605  15.628  -2.583  1.00 20.00     0.022 C 
HETATM    4  C5  UNL     1     -34.174  14.815  -3.807  1.00 20.00     0.002 C 
ENDROOT
BRANCH   4   5
HETATM    5  C1  UNL     1     -35.222  13.735  -4.046  1.00 20.00     0.239 C 
HETATM    6  O6  UNL     1     -34.984  12.620  -4.498  1.00 20.00    -0.306 OA
ENDBRANCH   4   5
TORSDOF 1
ENDMDL
MODEL 7
REMARK VINA RESULT:      -3.1      1.656      2.633
REMARK  1 active torsions:
REMARK  status: ('A' for Active; 'I' for Inactive)
REMARK    1  A    between atoms: C1_1  and  C5_5 
ROOT
HETATM    1  C2  UNL     1     -34.216   6.579   5.959  1.00 20.00     0.022 C 
HETATM    2  C3  UNL     1     -33.067   5.934   3.822  1.00 20.00     0.022 C 
HETATM    3  C4  UNL     1     -35.569   5.808   3.988  1.00 20.00     0.022 C 
HETATM    4  C5  UNL     1     -34.251   5.639   4.749  1.00 20.00     0.002 C 
ENDROOT
BRANCH   4   5
HETATM    5  C1  UNL     1     -34.187   4.207   5.267  1.00 20.00     0.239 C 
HETATM    6  O6  UNL     1     -35.122   3.413   5.238  1.00 20.00    -0.306 OA
ENDBRANCH   4   5
TORSDOF 1
ENDMDL
MODEL 8
REMARK VINA RESULT:      -3.0     12.024     12.727
REMARK  1 active torsions:
REMARK  status: ('A' for Active; 'I' for Inactive)
REMARK    1  A    between atoms: C1_1  and  C5_5 
ROOT
HETATM    1  C2  UNL     1     -35.723  15.381  -4.598  1.00 20.00     0.022 C 
HETATM    2  C3  UNL     1     -34.725  15.747  -2.324  1.00 20.00     0.022 C 
HETATM    3  C4  UNL     1     -33.263  15.830  -4.363  1.00 20.00     0.022 C 
HETATM    4  C5  UNL     1     -34.485  15.166  -3.722  1.00 20.00     0.002 C 
ENDROOT
BRANCH   4   5
HETATM    5  C1  UNL     1     -34.219  13.667  -3.645  1.00 20.00     0.239 C 
HETATM    6  O6  UNL     1     -34.906  12.809  -4.189  1.00 20.00    -0.306 OA
ENDBRANCH   4   5
TORSDOF 1
ENDMDL
MODEL 9
REMARK VINA RESULT:      -3.0     12.599     13.370
REMARK  1 active torsions:
REMARK  status: ('A' for Active; 'I' for Inactive)
REMARK    1  A    between atoms: C1_1  and  C5_5 
ROOT
HETATM    1  C2  UNL     1     -33.249  15.829  -4.298  1.00 20.00     0.022 C 
HETATM    2  C3  UNL     1     -34.300  15.107  -6.460  1.00 20.00     0.022 C 
HETATM    3  C4  UNL     1     -35.721  15.397  -4.411  1.00 20.00     0.022 C 
HETATM    4  C5  UNL     1     -34.346  14.970  -4.935  1.00 20.00     0.002 C 
ENDROOT
BRANCH   4   5
HETATM    5  C1  UNL     1     -34.113  13.524  -4.515  1.00 20.00     0.239 C 
HETATM    6  O6  UNL     1     -34.996  12.682  -4.392  1.00 20.00    -0.306 OA
ENDBRANCH   4   5
TORSDOF 1
ENDMDL
