MODEL 1
REMARK VINA RESULT:      -5.2      0.000      0.000
REMARK  1 active torsions:
REMARK  status: ('A' for Active; 'I' for Inactive)
REMARK    1  A    between atoms: C6_6  and  C9_9 
ROOT
HETATM    1  C1  UNL     1     -34.993   4.963   5.541  1.00 20.00     0.127 C 
HETATM    2  C2  UNL     1     -35.308   5.063   4.066  1.00 20.00     0.079 C 
HETATM    3  C3  UNL     1     -34.294   6.151   6.162  1.00 20.00     0.079 C 
HETATM    4  C4  UNL     1     -34.076   5.488   3.280  1.00 20.00     0.012 C 
HETATM    5  C5  UNL     1     -33.081   6.554   5.333  1.00 20.00     0.012 C 
HETATM    6  C6  UNL     1     -33.443   6.764   3.856  1.00 20.00    -0.010 C 
HETATM    7  O10 UNL     1     -35.377   4.013   6.220  1.00 20.00    -0.298 OA
ENDROOT
BRANCH   6   8
HETATM    8  C9  UNL     1     -32.208   7.162   3.050  1.00 20.00    -0.019 C 
HETATM    9  C7  UNL     1     -32.567   8.214   2.003  1.00 20.00     0.010 C 
HETATM   10  C8  UNL     1     -31.108   7.679   3.975  1.00 20.00     0.010 C 
ENDBRANCH   6   8
TORSDOF 1
ENDMDL
MODEL 2
REMARK VINA RESULT:      -4.8     11.572     12.190
REMARK  1 active torsions:
REMARK  status: ('A' for Active; 'I' for Inactive)
REMARK    1  A    between atoms: C6_6  and  C9_9 
ROOT
HETATM    1  C1  UNL     1     -34.937  13.802  -4.145  1.00 20.00     0.127 C 
HETATM    2  C2  UNL     1     -33.576  14.407  -4.403  1.00 20.00     0.079 C 
HETATM    3  C3  UNL     1     -36.018  14.751  -3.680  1.00 20.00     0.079 C 
HETATM    4  C4  UNL     1     -33.133  15.258  -3.221  1.00 20.00     0.012 C 
HETATM    5  C5  UNL     1     -35.526  15.596  -2.512  1.00 20.00     0.012 C 
HETATM    6  C6  UNL     1     -34.198  16.295  -2.834  1.00 20.00    -0.010 C 
HETATM    7  O10 UNL     1     -35.178  12.624  -4.400  1.00 20.00    -0.298 OA
ENDROOT
BRANCH   6   8
HETATM    8  C9  UNL     1     -33.727  17.130  -1.643  1.00 20.00    -0.019 C 
HETATM    9  C7  UNL     1     -33.636  18.606  -2.025  1.00 20.00     0.010 C 
HETATM   10  C8  UNL     1     -34.662  16.940  -0.452  1.00 20.00     0.010 C 
ENDBRANCH   6   8
TORSDOF 1
ENDMDL
MODEL 3
REMARK VINA RESULT:      -4.6     11.469     13.378
REMARK  1 active torsions:
REMARK  status: ('A' for Active; 'I' for Inactive)
REMARK    1  A    between atoms: C6_6  and  C9_9 
ROOT
HETATM    1  C1  UNL     1     -34.437  13.577  -4.685  1.00 20.00     0.127 C 
HETATM    2  C2  UNL     1     -33.305  14.059  -3.806  1.00 20.00     0.079 C 
HETATM    3  C3  UNL     1     -34.599  14.277  -6.015  1.00 20.00     0.079 C 
HETATM    4  C4  UNL     1     -33.342  15.574  -3.664  1.00 20.00     0.012 C 
HETATM    5  C5  UNL     1     -34.610  15.789  -5.830  1.00 20.00     0.012 C 
HETATM    6  C6  UNL     1     -33.392  16.274  -5.031  1.00 20.00    -0.010 C 
HETATM    7  O10 UNL     1     -35.119  12.601  -4.381  1.00 20.00    -0.298 OA
ENDROOT
BRANCH   6   8
HETATM    8  C9  UNL     1     -33.432  17.792  -4.857  1.00 20.00    -0.019 C 
HETATM    9  C7  UNL     1     -33.830  18.471  -6.165  1.00 20.00     0.010 C 
HETATM   10  C8  UNL     1     -34.395  18.177  -3.736  1.00 20.00     0.010 C 
ENDBRANCH   6   8
TORSDOF 1
ENDMDL
MODEL 4
REMARK VINA RESULT:      -4.6     11.733     12.333
REMARK  1 active torsions:
REMARK  status: ('A' for Active; 'I' for Inactive)
REMARK    1  A    between atoms: C6_6  and  C9_9 
ROOT
HETATM    1  C1  UNL     1     -35.013  14.041  -4.755  1.00 20.00     0.127 C 
HETATM    2  C2  UNL     1     -36.131  14.583  -3.895  1.00 20.00     0.079 C 
HETATM    3  C3  UNL     1     -33.676  13.845  -4.077  1.00 20.00     0.079 C 
HETATM    4  C4  UNL     1     -35.676  15.824  -3.140  1.00 20.00     0.012 C 
HETATM    5  C5  UNL     1     -33.270  15.102  -3.318  1.00 20.00     0.012 C 
HETATM    6  C6  UNL     1     -34.375  15.574  -2.363  1.00 20.00    -0.010 C 
HETATM    7  O10 UNL     1     -35.208  13.680  -5.914  1.00 20.00    -0.298 OA
ENDROOT
BRANCH   6   8
HETATM    8  C9  UNL     1     -33.941  16.838  -1.620  1.00 20.00    -0.019 C 
HETATM    9  C7  UNL     1     -34.091  18.065  -2.516  1.00 20.00     0.010 C 
HETATM   10  C8  UNL     1     -34.747  17.008  -0.335  1.00 20.00     0.010 C 
ENDBRANCH   6   8
TORSDOF 1
ENDMDL
MODEL 5
REMARK VINA RESULT:      -4.4     11.799     12.927
REMARK  1 active torsions:
REMARK  status: ('A' for Active; 'I' for Inactive)
REMARK    1  A    between atoms: C6_6  and  C9_9 
ROOT
HETATM    1  C1  UNL     1     -34.163  15.125  -4.766  1.00 20.00     0.127 C 
HETATM    2  C2  UNL     1     -34.313  14.470  -3.411  1.00 20.00     0.079 C 
HETATM    3  C3  UNL     1     -33.286  16.355  -4.825  1.00 20.00     0.079 C 
HETATM    4  C4  UNL     1     -34.687  15.500  -2.355  1.00 20.00     0.012 C 
HETATM    5  C5  UNL     1     -33.681  17.348  -3.738  1.00 20.00     0.012 C 
HETATM    6  C6  UNL     1     -33.717  16.691  -2.351  1.00 20.00    -0.010 C 
HETATM    7  O10 UNL     1     -34.641  14.623  -5.781  1.00 20.00    -0.298 OA
ENDROOT
BRANCH   6   8
HETATM    8  C9  UNL     1     -34.120  17.709  -1.285  1.00 20.00    -0.019 C 
HETATM    9  C7  UNL     1     -34.793  17.011  -0.105  1.00 20.00     0.010 C 
HETATM   10  C8  UNL     1     -32.904  18.504  -0.816  1.00 20.00     0.010 C 
ENDBRANCH   6   8
TORSDOF 1
ENDMDL
MODEL 6
REMARK VINA RESULT:      -4.3      2.418      4.176
REMARK  1 active torsions:
REMARK  status: ('A' for Active; 'I' for Inactive)
REMARK    1  A    between atoms: C6_6  and  C9_9 
ROOT
HETATM    1  C1  UNL     1     -32.122   7.359   2.522  1.00 20.00     0.127 C 
HETATM    2  C2  UNL     1     -32.723   6.045   2.078  1.00 20.00     0.079 C 
HETATM    3  C3  UNL     1     -31.812   7.494   3.995  1.00 20.00     0.079 C 
HETATM    4  C4  UNL     1     -33.908   5.671   2.957  1.00 20.00     0.012 C 
HETATM    5  C5  UNL     1     -33.016   7.091   4.836  1.00 20.00     0.012 C 
HETATM    6  C6  UNL     1     -33.544   5.702   4.449  1.00 20.00    -0.010 C 
HETATM    7  O10 UNL     1     -31.805   8.229   1.713  1.00 20.00    -0.298 OA
ENDROOT
BRANCH   6   8
HETATM    8  C9  UNL     1     -34.753   5.328   5.305  1.00 20.00    -0.019 C 
HETATM    9  C7  UNL     1     -34.956   3.815   5.315  1.00 20.00     0.010 C 
HETATM   10  C8  UNL     1     -34.586   5.856   6.728  1.00 20.00     0.010 C 
ENDBRANCH   6   8
TORSDOF 1
ENDMDL
MODEL 7
REMARK VINA RESULT:      -4.2     11.335     13.370
REMARK  1 active torsions:
REMARK  status: ('A' for Active; 'I' for Inactive)
REMARK    1  A    between atoms: C6_6  and  C9_9 
ROOT
HETATM    1  C1  UNL     1     -33.507  13.764  -3.906  1.00 20.00     0.127 C 
HETATM    2  C2  UNL     1     -34.798  13.427  -4.618  1.00 20.00     0.079 C 
HETATM    3  C3  UNL     1     -33.292  15.217  -3.553  1.00 20.00     0.079 C 
HETATM    4  C4  UNL     1     -35.012  14.351  -5.809  1.00 20.00     0.012 C 
HETATM    5  C5  UNL     1     -33.536  16.106  -4.766  1.00 20.00     0.012 C 
HETATM    6  C6  UNL     1     -34.903  15.831  -5.410  1.00 20.00    -0.010 C 
HETATM    7  O10 UNL     1     -32.725  12.888  -3.541  1.00 20.00    -0.298 OA
ENDROOT
BRANCH   6   8
HETATM    8  C9  UNL     1     -35.117  16.733  -6.625  1.00 20.00    -0.019 C 
HETATM    9  C7  UNL     1     -34.099  17.870  -6.635  1.00 20.00     0.010 C 
HETATM   10  C8  UNL     1     -35.031  15.922  -7.915  1.00 20.00     0.010 C 
ENDBRANCH   6   8
TORSDOF 1
ENDMDL
MODEL 8
REMARK VINA RESULT:      -4.2     11.659     12.569
REMARK  1 active torsions:
REMARK  status: ('A' for Active; 'I' for Inactive)
REMARK    1  A    between atoms: C6_6  and  C9_9 
ROOT
HETATM    1  C1  UNL     1     -37.059  14.855  -3.797  1.00 20.00     0.127 C 
HETATM    2  C2  UNL     1     -35.648  14.327  -3.932  1.00 20.00     0.079 C 
HETATM    3  C3  UNL     1     -37.210  16.357  -3.721  1.00 20.00     0.079 C 
HETATM    4  C4  UNL     1     -34.738  14.951  -2.884  1.00 20.00     0.012 C 
HETATM    5  C5  UNL     1     -36.267  16.941  -2.677  1.00 20.00     0.012 C 
HETATM    6  C6  UNL     1     -34.818  16.485  -2.898  1.00 20.00    -0.010 C 
HETATM    7  O10 UNL     1     -38.034  14.109  -3.851  1.00 20.00    -0.298 OA
ENDROOT
BRANCH   6   8
HETATM    8  C9  UNL     1     -33.898  17.081  -1.834  1.00 20.00    -0.019 C 
HETATM    9  C7  UNL     1     -33.572  18.536  -2.161  1.00 20.00     0.010 C 
HETATM   10  C8  UNL     1     -34.535  16.971  -0.451  1.00 20.00     0.010 C 
ENDBRANCH   6   8
TORSDOF 1
ENDMDL
MODEL 9
REMARK VINA RESULT:      -4.2     11.872     13.104
REMARK  1 active torsions:
REMARK  status: ('A' for Active; 'I' for Inactive)
REMARK    1  A    between atoms: C6_6  and  C9_9 
ROOT
HETATM    1  C1  UNL     1     -33.873  17.367  -2.013  1.00 20.00     0.127 C 
HETATM    2  C2  UNL     1     -34.768  16.163  -1.824  1.00 20.00     0.079 C 
HETATM    3  C3  UNL     1     -33.800  17.938  -3.411  1.00 20.00     0.079 C 
HETATM    4  C4  UNL     1     -34.469  15.100  -2.871  1.00 20.00     0.012 C 
HETATM    5  C5  UNL     1     -33.520  16.838  -4.427  1.00 20.00     0.012 C 
HETATM    6  C6  UNL     1     -34.511  15.673  -4.295  1.00 20.00    -0.010 C 
HETATM    7  O10 UNL     1     -33.318  17.914  -1.062  1.00 20.00    -0.298 OA
ENDROOT
BRANCH   6   8
HETATM    8  C9  UNL     1     -34.203  14.585  -5.322  1.00 20.00    -0.019 C 
HETATM    9  C7  UNL     1     -34.779  13.245  -4.874  1.00 20.00     0.010 C 
HETATM   10  C8  UNL     1     -34.749  14.972  -6.694  1.00 20.00     0.010 C 
ENDBRANCH   6   8
TORSDOF 1
ENDMDL
