MODEL 1
REMARK VINA RESULT:      -4.8      0.000      0.000
REMARK  1 active torsions:
REMARK  status: ('A' for Active; 'I' for Inactive)
REMARK    1  A    between atoms: C3_3  and  C6_6 
ROOT
HETATM    1  C1  UNL     1     -35.283   4.262   5.843  1.00 20.00    -0.030 C 
HETATM    2  C2  UNL     1     -34.982   4.109   4.548  1.00 20.00    -0.026 C 
HETATM    3  C4  UNL     1     -34.791   5.408   6.668  1.00 20.00     0.031 C 
HETATM    4  C5  UNL     1     -34.146   5.087   3.763  1.00 20.00     0.014 C 
HETATM    5  C6  UNL     1     -33.872   6.407   4.528  1.00 20.00     0.058 C 
HETATM    6  C7  UNL     1     -33.606   6.154   6.027  1.00 20.00    -0.004 C 
HETATM    7  C8  UNL     1     -34.822   5.376   2.417  1.00 20.00     0.015 C 
HETATM    8  C9  UNL     1     -33.347   7.452   6.799  1.00 20.00     0.011 C 
ENDROOT
BRANCH   5   9
HETATM    9  C3  UNL     1     -32.684   7.079   3.901  1.00 20.00     0.236 C 
HETATM   10  O10 UNL     1     -31.779   6.470   3.342  1.00 20.00    -0.306 OA
ENDBRANCH   5   9
TORSDOF 1
ENDMDL
MODEL 2
REMARK VINA RESULT:      -4.8     12.628     14.481
REMARK  1 active torsions:
REMARK  status: ('A' for Active; 'I' for Inactive)
REMARK    1  A    between atoms: C3_3  and  C6_6 
ROOT
HETATM    1  C1  UNL     1     -33.827  17.570  -5.903  1.00 20.00    -0.030 C 
HETATM    2  C2  UNL     1     -33.386  17.097  -4.731  1.00 20.00    -0.026 C 
HETATM    3  C4  UNL     1     -34.544  16.725  -6.908  1.00 20.00     0.031 C 
HETATM    4  C5  UNL     1     -33.591  15.676  -4.272  1.00 20.00     0.014 C 
HETATM    5  C6  UNL     1     -34.569  14.880  -5.172  1.00 20.00     0.058 C 
HETATM    6  C7  UNL     1     -34.373  15.214  -6.666  1.00 20.00    -0.004 C 
HETATM    7  C8  UNL     1     -34.074  15.671  -2.816  1.00 20.00     0.015 C 
HETATM    8  C9  UNL     1     -35.344  14.443  -7.567  1.00 20.00     0.011 C 
ENDROOT
BRANCH   5   9
HETATM    9  C3  UNL     1     -34.339  13.413  -4.939  1.00 20.00     0.236 C 
HETATM   10  O10 UNL     1     -35.125  12.694  -4.332  1.00 20.00    -0.306 OA
ENDBRANCH   5   9
TORSDOF 1
ENDMDL
MODEL 3
REMARK VINA RESULT:      -4.5      0.692      2.851
REMARK  1 active torsions:
REMARK  status: ('A' for Active; 'I' for Inactive)
REMARK    1  A    between atoms: C3_3  and  C6_6 
ROOT
HETATM    1  C1  UNL     1     -35.180   4.289   5.965  1.00 20.00    -0.030 C 
HETATM    2  C2  UNL     1     -34.871   5.463   6.528  1.00 20.00    -0.026 C 
HETATM    3  C4  UNL     1     -34.908   3.974   4.528  1.00 20.00     0.031 C 
HETATM    4  C5  UNL     1     -34.184   6.588   5.795  1.00 20.00     0.014 C 
HETATM    5  C6  UNL     1     -33.650   6.169   4.401  1.00 20.00     0.058 C 
HETATM    6  C7  UNL     1     -34.628   5.224   3.674  1.00 20.00    -0.004 C 
HETATM    7  C8  UNL     1     -33.049   7.147   6.661  1.00 20.00     0.015 C 
HETATM    8  C9  UNL     1     -34.105   4.792   2.299  1.00 20.00     0.011 C 
ENDROOT
BRANCH   5   9
HETATM    9  C3  UNL     1     -33.433   7.413   3.586  1.00 20.00     0.236 C 
HETATM   10  O10 UNL     1     -32.407   7.635   2.952  1.00 20.00    -0.306 OA
ENDBRANCH   5   9
TORSDOF 1
ENDMDL
MODEL 4
REMARK VINA RESULT:      -4.5      1.698      3.055
REMARK  1 active torsions:
REMARK  status: ('A' for Active; 'I' for Inactive)
REMARK    1  A    between atoms: C3_3  and  C6_6 
ROOT
HETATM    1  C1  UNL     1     -34.657   5.170   2.801  1.00 20.00    -0.030 C 
HETATM    2  C2  UNL     1     -35.323   5.014   3.951  1.00 20.00    -0.026 C 
HETATM    3  C4  UNL     1     -33.373   5.931   2.695  1.00 20.00     0.031 C 
HETATM    4  C5  UNL     1     -34.843   5.551   5.275  1.00 20.00     0.014 C 
HETATM    5  C6  UNL     1     -33.389   6.088   5.224  1.00 20.00     0.058 C 
HETATM    6  C7  UNL     1     -33.104   6.840   3.908  1.00 20.00    -0.004 C 
HETATM    7  C8  UNL     1     -34.977   4.465   6.349  1.00 20.00     0.015 C 
HETATM    8  C9  UNL     1     -31.665   7.365   3.837  1.00 20.00     0.011 C 
ENDROOT
BRANCH   5   9
HETATM    9  C3  UNL     1     -33.182   7.005   6.396  1.00 20.00     0.236 C 
HETATM   10  O10 UNL     1     -34.102   7.512   7.028  1.00 20.00    -0.306 OA
ENDBRANCH   5   9
TORSDOF 1
ENDMDL
MODEL 5
REMARK VINA RESULT:      -4.4     12.835     14.446
REMARK  1 active torsions:
REMARK  status: ('A' for Active; 'I' for Inactive)
REMARK    1  A    between atoms: C3_3  and  C6_6 
ROOT
HETATM    1  C1  UNL     1     -34.130  17.510  -6.455  1.00 20.00    -0.030 C 
HETATM    2  C2  UNL     1     -35.060  16.760  -7.058  1.00 20.00    -0.026 C 
HETATM    3  C4  UNL     1     -33.392  17.072  -5.230  1.00 20.00     0.031 C 
HETATM    4  C5  UNL     1     -35.446  15.377  -6.598  1.00 20.00     0.014 C 
HETATM    5  C6  UNL     1     -34.495  14.809  -5.513  1.00 20.00     0.058 C 
HETATM    6  C7  UNL     1     -34.065  15.893  -4.504  1.00 20.00    -0.004 C 
HETATM    7  C8  UNL     1     -35.509  14.433  -7.805  1.00 20.00     0.015 C 
HETATM    8  C9  UNL     1     -33.114  15.348  -3.433  1.00 20.00     0.011 C 
ENDROOT
BRANCH   5   9
HETATM    9  C3  UNL     1     -35.205  13.693  -4.799  1.00 20.00     0.236 C 
HETATM   10  O10 UNL     1     -34.802  12.536  -4.784  1.00 20.00    -0.306 OA
ENDBRANCH   5   9
TORSDOF 1
ENDMDL
MODEL 6
REMARK VINA RESULT:      -4.3     12.314     13.002
REMARK  1 active torsions:
REMARK  status: ('A' for Active; 'I' for Inactive)
REMARK    1  A    between atoms: C3_3  and  C6_6 
ROOT
HETATM    1  C1  UNL     1     -35.432  16.756  -2.355  1.00 20.00    -0.030 C 
HETATM    2  C2  UNL     1     -36.446  16.251  -3.066  1.00 20.00    -0.026 C 
HETATM    3  C4  UNL     1     -34.016  16.297  -2.508  1.00 20.00     0.031 C 
HETATM    4  C5  UNL     1     -36.280  15.193  -4.127  1.00 20.00     0.014 C 
HETATM    5  C6  UNL     1     -34.797  14.919  -4.487  1.00 20.00     0.058 C 
HETATM    6  C7  UNL     1     -33.891  14.947  -3.238  1.00 20.00    -0.004 C 
HETATM    7  C8  UNL     1     -37.072  15.589  -5.378  1.00 20.00     0.015 C 
HETATM    8  C9  UNL     1     -32.419  14.691  -3.581  1.00 20.00     0.011 C 
ENDROOT
BRANCH   5   9
HETATM    9  C3  UNL     1     -34.712  13.576  -5.155  1.00 20.00     0.236 C 
HETATM   10  O10 UNL     1     -35.014  12.525  -4.600  1.00 20.00    -0.306 OA
ENDBRANCH   5   9
TORSDOF 1
ENDMDL
MODEL 7
REMARK VINA RESULT:      -4.3     12.497     14.124
REMARK  1 active torsions:
REMARK  status: ('A' for Active; 'I' for Inactive)
REMARK    1  A    between atoms: C3_3  and  C6_6 
ROOT
HETATM    1  C1  UNL     1     -33.198  16.577  -5.271  1.00 20.00    -0.030 C 
HETATM    2  C2  UNL     1     -33.312  16.194  -3.994  1.00 20.00    -0.026 C 
HETATM    3  C4  UNL     1     -34.203  16.230  -6.323  1.00 20.00     0.031 C 
HETATM    4  C5  UNL     1     -34.478  15.402  -3.459  1.00 20.00     0.014 C 
HETATM    5  C6  UNL     1     -35.648  15.284  -4.469  1.00 20.00     0.058 C 
HETATM    6  C7  UNL     1     -35.140  15.080  -5.912  1.00 20.00    -0.004 C 
HETATM    7  C8  UNL     1     -34.963  16.026  -2.145  1.00 20.00     0.015 C 
HETATM    8  C9  UNL     1     -36.287  14.975  -6.923  1.00 20.00     0.011 C 
ENDROOT
BRANCH   5   9
HETATM    9  C3  UNL     1     -36.512  14.125  -4.058  1.00 20.00     0.236 C 
HETATM   10  O10 UNL     1     -37.695  14.237  -3.758  1.00 20.00    -0.306 OA
ENDBRANCH   5   9
TORSDOF 1
ENDMDL
MODEL 8
REMARK VINA RESULT:      -4.3     12.363     13.031
REMARK  1 active torsions:
REMARK  status: ('A' for Active; 'I' for Inactive)
REMARK    1  A    between atoms: C3_3  and  C6_6 
ROOT
HETATM    1  C1  UNL     1     -37.224  15.593  -3.413  1.00 20.00    -0.030 C 
HETATM    2  C2  UNL     1     -36.434  16.472  -2.787  1.00 20.00    -0.026 C 
HETATM    3  C4  UNL     1     -36.700  14.402  -4.153  1.00 20.00     0.031 C 
HETATM    4  C5  UNL     1     -34.933  16.350  -2.722  1.00 20.00     0.014 C 
HETATM    5  C6  UNL     1     -34.411  14.983  -3.236  1.00 20.00     0.058 C 
HETATM    6  C7  UNL     1     -35.197  14.499  -4.472  1.00 20.00    -0.004 C 
HETATM    7  C8  UNL     1     -34.458  16.600  -1.285  1.00 20.00     0.015 C 
HETATM    8  C9  UNL     1     -34.700  13.142  -4.983  1.00 20.00     0.011 C 
ENDROOT
BRANCH   5   9
HETATM    9  C3  UNL     1     -32.955  15.132  -3.579  1.00 20.00     0.236 C 
HETATM   10  O10 UNL     1     -32.540  15.881  -4.457  1.00 20.00    -0.306 OA
ENDBRANCH   5   9
TORSDOF 1
ENDMDL
MODEL 9
REMARK VINA RESULT:      -4.2     12.334     13.300
REMARK  1 active torsions:
REMARK  status: ('A' for Active; 'I' for Inactive)
REMARK    1  A    between atoms: C3_3  and  C6_6 
ROOT
HETATM    1  C1  UNL     1     -33.780  16.100  -2.471  1.00 20.00    -0.030 C 
HETATM    2  C2  UNL     1     -34.938  16.748  -2.296  1.00 20.00    -0.026 C 
HETATM    3  C4  UNL     1     -33.635  14.909  -3.364  1.00 20.00     0.031 C 
HETATM    4  C5  UNL     1     -36.218  16.379  -3.001  1.00 20.00     0.014 C 
HETATM    5  C6  UNL     1     -36.012  15.336  -4.130  1.00 20.00     0.058 C 
HETATM    6  C7  UNL     1     -34.982  14.259  -3.734  1.00 20.00    -0.004 C 
HETATM    7  C8  UNL     1     -36.884  17.645  -3.553  1.00 20.00     0.015 C 
HETATM    8  C9  UNL     1     -34.759  13.229  -4.846  1.00 20.00     0.011 C 
ENDROOT
BRANCH   5   9
HETATM    9  C3  UNL     1     -37.338  14.695  -4.428  1.00 20.00     0.236 C 
HETATM   10  O10 UNL     1     -38.094  14.271  -3.561  1.00 20.00    -0.306 OA
ENDBRANCH   5   9
TORSDOF 1
ENDMDL
