MODEL 1
REMARK VINA RESULT:      -4.9      0.000      0.000
REMARK  1 active torsions:
REMARK  status: ('A' for Active; 'I' for Inactive)
REMARK    1  A    between atoms: C8_8  and  O9_9 
ROOT
HETATM    1  C1  UNL     1     -31.874   7.391   2.621  1.00 20.00     0.015 C 
HETATM    2  C2  UNL     1     -32.770   6.947   3.283  1.00 20.00    -0.079 C 
HETATM    3  C3  UNL     1     -34.872   4.344   5.993  1.00 20.00     0.000 C 
HETATM    4  C4  UNL     1     -35.268   4.314   4.521  1.00 20.00     0.004 C 
HETATM    5  C5  UNL     1     -34.558   5.761   6.463  1.00 20.00     0.004 C 
HETATM    6  C6  UNL     1     -34.206   4.975   3.638  1.00 20.00     0.051 C 
HETATM    7  C7  UNL     1     -33.494   6.422   5.587  1.00 20.00     0.051 C 
HETATM    8  C8  UNL     1     -33.871   6.402   4.097  1.00 20.00     0.120 C 
ENDROOT
BRANCH   8   9
HETATM    9  O9  UNL     1     -35.032   7.212   3.897  1.00 20.00    -0.378 OA
HETATM   10  H21 UNL     1     -34.743   8.132   3.987  1.00 20.00     0.211 HD
ENDBRANCH   8   9
TORSDOF 1
ENDMDL
MODEL 2
REMARK VINA RESULT:      -4.7     11.769     13.008
REMARK  1 active torsions:
REMARK  status: ('A' for Active; 'I' for Inactive)
REMARK    1  A    between atoms: C8_8  and  O9_9 
ROOT
HETATM    1  C1  UNL     1     -33.773  17.018  -1.578  1.00 20.00     0.015 C 
HETATM    2  C2  UNL     1     -33.709  16.343  -2.568  1.00 20.00    -0.079 C 
HETATM    3  C3  UNL     1     -35.012  14.044  -5.967  1.00 20.00     0.000 C 
HETATM    4  C4  UNL     1     -34.363  13.299  -4.805  1.00 20.00     0.004 C 
HETATM    5  C5  UNL     1     -34.327  15.382  -6.230  1.00 20.00     0.004 C 
HETATM    6  C6  UNL     1     -34.313  14.160  -3.541  1.00 20.00     0.051 C 
HETATM    7  C7  UNL     1     -34.281  16.247  -4.971  1.00 20.00     0.051 C 
HETATM    8  C8  UNL     1     -33.632  15.515  -3.785  1.00 20.00     0.120 C 
ENDROOT
BRANCH   8   9
HETATM    9  O9  UNL     1     -32.256  15.268  -4.083  1.00 20.00    -0.378 OA
HETATM   10  H21 UNL     1     -31.938  14.646  -3.413  1.00 20.00     0.211 HD
ENDBRANCH   8   9
TORSDOF 1
ENDMDL
MODEL 3
REMARK VINA RESULT:      -4.5     11.537     12.718
REMARK  1 active torsions:
REMARK  status: ('A' for Active; 'I' for Inactive)
REMARK    1  A    between atoms: C8_8  and  O9_9 
ROOT
HETATM    1  C1  UNL     1     -34.501  16.637  -1.047  1.00 20.00     0.015 C 
HETATM    2  C2  UNL     1     -34.884  16.045  -2.019  1.00 20.00    -0.079 C 
HETATM    3  C3  UNL     1     -34.827  14.281  -5.945  1.00 20.00     0.000 C 
HETATM    4  C4  UNL     1     -35.698  15.514  -5.727  1.00 20.00     0.004 C 
HETATM    5  C5  UNL     1     -34.868  13.344  -4.742  1.00 20.00     0.004 C 
HETATM    6  C6  UNL     1     -35.326  16.245  -4.435  1.00 20.00     0.051 C 
HETATM    7  C7  UNL     1     -34.491  14.070  -3.450  1.00 20.00     0.051 C 
HETATM    8  C8  UNL     1     -35.355  15.319  -3.211  1.00 20.00     0.120 C 
ENDROOT
BRANCH   8   9
HETATM    9  O9  UNL     1     -36.709  14.916  -2.996  1.00 20.00    -0.378 OA
HETATM   10  H21 UNL     1     -37.263  15.557  -3.466  1.00 20.00     0.211 HD
ENDBRANCH   8   9
TORSDOF 1
ENDMDL
MODEL 4
REMARK VINA RESULT:      -4.5      9.243     10.412
REMARK  1 active torsions:
REMARK  status: ('A' for Active; 'I' for Inactive)
REMARK    1  A    between atoms: C8_8  and  O9_9 
ROOT
HETATM    1  C1  UNL     1     -41.646   2.359  -3.362  1.00 20.00     0.015 C 
HETATM    2  C2  UNL     1     -41.791   3.312  -2.647  1.00 20.00    -0.079 C 
HETATM    3  C3  UNL     1     -41.138   7.215  -0.953  1.00 20.00     0.000 C 
HETATM    4  C4  UNL     1     -40.776   5.998  -0.108  1.00 20.00     0.004 C 
HETATM    5  C5  UNL     1     -42.421   6.987  -1.747  1.00 20.00     0.004 C 
HETATM    6  C6  UNL     1     -40.690   4.728  -0.956  1.00 20.00     0.051 C 
HETATM    7  C7  UNL     1     -42.337   5.721  -2.601  1.00 20.00     0.051 C 
HETATM    8  C8  UNL     1     -41.970   4.481  -1.770  1.00 20.00     0.120 C 
ENDROOT
BRANCH   8   9
HETATM    9  O9  UNL     1     -43.029   4.206  -0.850  1.00 20.00    -0.378 OA
HETATM   10  H21 UNL     1     -43.834   4.575  -1.240  1.00 20.00     0.211 HD
ENDBRANCH   8   9
TORSDOF 1
ENDMDL
MODEL 5
REMARK VINA RESULT:      -4.4      1.449      2.231
REMARK  1 active torsions:
REMARK  status: ('A' for Active; 'I' for Inactive)
REMARK    1  A    between atoms: C8_8  and  O9_9 
ROOT
HETATM    1  C1  UNL     1     -32.195   8.322   1.993  1.00 20.00     0.015 C 
HETATM    2  C2  UNL     1     -32.570   7.439   2.715  1.00 20.00    -0.079 C 
HETATM    3  C3  UNL     1     -35.129   5.221   5.373  1.00 20.00     0.000 C 
HETATM    4  C4  UNL     1     -33.865   5.847   5.953  1.00 20.00     0.004 C 
HETATM    5  C5  UNL     1     -34.886   4.654   3.977  1.00 20.00     0.004 C 
HETATM    6  C6  UNL     1     -33.277   6.904   5.015  1.00 20.00     0.051 C 
HETATM    7  C7  UNL     1     -34.304   5.709   3.035  1.00 20.00     0.051 C 
HETATM    8  C8  UNL     1     -33.030   6.356   3.601  1.00 20.00     0.120 C 
ENDROOT
BRANCH   8   9
HETATM    9  O9  UNL     1     -32.002   5.367   3.687  1.00 20.00    -0.378 OA
HETATM   10  H21 UNL     1     -32.386   4.543   3.352  1.00 20.00     0.211 HD
ENDBRANCH   8   9
TORSDOF 1
ENDMDL
MODEL 6
REMARK VINA RESULT:      -4.3     11.659     13.401
REMARK  1 active torsions:
REMARK  status: ('A' for Active; 'I' for Inactive)
REMARK    1  A    between atoms: C8_8  and  O9_9 
ROOT
HETATM    1  C1  UNL     1     -33.862  18.698  -3.643  1.00 20.00     0.015 C 
HETATM    2  C2  UNL     1     -33.787  17.550  -3.984  1.00 20.00    -0.079 C 
HETATM    3  C3  UNL     1     -35.004  13.500  -4.792  1.00 20.00     0.000 C 
HETATM    4  C4  UNL     1     -34.054  13.742  -3.624  1.00 20.00     0.004 C 
HETATM    5  C5  UNL     1     -34.673  14.397  -5.981  1.00 20.00     0.004 C 
HETATM    6  C6  UNL     1     -34.023  15.218  -3.220  1.00 20.00     0.051 C 
HETATM    7  C7  UNL     1     -34.646  15.872  -5.583  1.00 20.00     0.051 C 
HETATM    8  C8  UNL     1     -33.697  16.141  -4.404  1.00 20.00     0.120 C 
ENDROOT
BRANCH   8   9
HETATM    9  O9  UNL     1     -32.354  15.871  -4.815  1.00 20.00    -0.378 OA
HETATM   10  H21 UNL     1     -32.361  15.861  -5.783  1.00 20.00     0.211 HD
ENDBRANCH   8   9
TORSDOF 1
ENDMDL
MODEL 7
REMARK VINA RESULT:      -4.2      9.508     10.328
REMARK  1 active torsions:
REMARK  status: ('A' for Active; 'I' for Inactive)
REMARK    1  A    between atoms: C8_8  and  O9_9 
ROOT
HETATM    1  C1  UNL     1     -41.899   2.307  -3.437  1.00 20.00     0.015 C 
HETATM    2  C2  UNL     1     -41.766   3.199  -2.645  1.00 20.00    -0.079 C 
HETATM    3  C3  UNL     1     -42.766   6.595  -0.195  1.00 20.00     0.000 C 
HETATM    4  C4  UNL     1     -41.814   6.813  -1.366  1.00 20.00     0.004 C 
HETATM    5  C5  UNL     1     -42.503   5.263   0.503  1.00 20.00     0.004 C 
HETATM    6  C6  UNL     1     -41.859   5.645  -2.354  1.00 20.00     0.051 C 
HETATM    7  C7  UNL     1     -42.553   4.093  -0.480  1.00 20.00     0.051 C 
HETATM    8  C8  UNL     1     -41.603   4.292  -1.671  1.00 20.00     0.120 C 
ENDROOT
BRANCH   8   9
HETATM    9  O9  UNL     1     -40.254   4.287  -1.199  1.00 20.00    -0.378 OA
HETATM   10  H21 UNL     1     -40.281   4.619  -0.289  1.00 20.00     0.211 HD
ENDBRANCH   8   9
TORSDOF 1
ENDMDL
MODEL 8
REMARK VINA RESULT:      -4.0     11.969     13.235
REMARK  1 active torsions:
REMARK  status: ('A' for Active; 'I' for Inactive)
REMARK    1  A    between atoms: C8_8  and  O9_9 
ROOT
HETATM    1  C1  UNL     1     -34.811  12.997  -4.925  1.00 20.00     0.015 C 
HETATM    2  C2  UNL     1     -34.324  14.013  -4.512  1.00 20.00    -0.079 C 
HETATM    3  C3  UNL     1     -34.064  18.066  -3.083  1.00 20.00     0.000 C 
HETATM    4  C4  UNL     1     -33.494  17.756  -4.463  1.00 20.00     0.004 C 
HETATM    5  C5  UNL     1     -33.783  16.940  -2.092  1.00 20.00     0.004 C 
HETATM    6  C6  UNL     1     -33.994  16.409  -4.990  1.00 20.00     0.051 C 
HETATM    7  C7  UNL     1     -34.287  15.593  -2.613  1.00 20.00     0.051 C 
HETATM    8  C8  UNL     1     -33.727  15.261  -4.005  1.00 20.00     0.120 C 
ENDROOT
BRANCH   8   9
HETATM    9  O9  UNL     1     -32.311  15.085  -3.910  1.00 20.00    -0.378 OA
HETATM   10  H21 UNL     1     -32.004  14.851  -4.798  1.00 20.00     0.211 HD
ENDBRANCH   8   9
TORSDOF 1
ENDMDL
MODEL 9
REMARK VINA RESULT:      -4.0     12.045     12.953
REMARK  1 active torsions:
REMARK  status: ('A' for Active; 'I' for Inactive)
REMARK    1  A    between atoms: C8_8  and  O9_9 
ROOT
HETATM    1  C1  UNL     1     -38.750  14.783  -3.792  1.00 20.00     0.015 C 
HETATM    2  C2  UNL     1     -37.569  14.654  -3.959  1.00 20.00    -0.079 C 
HETATM    3  C3  UNL     1     -33.458  15.723  -4.660  1.00 20.00     0.000 C 
HETATM    4  C4  UNL     1     -34.208  14.997  -5.772  1.00 20.00     0.004 C 
HETATM    5  C5  UNL     1     -33.830  15.180  -3.284  1.00 20.00     0.004 C 
HETATM    6  C6  UNL     1     -35.722  15.032  -5.547  1.00 20.00     0.051 C 
HETATM    7  C7  UNL     1     -35.341  15.219  -3.053  1.00 20.00     0.051 C 
HETATM    8  C8  UNL     1     -36.119  14.495  -4.163  1.00 20.00     0.120 C 
ENDROOT
BRANCH   8   9
HETATM    9  O9  UNL     1     -35.801  13.102  -4.125  1.00 20.00    -0.378 OA
HETATM   10  H21 UNL     1     -34.858  13.031  -4.335  1.00 20.00     0.211 HD
ENDBRANCH   8   9
TORSDOF 1
ENDMDL
