MODEL 1
REMARK VINA RESULT:      -5.7      0.000      0.000
REMARK  2 active torsions:
REMARK  status: ('A' for Active; 'I' for Inactive)
REMARK    1  A    between atoms: C2_2  and  C3_3 
REMARK    2  A    between atoms: N9_9  and  N10_10 
ROOT
HETATM    1  C1  UNL     1     -34.708   4.655   4.268  1.00 20.00    -0.018 C 
HETATM    2  C2  UNL     1     -34.014   5.792   4.391  1.00 20.00    -0.043 C 
HETATM    3  C5  UNL     1     -35.263   4.204   5.579  1.00 20.00     0.028 C 
HETATM    4  C6  UNL     1     -33.994   6.282   5.803  1.00 20.00     0.040 C 
HETATM    5  C7  UNL     1     -34.505   5.069   6.584  1.00 20.00     0.008 C 
ENDROOT
BRANCH   2   6
HETATM    6  C3  UNL     1     -33.367   6.505   3.335  1.00 20.00     0.147 C 
HETATM    7  N9  UNL     1     -32.154   6.960   3.424  1.00 20.00    -0.163 NA
BRANCH   7   8
HETATM    8  N10 UNL     1     -31.775   7.614   2.257  1.00 20.00    -0.168 NA
HETATM    9  C4  UNL     1     -32.466   8.694   2.100  1.00 20.00     0.109 C 
HETATM   10  C8  UNL     1     -32.247   9.576   0.912  1.00 20.00     0.059 C 
ENDBRANCH   7   8
ENDBRANCH   2   6
TORSDOF 2
ENDMDL
MODEL 2
REMARK VINA RESULT:      -4.3     11.132     12.312
REMARK  2 active torsions:
REMARK  status: ('A' for Active; 'I' for Inactive)
REMARK    1  A    between atoms: C2_2  and  C3_3 
REMARK    2  A    between atoms: N9_9  and  N10_10 
ROOT
HETATM    1  C1  UNL     1     -34.762  13.627  -3.916  1.00 20.00    -0.018 C 
HETATM    2  C2  UNL     1     -35.296  14.772  -3.473  1.00 20.00    -0.043 C 
HETATM    3  C5  UNL     1     -33.272  13.646  -3.833  1.00 20.00     0.028 C 
HETATM    4  C6  UNL     1     -34.247  15.737  -3.023  1.00 20.00     0.040 C 
HETATM    5  C7  UNL     1     -32.964  15.122  -3.587  1.00 20.00     0.008 C 
ENDROOT
BRANCH   2   6
HETATM    6  C3  UNL     1     -36.689  15.081  -3.396  1.00 20.00     0.147 C 
HETATM    7  N9  UNL     1     -37.622  14.248  -3.744  1.00 20.00    -0.163 NA
BRANCH   7   8
HETATM    8  N10 UNL     1     -38.884  14.805  -3.570  1.00 20.00    -0.168 NA
HETATM    9  C4  UNL     1     -39.648  14.516  -4.570  1.00 20.00     0.109 C 
HETATM   10  C8  UNL     1     -41.060  15.005  -4.620  1.00 20.00     0.059 C 
ENDBRANCH   7   8
ENDBRANCH   2   6
TORSDOF 2
ENDMDL
MODEL 3
REMARK VINA RESULT:      -4.2     11.172     11.912
REMARK  2 active torsions:
REMARK  status: ('A' for Active; 'I' for Inactive)
REMARK    1  A    between atoms: C2_2  and  C3_3 
REMARK    2  A    between atoms: N9_9  and  N10_10 
ROOT
HETATM    1  C1  UNL     1     -35.034  17.139   0.233  1.00 20.00    -0.018 C 
HETATM    2  C2  UNL     1     -34.249  17.165  -0.850  1.00 20.00    -0.043 C 
HETATM    3  C5  UNL     1     -34.630  18.174   1.231  1.00 20.00     0.028 C 
HETATM    4  C6  UNL     1     -33.195  18.220  -0.748  1.00 20.00     0.040 C 
HETATM    5  C7  UNL     1     -33.253  18.608   0.731  1.00 20.00     0.008 C 
ENDROOT
BRANCH   2   6
HETATM    6  C3  UNL     1     -34.368  16.325  -2.000  1.00 20.00     0.147 C 
HETATM    7  N9  UNL     1     -33.426  16.194  -2.885  1.00 20.00    -0.163 NA
BRANCH   7   8
HETATM    8  N10 UNL     1     -33.806  15.320  -3.897  1.00 20.00    -0.168 NA
HETATM    9  C4  UNL     1     -34.543  14.372  -3.422  1.00 20.00     0.109 C 
HETATM   10  C8  UNL     1     -35.078  13.299  -4.316  1.00 20.00     0.059 C 
ENDBRANCH   7   8
ENDBRANCH   2   6
TORSDOF 2
ENDMDL
MODEL 4
REMARK VINA RESULT:      -4.2     11.124     12.366
REMARK  2 active torsions:
REMARK  status: ('A' for Active; 'I' for Inactive)
REMARK    1  A    between atoms: C2_2  and  C3_3 
REMARK    2  A    between atoms: N9_9  and  N10_10 
ROOT
HETATM    1  C1  UNL     1     -34.315  15.639  -3.199  1.00 20.00    -0.018 C 
HETATM    2  C2  UNL     1     -35.286  14.804  -3.587  1.00 20.00    -0.043 C 
HETATM    3  C5  UNL     1     -32.961  15.087  -3.503  1.00 20.00     0.028 C 
HETATM    4  C6  UNL     1     -34.736  13.562  -4.211  1.00 20.00     0.040 C 
HETATM    5  C7  UNL     1     -33.256  13.624  -3.829  1.00 20.00     0.008 C 
ENDROOT
BRANCH   2   6
HETATM    6  C3  UNL     1     -36.692  15.028  -3.463  1.00 20.00     0.147 C 
HETATM    7  N9  UNL     1     -37.584  14.143  -3.793  1.00 20.00    -0.163 NA
BRANCH   7   8
HETATM    8  N10 UNL     1     -38.871  14.621  -3.572  1.00 20.00    -0.168 NA
HETATM    9  C4  UNL     1     -39.592  14.486  -4.635  1.00 20.00     0.109 C 
HETATM   10  C8  UNL     1     -41.020  14.930  -4.652  1.00 20.00     0.059 C 
ENDBRANCH   7   8
ENDBRANCH   2   6
TORSDOF 2
ENDMDL
MODEL 5
REMARK VINA RESULT:      -4.2     11.827     12.690
REMARK  2 active torsions:
REMARK  status: ('A' for Active; 'I' for Inactive)
REMARK    1  A    between atoms: C2_2  and  C3_3 
REMARK    2  A    between atoms: N9_9  and  N10_10 
ROOT
HETATM    1  C1  UNL     1     -34.767  16.455  -0.999  1.00 20.00    -0.018 C 
HETATM    2  C2  UNL     1     -33.968  17.007  -1.921  1.00 20.00    -0.043 C 
HETATM    3  C5  UNL     1     -34.820  17.277   0.246  1.00 20.00     0.028 C 
HETATM    4  C6  UNL     1     -33.361  18.285  -1.438  1.00 20.00     0.040 C 
HETATM    5  C7  UNL     1     -33.652  18.245   0.064  1.00 20.00     0.008 C 
ENDROOT
BRANCH   2   6
HETATM    6  C3  UNL     1     -33.707  16.494  -3.229  1.00 20.00     0.147 C 
HETATM    7  N9  UNL     1     -33.475  17.253  -4.257  1.00 20.00    -0.163 NA
BRANCH   7   8
HETATM    8  N10 UNL     1     -33.254  16.495  -5.401  1.00 20.00    -0.168 NA
HETATM    9  C4  UNL     1     -34.349  15.929  -5.786  1.00 20.00     0.109 C 
HETATM   10  C8  UNL     1     -34.371  15.054  -6.999  1.00 20.00     0.059 C 
ENDBRANCH   7   8
ENDBRANCH   2   6
TORSDOF 2
ENDMDL
MODEL 6
REMARK VINA RESULT:      -4.2     11.148     11.886
REMARK  2 active torsions:
REMARK  status: ('A' for Active; 'I' for Inactive)
REMARK    1  A    between atoms: C2_2  and  C3_3 
REMARK    2  A    between atoms: N9_9  and  N10_10 
ROOT
HETATM    1  C1  UNL     1     -33.240  18.017  -0.506  1.00 20.00    -0.018 C 
HETATM    2  C2  UNL     1     -34.361  17.288  -0.472  1.00 20.00    -0.043 C 
HETATM    3  C5  UNL     1     -33.025  18.757   0.773  1.00 20.00     0.028 C 
HETATM    4  C6  UNL     1     -35.074  17.425   0.835  1.00 20.00     0.040 C 
HETATM    5  C7  UNL     1     -34.379  18.631   1.469  1.00 20.00     0.008 C 
ENDROOT
BRANCH   2   6
HETATM    6  C3  UNL     1     -34.856  16.448  -1.517  1.00 20.00     0.147 C 
HETATM    7  N9  UNL     1     -34.083  15.832  -2.360  1.00 20.00    -0.163 NA
BRANCH   7   8
HETATM    8  N10 UNL     1     -34.824  15.086  -3.269  1.00 20.00    -0.168 NA
HETATM    9  C4  UNL     1     -34.114  14.118  -3.745  1.00 20.00     0.109 C 
HETATM   10  C8  UNL     1     -34.689  13.171  -4.750  1.00 20.00     0.059 C 
ENDBRANCH   7   8
ENDBRANCH   2   6
TORSDOF 2
ENDMDL
MODEL 7
REMARK VINA RESULT:      -4.1     10.782     11.182
REMARK  2 active torsions:
REMARK  status: ('A' for Active; 'I' for Inactive)
REMARK    1  A    between atoms: C2_2  and  C3_3 
REMARK    2  A    between atoms: N9_9  and  N10_10 
ROOT
HETATM    1  C1  UNL     1     -41.898   5.281  -2.122  1.00 20.00    -0.018 C 
HETATM    2  C2  UNL     1     -41.825   6.616  -2.156  1.00 20.00    -0.043 C 
HETATM    3  C5  UNL     1     -41.361   4.733  -0.841  1.00 20.00     0.028 C 
HETATM    4  C6  UNL     1     -41.227   7.174  -0.904  1.00 20.00     0.040 C 
HETATM    5  C7  UNL     1     -40.630   5.932  -0.239  1.00 20.00     0.008 C 
ENDROOT
BRANCH   2   6
HETATM    6  C3  UNL     1     -42.266   7.460  -3.222  1.00 20.00     0.147 C 
HETATM    7  N9  UNL     1     -43.183   7.110  -4.073  1.00 20.00    -0.163 NA
BRANCH   7   8
HETATM    8  N10 UNL     1     -43.417   8.116  -5.003  1.00 20.00    -0.168 NA
HETATM    9  C4  UNL     1     -42.379   8.877  -5.115  1.00 20.00     0.109 C 
HETATM   10  C8  UNL     1     -42.382  10.040  -6.056  1.00 20.00     0.059 C 
ENDBRANCH   7   8
ENDBRANCH   2   6
TORSDOF 2
ENDMDL
MODEL 8
REMARK VINA RESULT:      -4.1     10.528     11.523
REMARK  2 active torsions:
REMARK  status: ('A' for Active; 'I' for Inactive)
REMARK    1  A    between atoms: C2_2  and  C3_3 
REMARK    2  A    between atoms: N9_9  and  N10_10 
ROOT
HETATM    1  C1  UNL     1     -40.793   4.735  -0.724  1.00 20.00    -0.018 C 
HETATM    2  C2  UNL     1     -41.520   4.666  -1.845  1.00 20.00    -0.043 C 
HETATM    3  C5  UNL     1     -40.741   6.126  -0.186  1.00 20.00     0.028 C 
HETATM    4  C6  UNL     1     -42.070   6.000  -2.234  1.00 20.00     0.040 C 
HETATM    5  C7  UNL     1     -41.272   6.960  -1.351  1.00 20.00     0.008 C 
ENDROOT
BRANCH   2   6
HETATM    6  C3  UNL     1     -41.789   3.487  -2.607  1.00 20.00     0.147 C 
HETATM    7  N9  UNL     1     -42.838   3.351  -3.361  1.00 20.00    -0.163 NA
BRANCH   7   8
HETATM    8  N10 UNL     1     -42.851   2.109  -3.985  1.00 20.00    -0.168 NA
HETATM    9  C4  UNL     1     -41.877   1.377  -3.555  1.00 20.00     0.109 C 
HETATM   10  C8  UNL     1     -41.674  -0.009  -4.079  1.00 20.00     0.059 C 
ENDBRANCH   7   8
ENDBRANCH   2   6
TORSDOF 2
ENDMDL
MODEL 9
REMARK VINA RESULT:      -4.1     10.464     11.247
REMARK  2 active torsions:
REMARK  status: ('A' for Active; 'I' for Inactive)
REMARK    1  A    between atoms: C2_2  and  C3_3 
REMARK    2  A    between atoms: N9_9  and  N10_10 
ROOT
HETATM    1  C1  UNL     1     -41.187   2.036  -3.821  1.00 20.00    -0.018 C 
HETATM    2  C2  UNL     1     -41.949   2.653  -2.910  1.00 20.00    -0.043 C 
HETATM    3  C5  UNL     1     -41.764   0.719  -4.220  1.00 20.00     0.028 C 
HETATM    4  C6  UNL     1     -43.157   1.846  -2.557  1.00 20.00     0.040 C 
HETATM    5  C7  UNL     1     -42.826   0.475  -3.150  1.00 20.00     0.008 C 
ENDROOT
BRANCH   2   6
HETATM    6  C3  UNL     1     -41.701   3.934  -2.328  1.00 20.00     0.147 C 
HETATM    7  N9  UNL     1     -40.661   4.191  -1.593  1.00 20.00    -0.163 NA
BRANCH   7   8
HETATM    8  N10 UNL     1     -40.669   5.511  -1.156  1.00 20.00    -0.168 NA
HETATM    9  C4  UNL     1     -41.657   6.156  -1.682  1.00 20.00     0.109 C 
HETATM   10  C8  UNL     1     -41.880   7.601  -1.369  1.00 20.00     0.059 C 
ENDBRANCH   7   8
ENDBRANCH   2   6
TORSDOF 2
ENDMDL
