MODEL 1
REMARK VINA RESULT:      -3.8      0.000      0.000
REMARK  2 active torsions:
REMARK  status: ('A' for Active; 'I' for Inactive)
REMARK    1  A    between atoms: C2_2  and  C4_4 
REMARK    2  A    between atoms: C3_3  and  C4_4 
ROOT
HETATM    1  C4  UNL     1     -34.147   6.316   4.651  1.00 20.00     0.127 C 
HETATM    2 CL7  UNL     1     -33.931   6.662   6.394  1.00 20.00    -0.121 Cl
ENDROOT
BRANCH   1   3
HETATM    3  C2  UNL     1     -32.786   6.227   3.972  1.00 20.00     0.164 A 
HETATM    4  C1  UNL     1     -32.371   7.225   2.926  1.00 20.00     0.201 A 
HETATM    5  O5  UNL     1     -32.837   5.913   2.576  1.00 20.00    -0.380 OA
ENDBRANCH   1   3
BRANCH   1   6
HETATM    6  C3  UNL     1     -35.019   5.076   4.453  1.00 20.00     0.137 C 
HETATM    7 CL6  UNL     1     -35.001   3.959   5.841  1.00 20.00    -0.129 Cl
ENDBRANCH   1   6
TORSDOF 2
ENDMDL
MODEL 2
REMARK VINA RESULT:      -3.4      1.318      2.350
REMARK  2 active torsions:
REMARK  status: ('A' for Active; 'I' for Inactive)
REMARK    1  A    between atoms: C2_2  and  C4_4 
REMARK    2  A    between atoms: C3_3  and  C4_4 
ROOT
HETATM    1  C4  UNL     1     -34.011   5.396   5.133  1.00 20.00     0.127 C 
HETATM    2 CL7  UNL     1     -35.268   4.230   4.617  1.00 20.00    -0.121 Cl
ENDROOT
BRANCH   1   3
HETATM    3  C2  UNL     1     -33.750   6.399   4.016  1.00 20.00     0.164 A 
HETATM    4  C1  UNL     1     -32.875   6.049   2.844  1.00 20.00     0.201 A 
HETATM    5  O5  UNL     1     -32.397   6.857   3.931  1.00 20.00    -0.380 OA
ENDBRANCH   1   3
BRANCH   1   6
HETATM    6  C3  UNL     1     -34.391   6.041   6.466  1.00 20.00     0.137 C 
HETATM    7 CL6  UNL     1     -33.331   7.394   6.935  1.00 20.00    -0.129 Cl
ENDBRANCH   1   6
TORSDOF 2
ENDMDL
MODEL 3
REMARK VINA RESULT:      -3.3      2.174      3.238
REMARK  2 active torsions:
REMARK  status: ('A' for Active; 'I' for Inactive)
REMARK    1  A    between atoms: C2_2  and  C4_4 
REMARK    2  A    between atoms: C3_3  and  C4_4 
ROOT
HETATM    1  C4  UNL     1     -33.697   6.067   5.344  1.00 20.00     0.127 C 
HETATM    2 CL7  UNL     1     -33.564   7.253   6.677  1.00 20.00    -0.121 Cl
ENDROOT
BRANCH   1   3
HETATM    3  C2  UNL     1     -34.983   5.266   5.494  1.00 20.00     0.164 A 
HETATM    4  C1  UNL     1     -34.953   3.784   5.745  1.00 20.00     0.201 A 
HETATM    5  O5  UNL     1     -35.225   4.324   4.443  1.00 20.00    -0.380 OA
ENDBRANCH   1   3
BRANCH   1   6
HETATM    6  C3  UNL     1     -33.556   6.763   3.989  1.00 20.00     0.137 C 
HETATM    7 CL6  UNL     1     -32.206   6.146   3.004  1.00 20.00    -0.129 Cl
ENDBRANCH   1   6
TORSDOF 2
ENDMDL
MODEL 4
REMARK VINA RESULT:      -3.3      2.797      3.855
REMARK  2 active torsions:
REMARK  status: ('A' for Active; 'I' for Inactive)
REMARK    1  A    between atoms: C2_2  and  C4_4 
REMARK    2  A    between atoms: C3_3  and  C4_4 
ROOT
HETATM    1  C4  UNL     1     -33.604   6.312   3.935  1.00 20.00     0.127 C 
HETATM    2 CL7  UNL     1     -34.381   5.258   2.714  1.00 20.00    -0.121 Cl
ENDROOT
BRANCH   1   3
HETATM    3  C2  UNL     1     -33.618   5.623   5.293  1.00 20.00     0.164 A 
HETATM    4  C1  UNL     1     -34.912   5.265   5.971  1.00 20.00     0.201 A 
HETATM    5  O5  UNL     1     -34.148   6.418   6.359  1.00 20.00    -0.380 OA
ENDBRANCH   1   3
BRANCH   1   6
HETATM    6  C3  UNL     1     -32.210   6.736   3.470  1.00 20.00     0.137 C 
HETATM    7 CL6  UNL     1     -32.224   8.052   2.270  1.00 20.00    -0.129 Cl
ENDBRANCH   1   6
TORSDOF 2
ENDMDL
MODEL 5
REMARK VINA RESULT:      -3.2      1.548      1.783
REMARK  2 active torsions:
REMARK  status: ('A' for Active; 'I' for Inactive)
REMARK    1  A    between atoms: C2_2  and  C4_4 
REMARK    2  A    between atoms: C3_3  and  C4_4 
ROOT
HETATM    1  C4  UNL     1     -33.832   5.843   4.282  1.00 20.00     0.127 C 
HETATM    2 CL7  UNL     1     -35.326   5.510   3.354  1.00 20.00    -0.121 Cl
ENDROOT
BRANCH   1   3
HETATM    3  C2  UNL     1     -33.189   7.128   3.777  1.00 20.00     0.164 A 
HETATM    4  C1  UNL     1     -32.305   7.129   2.560  1.00 20.00     0.201 A 
HETATM    5  O5  UNL     1     -31.762   7.163   3.889  1.00 20.00    -0.380 OA
ENDBRANCH   1   3
BRANCH   1   6
HETATM    6  C3  UNL     1     -34.122   5.846   5.784  1.00 20.00     0.137 C 
HETATM    7 CL6  UNL     1     -35.111   4.466   6.325  1.00 20.00    -0.129 Cl
ENDBRANCH   1   6
TORSDOF 2
ENDMDL
MODEL 6
REMARK VINA RESULT:      -3.2     11.742     12.560
REMARK  2 active torsions:
REMARK  status: ('A' for Active; 'I' for Inactive)
REMARK    1  A    between atoms: C2_2  and  C4_4 
REMARK    2  A    between atoms: C3_3  and  C4_4 
ROOT
HETATM    1  C4  UNL     1     -34.007  15.670  -3.996  1.00 20.00     0.127 C 
HETATM    2 CL7  UNL     1     -33.400  16.655  -5.361  1.00 20.00    -0.121 Cl
ENDROOT
BRANCH   1   3
HETATM    3  C2  UNL     1     -33.618  14.212  -4.201  1.00 20.00     0.164 A 
HETATM    4  C1  UNL     1     -34.585  13.223  -4.792  1.00 20.00     0.201 A 
HETATM    5  O5  UNL     1     -34.333  13.283  -3.379  1.00 20.00    -0.380 OA
ENDBRANCH   1   3
BRANCH   1   6
HETATM    6  C3  UNL     1     -33.537  16.253  -2.662  1.00 20.00     0.137 C 
HETATM    7 CL6  UNL     1     -34.779  16.207  -1.385  1.00 20.00    -0.129 Cl
ENDBRANCH   1   6
TORSDOF 2
ENDMDL
MODEL 7
REMARK VINA RESULT:      -3.0     11.946     12.821
REMARK  2 active torsions:
REMARK  status: ('A' for Active; 'I' for Inactive)
REMARK    1  A    between atoms: C2_2  and  C4_4 
REMARK    2  A    between atoms: C3_3  and  C4_4 
ROOT
HETATM    1  C4  UNL     1     -34.486  15.779  -3.212  1.00 20.00     0.127 C 
HETATM    2 CL7  UNL     1     -34.723  16.154  -1.478  1.00 20.00    -0.121 Cl
ENDROOT
BRANCH   1   3
HETATM    3  C2  UNL     1     -33.541  16.798  -3.834  1.00 20.00     0.164 A 
HETATM    4  C1  UNL     1     -33.775  17.333  -5.220  1.00 20.00     0.201 A 
HETATM    5  O5  UNL     1     -32.798  16.314  -4.958  1.00 20.00    -0.380 OA
ENDBRANCH   1   3
BRANCH   1   6
HETATM    6  C3  UNL     1     -34.035  14.328  -3.392  1.00 20.00     0.137 C 
HETATM    7 CL6  UNL     1     -35.212  13.316  -4.266  1.00 20.00    -0.129 Cl
ENDBRANCH   1   6
TORSDOF 2
ENDMDL
MODEL 8
REMARK VINA RESULT:      -3.0      2.601      3.688
REMARK  2 active torsions:
REMARK  status: ('A' for Active; 'I' for Inactive)
REMARK    1  A    between atoms: C2_2  and  C4_4 
REMARK    2  A    between atoms: C3_3  and  C4_4 
ROOT
HETATM    1  C4  UNL     1     -34.569   5.906   3.959  1.00 20.00     0.127 C 
HETATM    2 CL7  UNL     1     -34.257   4.998   2.449  1.00 20.00    -0.121 Cl
ENDROOT
BRANCH   1   3
HETATM    3  C2  UNL     1     -35.295   5.012   4.956  1.00 20.00     0.164 A 
HETATM    4  C1  UNL     1     -34.535   4.160   5.934  1.00 20.00     0.201 A 
HETATM    5  O5  UNL     1     -35.112   3.609   4.741  1.00 20.00    -0.380 OA
ENDBRANCH   1   3
BRANCH   1   6
HETATM    6  C3  UNL     1     -33.272   6.510   4.501  1.00 20.00     0.137 C 
HETATM    7 CL6  UNL     1     -32.062   6.854   3.239  1.00 20.00    -0.129 Cl
ENDBRANCH   1   6
TORSDOF 2
ENDMDL
MODEL 9
REMARK VINA RESULT:      -2.8     12.092     12.872
REMARK  2 active torsions:
REMARK  status: ('A' for Active; 'I' for Inactive)
REMARK    1  A    between atoms: C2_2  and  C4_4 
REMARK    2  A    between atoms: C3_3  and  C4_4 
ROOT
HETATM    1  C4  UNL     1     -34.492  15.150  -2.999  1.00 20.00     0.127 C 
HETATM    2 CL7  UNL     1     -34.589  16.156  -1.522  1.00 20.00    -0.121 Cl
ENDROOT
BRANCH   1   3
HETATM    3  C2  UNL     1     -35.646  15.493  -3.932  1.00 20.00     0.164 A 
HETATM    4  C1  UNL     1     -36.919  14.692  -3.923  1.00 20.00     0.201 A 
HETATM    5  O5  UNL     1     -35.916  14.506  -4.933  1.00 20.00    -0.380 OA
ENDBRANCH   1   3
BRANCH   1   6
HETATM    6  C3  UNL     1     -33.113  15.280  -3.648  1.00 20.00     0.137 C 
HETATM    7 CL6  UNL     1     -33.066  16.433  -5.005  1.00 20.00    -0.129 Cl
ENDBRANCH   1   6
TORSDOF 2
ENDMDL
