MODEL 1
REMARK VINA RESULT:      -3.3      0.000      0.000
REMARK  3 active torsions:
REMARK  status: ('A' for Active; 'I' for Inactive)
REMARK    1  A    between atoms: C3_3  and  C4_4 
REMARK    2  A    between atoms: C3_3  and  S7_7 
REMARK    3  A    between atoms: C4_4  and  S8_8 
ROOT
HETATM    1  C1  UNL     1     -37.582  15.228  -3.571  1.00 20.00     0.133 C 
HETATM    2  N5  UNL     1     -38.111  14.211  -3.742  1.00 20.00    -0.184 NA
HETATM    3  S7  UNL     1     -36.820  16.716  -3.325  1.00 20.00    -0.050 SA
ENDROOT
BRANCH   3   4
HETATM    4  C3  UNL     1     -35.248  16.100  -2.653  1.00 20.00     0.101 C 
BRANCH   4   5
HETATM    5  C4  UNL     1     -34.126  16.316  -3.658  1.00 20.00     0.101 C 
BRANCH   5   6
HETATM    6  S8  UNL     1     -33.005  14.885  -3.663  1.00 20.00    -0.050 SA
HETATM    7  C2  UNL     1     -34.128  13.696  -4.093  1.00 20.00     0.133 C 
HETATM    8  N6  UNL     1     -34.892  12.875  -4.388  1.00 20.00    -0.184 NA
ENDBRANCH   5   6
ENDBRANCH   4   5
ENDBRANCH   3   4
TORSDOF 3
ENDMDL
MODEL 2
REMARK VINA RESULT:      -3.2      0.708      3.476
REMARK  3 active torsions:
REMARK  status: ('A' for Active; 'I' for Inactive)
REMARK    1  A    between atoms: C3_3  and  C4_4 
REMARK    2  A    between atoms: C3_3  and  S7_7 
REMARK    3  A    between atoms: C4_4  and  S8_8 
ROOT
HETATM    1  C1  UNL     1     -34.088  13.694  -4.128  1.00 20.00     0.133 C 
HETATM    2  N5  UNL     1     -34.805  12.826  -4.409  1.00 20.00    -0.184 NA
HETATM    3  S7  UNL     1     -33.036  14.949  -3.713  1.00 20.00    -0.050 SA
ENDROOT
BRANCH   3   4
HETATM    4  C3  UNL     1     -34.004  16.336  -4.379  1.00 20.00     0.101 C 
BRANCH   4   5
HETATM    5  C4  UNL     1     -35.302  16.492  -3.601  1.00 20.00     0.101 C 
BRANCH   5   6
HETATM    6  S8  UNL     1     -36.714  16.552  -4.744  1.00 20.00    -0.050 SA
HETATM    7  C2  UNL     1     -37.565  15.216  -4.153  1.00 20.00     0.133 C 
HETATM    8  N6  UNL     1     -38.155  14.301  -3.753  1.00 20.00    -0.184 NA
ENDBRANCH   5   6
ENDBRANCH   4   5
ENDBRANCH   3   4
TORSDOF 3
ENDMDL
MODEL 3
REMARK VINA RESULT:      -3.2      1.654      1.689
REMARK  3 active torsions:
REMARK  status: ('A' for Active; 'I' for Inactive)
REMARK    1  A    between atoms: C3_3  and  C4_4 
REMARK    2  A    between atoms: C3_3  and  S7_7 
REMARK    3  A    between atoms: C4_4  and  S8_8 
ROOT
HETATM    1  C1  UNL     1     -37.670  15.262  -3.611  1.00 20.00     0.133 C 
HETATM    2  N5  UNL     1     -38.241  14.266  -3.767  1.00 20.00    -0.184 NA
HETATM    3  S7  UNL     1     -36.846  16.719  -3.377  1.00 20.00    -0.050 SA
ENDROOT
BRANCH   3   4
HETATM    4  C3  UNL     1     -35.361  16.343  -4.354  1.00 20.00     0.101 C 
BRANCH   4   5
HETATM    5  C4  UNL     1     -35.744  16.044  -5.797  1.00 20.00     0.101 C 
BRANCH   5   6
HETATM    6  S8  UNL     1     -34.640  14.774  -6.487  1.00 20.00    -0.050 SA
HETATM    7  C2  UNL     1     -34.823  13.608  -5.277  1.00 20.00     0.133 C 
HETATM    8  N6  UNL     1     -34.942  12.802  -4.451  1.00 20.00    -0.184 NA
ENDBRANCH   5   6
ENDBRANCH   4   5
ENDBRANCH   3   4
TORSDOF 3
ENDMDL
MODEL 4
REMARK VINA RESULT:      -3.2     11.414     12.403
REMARK  3 active torsions:
REMARK  status: ('A' for Active; 'I' for Inactive)
REMARK    1  A    between atoms: C3_3  and  C4_4 
REMARK    2  A    between atoms: C3_3  and  S7_7 
REMARK    3  A    between atoms: C4_4  and  S8_8 
ROOT
HETATM    1  C1  UNL     1     -32.227   7.737   2.371  1.00 20.00     0.133 C 
HETATM    2  N5  UNL     1     -32.092   8.760   1.843  1.00 20.00    -0.184 NA
HETATM    3  S7  UNL     1     -32.411   6.241   3.136  1.00 20.00    -0.050 SA
ENDROOT
BRANCH   3   4
HETATM    4  C3  UNL     1     -34.087   6.486   3.794  1.00 20.00     0.101 C 
BRANCH   4   5
HETATM    5  C4  UNL     1     -34.807   5.150   3.908  1.00 20.00     0.101 C 
BRANCH   5   6
HETATM    6  S8  UNL     1     -34.924   4.648   5.652  1.00 20.00    -0.050 SA
HETATM    7  C2  UNL     1     -34.266   6.040   6.351  1.00 20.00     0.133 C 
HETATM    8  N6  UNL     1     -33.816   6.991   6.839  1.00 20.00    -0.184 NA
ENDBRANCH   5   6
ENDBRANCH   4   5
ENDBRANCH   3   4
TORSDOF 3
ENDMDL
MODEL 5
REMARK VINA RESULT:      -3.2     11.435     12.203
REMARK  3 active torsions:
REMARK  status: ('A' for Active; 'I' for Inactive)
REMARK    1  A    between atoms: C3_3  and  C4_4 
REMARK    2  A    between atoms: C3_3  and  S7_7 
REMARK    3  A    between atoms: C4_4  and  S8_8 
ROOT
HETATM    1  C1  UNL     1     -34.209   6.114   6.389  1.00 20.00     0.133 C 
HETATM    2  N5  UNL     1     -33.763   7.089   6.829  1.00 20.00    -0.184 NA
HETATM    3  S7  UNL     1     -34.860   4.687   5.760  1.00 20.00    -0.050 SA
ENDROOT
BRANCH   3   4
HETATM    4  C3  UNL     1     -34.825   5.134   3.999  1.00 20.00     0.101 C 
BRANCH   4   5
HETATM    5  C4  UNL     1     -34.135   6.478   3.813  1.00 20.00     0.101 C 
BRANCH   5   6
HETATM    6  S8  UNL     1     -32.435   6.232   3.217  1.00 20.00    -0.050 SA
HETATM    7  C2  UNL     1     -32.248   7.699   2.397  1.00 20.00     0.133 C 
HETATM    8  N6  UNL     1     -32.112   8.703   1.833  1.00 20.00    -0.184 NA
ENDBRANCH   5   6
ENDBRANCH   4   5
ENDBRANCH   3   4
TORSDOF 3
ENDMDL
MODEL 6
REMARK VINA RESULT:      -3.2      2.186      3.177
REMARK  3 active torsions:
REMARK  status: ('A' for Active; 'I' for Inactive)
REMARK    1  A    between atoms: C3_3  and  C4_4 
REMARK    2  A    between atoms: C3_3  and  S7_7 
REMARK    3  A    between atoms: C4_4  and  S8_8 
ROOT
HETATM    1  C1  UNL     1     -34.092  15.875  -6.597  1.00 20.00     0.133 C 
HETATM    2  N5  UNL     1     -34.386  15.125  -7.431  1.00 20.00    -0.184 NA
HETATM    3  S7  UNL     1     -33.668  16.978  -5.389  1.00 20.00    -0.050 SA
ENDROOT
BRANCH   3   4
HETATM    4  C3  UNL     1     -33.111  15.791  -4.131  1.00 20.00     0.101 C 
BRANCH   4   5
HETATM    5  C4  UNL     1     -34.013  15.862  -2.907  1.00 20.00     0.101 C 
BRANCH   5   6
HETATM    6  S8  UNL     1     -35.681  15.274  -3.323  1.00 20.00    -0.050 SA
HETATM    7  C2  UNL     1     -35.257  13.771  -3.971  1.00 20.00     0.133 C 
HETATM    8  N6  UNL     1     -34.974  12.739  -4.418  1.00 20.00    -0.184 NA
ENDBRANCH   5   6
ENDBRANCH   4   5
ENDBRANCH   3   4
TORSDOF 3
ENDMDL
MODEL 7
REMARK VINA RESULT:      -3.1      2.334      3.372
REMARK  3 active torsions:
REMARK  status: ('A' for Active; 'I' for Inactive)
REMARK    1  A    between atoms: C3_3  and  C4_4 
REMARK    2  A    between atoms: C3_3  and  S7_7 
REMARK    3  A    between atoms: C4_4  and  S8_8 
ROOT
HETATM    1  C1  UNL     1     -34.208  16.517  -1.938  1.00 20.00     0.133 C 
HETATM    2  N5  UNL     1     -34.567  16.500  -0.836  1.00 20.00    -0.184 NA
HETATM    3  S7  UNL     1     -33.690  16.553  -3.547  1.00 20.00    -0.050 SA
ENDROOT
BRANCH   3   4
HETATM    4  C3  UNL     1     -33.021  14.866  -3.646  1.00 20.00     0.101 C 
BRANCH   4   5
HETATM    5  C4  UNL     1     -34.156  13.854  -3.720  1.00 20.00     0.101 C 
BRANCH   5   6
HETATM    6  S8  UNL     1     -35.275  14.268  -5.091  1.00 20.00    -0.050 SA
HETATM    7  C2  UNL     1     -36.718  14.347  -4.214  1.00 20.00     0.133 C 
HETATM    8  N6  UNL     1     -37.712  14.404  -3.619  1.00 20.00    -0.184 NA
ENDBRANCH   5   6
ENDBRANCH   4   5
ENDBRANCH   3   4
TORSDOF 3
ENDMDL
MODEL 8
REMARK VINA RESULT:      -3.1      2.124      2.759
REMARK  3 active torsions:
REMARK  status: ('A' for Active; 'I' for Inactive)
REMARK    1  A    between atoms: C3_3  and  C4_4 
REMARK    2  A    between atoms: C3_3  and  S7_7 
REMARK    3  A    between atoms: C4_4  and  S8_8 
ROOT
HETATM    1  C1  UNL     1     -37.144  14.577  -4.381  1.00 20.00     0.133 C 
HETATM    2  N5  UNL     1     -37.976  14.361  -3.603  1.00 20.00    -0.184 NA
HETATM    3  S7  UNL     1     -35.937  14.902  -5.518  1.00 20.00    -0.050 SA
ENDROOT
BRANCH   3   4
HETATM    4  C3  UNL     1     -34.787  13.567  -5.072  1.00 20.00     0.101 C 
BRANCH   4   5
HETATM    5  C4  UNL     1     -34.226  13.802  -3.677  1.00 20.00     0.101 C 
BRANCH   5   6
HETATM    6  S8  UNL     1     -33.424  15.431  -3.590  1.00 20.00    -0.050 SA
HETATM    7  C2  UNL     1     -34.184  16.003  -2.192  1.00 20.00     0.133 C 
HETATM    8  N6  UNL     1     -34.700  16.403  -1.234  1.00 20.00    -0.184 NA
ENDBRANCH   5   6
ENDBRANCH   4   5
ENDBRANCH   3   4
TORSDOF 3
ENDMDL
MODEL 9
REMARK VINA RESULT:      -3.1      2.183      2.724
REMARK  3 active torsions:
REMARK  status: ('A' for Active; 'I' for Inactive)
REMARK    1  A    between atoms: C3_3  and  C4_4 
REMARK    2  A    between atoms: C3_3  and  S7_7 
REMARK    3  A    between atoms: C4_4  and  S8_8 
ROOT
HETATM    1  C1  UNL     1     -35.318  13.721  -4.031  1.00 20.00     0.133 C 
HETATM    2  N5  UNL     1     -35.005  12.700  -4.482  1.00 20.00    -0.184 NA
HETATM    3  S7  UNL     1     -35.787  15.207  -3.376  1.00 20.00    -0.050 SA
ENDROOT
BRANCH   3   4
HETATM    4  C3  UNL     1     -34.139  15.831  -2.932  1.00 20.00     0.101 C 
BRANCH   4   5
HETATM    5  C4  UNL     1     -33.193  15.705  -4.117  1.00 20.00     0.101 C 
BRANCH   5   6
HETATM    6  S8  UNL     1     -33.627  16.921  -5.397  1.00 20.00    -0.050 SA
HETATM    7  C2  UNL     1     -34.091  15.841  -6.613  1.00 20.00     0.133 C 
HETATM    8  N6  UNL     1     -34.411  15.107  -7.452  1.00 20.00    -0.184 NA
ENDBRANCH   5   6
ENDBRANCH   4   5
ENDBRANCH   3   4
TORSDOF 3
ENDMDL
