MODEL 1
REMARK VINA RESULT:      -4.7      0.000      0.000
REMARK  4 active torsions:
REMARK  status: ('A' for Active; 'I' for Inactive)
REMARK    1  A    between atoms: C1_1  and  C7_7 
REMARK    2  A    between atoms: C1_1  and  C8_8 
REMARK    3  A    between atoms: C7_7  and  C9_9 
REMARK    4  A    between atoms: C8_8  and  C10_10 
ROOT
HETATM    1  C1  UNL     1     -32.531   6.550   3.469  1.00 20.00     0.131 C 
HETATM    2  O11 UNL     1     -32.104   5.487   3.018  1.00 20.00    -0.298 OA
ENDROOT
BRANCH   1   3
HETATM    3  C7  UNL     1     -31.882   7.886   3.124  1.00 20.00     0.082 C 
BRANCH   3   4
HETATM    4  C9  UNL     1     -32.464   8.540   1.864  1.00 20.00    -0.016 C 
HETATM    5  C3  UNL     1     -32.758  10.025   2.091  1.00 20.00     0.010 C 
HETATM    6  C4  UNL     1     -31.495   8.376   0.693  1.00 20.00     0.010 C 
ENDBRANCH   3   4
ENDBRANCH   1   3
BRANCH   1   7
HETATM    7  C8  UNL     1     -33.721   6.600   4.432  1.00 20.00     0.054 C 
HETATM    8  C2  UNL     1     -33.246   6.933   5.847  1.00 20.00     0.018 C 
BRANCH   7   9
HETATM    9  C10 UNL     1     -34.555   5.300   4.318  1.00 20.00    -0.012 C 
HETATM   10  C5  UNL     1     -35.882   5.552   3.595  1.00 20.00     0.010 C 
HETATM   11  C6  UNL     1     -34.821   4.622   5.666  1.00 20.00     0.010 C 
ENDBRANCH   7   9
ENDBRANCH   1   7
TORSDOF 4
ENDMDL
MODEL 2
REMARK VINA RESULT:      -4.5     10.832     12.211
REMARK  4 active torsions:
REMARK  status: ('A' for Active; 'I' for Inactive)
REMARK    1  A    between atoms: C1_1  and  C7_7 
REMARK    2  A    between atoms: C1_1  and  C8_8 
REMARK    3  A    between atoms: C7_7  and  C9_9 
REMARK    4  A    between atoms: C8_8  and  C10_10 
ROOT
HETATM    1  C1  UNL     1     -33.853  15.147  -3.599  1.00 20.00     0.131 C 
HETATM    2  O11 UNL     1     -32.631  15.009  -3.527  1.00 20.00    -0.298 OA
ENDROOT
BRANCH   1   3
HETATM    3  C7  UNL     1     -34.665  15.708  -2.438  1.00 20.00     0.082 C 
BRANCH   3   4
HETATM    4  C9  UNL     1     -33.926  16.795  -1.644  1.00 20.00    -0.016 C 
HETATM    5  C3  UNL     1     -33.836  18.101  -2.439  1.00 20.00     0.010 C 
HETATM    6  C4  UNL     1     -34.635  17.045  -0.313  1.00 20.00     0.010 C 
ENDBRANCH   3   4
ENDBRANCH   1   3
BRANCH   1   7
HETATM    7  C8  UNL     1     -34.641  14.734  -4.845  1.00 20.00     0.054 C 
HETATM    8  C2  UNL     1     -34.696  13.210  -4.958  1.00 20.00     0.018 C 
BRANCH   7   9
HETATM    9  C10 UNL     1     -34.082  15.456  -6.095  1.00 20.00    -0.012 C 
HETATM   10  C5  UNL     1     -34.309  16.969  -6.012  1.00 20.00     0.010 C 
HETATM   11  C6  UNL     1     -34.644  14.921  -7.416  1.00 20.00     0.010 C 
ENDBRANCH   7   9
ENDBRANCH   1   7
TORSDOF 4
ENDMDL
MODEL 3
REMARK VINA RESULT:      -4.4     10.516     12.067
REMARK  4 active torsions:
REMARK  status: ('A' for Active; 'I' for Inactive)
REMARK    1  A    between atoms: C1_1  and  C7_7 
REMARK    2  A    between atoms: C1_1  and  C8_8 
REMARK    3  A    between atoms: C7_7  and  C9_9 
REMARK    4  A    between atoms: C8_8  and  C10_10 
ROOT
HETATM    1  C1  UNL     1     -35.069  13.951  -4.157  1.00 20.00     0.131 C 
HETATM    2  O11 UNL     1     -35.057  12.727  -4.286  1.00 20.00    -0.298 OA
ENDROOT
BRANCH   1   3
HETATM    3  C7  UNL     1     -34.143  14.664  -3.179  1.00 20.00     0.082 C 
BRANCH   3   4
HETATM    4  C9  UNL     1     -34.579  16.102  -2.864  1.00 20.00    -0.016 C 
HETATM    5  C3  UNL     1     -34.590  16.364  -1.356  1.00 20.00     0.010 C 
HETATM    6  C4  UNL     1     -33.646  17.096  -3.557  1.00 20.00     0.010 C 
ENDBRANCH   3   4
ENDBRANCH   1   3
BRANCH   1   7
HETATM    7  C8  UNL     1     -36.038  14.837  -4.947  1.00 20.00     0.054 C 
HETATM    8  C2  UNL     1     -37.469  14.641  -4.442  1.00 20.00     0.018 C 
BRANCH   7   9
HETATM    9  C10 UNL     1     -35.852  14.611  -6.467  1.00 20.00    -0.012 C 
HETATM   10  C5  UNL     1     -34.459  15.051  -6.929  1.00 20.00     0.010 C 
HETATM   11  C6  UNL     1     -36.921  15.294  -7.325  1.00 20.00     0.010 C 
ENDBRANCH   7   9
ENDBRANCH   1   7
TORSDOF 4
ENDMDL
MODEL 4
REMARK VINA RESULT:      -4.4      0.792      4.515
REMARK  4 active torsions:
REMARK  status: ('A' for Active; 'I' for Inactive)
REMARK    1  A    between atoms: C1_1  and  C7_7 
REMARK    2  A    between atoms: C1_1  and  C8_8 
REMARK    3  A    between atoms: C7_7  and  C9_9 
REMARK    4  A    between atoms: C8_8  and  C10_10 
ROOT
HETATM    1  C1  UNL     1     -32.577   6.320   3.094  1.00 20.00     0.131 C 
HETATM    2  O11 UNL     1     -32.224   5.220   2.667  1.00 20.00    -0.298 OA
ENDROOT
BRANCH   1   3
HETATM    3  C7  UNL     1     -33.890   6.505   3.845  1.00 20.00     0.082 C 
BRANCH   3   4
HETATM    4  C9  UNL     1     -34.027   5.588   5.068  1.00 20.00    -0.016 C 
HETATM    5  C3  UNL     1     -34.095   6.396   6.367  1.00 20.00     0.010 C 
HETATM    6  C4  UNL     1     -35.277   4.717   4.933  1.00 20.00     0.010 C 
ENDBRANCH   3   4
ENDBRANCH   1   3
BRANCH   1   7
HETATM    7  C8  UNL     1     -31.738   7.581   2.868  1.00 20.00     0.054 C 
HETATM    8  C2  UNL     1     -31.454   8.276   4.201  1.00 20.00     0.018 C 
BRANCH   7   9
HETATM    9  C10 UNL     1     -32.401   8.481   1.797  1.00 20.00    -0.012 C 
HETATM   10  C5  UNL     1     -31.561   8.535   0.517  1.00 20.00     0.010 C 
HETATM   11  C6  UNL     1     -32.692   9.904   2.285  1.00 20.00     0.010 C 
ENDBRANCH   7   9
ENDBRANCH   1   7
TORSDOF 4
ENDMDL
MODEL 5
REMARK VINA RESULT:      -4.4     10.767     11.971
REMARK  4 active torsions:
REMARK  status: ('A' for Active; 'I' for Inactive)
REMARK    1  A    between atoms: C1_1  and  C7_7 
REMARK    2  A    between atoms: C1_1  and  C8_8 
REMARK    3  A    between atoms: C7_7  and  C9_9 
REMARK    4  A    between atoms: C8_8  and  C10_10 
ROOT
HETATM    1  C1  UNL     1     -34.776  13.842  -4.801  1.00 20.00     0.131 C 
HETATM    2  O11 UNL     1     -34.961  12.756  -4.251  1.00 20.00    -0.298 OA
ENDROOT
BRANCH   1   3
HETATM    3  C7  UNL     1     -34.975  14.027  -6.301  1.00 20.00     0.082 C 
BRANCH   3   4
HETATM    4  C9  UNL     1     -35.645  15.358  -6.667  1.00 20.00    -0.016 C 
HETATM    5  C3  UNL     1     -34.721  16.231  -7.521  1.00 20.00     0.010 C 
HETATM    6  C4  UNL     1     -36.952  15.098  -7.417  1.00 20.00     0.010 C 
ENDBRANCH   3   4
ENDBRANCH   1   3
BRANCH   1   7
HETATM    7  C8  UNL     1     -34.300  15.071  -4.020  1.00 20.00     0.054 C 
HETATM    8  C2  UNL     1     -32.820  14.933  -3.662  1.00 20.00     0.018 C 
BRANCH   7   9
HETATM    9  C10 UNL     1     -35.236  15.335  -2.816  1.00 20.00    -0.012 C 
HETATM   10  C5  UNL     1     -36.561  15.958  -3.267  1.00 20.00     0.010 C 
HETATM   11  C6  UNL     1     -34.602  16.204  -1.725  1.00 20.00     0.010 C 
ENDBRANCH   7   9
ENDBRANCH   1   7
TORSDOF 4
ENDMDL
MODEL 6
REMARK VINA RESULT:      -4.4     10.855     12.072
REMARK  4 active torsions:
REMARK  status: ('A' for Active; 'I' for Inactive)
REMARK    1  A    between atoms: C1_1  and  C7_7 
REMARK    2  A    between atoms: C1_1  and  C8_8 
REMARK    3  A    between atoms: C7_7  and  C9_9 
REMARK    4  A    between atoms: C8_8  and  C10_10 
ROOT
HETATM    1  C1  UNL     1     -33.857  14.981  -3.811  1.00 20.00     0.131 C 
HETATM    2  O11 UNL     1     -32.631  14.901  -3.732  1.00 20.00    -0.298 OA
ENDROOT
BRANCH   1   3
HETATM    3  C7  UNL     1     -34.601  14.657  -5.102  1.00 20.00     0.082 C 
BRANCH   3   4
HETATM    4  C9  UNL     1     -34.080  15.436  -6.318  1.00 20.00    -0.016 C 
HETATM    5  C3  UNL     1     -34.701  14.920  -7.618  1.00 20.00     0.010 C 
HETATM    6  C4  UNL     1     -34.381  16.926  -6.154  1.00 20.00     0.010 C 
ENDBRANCH   3   4
ENDBRANCH   1   3
BRANCH   1   7
HETATM    7  C8  UNL     1     -34.714  15.443  -2.629  1.00 20.00     0.054 C 
HETATM    8  C2  UNL     1     -36.140  15.747  -3.093  1.00 20.00     0.018 C 
BRANCH   7   9
HETATM    9  C10 UNL     1     -34.015  16.605  -1.883  1.00 20.00    -0.012 C 
HETATM   10  C5  UNL     1     -34.644  16.842  -0.506  1.00 20.00     0.010 C 
HETATM   11  C6  UNL     1     -33.992  17.917  -2.674  1.00 20.00     0.010 C 
ENDBRANCH   7   9
ENDBRANCH   1   7
TORSDOF 4
ENDMDL
MODEL 7
REMARK VINA RESULT:      -4.3     10.751     12.414
REMARK  4 active torsions:
REMARK  status: ('A' for Active; 'I' for Inactive)
REMARK    1  A    between atoms: C1_1  and  C7_7 
REMARK    2  A    between atoms: C1_1  and  C8_8 
REMARK    3  A    between atoms: C7_7  and  C9_9 
REMARK    4  A    between atoms: C8_8  and  C10_10 
ROOT
HETATM    1  C1  UNL     1     -35.330  13.920  -4.694  1.00 20.00     0.131 C 
HETATM    2  O11 UNL     1     -34.817  12.808  -4.571  1.00 20.00    -0.298 OA
ENDROOT
BRANCH   1   3
HETATM    3  C7  UNL     1     -35.600  14.817  -3.491  1.00 20.00     0.082 C 
BRANCH   3   4
HETATM    4  C9  UNL     1     -34.322  15.299  -2.790  1.00 20.00    -0.016 C 
HETATM    5  C3  UNL     1     -33.387  16.016  -3.767  1.00 20.00     0.010 C 
HETATM    6  C4  UNL     1     -34.680  16.233  -1.634  1.00 20.00     0.010 C 
ENDBRANCH   3   4
ENDBRANCH   1   3
BRANCH   1   7
HETATM    7  C8  UNL     1     -35.762  14.464  -6.059  1.00 20.00     0.054 C 
HETATM    8  C2  UNL     1     -34.539  14.717  -6.942  1.00 20.00     0.018 C 
BRANCH   7   9
HETATM    9  C10 UNL     1     -36.694  15.687  -5.877  1.00 20.00    -0.012 C 
HETATM   10  C5  UNL     1     -38.071  15.435  -6.499  1.00 20.00     0.010 C 
HETATM   11  C6  UNL     1     -36.109  16.991  -6.428  1.00 20.00     0.010 C 
ENDBRANCH   7   9
ENDBRANCH   1   7
TORSDOF 4
ENDMDL
MODEL 8
REMARK VINA RESULT:      -4.3     10.680     11.712
REMARK  4 active torsions:
REMARK  status: ('A' for Active; 'I' for Inactive)
REMARK    1  A    between atoms: C1_1  and  C7_7 
REMARK    2  A    between atoms: C1_1  and  C8_8 
REMARK    3  A    between atoms: C7_7  and  C9_9 
REMARK    4  A    between atoms: C8_8  and  C10_10 
ROOT
HETATM    1  C1  UNL     1     -34.343  16.902  -2.424  1.00 20.00     0.131 C 
HETATM    2  O11 UNL     1     -34.704  17.966  -2.926  1.00 20.00    -0.298 OA
ENDROOT
BRANCH   1   3
HETATM    3  C7  UNL     1     -34.550  16.602  -0.944  1.00 20.00     0.082 C 
BRANCH   3   4
HETATM    4  C9  UNL     1     -34.578  17.861  -0.065  1.00 20.00    -0.016 C 
HETATM    5  C3  UNL     1     -35.244  17.583   1.285  1.00 20.00     0.010 C 
HETATM    6  C4  UNL     1     -33.156  18.378   0.154  1.00 20.00     0.010 C 
ENDBRANCH   3   4
ENDBRANCH   1   3
BRANCH   1   7
HETATM    7  C8  UNL     1     -33.631  15.822  -3.245  1.00 20.00     0.054 C 
HETATM    8  C2  UNL     1     -33.247  16.367  -4.621  1.00 20.00     0.018 C 
BRANCH   7   9
HETATM    9  C10 UNL     1     -34.480  14.528  -3.276  1.00 20.00    -0.012 C 
HETATM   10  C5  UNL     1     -33.805  13.439  -4.115  1.00 20.00     0.010 C 
HETATM   11  C6  UNL     1     -35.914  14.745  -3.768  1.00 20.00     0.010 C 
ENDBRANCH   7   9
ENDBRANCH   1   7
TORSDOF 4
ENDMDL
MODEL 9
REMARK VINA RESULT:      -4.3      0.779      2.005
REMARK  4 active torsions:
REMARK  status: ('A' for Active; 'I' for Inactive)
REMARK    1  A    between atoms: C1_1  and  C7_7 
REMARK    2  A    between atoms: C1_1  and  C8_8 
REMARK    3  A    between atoms: C7_7  and  C9_9 
REMARK    4  A    between atoms: C8_8  and  C10_10 
ROOT
HETATM    1  C1  UNL     1     -32.956   6.350   3.292  1.00 20.00     0.131 C 
HETATM    2  O11 UNL     1     -31.762   6.112   3.478  1.00 20.00    -0.298 OA
ENDROOT
BRANCH   1   3
HETATM    3  C7  UNL     1     -33.419   7.607   2.564  1.00 20.00     0.082 C 
BRANCH   3   4
HETATM    4  C9  UNL     1     -32.265   8.526   2.140  1.00 20.00    -0.016 C 
HETATM    5  C3  UNL     1     -31.737   8.153   0.752  1.00 20.00     0.010 C 
HETATM    6  C4  UNL     1     -32.727   9.983   2.145  1.00 20.00     0.010 C 
ENDBRANCH   3   4
ENDBRANCH   1   3
BRANCH   1   7
HETATM    7  C8  UNL     1     -34.055   5.417   3.808  1.00 20.00     0.054 C 
HETATM    8  C2  UNL     1     -35.426   5.890   3.320  1.00 20.00     0.018 C 
BRANCH   7   9
HETATM    9  C10 UNL     1     -33.938   5.250   5.343  1.00 20.00    -0.012 C 
HETATM   10  C5  UNL     1     -34.986   4.269   5.878  1.00 20.00     0.010 C 
HETATM   11  C6  UNL     1     -34.025   6.571   6.113  1.00 20.00     0.010 C 
ENDBRANCH   7   9
ENDBRANCH   1   7
TORSDOF 4
ENDMDL
