MODEL 1
REMARK VINA RESULT:      -4.3      0.000      0.000
REMARK  0 active torsions:
REMARK  status: ('A' for Active; 'I' for Inactive)
ROOT
HETATM    1  C1  UNL     1     -35.511  15.468  -3.101  1.00 20.00    -0.018 C 
HETATM    2  C2  UNL     1     -34.332  15.727  -2.511  1.00 20.00    -0.025 C 
HETATM    3  C3  UNL     1     -34.562  13.623  -4.264  1.00 20.00     0.135 C 
HETATM    4  C4  UNL     1     -33.177  13.845  -3.656  1.00 20.00     0.087 C 
HETATM    5  C5  UNL     1     -33.964  15.790  -4.799  1.00 20.00     0.025 C 
HETATM    6  C6  UNL     1     -35.223  14.974  -4.492  1.00 20.00     0.078 C 
HETATM    7  C7  UNL     1     -33.241  15.385  -3.506  1.00 20.00     0.016 C 
HETATM    8  O8  UNL     1     -35.070  12.535  -4.487  1.00 20.00    -0.297 OA
ENDROOT
TORSDOF 0
ENDMDL
MODEL 2
REMARK VINA RESULT:      -4.1      1.244      2.265
REMARK  0 active torsions:
REMARK  status: ('A' for Active; 'I' for Inactive)
ROOT
HETATM    1  C1  UNL     1     -34.587  14.554  -5.811  1.00 20.00    -0.018 C 
HETATM    2  C2  UNL     1     -33.900  15.531  -5.196  1.00 20.00    -0.025 C 
HETATM    3  C3  UNL     1     -35.961  14.267  -3.890  1.00 20.00     0.135 C 
HETATM    4  C4  UNL     1     -35.231  15.354  -3.102  1.00 20.00     0.087 C 
HETATM    5  C5  UNL     1     -33.735  13.649  -3.852  1.00 20.00     0.025 C 
HETATM    6  C6  UNL     1     -34.957  13.535  -4.768  1.00 20.00     0.078 C 
HETATM    7  C7  UNL     1     -33.824  15.177  -3.724  1.00 20.00     0.016 C 
HETATM    8  O8  UNL     1     -37.163  14.053  -3.852  1.00 20.00    -0.297 OA
ENDROOT
TORSDOF 0
ENDMDL
MODEL 3
REMARK VINA RESULT:      -4.1      0.753      2.015
REMARK  0 active torsions:
REMARK  status: ('A' for Active; 'I' for Inactive)
ROOT
HETATM    1  C1  UNL     1     -32.906  14.983  -3.727  1.00 20.00    -0.018 C 
HETATM    2  C2  UNL     1     -33.290  16.044  -4.456  1.00 20.00    -0.025 C 
HETATM    3  C3  UNL     1     -34.754  13.719  -4.533  1.00 20.00     0.135 C 
HETATM    4  C4  UNL     1     -35.279  14.873  -5.385  1.00 20.00     0.087 C 
HETATM    5  C5  UNL     1     -35.077  15.491  -3.086  1.00 20.00     0.025 C 
HETATM    6  C6  UNL     1     -34.151  14.283  -3.254  1.00 20.00     0.078 C 
HETATM    7  C7  UNL     1     -34.806  16.047  -4.492  1.00 20.00     0.016 C 
HETATM    8  O8  UNL     1     -34.775  12.540  -4.850  1.00 20.00    -0.297 OA
ENDROOT
TORSDOF 0
ENDMDL
MODEL 4
REMARK VINA RESULT:      -4.1      1.859      2.681
REMARK  0 active torsions:
REMARK  status: ('A' for Active; 'I' for Inactive)
ROOT
HETATM    1  C1  UNL     1     -34.719  15.443  -2.826  1.00 20.00    -0.018 C 
HETATM    2  C2  UNL     1     -35.551  14.644  -3.514  1.00 20.00    -0.025 C 
HETATM    3  C3  UNL     1     -33.464  15.889  -4.797  1.00 20.00     0.135 C 
HETATM    4  C4  UNL     1     -34.346  14.989  -5.662  1.00 20.00     0.087 C 
HETATM    5  C5  UNL     1     -33.413  13.799  -3.812  1.00 20.00     0.025 C 
HETATM    6  C6  UNL     1     -33.343  15.275  -3.410  1.00 20.00     0.078 C 
HETATM    7  C7  UNL     1     -34.733  13.948  -4.584  1.00 20.00     0.016 C 
HETATM    8  O8  UNL     1     -32.975  16.950  -5.151  1.00 20.00    -0.297 OA
ENDROOT
TORSDOF 0
ENDMDL
MODEL 5
REMARK VINA RESULT:      -4.0      1.881      2.693
REMARK  0 active torsions:
REMARK  status: ('A' for Active; 'I' for Inactive)
ROOT
HETATM    1  C1  UNL     1     -34.945  14.193  -5.704  1.00 20.00    -0.018 C 
HETATM    2  C2  UNL     1     -34.500  13.219  -4.893  1.00 20.00    -0.025 C 
HETATM    3  C3  UNL     1     -33.549  15.782  -4.615  1.00 20.00     0.135 C 
HETATM    4  C4  UNL     1     -32.993  14.747  -3.637  1.00 20.00     0.087 C 
HETATM    5  C5  UNL     1     -35.377  14.876  -3.529  1.00 20.00     0.025 C 
HETATM    6  C6  UNL     1     -35.010  15.461  -4.896  1.00 20.00     0.078 C 
HETATM    7  C7  UNL     1     -34.243  13.839  -3.534  1.00 20.00     0.016 C 
HETATM    8  O8  UNL     1     -32.910  16.691  -5.121  1.00 20.00    -0.297 OA
ENDROOT
TORSDOF 0
ENDMDL
MODEL 6
REMARK VINA RESULT:      -4.0      0.985      2.208
REMARK  0 active torsions:
REMARK  status: ('A' for Active; 'I' for Inactive)
ROOT
HETATM    1  C1  UNL     1     -33.409  16.057  -4.591  1.00 20.00    -0.018 C 
HETATM    2  C2  UNL     1     -34.717  16.112  -4.894  1.00 20.00    -0.025 C 
HETATM    3  C3  UNL     1     -33.677  13.871  -3.690  1.00 20.00     0.135 C 
HETATM    4  C4  UNL     1     -35.176  13.845  -3.982  1.00 20.00     0.087 C 
HETATM    5  C5  UNL     1     -34.574  15.710  -2.615  1.00 20.00     0.025 C 
HETATM    6  C6  UNL     1     -33.274  15.288  -3.305  1.00 20.00     0.078 C 
HETATM    7  C7  UNL     1     -35.466  15.356  -3.815  1.00 20.00     0.016 C 
HETATM    8  O8  UNL     1     -32.919  12.919  -3.794  1.00 20.00    -0.297 OA
ENDROOT
TORSDOF 0
ENDMDL
MODEL 7
REMARK VINA RESULT:      -3.9     11.849     12.685
REMARK  0 active torsions:
REMARK  status: ('A' for Active; 'I' for Inactive)
ROOT
HETATM    1  C1  UNL     1     -33.445   6.070   3.456  1.00 20.00    -0.018 C 
HETATM    2  C2  UNL     1     -33.713   4.756   3.379  1.00 20.00    -0.025 C 
HETATM    3  C3  UNL     1     -34.220   6.129   5.705  1.00 20.00     0.135 C 
HETATM    4  C4  UNL     1     -34.570   4.642   5.711  1.00 20.00     0.087 C 
HETATM    5  C5  UNL     1     -35.695   5.810   3.955  1.00 20.00     0.025 C 
HETATM    6  C6  UNL     1     -34.503   6.698   4.322  1.00 20.00     0.078 C 
HETATM    7  C7  UNL     1     -34.948   4.493   4.217  1.00 20.00     0.016 C 
HETATM    8  O8  UNL     1     -33.745   6.748   6.645  1.00 20.00    -0.297 OA
ENDROOT
TORSDOF 0
ENDMDL
MODEL 8
REMARK VINA RESULT:      -3.9     11.954     12.756
REMARK  0 active torsions:
REMARK  status: ('A' for Active; 'I' for Inactive)
ROOT
HETATM    1  C1  UNL     1     -34.499   3.817   4.451  1.00 20.00    -0.018 C 
HETATM    2  C2  UNL     1     -34.769   4.220   5.704  1.00 20.00    -0.025 C 
HETATM    3  C3  UNL     1     -33.382   5.869   3.997  1.00 20.00     0.135 C 
HETATM    4  C4  UNL     1     -33.653   6.421   5.396  1.00 20.00     0.087 C 
HETATM    5  C5  UNL     1     -35.675   5.809   4.280  1.00 20.00     0.025 C 
HETATM    6  C6  UNL     1     -34.573   5.027   3.560  1.00 20.00     0.078 C 
HETATM    7  C7  UNL     1     -35.006   5.716   5.660  1.00 20.00     0.016 C 
HETATM    8  O8  UNL     1     -32.357   6.039   3.356  1.00 20.00    -0.297 OA
ENDROOT
TORSDOF 0
ENDMDL
MODEL 9
REMARK VINA RESULT:      -3.9     10.905     11.939
REMARK  0 active torsions:
REMARK  status: ('A' for Active; 'I' for Inactive)
ROOT
HETATM    1  C1  UNL     1     -41.505   4.440  -1.880  1.00 20.00    -0.018 C 
HETATM    2  C2  UNL     1     -40.654   4.665  -0.865  1.00 20.00    -0.025 C 
HETATM    3  C3  UNL     1     -41.932   6.772  -2.082  1.00 20.00     0.135 C 
HETATM    4  C4  UNL     1     -40.994   7.128  -0.929  1.00 20.00     0.087 C 
HETATM    5  C5  UNL     1     -42.689   5.588  -0.248  1.00 20.00     0.025 C 
HETATM    6  C6  UNL     1     -42.616   5.449  -1.771  1.00 20.00     0.078 C 
HETATM    7  C7  UNL     1     -41.185   5.848  -0.079  1.00 20.00     0.016 C 
HETATM    8  O8  UNL     1     -42.072   7.423  -3.106  1.00 20.00    -0.297 OA
ENDROOT
TORSDOF 0
ENDMDL
