MODEL 1
REMARK VINA RESULT:      -4.6      0.000      0.000
REMARK  0 active torsions:
REMARK  status: ('A' for Active; 'I' for Inactive)
ROOT
HETATM    1  C1  UNL     1     -34.518  15.562  -2.700  1.00 20.00    -0.017 C 
HETATM    2  C2  UNL     1     -35.532  14.787  -3.479  1.00 20.00     0.159 C 
HETATM    3  C3  UNL     1     -34.758  16.275  -1.602  1.00 20.00     0.023 C 
HETATM    4  C4  UNL     1     -33.290  15.991  -4.811  1.00 20.00     0.010 C 
HETATM    5  C5  UNL     1     -34.362  15.186  -5.589  1.00 20.00     0.013 C 
HETATM    6  C6  UNL     1     -33.453  13.826  -3.850  1.00 20.00     0.022 C 
HETATM    7  C7  UNL     1     -33.229  15.288  -3.440  1.00 20.00     0.022 C 
HETATM    8  C8  UNL     1     -34.771  14.094  -4.589  1.00 20.00     0.061 C 
HETATM    9  O9  UNL     1     -36.732  14.764  -3.283  1.00 20.00    -0.292 OA
ENDROOT
TORSDOF 0
ENDMDL
MODEL 2
REMARK VINA RESULT:      -4.6      1.685      3.284
REMARK  0 active torsions:
REMARK  status: ('A' for Active; 'I' for Inactive)
ROOT
HETATM    1  C1  UNL     1     -34.264  14.906  -5.712  1.00 20.00    -0.017 C 
HETATM    2  C2  UNL     1     -33.497  15.829  -4.820  1.00 20.00     0.159 C 
HETATM    3  C3  UNL     1     -34.428  15.049  -7.025  1.00 20.00     0.023 C 
HETATM    4  C4  UNL     1     -35.788  14.414  -3.818  1.00 20.00     0.010 C 
HETATM    5  C5  UNL     1     -34.974  15.381  -2.923  1.00 20.00     0.013 C 
HETATM    6  C6  UNL     1     -33.515  13.728  -3.835  1.00 20.00     0.022 C 
HETATM    7  C7  UNL     1     -34.728  13.820  -4.770  1.00 20.00     0.022 C 
HETATM    8  C8  UNL     1     -33.538  15.210  -3.438  1.00 20.00     0.061 C 
HETATM    9  O9  UNL     1     -32.989  16.887  -5.137  1.00 20.00    -0.292 OA
ENDROOT
TORSDOF 0
ENDMDL
MODEL 3
REMARK VINA RESULT:      -4.6      1.534      2.935
REMARK  0 active torsions:
REMARK  status: ('A' for Active; 'I' for Inactive)
ROOT
HETATM    1  C1  UNL     1     -34.909  14.738  -5.764  1.00 20.00    -0.017 C 
HETATM    2  C2  UNL     1     -34.701  13.719  -4.690  1.00 20.00     0.159 C 
HETATM    3  C3  UNL     1     -35.262  14.483  -7.022  1.00 20.00     0.023 C 
HETATM    4  C4  UNL     1     -33.163  16.145  -4.705  1.00 20.00     0.010 C 
HETATM    5  C5  UNL     1     -32.970  15.066  -3.610  1.00 20.00     0.013 C 
HETATM    6  C6  UNL     1     -35.261  15.729  -3.675  1.00 20.00     0.022 C 
HETATM    7  C7  UNL     1     -34.663  16.048  -5.052  1.00 20.00     0.022 C 
HETATM    8  C8  UNL     1     -34.383  14.495  -3.429  1.00 20.00     0.061 C 
HETATM    9  O9  UNL     1     -34.733  12.511  -4.822  1.00 20.00    -0.292 OA
ENDROOT
TORSDOF 0
ENDMDL
MODEL 4
REMARK VINA RESULT:      -4.3     11.763     12.602
REMARK  0 active torsions:
REMARK  status: ('A' for Active; 'I' for Inactive)
ROOT
HETATM    1  C1  UNL     1     -34.616   5.069   5.096  1.00 20.00    -0.017 C 
HETATM    2  C2  UNL     1     -33.933   6.348   5.464  1.00 20.00     0.159 C 
HETATM    3  C3  UNL     1     -35.003   4.121   5.945  1.00 20.00     0.023 C 
HETATM    4  C4  UNL     1     -33.370   5.073   2.952  1.00 20.00     0.010 C 
HETATM    5  C5  UNL     1     -32.677   6.395   3.366  1.00 20.00     0.013 C 
HETATM    6  C6  UNL     1     -35.044   6.679   3.454  1.00 20.00     0.022 C 
HETATM    7  C7  UNL     1     -34.767   5.176   3.596  1.00 20.00     0.022 C 
HETATM    8  C8  UNL     1     -33.763   7.121   4.173  1.00 20.00     0.061 C 
HETATM    9  O9  UNL     1     -33.550   6.672   6.571  1.00 20.00    -0.292 OA
ENDROOT
TORSDOF 0
ENDMDL
MODEL 5
REMARK VINA RESULT:      -4.3      1.826      2.608
REMARK  0 active torsions:
REMARK  status: ('A' for Active; 'I' for Inactive)
ROOT
HETATM    1  C1  UNL     1     -33.874  14.967  -4.704  1.00 20.00    -0.017 C 
HETATM    2  C2  UNL     1     -34.693  13.801  -5.158  1.00 20.00     0.159 C 
HETATM    3  C3  UNL     1     -33.071  14.990  -3.644  1.00 20.00     0.023 C 
HETATM    4  C4  UNL     1     -35.630  16.483  -5.583  1.00 20.00     0.010 C 
HETATM    5  C5  UNL     1     -36.455  15.252  -6.036  1.00 20.00     0.013 C 
HETATM    6  C6  UNL     1     -34.275  15.146  -7.002  1.00 20.00     0.022 C 
HETATM    7  C7  UNL     1     -34.167  16.021  -5.747  1.00 20.00     0.022 C 
HETATM    8  C8  UNL     1     -35.375  14.236  -6.438  1.00 20.00     0.061 C 
HETATM    9  O9  UNL     1     -34.819  12.737  -4.583  1.00 20.00    -0.292 OA
ENDROOT
TORSDOF 0
ENDMDL
MODEL 6
REMARK VINA RESULT:      -4.3     11.767     12.920
REMARK  0 active torsions:
REMARK  status: ('A' for Active; 'I' for Inactive)
ROOT
HETATM    1  C1  UNL     1     -41.703   4.329  -1.994  1.00 20.00    -0.017 C 
HETATM    2  C2  UNL     1     -42.484   5.520  -2.448  1.00 20.00     0.159 C 
HETATM    3  C3  UNL     1     -41.549   3.194  -2.671  1.00 20.00     0.023 C 
HETATM    4  C4  UNL     1     -42.304   4.883   0.348  1.00 20.00     0.010 C 
HETATM    5  C5  UNL     1     -43.109   6.107  -0.157  1.00 20.00     0.013 C 
HETATM    6  C6  UNL     1     -40.864   6.250  -0.955  1.00 20.00     0.022 C 
HETATM    7  C7  UNL     1     -41.142   4.770  -0.661  1.00 20.00     0.022 C 
HETATM    8  C8  UNL     1     -42.303   6.576  -1.377  1.00 20.00     0.061 C 
HETATM    9  O9  UNL     1     -43.165   5.600  -3.451  1.00 20.00    -0.292 OA
ENDROOT
TORSDOF 0
ENDMDL
MODEL 7
REMARK VINA RESULT:      -4.2      1.789      2.597
REMARK  0 active torsions:
REMARK  status: ('A' for Active; 'I' for Inactive)
ROOT
HETATM    1  C1  UNL     1     -34.531  15.678  -3.339  1.00 20.00    -0.017 C 
HETATM    2  C2  UNL     1     -33.880  15.879  -4.670  1.00 20.00     0.159 C 
HETATM    3  C3  UNL     1     -34.106  16.174  -2.180  1.00 20.00     0.023 C 
HETATM    4  C4  UNL     1     -35.281  13.438  -4.095  1.00 20.00     0.010 C 
HETATM    5  C5  UNL     1     -34.591  13.678  -5.462  1.00 20.00     0.013 C 
HETATM    6  C6  UNL     1     -36.131  15.448  -5.030  1.00 20.00     0.022 C 
HETATM    7  C7  UNL     1     -35.748  14.846  -3.671  1.00 20.00     0.022 C 
HETATM    8  C8  UNL     1     -34.767  15.187  -5.683  1.00 20.00     0.061 C 
HETATM    9  O9  UNL     1     -32.825  16.444  -4.881  1.00 20.00    -0.292 OA
ENDROOT
TORSDOF 0
ENDMDL
MODEL 8
REMARK VINA RESULT:      -4.1      1.902      3.076
REMARK  0 active torsions:
REMARK  status: ('A' for Active; 'I' for Inactive)
ROOT
HETATM    1  C1  UNL     1     -34.702  14.560  -3.575  1.00 20.00    -0.017 C 
HETATM    2  C2  UNL     1     -33.342  15.125  -3.312  1.00 20.00     0.159 C 
HETATM    3  C3  UNL     1     -34.960  13.383  -4.138  1.00 20.00     0.023 C 
HETATM    4  C4  UNL     1     -35.546  16.867  -3.915  1.00 20.00     0.010 C 
HETATM    5  C5  UNL     1     -34.123  17.419  -3.642  1.00 20.00     0.013 C 
HETATM    6  C6  UNL     1     -34.821  16.076  -1.797  1.00 20.00     0.022 C 
HETATM    7  C7  UNL     1     -35.629  15.615  -3.017  1.00 20.00     0.022 C 
HETATM    8  C8  UNL     1     -33.564  16.442  -2.598  1.00 20.00     0.061 C 
HETATM    9  O9  UNL     1     -32.280  14.642  -3.650  1.00 20.00    -0.292 OA
ENDROOT
TORSDOF 0
ENDMDL
MODEL 9
REMARK VINA RESULT:      -4.1      1.246      2.382
REMARK  0 active torsions:
REMARK  status: ('A' for Active; 'I' for Inactive)
ROOT
HETATM    1  C1  UNL     1     -34.013  16.094  -4.659  1.00 20.00    -0.017 C 
HETATM    2  C2  UNL     1     -35.415  15.631  -4.895  1.00 20.00     0.159 C 
HETATM    3  C3  UNL     1     -33.366  17.013  -5.372  1.00 20.00     0.023 C 
HETATM    4  C4  UNL     1     -33.449  13.823  -3.838  1.00 20.00     0.010 C 
HETATM    5  C5  UNL     1     -34.909  13.374  -4.099  1.00 20.00     0.013 C 
HETATM    6  C6  UNL     1     -34.909  15.277  -2.658  1.00 20.00     0.022 C 
HETATM    7  C7  UNL     1     -33.589  15.307  -3.441  1.00 20.00     0.022 C 
HETATM    8  C8  UNL     1     -35.723  14.640  -3.792  1.00 20.00     0.061 C 
HETATM    9  O9  UNL     1     -36.138  15.952  -5.818  1.00 20.00    -0.292 OA
ENDROOT
TORSDOF 0
ENDMDL
