MODEL 1
REMARK VINA RESULT:      -3.7      0.000      0.000
REMARK  2 active torsions:
REMARK  status: ('A' for Active; 'I' for Inactive)
REMARK    1  A    between atoms: C1_1  and  C2_2 
REMARK    2  A    between atoms: C1_1  and  C3_3 
ROOT
HETATM    1  C1  UNL     1     -34.811   4.817   5.033  1.00 20.00     0.168 C 
HETATM    2  O4  UNL     1     -35.135   3.634   4.941  1.00 20.00    -0.294 OA
ENDROOT
BRANCH   1   3
HETATM    3  C2  UNL     1     -34.561   5.443   6.381  1.00 20.00     0.301 C 
HETATM    4  F5  UNL     1     -34.241   6.760   6.262  1.00 20.00    -0.248 F 
ENDBRANCH   1   3
BRANCH   1   5
HETATM    5  C3  UNL     1     -34.636   5.732   3.844  1.00 20.00     0.195 C 
HETATM    6 CL6  UNL     1     -32.918   6.018   3.522  1.00 20.00    -0.122 Cl
ENDBRANCH   1   5
TORSDOF 2
ENDMDL
MODEL 2
REMARK VINA RESULT:      -3.7      2.035      2.513
REMARK  2 active torsions:
REMARK  status: ('A' for Active; 'I' for Inactive)
REMARK    1  A    between atoms: C1_1  and  C2_2 
REMARK    2  A    between atoms: C1_1  and  C3_3 
ROOT
HETATM    1  C1  UNL     1     -34.934   4.680   5.027  1.00 20.00     0.168 C 
HETATM    2  O4  UNL     1     -35.122   3.485   4.799  1.00 20.00    -0.294 OA
ENDROOT
BRANCH   1   3
HETATM    3  C2  UNL     1     -34.822   5.670   3.896  1.00 20.00     0.301 C 
HETATM    4  F5  UNL     1     -34.341   5.080   2.769  1.00 20.00    -0.248 F 
ENDBRANCH   1   3
BRANCH   1   5
HETATM    5  C3  UNL     1     -34.802   5.255   6.417  1.00 20.00     0.195 C 
HETATM    6 CL6  UNL     1     -33.836   6.739   6.391  1.00 20.00    -0.122 Cl
ENDBRANCH   1   5
TORSDOF 2
ENDMDL
MODEL 3
REMARK VINA RESULT:      -3.6      2.114      2.151
REMARK  2 active torsions:
REMARK  status: ('A' for Active; 'I' for Inactive)
REMARK    1  A    between atoms: C1_1  and  C2_2 
REMARK    2  A    between atoms: C1_1  and  C3_3 
ROOT
HETATM    1  C1  UNL     1     -34.339   5.708   5.492  1.00 20.00     0.168 C 
HETATM    2  O4  UNL     1     -34.012   6.515   6.361  1.00 20.00    -0.294 OA
ENDROOT
BRANCH   1   3
HETATM    3  C2  UNL     1     -34.843   4.338   5.866  1.00 20.00     0.301 C 
HETATM    4  F5  UNL     1     -35.153   3.607   4.761  1.00 20.00    -0.248 F 
ENDBRANCH   1   3
BRANCH   1   5
HETATM    5  C3  UNL     1     -34.273   5.999   4.011  1.00 20.00     0.195 C 
HETATM    6 CL6  UNL     1     -32.594   6.199   3.487  1.00 20.00    -0.122 Cl
ENDBRANCH   1   5
TORSDOF 2
ENDMDL
MODEL 4
REMARK VINA RESULT:      -3.5      2.598      2.994
REMARK  2 active torsions:
REMARK  status: ('A' for Active; 'I' for Inactive)
REMARK    1  A    between atoms: C1_1  and  C2_2 
REMARK    2  A    between atoms: C1_1  and  C3_3 
ROOT
HETATM    1  C1  UNL     1     -34.070   5.894   3.998  1.00 20.00     0.168 C 
HETATM    2  O4  UNL     1     -34.893   5.336   3.274  1.00 20.00    -0.294 OA
ENDROOT
BRANCH   1   3
HETATM    3  C2  UNL     1     -32.885   6.613   3.404  1.00 20.00     0.301 C 
HETATM    4  F5  UNL     1     -31.817   5.779   3.274  1.00 20.00    -0.248 F 
ENDBRANCH   1   3
BRANCH   1   5
HETATM    5  C3  UNL     1     -34.160   5.916   5.506  1.00 20.00     0.195 C 
HETATM    6 CL6  UNL     1     -35.039   4.498   6.101  1.00 20.00    -0.122 Cl
ENDBRANCH   1   5
TORSDOF 2
ENDMDL
MODEL 5
REMARK VINA RESULT:      -3.5      2.181      2.223
REMARK  2 active torsions:
REMARK  status: ('A' for Active; 'I' for Inactive)
REMARK    1  A    between atoms: C1_1  and  C2_2 
REMARK    2  A    between atoms: C1_1  and  C3_3 
ROOT
HETATM    1  C1  UNL     1     -34.895   5.240   4.551  1.00 20.00     0.168 C 
HETATM    2  O4  UNL     1     -35.772   5.403   3.704  1.00 20.00    -0.294 OA
ENDROOT
BRANCH   1   3
HETATM    3  C2  UNL     1     -34.862   3.991   5.394  1.00 20.00     0.301 C 
HETATM    4  F5  UNL     1     -35.589   4.146   6.534  1.00 20.00    -0.248 F 
ENDBRANCH   1   3
BRANCH   1   5
HETATM    5  C3  UNL     1     -33.797   6.242   4.821  1.00 20.00     0.195 C 
HETATM    6 CL6  UNL     1     -33.849   6.788   6.505  1.00 20.00    -0.122 Cl
ENDBRANCH   1   5
TORSDOF 2
ENDMDL
MODEL 6
REMARK VINA RESULT:      -3.5      1.350      1.404
REMARK  2 active torsions:
REMARK  status: ('A' for Active; 'I' for Inactive)
REMARK    1  A    between atoms: C1_1  and  C2_2 
REMARK    2  A    between atoms: C1_1  and  C3_3 
ROOT
HETATM    1  C1  UNL     1     -34.595   5.547   4.443  1.00 20.00     0.168 C 
HETATM    2  O4  UNL     1     -35.306   5.369   3.454  1.00 20.00    -0.294 OA
ENDROOT
BRANCH   1   3
HETATM    3  C2  UNL     1     -34.900   4.851   5.744  1.00 20.00     0.301 C 
HETATM    4  F5  UNL     1     -34.893   5.727   6.786  1.00 20.00    -0.248 F 
ENDBRANCH   1   3
BRANCH   1   5
HETATM    5  C3  UNL     1     -33.385   6.450   4.451  1.00 20.00     0.195 C 
HETATM    6 CL6  UNL     1     -32.327   6.092   3.077  1.00 20.00    -0.122 Cl
ENDBRANCH   1   5
TORSDOF 2
ENDMDL
MODEL 7
REMARK VINA RESULT:      -3.5      2.762      3.064
REMARK  2 active torsions:
REMARK  status: ('A' for Active; 'I' for Inactive)
REMARK    1  A    between atoms: C1_1  and  C2_2 
REMARK    2  A    between atoms: C1_1  and  C3_3 
ROOT
HETATM    1  C1  UNL     1     -33.870   6.124   4.499  1.00 20.00     0.168 C 
HETATM    2  O4  UNL     1     -33.654   6.629   5.600  1.00 20.00    -0.294 OA
ENDROOT
BRANCH   1   3
HETATM    3  C2  UNL     1     -33.023   6.487   3.306  1.00 20.00     0.301 C 
HETATM    4  F5  UNL     1     -31.850   5.797   3.306  1.00 20.00    -0.248 F 
ENDBRANCH   1   3
BRANCH   1   5
HETATM    5  C3  UNL     1     -34.969   5.120   4.241  1.00 20.00     0.195 C 
HETATM    6 CL6  UNL     1     -35.020   3.903   5.525  1.00 20.00    -0.122 Cl
ENDBRANCH   1   5
TORSDOF 2
ENDMDL
MODEL 8
REMARK VINA RESULT:      -3.5      2.702      3.085
REMARK  2 active torsions:
REMARK  status: ('A' for Active; 'I' for Inactive)
REMARK    1  A    between atoms: C1_1  and  C2_2 
REMARK    2  A    between atoms: C1_1  and  C3_3 
ROOT
HETATM    1  C1  UNL     1     -33.842   6.008   4.412  1.00 20.00     0.168 C 
HETATM    2  O4  UNL     1     -32.825   6.637   4.123  1.00 20.00    -0.294 OA
ENDROOT
BRANCH   1   3
HETATM    3  C2  UNL     1     -34.678   5.362   3.337  1.00 20.00     0.301 C 
HETATM    4  F5  UNL     1     -35.992   5.691   3.470  1.00 20.00    -0.248 F 
ENDBRANCH   1   3
BRANCH   1   5
HETATM    5  C3  UNL     1     -34.338   5.823   5.827  1.00 20.00     0.195 C 
HETATM    6 CL6  UNL     1     -34.961   4.183   6.063  1.00 20.00    -0.122 Cl
ENDBRANCH   1   5
TORSDOF 2
ENDMDL
MODEL 9
REMARK VINA RESULT:      -3.5      2.373      2.404
REMARK  2 active torsions:
REMARK  status: ('A' for Active; 'I' for Inactive)
REMARK    1  A    between atoms: C1_1  and  C2_2 
REMARK    2  A    between atoms: C1_1  and  C3_3 
ROOT
HETATM    1  C1  UNL     1     -33.873   6.174   4.882  1.00 20.00     0.168 C 
HETATM    2  O4  UNL     1     -32.980   6.685   4.207  1.00 20.00    -0.294 OA
ENDROOT
BRANCH   1   3
HETATM    3  C2  UNL     1     -34.034   6.528   6.338  1.00 20.00     0.301 C 
HETATM    4  F5  UNL     1     -32.964   7.232   6.796  1.00 20.00    -0.248 F 
ENDBRANCH   1   3
BRANCH   1   5
HETATM    5  C3  UNL     1     -34.866   5.176   4.337  1.00 20.00     0.195 C 
HETATM    6 CL6  UNL     1     -35.076   3.823   5.461  1.00 20.00    -0.122 Cl
ENDBRANCH   1   5
TORSDOF 2
ENDMDL
