MODEL 1
REMARK VINA RESULT:      -5.4      0.000      0.000
REMARK  1 active torsions:
REMARK  status: ('A' for Active; 'I' for Inactive)
REMARK    1  A    between atoms: C4_4  and  C12_12 
ROOT
HETATM    1  C1  UNL     1     -36.252  16.266  -2.652  1.00 20.00     0.005 C 
HETATM    2  C2  UNL     1     -37.059  15.651  -3.527  1.00 20.00     0.001 C 
HETATM    3  C3  UNL     1     -34.384  14.793  -3.121  1.00 20.00    -0.012 C 
HETATM    4  C4  UNL     1     -34.858  15.894  -2.510  1.00 20.00    -0.058 C 
HETATM    5  C5  UNL     1     -35.287  14.498  -6.212  1.00 20.00     0.004 C 
HETATM    6  C6  UNL     1     -34.598  13.535  -5.298  1.00 20.00     0.065 C 
HETATM    7  C7  UNL     1     -35.249  13.895  -3.972  1.00 20.00     0.042 C 
HETATM    8  C8  UNL     1     -36.586  14.531  -4.408  1.00 20.00     0.138 C 
HETATM    9  C9  UNL     1     -34.753  14.754  -7.583  1.00 20.00     0.065 C 
HETATM   10  N13 UNL     1     -36.370  15.059  -5.776  1.00 20.00    -0.289 NA
ENDROOT
BRANCH   4  11
HETATM   11  C12 UNL     1     -34.007  16.771  -1.643  1.00 20.00     0.010 C 
HETATM   12  C10 UNL     1     -33.723  18.094  -2.346  1.00 20.00     0.015 C 
HETATM   13  C11 UNL     1     -34.673  17.005  -0.290  1.00 20.00     0.015 C 
ENDBRANCH   4  11
TORSDOF 1
ENDMDL
MODEL 2
REMARK VINA RESULT:      -5.1      1.495      2.197
REMARK  1 active torsions:
REMARK  status: ('A' for Active; 'I' for Inactive)
REMARK    1  A    between atoms: C4_4  and  C12_12 
ROOT
HETATM    1  C1  UNL     1     -34.220  14.683  -3.172  1.00 20.00     0.005 C 
HETATM    2  C2  UNL     1     -34.560  13.925  -4.224  1.00 20.00     0.001 C 
HETATM    3  C3  UNL     1     -33.620  16.583  -4.553  1.00 20.00    -0.012 C 
HETATM    4  C4  UNL     1     -33.832  16.071  -3.327  1.00 20.00    -0.058 C 
HETATM    5  C5  UNL     1     -35.906  15.837  -6.715  1.00 20.00     0.004 C 
HETATM    6  C6  UNL     1     -34.571  16.487  -6.889  1.00 20.00     0.065 C 
HETATM    7  C7  UNL     1     -33.769  15.768  -5.816  1.00 20.00     0.042 C 
HETATM    8  C8  UNL     1     -34.550  14.449  -5.630  1.00 20.00     0.138 C 
HETATM    9  C9  UNL     1     -37.127  16.437  -7.334  1.00 20.00     0.065 C 
HETATM   10  N13 UNL     1     -35.945  14.729  -6.045  1.00 20.00    -0.289 NA
ENDROOT
BRANCH   4  11
HETATM   11  C12 UNL     1     -33.657  16.871  -2.072  1.00 20.00     0.010 C 
HETATM   12  C10 UNL     1     -33.713  18.362  -2.384  1.00 20.00     0.015 C 
HETATM   13  C11 UNL     1     -34.712  16.492  -1.037  1.00 20.00     0.015 C 
ENDBRANCH   4  11
TORSDOF 1
ENDMDL
MODEL 3
REMARK VINA RESULT:      -5.0      2.115      5.095
REMARK  1 active torsions:
REMARK  status: ('A' for Active; 'I' for Inactive)
REMARK    1  A    between atoms: C4_4  and  C12_12 
ROOT
HETATM    1  C1  UNL     1     -36.024  16.110  -3.340  1.00 20.00     0.005 C 
HETATM    2  C2  UNL     1     -36.392  17.304  -2.857  1.00 20.00     0.001 C 
HETATM    3  C3  UNL     1     -33.869  16.164  -2.229  1.00 20.00    -0.012 C 
HETATM    4  C4  UNL     1     -34.778  15.480  -2.946  1.00 20.00    -0.058 C 
HETATM    5  C5  UNL     1     -35.108  17.798   0.272  1.00 20.00     0.004 C 
HETATM    6  C6  UNL     1     -33.741  17.825  -0.333  1.00 20.00     0.065 C 
HETATM    7  C7  UNL     1     -34.079  17.596  -1.797  1.00 20.00     0.042 C 
HETATM    8  C8  UNL     1     -35.543  18.078  -1.891  1.00 20.00     0.138 C 
HETATM    9  C9  UNL     1     -35.281  17.658   1.749  1.00 20.00     0.065 C 
HETATM   10  N13 UNL     1     -36.116  17.936  -0.531  1.00 20.00    -0.289 NA
ENDROOT
BRANCH   4  11
HETATM   11  C12 UNL     1     -34.559  14.068  -3.399  1.00 20.00     0.010 C 
HETATM   12  C10 UNL     1     -35.419  13.766  -4.622  1.00 20.00     0.015 C 
HETATM   13  C11 UNL     1     -33.084  13.817  -3.696  1.00 20.00     0.015 C 
ENDBRANCH   4  11
TORSDOF 1
ENDMDL
MODEL 4
REMARK VINA RESULT:      -5.0      2.017      4.910
REMARK  1 active torsions:
REMARK  status: ('A' for Active; 'I' for Inactive)
REMARK    1  A    between atoms: C4_4  and  C12_12 
ROOT
HETATM    1  C1  UNL     1     -34.041  16.943  -4.849  1.00 20.00     0.005 C 
HETATM    2  C2  UNL     1     -33.726  18.013  -4.106  1.00 20.00     0.001 C 
HETATM    3  C3  UNL     1     -34.384  15.521  -2.915  1.00 20.00    -0.012 C 
HETATM    4  C4  UNL     1     -34.471  15.697  -4.246  1.00 20.00    -0.058 C 
HETATM    5  C5  UNL     1     -35.482  18.016  -1.174  1.00 20.00     0.004 C 
HETATM    6  C6  UNL     1     -34.726  16.794  -0.762  1.00 20.00     0.065 C 
HETATM    7  C7  UNL     1     -33.848  16.583  -1.984  1.00 20.00     0.042 C 
HETATM    8  C8  UNL     1     -33.781  17.995  -2.606  1.00 20.00     0.138 C 
HETATM    9  C9  UNL     1     -36.709  18.434  -0.432  1.00 20.00     0.065 C 
HETATM   10  N13 UNL     1     -35.006  18.703  -2.165  1.00 20.00    -0.289 NA
ENDROOT
BRANCH   4  11
HETATM   11  C12 UNL     1     -34.978  14.634  -5.173  1.00 20.00     0.010 C 
HETATM   12  C10 UNL     1     -34.500  14.902  -6.596  1.00 20.00     0.015 C 
HETATM   13  C11 UNL     1     -34.538  13.250  -4.703  1.00 20.00     0.015 C 
ENDBRANCH   4  11
TORSDOF 1
ENDMDL
MODEL 5
REMARK VINA RESULT:      -4.9      1.451      2.842
REMARK  1 active torsions:
REMARK  status: ('A' for Active; 'I' for Inactive)
REMARK    1  A    between atoms: C4_4  and  C12_12 
ROOT
HETATM    1  C1  UNL     1     -34.250  14.933  -2.864  1.00 20.00     0.005 C 
HETATM    2  C2  UNL     1     -34.933  14.180  -3.737  1.00 20.00     0.001 C 
HETATM    3  C3  UNL     1     -35.510  16.938  -3.387  1.00 20.00    -0.012 C 
HETATM    4  C4  UNL     1     -34.604  16.316  -2.611  1.00 20.00    -0.058 C 
HETATM    5  C5  UNL     1     -38.185  15.209  -3.946  1.00 20.00     0.004 C 
HETATM    6  C6  UNL     1     -37.703  16.489  -4.551  1.00 20.00     0.065 C 
HETATM    7  C7  UNL     1     -36.202  16.254  -4.542  1.00 20.00     0.042 C 
HETATM    8  C8  UNL     1     -36.096  14.714  -4.523  1.00 20.00     0.138 C 
HETATM    9  C9  UNL     1     -39.587  15.089  -3.446  1.00 20.00     0.065 C 
HETATM   10  N13 UNL     1     -37.352  14.218  -3.913  1.00 20.00    -0.289 NA
ENDROOT
BRANCH   4  11
HETATM   11  C12 UNL     1     -33.896  17.001  -1.482  1.00 20.00     0.010 C 
HETATM   12  C10 UNL     1     -33.507  18.419  -1.885  1.00 20.00     0.015 C 
HETATM   13  C11 UNL     1     -34.762  17.011  -0.225  1.00 20.00     0.015 C 
ENDBRANCH   4  11
TORSDOF 1
ENDMDL
MODEL 6
REMARK VINA RESULT:      -4.8      1.686      2.471
REMARK  1 active torsions:
REMARK  status: ('A' for Active; 'I' for Inactive)
REMARK    1  A    between atoms: C4_4  and  C12_12 
ROOT
HETATM    1  C1  UNL     1     -34.404  15.594  -2.321  1.00 20.00     0.005 C 
HETATM    2  C2  UNL     1     -34.395  14.741  -3.355  1.00 20.00     0.001 C 
HETATM    3  C3  UNL     1     -33.666  17.466  -3.675  1.00 20.00    -0.012 C 
HETATM    4  C4  UNL     1     -34.126  17.005  -2.497  1.00 20.00    -0.058 C 
HETATM    5  C5  UNL     1     -35.258  16.335  -6.253  1.00 20.00     0.004 C 
HETATM    6  C6  UNL     1     -33.991  17.122  -6.154  1.00 20.00     0.065 C 
HETATM    7  C7  UNL     1     -33.416  16.566  -4.862  1.00 20.00     0.042 C 
HETATM    8  C8  UNL     1     -34.086  15.179  -4.757  1.00 20.00     0.138 C 
HETATM    9  C9  UNL     1     -36.337  16.752  -7.197  1.00 20.00     0.065 C 
HETATM   10  N13 UNL     1     -35.354  15.271  -5.519  1.00 20.00    -0.289 NA
ENDROOT
BRANCH   4  11
HETATM   11  C12 UNL     1     -34.349  17.893  -1.310  1.00 20.00     0.010 C 
HETATM   12  C10 UNL     1     -34.816  17.070  -0.115  1.00 20.00     0.015 C 
HETATM   13  C11 UNL     1     -33.082  18.673  -0.971  1.00 20.00     0.015 C 
ENDBRANCH   4  11
TORSDOF 1
ENDMDL
MODEL 7
REMARK VINA RESULT:      -4.8      2.146      3.093
REMARK  1 active torsions:
REMARK  status: ('A' for Active; 'I' for Inactive)
REMARK    1  A    between atoms: C4_4  and  C12_12 
ROOT
HETATM    1  C1  UNL     1     -35.863  18.527  -0.995  1.00 20.00     0.005 C 
HETATM    2  C2  UNL     1     -36.494  17.956  -2.031  1.00 20.00     0.001 C 
HETATM    3  C3  UNL     1     -34.113  16.849  -0.952  1.00 20.00    -0.012 C 
HETATM    4  C4  UNL     1     -34.597  18.021  -0.503  1.00 20.00    -0.058 C 
HETATM    5  C5  UNL     1     -34.255  16.500  -4.164  1.00 20.00     0.004 C 
HETATM    6  C6  UNL     1     -33.924  15.517  -3.087  1.00 20.00     0.065 C 
HETATM    7  C7  UNL     1     -34.836  16.004  -1.973  1.00 20.00     0.042 C 
HETATM    8  C8  UNL     1     -35.946  16.752  -2.742  1.00 20.00     0.138 C 
HETATM    9  C9  UNL     1     -33.376  16.634  -5.364  1.00 20.00     0.065 C 
HETATM   10  N13 UNL     1     -35.343  17.189  -4.024  1.00 20.00    -0.289 NA
ENDROOT
BRANCH   4  11
HETATM   11  C12 UNL     1     -33.893  18.847   0.531  1.00 20.00     0.010 C 
HETATM   12  C10 UNL     1     -34.233  18.344   1.930  1.00 20.00     0.015 C 
HETATM   13  C11 UNL     1     -32.385  18.835   0.300  1.00 20.00     0.015 C 
ENDBRANCH   4  11
TORSDOF 1
ENDMDL
MODEL 8
REMARK VINA RESULT:      -4.7      1.570      2.652
REMARK  1 active torsions:
REMARK  status: ('A' for Active; 'I' for Inactive)
REMARK    1  A    between atoms: C4_4  and  C12_12 
ROOT
HETATM    1  C1  UNL     1     -33.657  18.338  -2.723  1.00 20.00     0.005 C 
HETATM    2  C2  UNL     1     -34.048  18.060  -3.974  1.00 20.00     0.001 C 
HETATM    3  C3  UNL     1     -35.100  16.652  -1.744  1.00 20.00    -0.012 C 
HETATM    4  C4  UNL     1     -34.117  17.558  -1.591  1.00 20.00    -0.058 C 
HETATM    5  C5  UNL     1     -34.740  14.731  -4.321  1.00 20.00     0.004 C 
HETATM    6  C6  UNL     1     -35.895  14.911  -3.389  1.00 20.00     0.065 C 
HETATM    7  C7  UNL     1     -35.771  16.392  -3.072  1.00 20.00     0.042 C 
HETATM    8  C8  UNL     1     -34.996  16.940  -4.291  1.00 20.00     0.138 C 
HETATM    9  C9  UNL     1     -34.246  13.362  -4.660  1.00 20.00     0.065 C 
HETATM   10  N13 UNL     1     -34.222  15.800  -4.838  1.00 20.00    -0.289 NA
ENDROOT
BRANCH   4  11
HETATM   11  C12 UNL     1     -33.470  17.837  -0.268  1.00 20.00     0.010 C 
HETATM   12  C10 UNL     1     -32.604  19.089  -0.356  1.00 20.00     0.015 C 
HETATM   13  C11 UNL     1     -34.520  17.978   0.831  1.00 20.00     0.015 C 
ENDBRANCH   4  11
TORSDOF 1
ENDMDL
MODEL 9
REMARK VINA RESULT:      -4.6      1.584      4.774
REMARK  1 active torsions:
REMARK  status: ('A' for Active; 'I' for Inactive)
REMARK    1  A    between atoms: C4_4  and  C12_12 
ROOT
HETATM    1  C1  UNL     1     -34.425  13.736  -4.960  1.00 20.00     0.005 C 
HETATM    2  C2  UNL     1     -34.014  13.899  -3.694  1.00 20.00     0.001 C 
HETATM    3  C3  UNL     1     -36.152  15.427  -4.768  1.00 20.00    -0.012 C 
HETATM    4  C4  UNL     1     -35.450  14.580  -5.542  1.00 20.00    -0.058 C 
HETATM    5  C5  UNL     1     -34.345  17.157  -2.718  1.00 20.00     0.004 C 
HETATM    6  C6  UNL     1     -35.828  16.999  -2.820  1.00 20.00     0.065 C 
HETATM    7  C7  UNL     1     -35.924  15.554  -3.280  1.00 20.00     0.042 C 
HETATM    8  C8  UNL     1     -34.592  14.948  -2.790  1.00 20.00     0.138 C 
HETATM    9  C9  UNL     1     -33.734  18.516  -2.608  1.00 20.00     0.065 C 
HETATM   10  N13 UNL     1     -33.633  16.075  -2.693  1.00 20.00    -0.289 NA
ENDROOT
BRANCH   4  11
HETATM   11  C12 UNL     1     -35.694  14.433  -7.013  1.00 20.00     0.010 C 
HETATM   12  C10 UNL     1     -37.016  15.088  -7.397  1.00 20.00     0.015 C 
HETATM   13  C11 UNL     1     -34.539  15.027  -7.816  1.00 20.00     0.015 C 
ENDBRANCH   4  11
TORSDOF 1
ENDMDL
