MODEL 1
REMARK VINA RESULT:      -3.7      0.000      0.000
REMARK  0 active torsions:
REMARK  status: ('A' for Active; 'I' for Inactive)
ROOT
HETATM    1  C1  UNL     1     -36.548  14.680  -3.687  1.00 20.00     0.118 C 
HETATM    2  C2  UNL     1     -34.182  14.018  -3.684  1.00 20.00     0.118 C 
HETATM    3  C3  UNL     1     -35.152  15.110  -3.583  1.00 20.00     0.288 C 
HETATM    4  N4  UNL     1     -37.653  14.336  -3.769  1.00 20.00    -0.193 NA
HETATM    5  N5  UNL     1     -33.413  13.153  -3.765  1.00 20.00    -0.193 NA
HETATM    6 CL6  UNL     1     -34.827  16.270  -4.893  1.00 20.00    -0.069 Cl
HETATM    7 CL7  UNL     1     -34.932  15.909  -2.008  1.00 20.00    -0.069 Cl
ENDROOT
TORSDOF 0
ENDMDL
MODEL 2
REMARK VINA RESULT:      -3.7      0.032      3.112
REMARK  0 active torsions:
REMARK  status: ('A' for Active; 'I' for Inactive)
ROOT
HETATM    1  C1  UNL     1     -34.163  14.013  -3.657  1.00 20.00     0.118 C 
HETATM    2  C2  UNL     1     -36.525  14.687  -3.677  1.00 20.00     0.118 C 
HETATM    3  C3  UNL     1     -35.128  15.110  -3.565  1.00 20.00     0.288 C 
HETATM    4  N4  UNL     1     -33.400  13.141  -3.731  1.00 20.00    -0.193 NA
HETATM    5  N5  UNL     1     -37.633  14.351  -3.765  1.00 20.00    -0.193 NA
HETATM    6 CL6  UNL     1     -34.911  15.913  -1.991  1.00 20.00    -0.069 Cl
HETATM    7 CL7  UNL     1     -34.787  16.263  -4.878  1.00 20.00    -0.069 Cl
ENDROOT
TORSDOF 0
ENDMDL
MODEL 3
REMARK VINA RESULT:      -3.5      2.340      2.759
REMARK  0 active torsions:
REMARK  status: ('A' for Active; 'I' for Inactive)
ROOT
HETATM    1  C1  UNL     1     -33.824  15.960  -4.919  1.00 20.00     0.118 C 
HETATM    2  C2  UNL     1     -34.512  13.719  -4.185  1.00 20.00     0.118 C 
HETATM    3  C3  UNL     1     -33.820  14.964  -3.846  1.00 20.00     0.288 C 
HETATM    4  N4  UNL     1     -33.829  16.748  -5.771  1.00 20.00    -0.193 NA
HETATM    5  N5  UNL     1     -35.060  12.732  -4.454  1.00 20.00    -0.193 NA
HETATM    6 CL6  UNL     1     -32.128  14.575  -3.453  1.00 20.00    -0.069 Cl
HETATM    7 CL7  UNL     1     -34.617  15.676  -2.423  1.00 20.00    -0.069 Cl
ENDROOT
TORSDOF 0
ENDMDL
MODEL 4
REMARK VINA RESULT:      -3.5      2.333      2.869
REMARK  0 active torsions:
REMARK  status: ('A' for Active; 'I' for Inactive)
ROOT
HETATM    1  C1  UNL     1     -34.524  13.730  -4.160  1.00 20.00     0.118 C 
HETATM    2  C2  UNL     1     -33.867  15.980  -4.897  1.00 20.00     0.118 C 
HETATM    3  C3  UNL     1     -33.840  14.981  -3.827  1.00 20.00     0.288 C 
HETATM    4  N4  UNL     1     -35.066  12.739  -4.428  1.00 20.00    -0.193 NA
HETATM    5  N5  UNL     1     -33.889  16.772  -5.745  1.00 20.00    -0.193 NA
HETATM    6 CL6  UNL     1     -34.625  15.679  -2.390  1.00 20.00    -0.069 Cl
HETATM    7 CL7  UNL     1     -32.140  14.604  -3.457  1.00 20.00    -0.069 Cl
ENDROOT
TORSDOF 0
ENDMDL
MODEL 5
REMARK VINA RESULT:      -3.5      2.219      2.883
REMARK  0 active torsions:
REMARK  status: ('A' for Active; 'I' for Inactive)
ROOT
HETATM    1  C1  UNL     1     -34.546  13.749  -4.126  1.00 20.00     0.118 C 
HETATM    2  C2  UNL     1     -34.418  15.665  -2.594  1.00 20.00     0.118 C 
HETATM    3  C3  UNL     1     -33.887  15.012  -3.793  1.00 20.00     0.288 C 
HETATM    4  N4  UNL     1     -35.071  12.747  -4.388  1.00 20.00    -0.193 NA
HETATM    5  N5  UNL     1     -34.838  16.182  -1.644  1.00 20.00    -0.193 NA
HETATM    6 CL6  UNL     1     -32.157  14.687  -3.532  1.00 20.00    -0.069 Cl
HETATM    7 CL7  UNL     1     -34.087  16.124  -5.168  1.00 20.00    -0.069 Cl
ENDROOT
TORSDOF 0
ENDMDL
MODEL 6
REMARK VINA RESULT:      -3.5      2.536      3.499
REMARK  0 active torsions:
REMARK  status: ('A' for Active; 'I' for Inactive)
ROOT
HETATM    1  C1  UNL     1     -33.819  15.944  -5.298  1.00 20.00     0.118 C 
HETATM    2  C2  UNL     1     -34.850  13.721  -5.126  1.00 20.00     0.118 C 
HETATM    3  C3  UNL     1     -34.850  15.028  -5.787  1.00 20.00     0.288 C 
HETATM    4  N4  UNL     1     -32.999  16.668  -4.910  1.00 20.00    -0.193 NA
HETATM    5  N5  UNL     1     -34.850  12.686  -4.602  1.00 20.00    -0.193 NA
HETATM    6 CL6  UNL     1     -36.439  15.787  -5.524  1.00 20.00    -0.069 Cl
HETATM    7 CL7  UNL     1     -34.589  14.773  -7.529  1.00 20.00    -0.069 Cl
ENDROOT
TORSDOF 0
ENDMDL
MODEL 7
REMARK VINA RESULT:      -3.5      2.531      3.087
REMARK  0 active torsions:
REMARK  status: ('A' for Active; 'I' for Inactive)
ROOT
HETATM    1  C1  UNL     1     -34.837  13.721  -5.107  1.00 20.00     0.118 C 
HETATM    2  C2  UNL     1     -33.825  15.949  -5.316  1.00 20.00     0.118 C 
HETATM    3  C3  UNL     1     -34.853  15.018  -5.785  1.00 20.00     0.288 C 
HETATM    4  N4  UNL     1     -34.823  12.693  -4.567  1.00 20.00    -0.193 NA
HETATM    5  N5  UNL     1     -33.009  16.687  -4.945  1.00 20.00    -0.193 NA
HETATM    6 CL6  UNL     1     -34.604  14.740  -7.525  1.00 20.00    -0.069 Cl
HETATM    7 CL7  UNL     1     -36.446  15.766  -5.519  1.00 20.00    -0.069 Cl
ENDROOT
TORSDOF 0
ENDMDL
MODEL 8
REMARK VINA RESULT:      -3.4      1.865      2.243
REMARK  0 active torsions:
REMARK  status: ('A' for Active; 'I' for Inactive)
ROOT
HETATM    1  C1  UNL     1     -34.962  13.912  -4.158  1.00 20.00     0.118 C 
HETATM    2  C2  UNL     1     -33.813  16.043  -4.574  1.00 20.00     0.118 C 
HETATM    3  C3  UNL     1     -34.933  15.357  -3.927  1.00 20.00     0.288 C 
HETATM    4  N4  UNL     1     -34.982  12.766  -4.343  1.00 20.00    -0.193 NA
HETATM    5  N5  UNL     1     -32.925  16.587  -5.087  1.00 20.00    -0.193 NA
HETATM    6 CL6  UNL     1     -36.449  16.051  -4.549  1.00 20.00    -0.069 Cl
HETATM    7 CL7  UNL     1     -34.821  15.638  -2.172  1.00 20.00    -0.069 Cl
ENDROOT
TORSDOF 0
ENDMDL
MODEL 9
REMARK VINA RESULT:      -3.4      1.874      2.914
REMARK  0 active torsions:
REMARK  status: ('A' for Active; 'I' for Inactive)
ROOT
HETATM    1  C1  UNL     1     -33.840  16.064  -4.591  1.00 20.00     0.118 C 
HETATM    2  C2  UNL     1     -34.961  13.926  -4.136  1.00 20.00     0.118 C 
HETATM    3  C3  UNL     1     -34.939  15.373  -3.915  1.00 20.00     0.288 C 
HETATM    4  N4  UNL     1     -32.968  16.610  -5.129  1.00 20.00    -0.193 NA
HETATM    5  N5  UNL     1     -34.977  12.779  -4.311  1.00 20.00    -0.193 NA
HETATM    6 CL6  UNL     1     -34.793  15.670  -2.166  1.00 20.00    -0.069 Cl
HETATM    7 CL7  UNL     1     -36.474  16.051  -4.511  1.00 20.00    -0.069 Cl
ENDROOT
TORSDOF 0
ENDMDL
