MODEL 1
REMARK VINA RESULT:      -4.2      0.000      0.000
REMARK  4 active torsions:
REMARK  status: ('A' for Active; 'I' for Inactive)
REMARK    1  A    between atoms: C2_2  and  C5_5 
REMARK    2  A    between atoms: C4_4  and  C6_6 
REMARK    3  A    between atoms: C5_5  and  O8_8 
REMARK    4  A    between atoms: C6_6  and  O8_8 
ROOT
HETATM    1  O8  UNL     1     -33.635   6.839   3.729  1.00 20.00    -0.383 OA
ENDROOT
BRANCH   1   2
HETATM    2  C5  UNL     1     -34.419   5.667   3.907  1.00 20.00     0.218 C 
BRANCH   2   3
HETATM    3  C2  UNL     1     -34.503   5.336   5.362  1.00 20.00     0.026 C 
HETATM    4  C1  UNL     1     -34.963   4.174   5.843  1.00 20.00     0.034 C 
HETATM    5 CL9  UNL     1     -34.002   6.585   6.452  1.00 20.00    -0.088 Cl
ENDBRANCH   2   3
ENDBRANCH   1   2
BRANCH   1   6
HETATM    6  C6  UNL     1     -32.516   6.597   2.888  1.00 20.00     0.202 C 
BRANCH   6   7
HETATM    7  C4  UNL     1     -31.840   7.914   2.576  1.00 20.00     0.169 A 
HETATM    8  C3  UNL     1     -31.797   8.455   1.174  1.00 20.00     0.202 A 
HETATM    9  O7  UNL     1     -32.728   8.952   2.148  1.00 20.00    -0.379 OA
ENDBRANCH   6   7
ENDBRANCH   1   6
TORSDOF 4
ENDMDL
MODEL 2
REMARK VINA RESULT:      -4.0      1.072      1.264
REMARK  4 active torsions:
REMARK  status: ('A' for Active; 'I' for Inactive)
REMARK    1  A    between atoms: C2_2  and  C5_5 
REMARK    2  A    between atoms: C4_4  and  C6_6 
REMARK    3  A    between atoms: C5_5  and  O8_8 
REMARK    4  A    between atoms: C6_6  and  O8_8 
ROOT
HETATM    1  O8  UNL     1     -33.591   6.936   3.631  1.00 20.00    -0.383 OA
ENDROOT
BRANCH   1   2
HETATM    2  C5  UNL     1     -34.278   5.728   3.928  1.00 20.00     0.218 C 
BRANCH   2   3
HETATM    3  C2  UNL     1     -34.387   5.564   5.410  1.00 20.00     0.026 C 
HETATM    4  C1  UNL     1     -33.993   6.486   6.298  1.00 20.00     0.034 C 
HETATM    5 CL9  UNL     1     -35.028   4.053   5.960  1.00 20.00    -0.088 Cl
ENDBRANCH   2   3
ENDBRANCH   1   2
BRANCH   1   6
HETATM    6  C6  UNL     1     -32.423   6.696   2.859  1.00 20.00     0.202 C 
BRANCH   6   7
HETATM    7  C4  UNL     1     -31.789   8.022   2.499  1.00 20.00     0.169 A 
HETATM    8  C3  UNL     1     -31.790   8.528   1.084  1.00 20.00     0.202 A 
HETATM    9  O7  UNL     1     -32.714   9.025   2.065  1.00 20.00    -0.379 OA
ENDBRANCH   6   7
ENDBRANCH   1   6
TORSDOF 4
ENDMDL
MODEL 3
REMARK VINA RESULT:      -3.6      1.782      4.624
REMARK  4 active torsions:
REMARK  status: ('A' for Active; 'I' for Inactive)
REMARK    1  A    between atoms: C2_2  and  C5_5 
REMARK    2  A    between atoms: C4_4  and  C6_6 
REMARK    3  A    between atoms: C5_5  and  O8_8 
REMARK    4  A    between atoms: C6_6  and  O8_8 
ROOT
HETATM    1  O8  UNL     1     -34.002   6.461   3.663  1.00 20.00    -0.383 OA
ENDROOT
BRANCH   1   2
HETATM    2  C5  UNL     1     -32.741   6.217   3.055  1.00 20.00     0.218 C 
BRANCH   2   3
HETATM    3  C2  UNL     1     -31.996   7.504   2.912  1.00 20.00     0.026 C 
HETATM    4  C1  UNL     1     -32.036   8.278   1.820  1.00 20.00     0.034 C 
HETATM    5 CL9  UNL     1     -30.999   7.955   4.254  1.00 20.00    -0.088 Cl
ENDBRANCH   2   3
ENDBRANCH   1   2
BRANCH   1   6
HETATM    6  C6  UNL     1     -34.825   5.303   3.645  1.00 20.00     0.202 C 
BRANCH   6   7
HETATM    7  C4  UNL     1     -35.298   5.012   5.052  1.00 20.00     0.169 A 
HETATM    8  C3  UNL     1     -34.544   4.071   5.949  1.00 20.00     0.202 A 
HETATM    9  O7  UNL     1     -34.431   5.496   6.083  1.00 20.00    -0.379 OA
ENDBRANCH   6   7
ENDBRANCH   1   6
TORSDOF 4
ENDMDL
MODEL 4
REMARK VINA RESULT:      -3.6     11.135     11.553
REMARK  4 active torsions:
REMARK  status: ('A' for Active; 'I' for Inactive)
REMARK    1  A    between atoms: C2_2  and  C5_5 
REMARK    2  A    between atoms: C4_4  and  C6_6 
REMARK    3  A    between atoms: C5_5  and  O8_8 
REMARK    4  A    between atoms: C6_6  and  O8_8 
ROOT
HETATM    1  O8  UNL     1     -33.285  15.633  -3.063  1.00 20.00    -0.383 OA
ENDROOT
BRANCH   1   2
HETATM    2  C5  UNL     1     -34.496  15.865  -2.357  1.00 20.00     0.218 C 
BRANCH   2   3
HETATM    3  C2  UNL     1     -34.317  17.015  -1.420  1.00 20.00     0.026 C 
HETATM    4  C1  UNL     1     -34.759  17.030  -0.156  1.00 20.00     0.034 C 
HETATM    5 CL9  UNL     1     -33.521  18.407  -2.073  1.00 20.00    -0.088 Cl
ENDBRANCH   2   3
ENDBRANCH   1   2
BRANCH   1   6
HETATM    6  C6  UNL     1     -33.278  14.354  -3.682  1.00 20.00     0.202 C 
BRANCH   6   7
HETATM    7  C4  UNL     1     -34.697  13.977  -4.050  1.00 20.00     0.169 A 
HETATM    8  C3  UNL     1     -35.084  13.700  -5.476  1.00 20.00     0.202 A 
HETATM    9  O7  UNL     1     -34.850  12.640  -4.536  1.00 20.00    -0.379 OA
ENDBRANCH   6   7
ENDBRANCH   1   6
TORSDOF 4
ENDMDL
MODEL 5
REMARK VINA RESULT:      -3.6     10.856     11.365
REMARK  4 active torsions:
REMARK  status: ('A' for Active; 'I' for Inactive)
REMARK    1  A    between atoms: C2_2  and  C5_5 
REMARK    2  A    between atoms: C4_4  and  C6_6 
REMARK    3  A    between atoms: C5_5  and  O8_8 
REMARK    4  A    between atoms: C6_6  and  O8_8 
ROOT
HETATM    1  O8  UNL     1     -33.573  16.294  -2.483  1.00 20.00    -0.383 OA
ENDROOT
BRANCH   1   2
HETATM    2  C5  UNL     1     -34.653  16.271  -1.559  1.00 20.00     0.218 C 
BRANCH   2   3
HETATM    3  C2  UNL     1     -34.375  17.220  -0.439  1.00 20.00     0.026 C 
HETATM    4  C1  UNL     1     -35.175  17.385   0.622  1.00 20.00     0.034 C 
HETATM    5 CL9  UNL     1     -32.936  18.172  -0.593  1.00 20.00    -0.088 Cl
ENDBRANCH   2   3
ENDBRANCH   1   2
BRANCH   1   6
HETATM    6  C6  UNL     1     -33.931  15.696  -3.721  1.00 20.00     0.202 C 
BRANCH   6   7
HETATM    7  C4  UNL     1     -34.425  14.288  -3.463  1.00 20.00     0.169 A 
HETATM    8  C3  UNL     1     -34.603  13.307  -4.588  1.00 20.00     0.202 A 
HETATM    9  O7  UNL     1     -33.460  13.263  -3.720  1.00 20.00    -0.379 OA
ENDBRANCH   6   7
ENDBRANCH   1   6
TORSDOF 4
ENDMDL
MODEL 6
REMARK VINA RESULT:      -3.6      2.329      4.707
REMARK  4 active torsions:
REMARK  status: ('A' for Active; 'I' for Inactive)
REMARK    1  A    between atoms: C2_2  and  C5_5 
REMARK    2  A    between atoms: C4_4  and  C6_6 
REMARK    3  A    between atoms: C5_5  and  O8_8 
REMARK    4  A    between atoms: C6_6  and  O8_8 
ROOT
HETATM    1  O8  UNL     1     -33.944   6.413   3.775  1.00 20.00    -0.383 OA
ENDROOT
BRANCH   1   2
HETATM    2  C5  UNL     1     -32.818   6.234   2.926  1.00 20.00     0.218 C 
BRANCH   2   3
HETATM    3  C2  UNL     1     -31.966   7.461   2.958  1.00 20.00     0.026 C 
HETATM    4  C1  UNL     1     -31.240   7.845   4.015  1.00 20.00     0.034 C 
HETATM    5 CL9  UNL     1     -31.990   8.436   1.527  1.00 20.00    -0.088 Cl
ENDBRANCH   2   3
ENDBRANCH   1   2
BRANCH   1   6
HETATM    6  C6  UNL     1     -34.846   5.320   3.684  1.00 20.00     0.202 C 
BRANCH   6   7
HETATM    7  C4  UNL     1     -35.339   4.971   5.072  1.00 20.00     0.169 A 
HETATM    8  C3  UNL     1     -34.560   4.046   5.965  1.00 20.00     0.202 A 
HETATM    9  O7  UNL     1     -34.523   5.471   6.135  1.00 20.00    -0.379 OA
ENDBRANCH   6   7
ENDBRANCH   1   6
TORSDOF 4
ENDMDL
MODEL 7
REMARK VINA RESULT:      -3.5      2.253      4.883
REMARK  4 active torsions:
REMARK  status: ('A' for Active; 'I' for Inactive)
REMARK    1  A    between atoms: C2_2  and  C5_5 
REMARK    2  A    between atoms: C4_4  and  C6_6 
REMARK    3  A    between atoms: C5_5  and  O8_8 
REMARK    4  A    between atoms: C6_6  and  O8_8 
ROOT
HETATM    1  O8  UNL     1     -32.679   6.578   2.861  1.00 20.00    -0.383 OA
ENDROOT
BRANCH   1   2
HETATM    2  C5  UNL     1     -31.868   7.738   2.990  1.00 20.00     0.218 C 
BRANCH   2   3
HETATM    3  C2  UNL     1     -32.074   8.627   1.807  1.00 20.00     0.026 C 
HETATM    4  C1  UNL     1     -31.686   8.323   0.562  1.00 20.00     0.034 C 
HETATM    5 CL9  UNL     1     -32.827  10.153   2.129  1.00 20.00    -0.088 Cl
ENDBRANCH   2   3
ENDBRANCH   1   2
BRANCH   1   6
HETATM    6  C6  UNL     1     -33.693   6.535   3.856  1.00 20.00     0.202 C 
BRANCH   6   7
HETATM    7  C4  UNL     1     -34.509   5.273   3.674  1.00 20.00     0.169 A 
HETATM    8  C3  UNL     1     -35.144   4.580   4.847  1.00 20.00     0.202 A 
HETATM    9  O7  UNL     1     -35.903   5.420   3.963  1.00 20.00    -0.379 OA
ENDBRANCH   6   7
ENDBRANCH   1   6
TORSDOF 4
ENDMDL
MODEL 8
REMARK VINA RESULT:      -3.5     10.983     11.892
REMARK  4 active torsions:
REMARK  status: ('A' for Active; 'I' for Inactive)
REMARK    1  A    between atoms: C2_2  and  C5_5 
REMARK    2  A    between atoms: C4_4  and  C6_6 
REMARK    3  A    between atoms: C5_5  and  O8_8 
REMARK    4  A    between atoms: C6_6  and  O8_8 
ROOT
HETATM    1  O8  UNL     1     -36.209  16.055  -4.149  1.00 20.00    -0.383 OA
ENDROOT
BRANCH   1   2
HETATM    2  C5  UNL     1     -36.258  16.715  -2.891  1.00 20.00     0.218 C 
BRANCH   2   3
HETATM    3  C2  UNL     1     -34.889  16.754  -2.293  1.00 20.00     0.026 C 
HETATM    4  C1  UNL     1     -34.632  16.573  -0.992  1.00 20.00     0.034 C 
HETATM    5 CL9  UNL     1     -33.594  17.104  -3.388  1.00 20.00    -0.088 Cl
ENDBRANCH   2   3
ENDBRANCH   1   2
BRANCH   1   6
HETATM    6  C6  UNL     1     -36.344  14.648  -4.006  1.00 20.00     0.202 C 
BRANCH   6   7
HETATM    7  C4  UNL     1     -35.248  13.965  -4.795  1.00 20.00     0.169 A 
HETATM    8  C3  UNL     1     -33.955  13.561  -4.144  1.00 20.00     0.202 A 
HETATM    9  O7  UNL     1     -34.996  12.609  -4.413  1.00 20.00    -0.379 OA
ENDBRANCH   6   7
ENDBRANCH   1   6
TORSDOF 4
ENDMDL
MODEL 9
REMARK VINA RESULT:      -3.3     11.215     11.639
REMARK  4 active torsions:
REMARK  status: ('A' for Active; 'I' for Inactive)
REMARK    1  A    between atoms: C2_2  and  C5_5 
REMARK    2  A    between atoms: C4_4  and  C6_6 
REMARK    3  A    between atoms: C5_5  and  O8_8 
REMARK    4  A    between atoms: C6_6  and  O8_8 
ROOT
HETATM    1  O8  UNL     1     -33.618  15.745  -2.773  1.00 20.00    -0.383 OA
ENDROOT
BRANCH   1   2
HETATM    2  C5  UNL     1     -34.964  16.199  -2.818  1.00 20.00     0.218 C 
BRANCH   2   3
HETATM    3  C2  UNL     1     -35.247  17.045  -1.619  1.00 20.00     0.026 C 
HETATM    4  C1  UNL     1     -34.607  16.928  -0.449  1.00 20.00     0.034 C 
HETATM    5 CL9  UNL     1     -36.521  18.204  -1.795  1.00 20.00    -0.088 Cl
ENDBRANCH   2   3
ENDBRANCH   1   2
BRANCH   1   6
HETATM    6  C6  UNL     1     -33.393  14.685  -3.692  1.00 20.00     0.202 C 
BRANCH   6   7
HETATM    7  C4  UNL     1     -34.725  14.078  -4.079  1.00 20.00     0.169 A 
HETATM    8  C3  UNL     1     -35.001  13.639  -5.490  1.00 20.00     0.202 A 
HETATM    9  O7  UNL     1     -34.661  12.699  -4.458  1.00 20.00    -0.379 OA
ENDBRANCH   6   7
ENDBRANCH   1   6
TORSDOF 4
ENDMDL
