MODEL 1
REMARK VINA RESULT:      -4.0      0.000      0.000
REMARK  2 active torsions:
REMARK  status: ('A' for Active; 'I' for Inactive)
REMARK    1  A    between atoms: C1_1  and  C3_3 
REMARK    2  A    between atoms: C2_2  and  C4_4 
ROOT
HETATM    1  C1  UNL     1     -33.041   6.175   3.348  1.00 20.00    -0.015 C 
HETATM    2  C2  UNL     1     -33.936   6.081   4.342  1.00 20.00    -0.015 C 
ENDROOT
BRANCH   1   3
HETATM    3  C3  UNL     1     -31.933   7.178   3.323  1.00 20.00     0.141 C 
HETATM    4 CL5  UNL     1     -32.097   8.224   1.897  1.00 20.00    -0.126 Cl
ENDBRANCH   1   3
BRANCH   2   5
HETATM    5  C4  UNL     1     -35.053   5.091   4.358  1.00 20.00     0.141 C 
HETATM    6 CL6  UNL     1     -35.031   4.178   5.882  1.00 20.00    -0.126 Cl
ENDBRANCH   2   5
TORSDOF 2
ENDMDL
MODEL 2
REMARK VINA RESULT:      -4.0      0.021      4.394
REMARK  2 active torsions:
REMARK  status: ('A' for Active; 'I' for Inactive)
REMARK    1  A    between atoms: C1_1  and  C3_3 
REMARK    2  A    between atoms: C2_2  and  C4_4 
ROOT
HETATM    1  C1  UNL     1     -33.924   6.069   4.349  1.00 20.00    -0.015 C 
HETATM    2  C2  UNL     1     -33.039   6.179   3.347  1.00 20.00    -0.015 C 
ENDROOT
BRANCH   1   3
HETATM    3  C3  UNL     1     -35.039   5.074   4.363  1.00 20.00     0.141 C 
HETATM    4 CL5  UNL     1     -35.050   4.201   5.910  1.00 20.00    -0.126 Cl
ENDBRANCH   1   3
BRANCH   2   5
HETATM    5  C4  UNL     1     -31.937   7.185   3.324  1.00 20.00     0.141 C 
HETATM    6 CL6  UNL     1     -32.094   8.224   1.892  1.00 20.00    -0.126 Cl
ENDBRANCH   2   5
TORSDOF 2
ENDMDL
MODEL 3
REMARK VINA RESULT:      -3.8      1.267      1.353
REMARK  2 active torsions:
REMARK  status: ('A' for Active; 'I' for Inactive)
REMARK    1  A    between atoms: C1_1  and  C3_3 
REMARK    2  A    between atoms: C2_2  and  C4_4 
ROOT
HETATM    1  C1  UNL     1     -33.518   5.887   4.058  1.00 20.00    -0.015 C 
HETATM    2  C2  UNL     1     -33.954   6.373   5.230  1.00 20.00    -0.015 C 
ENDROOT
BRANCH   1   3
HETATM    3  C3  UNL     1     -32.925   6.735   2.981  1.00 20.00     0.141 C 
HETATM    4 CL5  UNL     1     -31.488   7.577   3.596  1.00 20.00    -0.126 Cl
ENDBRANCH   1   3
BRANCH   2   5
HETATM    5  C4  UNL     1     -34.563   5.528   6.300  1.00 20.00     0.141 C 
HETATM    6 CL6  UNL     1     -34.963   3.924   5.650  1.00 20.00    -0.126 Cl
ENDBRANCH   2   5
TORSDOF 2
ENDMDL
MODEL 4
REMARK VINA RESULT:      -3.5      1.222      1.567
REMARK  2 active torsions:
REMARK  status: ('A' for Active; 'I' for Inactive)
REMARK    1  A    between atoms: C1_1  and  C3_3 
REMARK    2  A    between atoms: C2_2  and  C4_4 
ROOT
HETATM    1  C1  UNL     1     -32.271   7.369   3.115  1.00 20.00    -0.015 C 
HETATM    2  C2  UNL     1     -33.336   6.565   3.250  1.00 20.00    -0.015 C 
ENDROOT
BRANCH   1   3
HETATM    3  C3  UNL     1     -31.876   8.009   1.824  1.00 20.00     0.141 C 
HETATM    4 CL5  UNL     1     -32.563   9.644   1.725  1.00 20.00    -0.126 Cl
ENDBRANCH   1   3
BRANCH   2   5
HETATM    5  C4  UNL     1     -33.721   5.911   4.535  1.00 20.00     0.141 C 
HETATM    6 CL6  UNL     1     -35.264   5.052   4.339  1.00 20.00    -0.126 Cl
ENDBRANCH   2   5
TORSDOF 2
ENDMDL
MODEL 5
REMARK VINA RESULT:      -3.4      1.234      4.412
REMARK  2 active torsions:
REMARK  status: ('A' for Active; 'I' for Inactive)
REMARK    1  A    between atoms: C1_1  and  C3_3 
REMARK    2  A    between atoms: C2_2  and  C4_4 
ROOT
HETATM    1  C1  UNL     1     -33.361   6.632   3.260  1.00 20.00    -0.015 C 
HETATM    2  C2  UNL     1     -32.252   7.369   3.099  1.00 20.00    -0.015 C 
ENDROOT
BRANCH   1   3
HETATM    3  C3  UNL     1     -33.725   5.954   4.541  1.00 20.00     0.141 C 
HETATM    4 CL5  UNL     1     -35.247   5.060   4.340  1.00 20.00    -0.126 Cl
ENDBRANCH   1   3
BRANCH   2   5
HETATM    5  C4  UNL     1     -31.879   8.031   1.815  1.00 20.00     0.141 C 
HETATM    6 CL6  UNL     1     -32.578   9.664   1.750  1.00 20.00    -0.126 Cl
ENDBRANCH   2   5
TORSDOF 2
ENDMDL
MODEL 6
REMARK VINA RESULT:      -3.0     11.374     11.790
REMARK  2 active torsions:
REMARK  status: ('A' for Active; 'I' for Inactive)
REMARK    1  A    between atoms: C1_1  and  C3_3 
REMARK    2  A    between atoms: C2_2  and  C4_4 
ROOT
HETATM    1  C1  UNL     1     -34.694  16.316  -1.410  1.00 20.00    -0.015 C 
HETATM    2  C2  UNL     1     -34.081  15.928  -2.538  1.00 20.00    -0.015 C 
ENDROOT
BRANCH   1   3
HETATM    3  C3  UNL     1     -34.182  17.403  -0.521  1.00 20.00     0.141 C 
HETATM    4 CL5  UNL     1     -35.131  17.455   0.979  1.00 20.00    -0.126 Cl
ENDBRANCH   1   3
BRANCH   2   5
HETATM    5  C4  UNL     1     -34.582  14.830  -3.416  1.00 20.00     0.141 C 
HETATM    6 CL6  UNL     1     -33.270  13.682  -3.760  1.00 20.00    -0.126 Cl
ENDBRANCH   2   5
TORSDOF 2
ENDMDL
MODEL 7
REMARK VINA RESULT:      -3.0     11.307     11.814
REMARK  2 active torsions:
REMARK  status: ('A' for Active; 'I' for Inactive)
REMARK    1  A    between atoms: C1_1  and  C3_3 
REMARK    2  A    between atoms: C2_2  and  C4_4 
ROOT
HETATM    1  C1  UNL     1     -34.694  15.482  -2.886  1.00 20.00    -0.015 C 
HETATM    2  C2  UNL     1     -34.164  14.379  -3.435  1.00 20.00    -0.015 C 
ENDROOT
BRANCH   1   3
HETATM    3  C3  UNL     1     -33.909  16.466  -2.082  1.00 20.00     0.141 C 
HETATM    4 CL5  UNL     1     -34.668  16.691  -0.492  1.00 20.00    -0.126 Cl
ENDBRANCH   1   3
BRANCH   2   5
HETATM    5  C4  UNL     1     -34.953  13.387  -4.223  1.00 20.00     0.141 C 
HETATM    6 CL6  UNL     1     -35.065  13.911  -5.917  1.00 20.00    -0.126 Cl
ENDBRANCH   2   5
TORSDOF 2
ENDMDL
MODEL 8
REMARK VINA RESULT:      -3.0     11.343     11.668
REMARK  2 active torsions:
REMARK  status: ('A' for Active; 'I' for Inactive)
REMARK    1  A    between atoms: C1_1  and  C3_3 
REMARK    2  A    between atoms: C2_2  and  C4_4 
ROOT
HETATM    1  C1  UNL     1     -34.086  15.893  -2.542  1.00 20.00    -0.015 C 
HETATM    2  C2  UNL     1     -34.706  16.290  -1.420  1.00 20.00    -0.015 C 
ENDROOT
BRANCH   1   3
HETATM    3  C3  UNL     1     -34.582  14.787  -3.415  1.00 20.00     0.141 C 
HETATM    4 CL5  UNL     1     -33.263  13.647  -3.754  1.00 20.00    -0.126 Cl
ENDBRANCH   1   3
BRANCH   2   5
HETATM    5  C4  UNL     1     -34.201  17.383  -0.539  1.00 20.00     0.141 C 
HETATM    6 CL6  UNL     1     -35.143  17.431   0.967  1.00 20.00    -0.126 Cl
ENDBRANCH   2   5
TORSDOF 2
ENDMDL
MODEL 9
REMARK VINA RESULT:      -3.0     11.459     12.003
REMARK  2 active torsions:
REMARK  status: ('A' for Active; 'I' for Inactive)
REMARK    1  A    between atoms: C1_1  and  C3_3 
REMARK    2  A    between atoms: C2_2  and  C4_4 
ROOT
HETATM    1  C1  UNL     1     -33.649  16.243  -2.852  1.00 20.00    -0.015 C 
HETATM    2  C2  UNL     1     -34.578  16.018  -1.911  1.00 20.00    -0.015 C 
ENDROOT
BRANCH   1   3
HETATM    3  C3  UNL     1     -33.553  15.464  -4.123  1.00 20.00     0.141 C 
HETATM    4 CL5  UNL     1     -33.340  13.739  -3.760  1.00 20.00    -0.126 Cl
ENDBRANCH   1   3
BRANCH   2   5
HETATM    5  C4  UNL     1     -34.663  16.784  -0.634  1.00 20.00     0.141 C 
HETATM    6 CL6  UNL     1     -33.320  17.943  -0.531  1.00 20.00    -0.126 Cl
ENDBRANCH   2   5
TORSDOF 2
ENDMDL
