MODEL 1
REMARK VINA RESULT:      -4.6      0.000      0.000
REMARK  2 active torsions:
REMARK  status: ('A' for Active; 'I' for Inactive)
REMARK    1  A    between atoms: C6_6  and  C11_11 
REMARK    2  A    between atoms: C11_11  and  O12_12 
ROOT
HETATM    1  C1  UNL     1     -33.615  18.487  -2.055  1.00 20.00    -0.024 C 
HETATM    2  C2  UNL     1     -33.998  17.994  -0.865  1.00 20.00    -0.087 C 
HETATM    3  C3  UNL     1     -33.695  17.717  -3.340  1.00 20.00     0.035 C 
HETATM    4  C4  UNL     1     -34.582  16.611  -0.726  1.00 20.00     0.034 C 
HETATM    5  C5  UNL     1     -34.982  15.973  -2.061  1.00 20.00     0.012 C 
HETATM    6  C6  UNL     1     -33.912  16.210  -3.130  1.00 20.00     0.023 C 
HETATM    7  C7  UNL     1     -33.867  18.786   0.402  1.00 20.00     0.043 C 
ENDROOT
BRANCH   6   8
HETATM    8  C11 UNL     1     -34.286  15.527  -4.444  1.00 20.00     0.057 C 
HETATM    9  C8  UNL     1     -33.664  16.263  -5.629  1.00 20.00     0.046 C 
HETATM   10  C9  UNL     1     -35.804  15.444  -4.603  1.00 20.00     0.046 C 
BRANCH   8  11
HETATM   11  O12 UNL     1     -33.756  14.201  -4.437  1.00 20.00    -0.385 OA
HETATM   12  C10 UNL     1     -34.748  13.249  -4.784  1.00 20.00     0.202 C 
ENDBRANCH   8  11
ENDBRANCH   6   8
TORSDOF 2
ENDMDL
MODEL 2
REMARK VINA RESULT:      -4.6      0.907      1.500
REMARK  2 active torsions:
REMARK  status: ('A' for Active; 'I' for Inactive)
REMARK    1  A    between atoms: C6_6  and  C11_11 
REMARK    2  A    between atoms: C11_11  and  O12_12 
ROOT
HETATM    1  C1  UNL     1     -33.626  18.477  -2.374  1.00 20.00    -0.024 C 
HETATM    2  C2  UNL     1     -33.928  18.222  -1.089  1.00 20.00    -0.087 C 
HETATM    3  C3  UNL     1     -33.719  17.456  -3.470  1.00 20.00     0.035 C 
HETATM    4  C4  UNL     1     -34.427  16.872  -0.641  1.00 20.00     0.034 C 
HETATM    5  C5  UNL     1     -34.849  15.956  -1.794  1.00 20.00     0.012 C 
HETATM    6  C6  UNL     1     -33.842  16.016  -2.947  1.00 20.00     0.023 C 
HETATM    7  C7  UNL     1     -33.786  19.263  -0.018  1.00 20.00     0.043 C 
ENDROOT
BRANCH   6   8
HETATM    8  C11 UNL     1     -34.235  15.062  -4.072  1.00 20.00     0.057 C 
HETATM    9  C8  UNL     1     -35.753  14.899  -4.134  1.00 20.00     0.046 C 
HETATM   10  C9  UNL     1     -33.558  13.704  -3.899  1.00 20.00     0.046 C 
BRANCH   8  11
HETATM   11  O12 UNL     1     -33.814  15.625  -5.316  1.00 20.00    -0.385 OA
HETATM   12  C10 UNL     1     -34.488  15.022  -6.408  1.00 20.00     0.202 C 
ENDBRANCH   8  11
ENDBRANCH   6   8
TORSDOF 2
ENDMDL
MODEL 3
REMARK VINA RESULT:      -4.5      1.946      4.871
REMARK  2 active torsions:
REMARK  status: ('A' for Active; 'I' for Inactive)
REMARK    1  A    between atoms: C6_6  and  C11_11 
REMARK    2  A    between atoms: C11_11  and  O12_12 
ROOT
HETATM    1  C1  UNL     1     -35.830  14.806  -3.583  1.00 20.00    -0.024 C 
HETATM    2  C2  UNL     1     -34.667  14.267  -3.988  1.00 20.00    -0.087 C 
HETATM    3  C3  UNL     1     -35.927  15.951  -2.620  1.00 20.00     0.035 C 
HETATM    4  C4  UNL     1     -33.337  14.802  -3.521  1.00 20.00     0.034 C 
HETATM    5  C5  UNL     1     -33.428  16.166  -2.830  1.00 20.00     0.012 C 
HETATM    6  C6  UNL     1     -34.615  16.219  -1.864  1.00 20.00     0.023 C 
HETATM    7  C7  UNL     1     -34.617  13.097  -4.925  1.00 20.00     0.043 C 
ENDROOT
BRANCH   6   8
HETATM    8  C11 UNL     1     -34.673  17.561  -1.136  1.00 20.00     0.057 C 
HETATM    9  C8  UNL     1     -34.953  17.354   0.351  1.00 20.00     0.046 C 
HETATM   10  C9  UNL     1     -35.728  18.475  -1.758  1.00 20.00     0.046 C 
BRANCH   8  11
HETATM   11  O12 UNL     1     -33.399  18.196  -1.249  1.00 20.00    -0.385 OA
HETATM   12  C10 UNL     1     -32.891  18.559   0.024  1.00 20.00     0.202 C 
ENDBRANCH   8  11
ENDBRANCH   6   8
TORSDOF 2
ENDMDL
MODEL 4
REMARK VINA RESULT:      -4.5      1.538      2.613
REMARK  2 active torsions:
REMARK  status: ('A' for Active; 'I' for Inactive)
REMARK    1  A    between atoms: C6_6  and  C11_11 
REMARK    2  A    between atoms: C11_11  and  O12_12 
ROOT
HETATM    1  C1  UNL     1     -34.118  16.716  -1.619  1.00 20.00    -0.024 C 
HETATM    2  C2  UNL     1     -33.894  17.871  -2.270  1.00 20.00    -0.087 C 
HETATM    3  C3  UNL     1     -34.788  15.526  -2.240  1.00 20.00     0.035 C 
HETATM    4  C4  UNL     1     -34.278  18.057  -3.716  1.00 20.00     0.034 C 
HETATM    5  C5  UNL     1     -34.634  16.751  -4.434  1.00 20.00     0.012 C 
HETATM    6  C6  UNL     1     -35.514  15.858  -3.554  1.00 20.00     0.023 C 
HETATM    7  C7  UNL     1     -33.252  19.049  -1.599  1.00 20.00     0.043 C 
ENDROOT
BRANCH   6   8
HETATM    8  C11 UNL     1     -35.912  14.581  -4.291  1.00 20.00     0.057 C 
HETATM    9  C8  UNL     1     -34.852  13.498  -4.103  1.00 20.00     0.046 C 
HETATM   10  C9  UNL     1     -36.139  14.855  -5.777  1.00 20.00     0.046 C 
BRANCH   8  11
HETATM   11  O12 UNL     1     -37.130  14.090  -3.728  1.00 20.00    -0.385 OA
HETATM   12  C10 UNL     1     -38.201  14.990  -3.957  1.00 20.00     0.202 C 
ENDBRANCH   8  11
ENDBRANCH   6   8
TORSDOF 2
ENDMDL
MODEL 5
REMARK VINA RESULT:      -4.5      2.085      4.929
REMARK  2 active torsions:
REMARK  status: ('A' for Active; 'I' for Inactive)
REMARK    1  A    between atoms: C6_6  and  C11_11 
REMARK    2  A    between atoms: C11_11  and  O12_12 
ROOT
HETATM    1  C1  UNL     1     -35.883  14.873  -3.554  1.00 20.00    -0.024 C 
HETATM    2  C2  UNL     1     -34.731  14.357  -4.017  1.00 20.00    -0.087 C 
HETATM    3  C3  UNL     1     -35.955  15.942  -2.504  1.00 20.00     0.035 C 
HETATM    4  C4  UNL     1     -33.389  14.845  -3.532  1.00 20.00     0.034 C 
HETATM    5  C5  UNL     1     -33.457  16.153  -2.737  1.00 20.00     0.012 C 
HETATM    6  C6  UNL     1     -34.629  16.141  -1.751  1.00 20.00     0.023 C 
HETATM    7  C7  UNL     1     -34.706  13.263  -5.042  1.00 20.00     0.043 C 
ENDROOT
BRANCH   6   8
HETATM    8  C11 UNL     1     -34.664  17.423  -0.922  1.00 20.00     0.057 C 
HETATM    9  C8  UNL     1     -35.695  18.400  -1.484  1.00 20.00     0.046 C 
HETATM   10  C9  UNL     1     -33.283  18.075  -0.866  1.00 20.00     0.046 C 
BRANCH   8  11
HETATM   11  O12 UNL     1     -35.066  17.095   0.409  1.00 20.00    -0.385 OA
HETATM   12  C10 UNL     1     -35.976  18.053   0.923  1.00 20.00     0.202 C 
ENDBRANCH   8  11
ENDBRANCH   6   8
TORSDOF 2
ENDMDL
MODEL 6
REMARK VINA RESULT:      -4.4      1.469      2.678
REMARK  2 active torsions:
REMARK  status: ('A' for Active; 'I' for Inactive)
REMARK    1  A    between atoms: C6_6  and  C11_11 
REMARK    2  A    between atoms: C11_11  and  O12_12 
ROOT
HETATM    1  C1  UNL     1     -34.664  15.924  -1.914  1.00 20.00    -0.024 C 
HETATM    2  C2  UNL     1     -34.035  17.108  -2.013  1.00 20.00    -0.087 C 
HETATM    3  C3  UNL     1     -35.069  15.095  -3.097  1.00 20.00     0.035 C 
HETATM    4  C4  UNL     1     -33.648  17.695  -3.348  1.00 20.00     0.034 C 
HETATM    5  C5  UNL     1     -33.745  16.702  -4.510  1.00 20.00     0.012 C 
HETATM    6  C6  UNL     1     -35.028  15.870  -4.423  1.00 20.00     0.023 C 
HETATM    7  C7  UNL     1     -33.679  17.922  -0.805  1.00 20.00     0.043 C 
ENDROOT
BRANCH   6   8
HETATM    8  C11 UNL     1     -35.150  14.919  -5.612  1.00 20.00     0.057 C 
HETATM    9  C8  UNL     1     -34.777  13.496  -5.202  1.00 20.00     0.046 C 
HETATM   10  C9  UNL     1     -34.279  15.386  -6.777  1.00 20.00     0.046 C 
BRANCH   8  11
HETATM   11  O12 UNL     1     -36.512  14.898  -6.042  1.00 20.00    -0.385 OA
HETATM   12  C10 UNL     1     -37.033  16.211  -6.162  1.00 20.00     0.202 C 
ENDBRANCH   8  11
ENDBRANCH   6   8
TORSDOF 2
ENDMDL
MODEL 7
REMARK VINA RESULT:      -4.4      1.235      2.285
REMARK  2 active torsions:
REMARK  status: ('A' for Active; 'I' for Inactive)
REMARK    1  A    between atoms: C6_6  and  C11_11 
REMARK    2  A    between atoms: C11_11  and  O12_12 
ROOT
HETATM    1  C1  UNL     1     -34.469  16.263  -1.541  1.00 20.00    -0.024 C 
HETATM    2  C2  UNL     1     -33.906  17.458  -1.788  1.00 20.00    -0.087 C 
HETATM    3  C3  UNL     1     -34.932  15.323  -2.614  1.00 20.00     0.035 C 
HETATM    4  C4  UNL     1     -33.660  17.947  -3.193  1.00 20.00     0.034 C 
HETATM    5  C5  UNL     1     -33.807  16.858  -4.261  1.00 20.00     0.012 C 
HETATM    6  C6  UNL     1     -35.038  15.986  -3.996  1.00 20.00     0.023 C 
HETATM    7  C7  UNL     1     -33.490  18.384  -0.684  1.00 20.00     0.043 C 
ENDROOT
BRANCH   6   8
HETATM    8  C11 UNL     1     -35.214  14.935  -5.090  1.00 20.00     0.057 C 
HETATM    9  C8  UNL     1     -36.545  15.130  -5.814  1.00 20.00     0.046 C 
HETATM   10  C9  UNL     1     -35.121  13.524  -4.512  1.00 20.00     0.046 C 
BRANCH   8  11
HETATM   11  O12 UNL     1     -34.173  15.101  -6.054  1.00 20.00    -0.385 OA
HETATM   12  C10 UNL     1     -34.658  14.909  -7.373  1.00 20.00     0.202 C 
ENDBRANCH   8  11
ENDBRANCH   6   8
TORSDOF 2
ENDMDL
MODEL 8
REMARK VINA RESULT:      -4.3      0.857      1.699
REMARK  2 active torsions:
REMARK  status: ('A' for Active; 'I' for Inactive)
REMARK    1  A    between atoms: C6_6  and  C11_11 
REMARK    2  A    between atoms: C11_11  and  O12_12 
ROOT
HETATM    1  C1  UNL     1     -34.418  16.560  -1.071  1.00 20.00    -0.024 C 
HETATM    2  C2  UNL     1     -33.825  17.753  -1.253  1.00 20.00    -0.087 C 
HETATM    3  C3  UNL     1     -34.954  15.718  -2.191  1.00 20.00     0.035 C 
HETATM    4  C4  UNL     1     -33.617  18.338  -2.627  1.00 20.00     0.034 C 
HETATM    5  C5  UNL     1     -33.842  17.337  -3.765  1.00 20.00     0.012 C 
HETATM    6  C6  UNL     1     -35.091  16.487  -3.515  1.00 20.00     0.023 C 
HETATM    7  C7  UNL     1     -33.335  18.580  -0.101  1.00 20.00     0.043 C 
ENDROOT
BRANCH   6   8
HETATM    8  C11 UNL     1     -35.344  15.527  -4.676  1.00 20.00     0.057 C 
HETATM    9  C8  UNL     1     -34.176  15.552  -5.660  1.00 20.00     0.046 C 
HETATM   10  C9  UNL     1     -36.652  15.866  -5.389  1.00 20.00     0.046 C 
BRANCH   8  11
HETATM   11  O12 UNL     1     -35.440  14.199  -4.157  1.00 20.00    -0.385 OA
HETATM   12  C10 UNL     1     -34.692  13.286  -4.942  1.00 20.00     0.202 C 
ENDBRANCH   8  11
ENDBRANCH   6   8
TORSDOF 2
ENDMDL
MODEL 9
REMARK VINA RESULT:      -4.1     12.723     15.101
REMARK  2 active torsions:
REMARK  status: ('A' for Active; 'I' for Inactive)
REMARK    1  A    between atoms: C6_6  and  C11_11 
REMARK    2  A    between atoms: C11_11  and  O12_12 
ROOT
HETATM    1  C1  UNL     1     -40.776   4.956  -1.255  1.00 20.00    -0.024 C 
HETATM    2  C2  UNL     1     -41.571   6.020  -1.458  1.00 20.00    -0.087 C 
HETATM    3  C3  UNL     1     -41.010   3.610  -1.874  1.00 20.00     0.035 C 
HETATM    4  C4  UNL     1     -42.770   5.955  -2.371  1.00 20.00     0.034 C 
HETATM    5  C5  UNL     1     -42.804   4.707  -3.258  1.00 20.00     0.012 C 
HETATM    6  C6  UNL     1     -42.420   3.453  -2.466  1.00 20.00     0.023 C 
HETATM    7  C7  UNL     1     -41.320   7.339  -0.790  1.00 20.00     0.043 C 
ENDROOT
BRANCH   6   8
HETATM    8  C11 UNL     1     -42.506   2.203  -3.338  1.00 20.00     0.057 C 
HETATM    9  C8  UNL     1     -41.115   1.770  -3.797  1.00 20.00     0.046 C 
HETATM   10  C9  UNL     1     -43.417   2.438  -4.542  1.00 20.00     0.046 C 
BRANCH   8  11
HETATM   11  O12 UNL     1     -43.050   1.138  -2.557  1.00 20.00    -0.385 OA
HETATM   12  C10 UNL     1     -42.820  -0.119  -3.170  1.00 20.00     0.202 C 
ENDBRANCH   8  11
ENDBRANCH   6   8
TORSDOF 2
ENDMDL
