MODEL 1
REMARK VINA RESULT:      -3.6      0.000      0.000
REMARK  1 active torsions:
REMARK  status: ('A' for Active; 'I' for Inactive)
REMARK    1  A    between atoms: C7_7  and  C8_8 
ROOT
HETATM    1  C1  UNL     1     -36.345  15.120  -3.400  1.00 20.00     0.015 C 
HETATM    2  C2  UNL     1     -35.491  15.216  -5.733  1.00 20.00     0.015 C 
HETATM    3  C3  UNL     1     -34.963  13.258  -4.295  1.00 20.00     0.015 C 
HETATM    4  C7  UNL     1     -35.120  14.798  -4.290  1.00 20.00    -0.045 C 
ENDROOT
BRANCH   4   5
HETATM    5  C8  UNL     1     -33.798  15.533  -3.776  1.00 20.00    -0.045 C 
HETATM    6  C4  UNL     1     -34.016  16.230  -2.411  1.00 20.00     0.015 C 
HETATM    7  C5  UNL     1     -33.319  16.623  -4.765  1.00 20.00     0.015 C 
HETATM    8  C6  UNL     1     -32.621  14.545  -3.591  1.00 20.00     0.015 C 
ENDBRANCH   4   5
TORSDOF 1
ENDMDL
MODEL 2
REMARK VINA RESULT:      -3.6      0.021      3.070
REMARK  1 active torsions:
REMARK  status: ('A' for Active; 'I' for Inactive)
REMARK    1  A    between atoms: C7_7  and  C8_8 
ROOT
HETATM    1  C1  UNL     1     -34.021  16.216  -2.388  1.00 20.00     0.015 C 
HETATM    2  C2  UNL     1     -32.619  14.551  -3.591  1.00 20.00     0.015 C 
HETATM    3  C3  UNL     1     -33.335  16.636  -4.741  1.00 20.00     0.015 C 
HETATM    4  C7  UNL     1     -33.803  15.533  -3.761  1.00 20.00    -0.045 C 
ENDROOT
BRANCH   4   5
HETATM    5  C8  UNL     1     -35.123  14.795  -4.277  1.00 20.00    -0.045 C 
HETATM    6  C4  UNL     1     -34.967  13.255  -4.266  1.00 20.00     0.015 C 
HETATM    7  C5  UNL     1     -35.483  15.199  -5.728  1.00 20.00     0.015 C 
HETATM    8  C6  UNL     1     -36.354  15.126  -3.400  1.00 20.00     0.015 C 
ENDBRANCH   4   5
TORSDOF 1
ENDMDL
MODEL 3
REMARK VINA RESULT:      -3.6      0.031      2.154
REMARK  1 active torsions:
REMARK  status: ('A' for Active; 'I' for Inactive)
REMARK    1  A    between atoms: C7_7  and  C8_8 
ROOT
HETATM    1  C1  UNL     1     -34.970  13.265  -4.259  1.00 20.00     0.015 C 
HETATM    2  C2  UNL     1     -36.328  15.149  -3.371  1.00 20.00     0.015 C 
HETATM    3  C3  UNL     1     -35.500  15.210  -5.715  1.00 20.00     0.015 C 
HETATM    4  C7  UNL     1     -35.116  14.807  -4.270  1.00 20.00    -0.045 C 
ENDROOT
BRANCH   4   5
HETATM    5  C8  UNL     1     -33.783  15.538  -3.780  1.00 20.00    -0.045 C 
HETATM    6  C4  UNL     1     -33.304  16.608  -4.790  1.00 20.00     0.015 C 
HETATM    7  C5  UNL     1     -32.612  14.542  -3.591  1.00 20.00     0.015 C 
HETATM    8  C6  UNL     1     -33.982  16.258  -2.424  1.00 20.00     0.015 C 
ENDBRANCH   4   5
TORSDOF 1
ENDMDL
MODEL 4
REMARK VINA RESULT:      -3.6      0.057      2.171
REMARK  1 active torsions:
REMARK  status: ('A' for Active; 'I' for Inactive)
REMARK    1  A    between atoms: C7_7  and  C8_8 
ROOT
HETATM    1  C1  UNL     1     -35.432  15.151  -5.754  1.00 20.00     0.015 C 
HETATM    2  C2  UNL     1     -34.911  13.246  -4.244  1.00 20.00     0.015 C 
HETATM    3  C3  UNL     1     -36.339  15.116  -3.439  1.00 20.00     0.015 C 
HETATM    4  C7  UNL     1     -35.089  14.783  -4.290  1.00 20.00    -0.045 C 
ENDROOT
BRANCH   4   5
HETATM    5  C8  UNL     1     -33.789  15.552  -3.769  1.00 20.00    -0.045 C 
HETATM    6  C4  UNL     1     -32.580  14.600  -3.606  1.00 20.00     0.015 C 
HETATM    7  C5  UNL     1     -34.023  16.219  -2.392  1.00 20.00     0.015 C 
HETATM    8  C6  UNL     1     -33.349  16.672  -4.742  1.00 20.00     0.015 C 
ENDBRANCH   4   5
TORSDOF 1
ENDMDL
MODEL 5
REMARK VINA RESULT:      -3.6      0.049      3.070
REMARK  1 active torsions:
REMARK  status: ('A' for Active; 'I' for Inactive)
REMARK    1  A    between atoms: C7_7  and  C8_8 
ROOT
HETATM    1  C1  UNL     1     -33.366  16.671  -4.699  1.00 20.00     0.015 C 
HETATM    2  C2  UNL     1     -34.061  16.193  -2.360  1.00 20.00     0.015 C 
HETATM    3  C3  UNL     1     -32.629  14.573  -3.587  1.00 20.00     0.015 C 
HETATM    4  C7  UNL     1     -33.826  15.542  -3.744  1.00 20.00    -0.045 C 
ENDROOT
BRANCH   4   5
HETATM    5  C8  UNL     1     -35.132  14.797  -4.285  1.00 20.00    -0.045 C 
HETATM    6  C4  UNL     1     -35.481  15.217  -5.733  1.00 20.00     0.015 C 
HETATM    7  C5  UNL     1     -36.376  15.106  -3.416  1.00 20.00     0.015 C 
HETATM    8  C6  UNL     1     -34.960  13.259  -4.293  1.00 20.00     0.015 C 
ENDBRANCH   4   5
TORSDOF 1
ENDMDL
MODEL 6
REMARK VINA RESULT:      -3.6      0.056      1.534
REMARK  1 active torsions:
REMARK  status: ('A' for Active; 'I' for Inactive)
REMARK    1  A    between atoms: C7_7  and  C8_8 
ROOT
HETATM    1  C1  UNL     1     -36.332  15.118  -3.427  1.00 20.00     0.015 C 
HETATM    2  C2  UNL     1     -35.435  15.151  -5.745  1.00 20.00     0.015 C 
HETATM    3  C3  UNL     1     -34.910  13.246  -4.237  1.00 20.00     0.015 C 
HETATM    4  C7  UNL     1     -35.087  14.783  -4.283  1.00 20.00    -0.045 C 
ENDROOT
BRANCH   4   5
HETATM    5  C8  UNL     1     -33.783  15.551  -3.768  1.00 20.00    -0.045 C 
HETATM    6  C4  UNL     1     -32.575  14.597  -3.607  1.00 20.00     0.015 C 
HETATM    7  C5  UNL     1     -34.011  16.221  -2.392  1.00 20.00     0.015 C 
HETATM    8  C6  UNL     1     -33.344  16.668  -4.745  1.00 20.00     0.015 C 
ENDBRANCH   4   5
TORSDOF 1
ENDMDL
MODEL 7
REMARK VINA RESULT:      -3.6      0.066      3.070
REMARK  1 active torsions:
REMARK  status: ('A' for Active; 'I' for Inactive)
REMARK    1  A    between atoms: C7_7  and  C8_8 
ROOT
HETATM    1  C1  UNL     1     -32.607  14.633  -3.586  1.00 20.00     0.015 C 
HETATM    2  C2  UNL     1     -33.379  16.712  -4.710  1.00 20.00     0.015 C 
HETATM    3  C3  UNL     1     -34.065  16.237  -2.368  1.00 20.00     0.015 C 
HETATM    4  C7  UNL     1     -33.820  15.582  -3.749  1.00 20.00    -0.045 C 
ENDROOT
BRANCH   4   5
HETATM    5  C8  UNL     1     -35.114  14.813  -4.284  1.00 20.00    -0.045 C 
HETATM    6  C4  UNL     1     -35.474  15.224  -5.732  1.00 20.00     0.015 C 
HETATM    7  C5  UNL     1     -36.360  15.100  -3.413  1.00 20.00     0.015 C 
HETATM    8  C6  UNL     1     -34.914  13.278  -4.291  1.00 20.00     0.015 C 
ENDBRANCH   4   5
TORSDOF 1
ENDMDL
MODEL 8
REMARK VINA RESULT:      -3.6      1.037      2.819
REMARK  1 active torsions:
REMARK  status: ('A' for Active; 'I' for Inactive)
REMARK    1  A    between atoms: C7_7  and  C8_8 
ROOT
HETATM    1  C1  UNL     1     -32.624  14.747  -3.648  1.00 20.00     0.015 C 
HETATM    2  C2  UNL     1     -34.700  15.587  -2.568  1.00 20.00     0.015 C 
HETATM    3  C3  UNL     1     -34.770  13.535  -3.970  1.00 20.00     0.015 C 
HETATM    4  C7  UNL     1     -34.144  14.946  -3.862  1.00 20.00    -0.045 C 
ENDROOT
BRANCH   4   5
HETATM    5  C8  UNL     1     -34.454  15.838  -5.152  1.00 20.00    -0.045 C 
HETATM    6  C4  UNL     1     -34.413  15.005  -6.455  1.00 20.00     0.015 C 
HETATM    7  C5  UNL     1     -33.431  16.987  -5.321  1.00 20.00     0.015 C 
HETATM    8  C6  UNL     1     -35.855  16.491  -5.081  1.00 20.00     0.015 C 
ENDBRANCH   4   5
TORSDOF 1
ENDMDL
MODEL 9
REMARK VINA RESULT:      -3.6      1.027      2.603
REMARK  1 active torsions:
REMARK  status: ('A' for Active; 'I' for Inactive)
REMARK    1  A    between atoms: C7_7  and  C8_8 
ROOT
HETATM    1  C1  UNL     1     -33.307  16.680  -5.198  1.00 20.00     0.015 C 
HETATM    2  C2  UNL     1     -34.418  14.930  -6.571  1.00 20.00     0.015 C 
HETATM    3  C3  UNL     1     -35.788  16.513  -5.230  1.00 20.00     0.015 C 
HETATM    4  C7  UNL     1     -34.486  15.676  -5.217  1.00 20.00    -0.045 C 
ENDROOT
BRANCH   4   5
HETATM    5  C8  UNL     1     -34.434  14.670  -3.977  1.00 20.00    -0.045 C 
HETATM    6  C4  UNL     1     -35.277  13.397  -4.229  1.00 20.00     0.015 C 
HETATM    7  C5  UNL     1     -34.978  15.319  -2.681  1.00 20.00     0.015 C 
HETATM    8  C6  UNL     1     -32.991  14.200  -3.672  1.00 20.00     0.015 C 
ENDBRANCH   4   5
TORSDOF 1
ENDMDL
