MODEL 1
REMARK VINA RESULT:      -3.9      0.000      0.000
REMARK  0 active torsions:
REMARK  status: ('A' for Active; 'I' for Inactive)
ROOT
HETATM    1  C1  UNL     1     -33.639   6.336   4.016  1.00 20.00     0.282 C 
HETATM    2  C2  UNL     1     -34.683   5.334   3.565  1.00 20.00     0.278 C 
HETATM    3  C3  UNL     1     -34.392   5.893   6.281  1.00 20.00     0.205 C 
HETATM    4  C4  UNL     1     -34.968   4.602   5.756  1.00 20.00     0.195 C 
HETATM    5  O5  UNL     1     -32.954   6.955   3.207  1.00 20.00    -0.263 OA
HETATM    6  O6  UNL     1     -33.451   6.462   5.352  1.00 20.00    -0.318 OA
HETATM    7  O7  UNL     1     -35.617   4.909   4.531  1.00 20.00    -0.379 OA
ENDROOT
TORSDOF 0
ENDMDL
MODEL 2
REMARK VINA RESULT:      -3.6      1.034      2.290
REMARK  0 active torsions:
REMARK  status: ('A' for Active; 'I' for Inactive)
ROOT
HETATM    1  C1  UNL     1     -33.878   6.410   5.971  1.00 20.00     0.282 C 
HETATM    2  C2  UNL     1     -34.755   5.243   6.376  1.00 20.00     0.278 C 
HETATM    3  C3  UNL     1     -34.191   5.670   3.679  1.00 20.00     0.205 C 
HETATM    4  C4  UNL     1     -35.412   4.930   4.165  1.00 20.00     0.195 C 
HETATM    5  O5  UNL     1     -33.358   7.142   6.808  1.00 20.00    -0.263 OA
HETATM    6  O6  UNL     1     -33.753   6.646   4.642  1.00 20.00    -0.318 OA
HETATM    7  O7  UNL     1     -35.050   4.290   5.380  1.00 20.00    -0.379 OA
ENDROOT
TORSDOF 0
ENDMDL
MODEL 3
REMARK VINA RESULT:      -3.4     11.984     13.046
REMARK  0 active torsions:
REMARK  status: ('A' for Active; 'I' for Inactive)
ROOT
HETATM    1  C1  UNL     1     -34.422  13.619  -4.604  1.00 20.00     0.282 C 
HETATM    2  C2  UNL     1     -34.672  14.647  -5.689  1.00 20.00     0.278 C 
HETATM    3  C3  UNL     1     -32.763  15.157  -3.722  1.00 20.00     0.205 C 
HETATM    4  C4  UNL     1     -33.469  16.242  -4.496  1.00 20.00     0.195 C 
HETATM    5  O5  UNL     1     -34.999  12.536  -4.603  1.00 20.00    -0.263 OA
HETATM    6  O6  UNL     1     -33.585  13.981  -3.602  1.00 20.00    -0.318 OA
HETATM    7  O7  UNL     1     -33.755  15.712  -5.782  1.00 20.00    -0.379 OA
ENDROOT
TORSDOF 0
ENDMDL
MODEL 4
REMARK VINA RESULT:      -3.4     11.679     12.260
REMARK  0 active torsions:
REMARK  status: ('A' for Active; 'I' for Inactive)
ROOT
HETATM    1  C1  UNL     1     -36.075  14.292  -3.791  1.00 20.00     0.282 C 
HETATM    2  C2  UNL     1     -35.069  13.277  -4.293  1.00 20.00     0.278 C 
HETATM    3  C3  UNL     1     -34.187  15.493  -2.848  1.00 20.00     0.205 C 
HETATM    4  C4  UNL     1     -33.318  14.735  -3.821  1.00 20.00     0.195 C 
HETATM    5  O5  UNL     1     -37.281  14.133  -3.954  1.00 20.00    -0.263 OA
HETATM    6  O6  UNL     1     -35.576  15.414  -3.218  1.00 20.00    -0.318 OA
HETATM    7  O7  UNL     1     -33.754  13.384  -3.798  1.00 20.00    -0.379 OA
ENDROOT
TORSDOF 0
ENDMDL
MODEL 5
REMARK VINA RESULT:      -3.4      1.007      2.090
REMARK  0 active torsions:
REMARK  status: ('A' for Active; 'I' for Inactive)
ROOT
HETATM    1  C1  UNL     1     -34.458   5.308   3.696  1.00 20.00     0.282 C 
HETATM    2  C2  UNL     1     -33.800   6.461   4.427  1.00 20.00     0.278 C 
HETATM    3  C3  UNL     1     -34.865   4.336   5.883  1.00 20.00     0.205 C 
HETATM    4  C4  UNL     1     -34.683   5.722   6.449  1.00 20.00     0.195 C 
HETATM    5  O5  UNL     1     -34.482   5.258   2.470  1.00 20.00    -0.263 OA
HETATM    6  O6  UNL     1     -35.077   4.376   4.460  1.00 20.00    -0.318 OA
HETATM    7  O7  UNL     1     -33.551   6.286   5.802  1.00 20.00    -0.379 OA
ENDROOT
TORSDOF 0
ENDMDL
MODEL 6
REMARK VINA RESULT:      -3.4     11.973     12.529
REMARK  0 active torsions:
REMARK  status: ('A' for Active; 'I' for Inactive)
ROOT
HETATM    1  C1  UNL     1     -36.430  14.203  -3.933  1.00 20.00     0.282 C 
HETATM    2  C2  UNL     1     -35.593  15.403  -3.538  1.00 20.00     0.278 C 
HETATM    3  C3  UNL     1     -34.367  13.198  -4.725  1.00 20.00     0.205 C 
HETATM    4  C4  UNL     1     -33.639  14.174  -3.835  1.00 20.00     0.195 C 
HETATM    5  O5  UNL     1     -37.650  14.200  -3.797  1.00 20.00    -0.263 OA
HETATM    6  O6  UNL     1     -35.761  13.111  -4.377  1.00 20.00    -0.318 OA
HETATM    7  O7  UNL     1     -34.266  15.436  -4.009  1.00 20.00    -0.379 OA
ENDROOT
TORSDOF 0
ENDMDL
MODEL 7
REMARK VINA RESULT:      -3.4     11.937     13.281
REMARK  0 active torsions:
REMARK  status: ('A' for Active; 'I' for Inactive)
ROOT
HETATM    1  C1  UNL     1     -34.388  13.720  -4.778  1.00 20.00     0.282 C 
HETATM    2  C2  UNL     1     -33.410  14.204  -3.726  1.00 20.00     0.278 C 
HETATM    3  C3  UNL     1     -34.471  16.017  -5.559  1.00 20.00     0.205 C 
HETATM    4  C4  UNL     1     -33.156  16.225  -4.851  1.00 20.00     0.195 C 
HETATM    5  O5  UNL     1     -34.772  12.554  -4.807  1.00 20.00    -0.263 OA
HETATM    6  O6  UNL     1     -34.760  14.616  -5.723  1.00 20.00    -0.318 OA
HETATM    7  O7  UNL     1     -33.267  15.598  -3.582  1.00 20.00    -0.379 OA
ENDROOT
TORSDOF 0
ENDMDL
MODEL 8
REMARK VINA RESULT:      -3.3     11.753     13.070
REMARK  0 active torsions:
REMARK  status: ('A' for Active; 'I' for Inactive)
ROOT
HETATM    1  C1  UNL     1     -33.497  15.627  -4.778  1.00 20.00     0.282 C 
HETATM    2  C2  UNL     1     -33.174  14.624  -3.689  1.00 20.00     0.278 C 
HETATM    3  C3  UNL     1     -34.994  13.947  -5.690  1.00 20.00     0.205 C 
HETATM    4  C4  UNL     1     -34.985  13.307  -4.324  1.00 20.00     0.195 C 
HETATM    5  O5  UNL     1     -32.931  16.715  -4.836  1.00 20.00    -0.263 OA
HETATM    6  O6  UNL     1     -34.489  15.294  -5.640  1.00 20.00    -0.318 OA
HETATM    7  O7  UNL     1     -33.636  13.307  -3.878  1.00 20.00    -0.379 OA
ENDROOT
TORSDOF 0
ENDMDL
MODEL 9
REMARK VINA RESULT:      -3.3     11.837     12.363
REMARK  0 active torsions:
REMARK  status: ('A' for Active; 'I' for Inactive)
ROOT
HETATM    1  C1  UNL     1     -35.123  13.569  -4.198  1.00 20.00     0.282 C 
HETATM    2  C2  UNL     1     -34.100  14.392  -3.442  1.00 20.00     0.278 C 
HETATM    3  C3  UNL     1     -36.780  15.158  -3.408  1.00 20.00     0.205 C 
HETATM    4  C4  UNL     1     -35.639  16.117  -3.176  1.00 20.00     0.195 C 
HETATM    5  O5  UNL     1     -34.809  12.535  -4.781  1.00 20.00    -0.263 OA
HETATM    6  O6  UNL     1     -36.382  14.067  -4.259  1.00 20.00    -0.318 OA
HETATM    7  O7  UNL     1     -34.596  15.375  -2.562  1.00 20.00    -0.379 OA
ENDROOT
TORSDOF 0
ENDMDL
