MODEL 1
REMARK VINA RESULT:      -4.6      0.000      0.000
REMARK  1 active torsions:
REMARK  status: ('A' for Active; 'I' for Inactive)
REMARK    1  A    between atoms: C7_7  and  C8_8 
ROOT
HETATM    1  C1  UNL     1     -35.195  13.728  -4.539  1.00 20.00     0.064 C 
HETATM    2  C2  UNL     1     -33.355  16.191  -4.632  1.00 20.00     0.002 C 
HETATM    3  C3  UNL     1     -34.741  16.045  -5.268  1.00 20.00     0.019 C 
HETATM    4  C4  UNL     1     -33.364  16.104  -3.105  1.00 20.00     0.005 C 
HETATM    5  C5  UNL     1     -35.842  15.586  -3.022  1.00 20.00     0.024 C 
HETATM    6  C6  UNL     1     -35.675  15.123  -4.481  1.00 20.00     0.093 C 
HETATM    7  C7  UNL     1     -34.716  16.509  -2.517  1.00 20.00    -0.003 C 
HETATM    8  N9  UNL     1     -34.818  12.631  -4.585  1.00 20.00    -0.197 NA
ENDROOT
BRANCH   7   9
HETATM    9  C8  UNL     1     -34.673  16.524  -0.990  1.00 20.00     0.089 C 
HETATM   10 BR10 UNL     1     -33.604  18.025  -0.389  1.00 20.00    -0.096 Br
ENDBRANCH   7   9
TORSDOF 1
ENDMDL
MODEL 2
REMARK VINA RESULT:      -4.5      1.784      2.198
REMARK  1 active torsions:
REMARK  status: ('A' for Active; 'I' for Inactive)
REMARK    1  A    between atoms: C7_7  and  C8_8 
ROOT
HETATM    1  C1  UNL     1     -37.279  14.705  -4.361  1.00 20.00     0.064 C 
HETATM    2  C2  UNL     1     -34.416  13.598  -4.177  1.00 20.00     0.002 C 
HETATM    3  C3  UNL     1     -35.148  14.068  -5.438  1.00 20.00     0.019 C 
HETATM    4  C4  UNL     1     -34.183  14.707  -3.149  1.00 20.00     0.005 C 
HETATM    5  C5  UNL     1     -35.478  16.411  -4.505  1.00 20.00     0.024 C 
HETATM    6  C6  UNL     1     -36.147  15.196  -5.173  1.00 20.00     0.093 C 
HETATM    7  C7  UNL     1     -34.146  16.091  -3.798  1.00 20.00    -0.003 C 
HETATM    8  N9  UNL     1     -38.169  14.320  -3.724  1.00 20.00    -0.197 NA
ENDROOT
BRANCH   7   9
HETATM    9  C8  UNL     1     -33.803  17.172  -2.776  1.00 20.00     0.089 C 
HETATM   10 BR10 UNL     1     -34.578  16.709  -1.060  1.00 20.00    -0.096 Br
ENDBRANCH   7   9
TORSDOF 1
ENDMDL
MODEL 3
REMARK VINA RESULT:      -4.5      1.626      2.443
REMARK  1 active torsions:
REMARK  status: ('A' for Active; 'I' for Inactive)
REMARK    1  A    between atoms: C7_7  and  C8_8 
ROOT
HETATM    1  C1  UNL     1     -34.363  14.745  -6.047  1.00 20.00     0.064 C 
HETATM    2  C2  UNL     1     -36.471  14.563  -3.814  1.00 20.00     0.002 C 
HETATM    3  C3  UNL     1     -35.477  13.478  -4.241  1.00 20.00     0.019 C 
HETATM    4  C4  UNL     1     -35.806  15.821  -3.251  1.00 20.00     0.005 C 
HETATM    5  C5  UNL     1     -33.473  14.961  -3.737  1.00 20.00     0.024 C 
HETATM    6  C6  UNL     1     -34.154  14.040  -4.766  1.00 20.00     0.093 C 
HETATM    7  C7  UNL     1     -34.425  15.525  -2.664  1.00 20.00    -0.003 C 
HETATM    8  N9  UNL     1     -34.527  15.299  -7.054  1.00 20.00    -0.197 NA
ENDROOT
BRANCH   7   9
HETATM    9  C8  UNL     1     -33.826  16.767  -2.009  1.00 20.00     0.089 C 
HETATM   10 BR10 UNL     1     -34.739  17.120  -0.335  1.00 20.00    -0.096 Br
ENDBRANCH   7   9
TORSDOF 1
ENDMDL
MODEL 4
REMARK VINA RESULT:      -4.4      2.514      3.519
REMARK  1 active torsions:
REMARK  status: ('A' for Active; 'I' for Inactive)
REMARK    1  A    between atoms: C7_7  and  C8_8 
ROOT
HETATM    1  C1  UNL     1     -34.386  13.801  -3.856  1.00 20.00     0.064 C 
HETATM    2  C2  UNL     1     -35.840  16.360  -2.962  1.00 20.00     0.002 C 
HETATM    3  C3  UNL     1     -34.630  15.700  -2.292  1.00 20.00     0.019 C 
HETATM    4  C4  UNL     1     -35.561  16.868  -4.378  1.00 20.00     0.005 C 
HETATM    5  C5  UNL     1     -33.210  15.924  -4.391  1.00 20.00     0.024 C 
HETATM    6  C6  UNL     1     -33.708  14.981  -3.280  1.00 20.00     0.093 C 
HETATM    7  C7  UNL     1     -34.079  17.180  -4.592  1.00 20.00    -0.003 C 
HETATM    8  N9  UNL     1     -34.917  12.874  -4.308  1.00 20.00    -0.197 NA
ENDROOT
BRANCH   7   9
HETATM    9  C8  UNL     1     -33.837  17.790  -5.971  1.00 20.00     0.089 C 
HETATM   10 BR10 UNL     1     -34.666  16.676  -7.325  1.00 20.00    -0.096 Br
ENDBRANCH   7   9
TORSDOF 1
ENDMDL
MODEL 5
REMARK VINA RESULT:      -4.3      2.792      3.523
REMARK  1 active torsions:
REMARK  status: ('A' for Active; 'I' for Inactive)
REMARK    1  A    between atoms: C7_7  and  C8_8 
ROOT
HETATM    1  C1  UNL     1     -35.939  14.181  -4.345  1.00 20.00     0.064 C 
HETATM    2  C2  UNL     1     -33.480  15.401  -2.957  1.00 20.00     0.002 C 
HETATM    3  C3  UNL     1     -33.537  14.101  -3.765  1.00 20.00     0.019 C 
HETATM    4  C4  UNL     1     -33.788  16.653  -3.781  1.00 20.00     0.005 C 
HETATM    5  C5  UNL     1     -34.324  15.309  -5.860  1.00 20.00     0.024 C 
HETATM    6  C6  UNL     1     -34.569  14.135  -4.895  1.00 20.00     0.093 C 
HETATM    7  C7  UNL     1     -33.479  16.453  -5.265  1.00 20.00    -0.003 C 
HETATM    8  N9  UNL     1     -37.015  14.217  -3.913  1.00 20.00    -0.197 NA
ENDROOT
BRANCH   7   9
HETATM    9  C8  UNL     1     -33.687  17.745  -6.052  1.00 20.00     0.089 C 
HETATM   10 BR10 UNL     1     -34.820  17.393  -7.585  1.00 20.00    -0.096 Br
ENDBRANCH   7   9
TORSDOF 1
ENDMDL
MODEL 6
REMARK VINA RESULT:      -4.2      3.013      3.885
REMARK  1 active torsions:
REMARK  status: ('A' for Active; 'I' for Inactive)
REMARK    1  A    between atoms: C7_7  and  C8_8 
ROOT
HETATM    1  C1  UNL     1     -33.419  16.234  -4.285  1.00 20.00     0.064 C 
HETATM    2  C2  UNL     1     -34.425  13.392  -4.896  1.00 20.00     0.002 C 
HETATM    3  C3  UNL     1     -33.646  13.854  -3.660  1.00 20.00     0.019 C 
HETATM    4  C4  UNL     1     -35.804  14.041  -5.034  1.00 20.00     0.005 C 
HETATM    5  C5  UNL     1     -35.442  15.537  -3.022  1.00 20.00     0.024 C 
HETATM    6  C6  UNL     1     -33.940  15.302  -3.265  1.00 20.00     0.093 C 
HETATM    7  C7  UNL     1     -36.362  14.492  -3.684  1.00 20.00    -0.003 C 
HETATM    8  N9  UNL     1     -33.009  16.966  -5.087  1.00 20.00    -0.197 NA
ENDROOT
BRANCH   7   9
HETATM    9  C8  UNL     1     -37.782  15.035  -3.827  1.00 20.00     0.089 C 
HETATM   10 BR10 UNL     1     -38.117  15.489  -5.682  1.00 20.00    -0.096 Br
ENDBRANCH   7   9
TORSDOF 1
ENDMDL
MODEL 7
REMARK VINA RESULT:      -4.2      1.704      2.578
REMARK  1 active torsions:
REMARK  status: ('A' for Active; 'I' for Inactive)
REMARK    1  A    between atoms: C7_7  and  C8_8 
ROOT
HETATM    1  C1  UNL     1     -33.599  16.067  -5.494  1.00 20.00     0.064 C 
HETATM    2  C2  UNL     1     -35.066  14.014  -3.736  1.00 20.00     0.002 C 
HETATM    3  C3  UNL     1     -33.552  14.197  -3.879  1.00 20.00     0.019 C 
HETATM    4  C4  UNL     1     -35.780  15.224  -3.130  1.00 20.00     0.005 C 
HETATM    5  C5  UNL     1     -33.658  16.606  -3.069  1.00 20.00     0.024 C 
HETATM    6  C6  UNL     1     -33.140  15.645  -4.155  1.00 20.00     0.093 C 
HETATM    7  C7  UNL     1     -34.846  16.060  -2.254  1.00 20.00    -0.003 C 
HETATM    8  N9  UNL     1     -33.958  16.399  -6.547  1.00 20.00    -0.197 NA
ENDROOT
BRANCH   7   9
HETATM    9  C8  UNL     1     -35.601  17.197  -1.571  1.00 20.00     0.089 C 
HETATM   10 BR10 UNL     1     -34.891  17.465   0.213  1.00 20.00    -0.096 Br
ENDBRANCH   7   9
TORSDOF 1
ENDMDL
MODEL 8
REMARK VINA RESULT:      -4.2      1.833      2.709
REMARK  1 active torsions:
REMARK  status: ('A' for Active; 'I' for Inactive)
REMARK    1  A    between atoms: C7_7  and  C8_8 
ROOT
HETATM    1  C1  UNL     1     -35.995  15.161  -6.574  1.00 20.00     0.064 C 
HETATM    2  C2  UNL     1     -35.334  13.476  -4.087  1.00 20.00     0.002 C 
HETATM    3  C3  UNL     1     -34.635  13.431  -5.449  1.00 20.00     0.019 C 
HETATM    4  C4  UNL     1     -35.194  14.818  -3.365  1.00 20.00     0.005 C 
HETATM    5  C5  UNL     1     -33.979  15.885  -5.315  1.00 20.00     0.024 C 
HETATM    6  C6  UNL     1     -34.626  14.781  -6.171  1.00 20.00     0.093 C 
HETATM    7  C7  UNL     1     -33.942  15.576  -3.805  1.00 20.00    -0.003 C 
HETATM    8  N9  UNL     1     -37.071  15.459  -6.891  1.00 20.00    -0.197 NA
ENDROOT
BRANCH   7   9
HETATM    9  C8  UNL     1     -33.759  16.858  -2.996  1.00 20.00     0.089 C 
HETATM   10 BR10 UNL     1     -34.582  16.645  -1.253  1.00 20.00    -0.096 Br
ENDBRANCH   7   9
TORSDOF 1
ENDMDL
MODEL 9
REMARK VINA RESULT:      -4.2      3.624      5.114
REMARK  1 active torsions:
REMARK  status: ('A' for Active; 'I' for Inactive)
REMARK    1  A    between atoms: C7_7  and  C8_8 
ROOT
HETATM    1  C1  UNL     1     -32.540  19.189  -0.487  1.00 20.00     0.064 C 
HETATM    2  C2  UNL     1     -34.748  17.052  -0.354  1.00 20.00     0.002 C 
HETATM    3  C3  UNL     1     -34.933  18.569  -0.462  1.00 20.00     0.019 C 
HETATM    4  C4  UNL     1     -34.048  16.427  -1.562  1.00 20.00     0.005 C 
HETATM    5  C5  UNL     1     -33.645  18.678  -2.653  1.00 20.00     0.024 C 
HETATM    6  C6  UNL     1     -33.810  19.262  -1.238  1.00 20.00     0.093 C 
HETATM    7  C7  UNL     1     -34.234  17.264  -2.828  1.00 20.00    -0.003 C 
HETATM    8  N9  UNL     1     -31.543  19.133   0.103  1.00 20.00    -0.197 NA
ENDROOT
BRANCH   7   9
HETATM    9  C8  UNL     1     -33.625  16.571  -4.044  1.00 20.00     0.089 C 
HETATM   10 BR10 UNL     1     -33.653  14.651  -3.775  1.00 20.00    -0.096 Br
ENDBRANCH   7   9
TORSDOF 1
ENDMDL
