MODEL 1
REMARK VINA RESULT:      -4.4      0.000      0.000
REMARK  2 active torsions:
REMARK  status: ('A' for Active; 'I' for Inactive)
REMARK    1  A    between atoms: C3_3  and  C5_5 
REMARK    2  A    between atoms: C5_5  and  N6_6 
ROOT
HETATM    1  C1  UNL     1     -32.463   7.033   2.959  1.00 20.00     0.157 C 
HETATM    2  N6  UNL     1     -32.731   6.118   3.643  1.00 20.00    -0.271 NA
HETATM    3  S7  UNL     1     -32.070   8.268   2.032  1.00 20.00    -0.055 SA
ENDROOT
BRANCH   2   4
HETATM    4  C5  UNL     1     -34.157   5.964   3.937  1.00 20.00     0.183 C 
BRANCH   4   5
HETATM    5  C3  UNL     1     -34.353   5.634   5.391  1.00 20.00    -0.073 C 
HETATM    6  C2  UNL     1     -33.989   6.485   6.361  1.00 20.00     0.015 C 
HETATM    7  C4  UNL     1     -34.949   4.291   5.706  1.00 20.00     0.044 C 
ENDBRANCH   4   5
ENDBRANCH   2   4
TORSDOF 2
ENDMDL
MODEL 2
REMARK VINA RESULT:      -4.4      0.081      1.329
REMARK  2 active torsions:
REMARK  status: ('A' for Active; 'I' for Inactive)
REMARK    1  A    between atoms: C3_3  and  C5_5 
REMARK    2  A    between atoms: C5_5  and  N6_6 
ROOT
HETATM    1  C1  UNL     1     -32.443   7.033   2.967  1.00 20.00     0.157 C 
HETATM    2  N6  UNL     1     -32.698   6.130   3.673  1.00 20.00    -0.271 NA
HETATM    3  S7  UNL     1     -32.069   8.254   2.015  1.00 20.00    -0.055 SA
ENDROOT
BRANCH   2   4
HETATM    4  C5  UNL     1     -34.128   5.894   3.880  1.00 20.00     0.183 C 
BRANCH   4   5
HETATM    5  C3  UNL     1     -34.385   5.500   5.308  1.00 20.00    -0.073 C 
HETATM    6  C2  UNL     1     -34.953   4.325   5.623  1.00 20.00     0.015 C 
HETATM    7  C4  UNL     1     -34.005   6.497   6.366  1.00 20.00     0.044 C 
ENDBRANCH   4   5
ENDBRANCH   2   4
TORSDOF 2
ENDMDL
MODEL 3
REMARK VINA RESULT:      -3.4      2.567      4.070
REMARK  2 active torsions:
REMARK  status: ('A' for Active; 'I' for Inactive)
REMARK    1  A    between atoms: C3_3  and  C5_5 
REMARK    2  A    between atoms: C5_5  and  N6_6 
ROOT
HETATM    1  C1  UNL     1     -34.383   5.590   4.716  1.00 20.00     0.157 C 
HETATM    2  N6  UNL     1     -34.087   6.475   4.004  1.00 20.00    -0.271 NA
HETATM    3  S7  UNL     1     -34.805   4.407   5.695  1.00 20.00    -0.055 SA
ENDROOT
BRANCH   2   4
HETATM    4  C5  UNL     1     -32.959   6.199   3.112  1.00 20.00     0.183 C 
BRANCH   4   5
HETATM    5  C3  UNL     1     -32.046   7.391   3.048  1.00 20.00    -0.073 C 
HETATM    6  C2  UNL     1     -31.259   7.733   4.080  1.00 20.00     0.015 C 
HETATM    7  C4  UNL     1     -32.078   8.202   1.783  1.00 20.00     0.044 C 
ENDBRANCH   4   5
ENDBRANCH   2   4
TORSDOF 2
ENDMDL
MODEL 4
REMARK VINA RESULT:      -3.4      2.564      4.120
REMARK  2 active torsions:
REMARK  status: ('A' for Active; 'I' for Inactive)
REMARK    1  A    between atoms: C3_3  and  C5_5 
REMARK    2  A    between atoms: C5_5  and  N6_6 
ROOT
HETATM    1  C1  UNL     1     -34.360   5.592   4.754  1.00 20.00     0.157 C 
HETATM    2  N6  UNL     1     -34.045   6.503   4.084  1.00 20.00    -0.271 NA
HETATM    3  S7  UNL     1     -34.805   4.374   5.678  1.00 20.00    -0.055 SA
ENDROOT
BRANCH   2   4
HETATM    4  C5  UNL     1     -32.989   6.218   3.111  1.00 20.00     0.183 C 
BRANCH   4   5
HETATM    5  C3  UNL     1     -32.094   7.415   2.953  1.00 20.00    -0.073 C 
HETATM    6  C2  UNL     1     -32.079   8.139   1.823  1.00 20.00     0.015 C 
HETATM    7  C4  UNL     1     -31.193   7.745   4.109  1.00 20.00     0.044 C 
ENDBRANCH   4   5
ENDBRANCH   2   4
TORSDOF 2
ENDMDL
MODEL 5
REMARK VINA RESULT:      -3.1     11.586     11.872
REMARK  2 active torsions:
REMARK  status: ('A' for Active; 'I' for Inactive)
REMARK    1  A    between atoms: C3_3  and  C5_5 
REMARK    2  A    between atoms: C5_5  and  N6_6 
ROOT
HETATM    1  C1  UNL     1     -34.361  16.648  -1.314  1.00 20.00     0.157 C 
HETATM    2  N6  UNL     1     -34.011  16.130  -2.308  1.00 20.00    -0.271 NA
HETATM    3  S7  UNL     1     -34.808  17.360   0.039  1.00 20.00    -0.055 SA
ENDROOT
BRANCH   2   4
HETATM    4  C5  UNL     1     -35.050  15.371  -3.006  1.00 20.00     0.183 C 
BRANCH   4   5
HETATM    5  C3  UNL     1     -34.445  14.181  -3.697  1.00 20.00    -0.073 C 
HETATM    6  C2  UNL     1     -35.204  13.274  -4.332  1.00 20.00     0.015 C 
HETATM    7  C4  UNL     1     -32.952  14.036  -3.617  1.00 20.00     0.044 C 
ENDBRANCH   4   5
ENDBRANCH   2   4
TORSDOF 2
ENDMDL
MODEL 6
REMARK VINA RESULT:      -3.1     11.687     12.459
REMARK  2 active torsions:
REMARK  status: ('A' for Active; 'I' for Inactive)
REMARK    1  A    between atoms: C3_3  and  C5_5 
REMARK    2  A    between atoms: C5_5  and  N6_6 
ROOT
HETATM    1  C1  UNL     1     -33.901  16.413  -2.439  1.00 20.00     0.157 C 
HETATM    2  N6  UNL     1     -33.400  16.214  -3.483  1.00 20.00    -0.271 NA
HETATM    3  S7  UNL     1     -34.577  16.711  -1.029  1.00 20.00    -0.055 SA
ENDROOT
BRANCH   2   4
HETATM    4  C5  UNL     1     -33.180  14.802  -3.802  1.00 20.00     0.183 C 
BRANCH   4   5
HETATM    5  C3  UNL     1     -34.289  14.290  -4.679  1.00 20.00    -0.073 C 
HETATM    6  C2  UNL     1     -35.115  13.314  -4.272  1.00 20.00     0.015 C 
HETATM    7  C4  UNL     1     -34.411  14.903  -6.045  1.00 20.00     0.044 C 
ENDBRANCH   4   5
ENDBRANCH   2   4
TORSDOF 2
ENDMDL
MODEL 7
REMARK VINA RESULT:      -3.1      2.552      4.674
REMARK  2 active torsions:
REMARK  status: ('A' for Active; 'I' for Inactive)
REMARK    1  A    between atoms: C3_3  and  C5_5 
REMARK    2  A    between atoms: C5_5  and  N6_6 
ROOT
HETATM    1  C1  UNL     1     -33.231   6.193   3.598  1.00 20.00     0.157 C 
HETATM    2  N6  UNL     1     -32.498   6.512   2.738  1.00 20.00    -0.271 NA
HETATM    3  S7  UNL     1     -34.233   5.736   4.749  1.00 20.00    -0.055 SA
ENDROOT
BRANCH   2   4
HETATM    4  C5  UNL     1     -31.845   7.807   2.933  1.00 20.00     0.183 C 
BRANCH   4   5
HETATM    5  C3  UNL     1     -32.081   8.691   1.740  1.00 20.00    -0.073 C 
HETATM    6  C2  UNL     1     -31.668   8.341   0.512  1.00 20.00     0.015 C 
HETATM    7  C4  UNL     1     -32.775  10.000   1.992  1.00 20.00     0.044 C 
ENDBRANCH   4   5
ENDBRANCH   2   4
TORSDOF 2
ENDMDL
MODEL 8
REMARK VINA RESULT:      -3.0     11.649     12.249
REMARK  2 active torsions:
REMARK  status: ('A' for Active; 'I' for Inactive)
REMARK    1  A    between atoms: C3_3  and  C5_5 
REMARK    2  A    between atoms: C5_5  and  N6_6 
ROOT
HETATM    1  C1  UNL     1     -34.820  14.727  -3.378  1.00 20.00     0.157 C 
HETATM    2  N6  UNL     1     -34.958  15.604  -2.609  1.00 20.00    -0.271 NA
HETATM    3  S7  UNL     1     -34.660  13.529  -4.415  1.00 20.00    -0.055 SA
ENDROOT
BRANCH   2   4
HETATM    4  C5  UNL     1     -33.766  16.426  -2.391  1.00 20.00     0.183 C 
BRANCH   4   5
HETATM    5  C3  UNL     1     -33.949  17.288  -1.173  1.00 20.00    -0.073 C 
HETATM    6  C2  UNL     1     -34.804  16.953  -0.195  1.00 20.00     0.015 C 
HETATM    7  C4  UNL     1     -33.150  18.560  -1.117  1.00 20.00     0.044 C 
ENDBRANCH   4   5
ENDBRANCH   2   4
TORSDOF 2
ENDMDL
MODEL 9
REMARK VINA RESULT:      -3.0     10.198     10.768
REMARK  2 active torsions:
REMARK  status: ('A' for Active; 'I' for Inactive)
REMARK    1  A    between atoms: C3_3  and  C5_5 
REMARK    2  A    between atoms: C5_5  and  N6_6 
ROOT
HETATM    1  C1  UNL     1     -41.847   2.850  -3.053  1.00 20.00     0.157 C 
HETATM    2  N6  UNL     1     -42.054   3.854  -2.480  1.00 20.00    -0.271 NA
HETATM    3  S7  UNL     1     -41.592   1.491  -3.843  1.00 20.00    -0.055 SA
ENDROOT
BRANCH   2   4
HETATM    4  C5  UNL     1     -41.030   4.230  -1.503  1.00 20.00     0.183 C 
BRANCH   4   5
HETATM    5  C3  UNL     1     -41.138   5.694  -1.177  1.00 20.00    -0.073 C 
HETATM    6  C2  UNL     1     -40.684   6.191  -0.017  1.00 20.00     0.015 C 
HETATM    7  C4  UNL     1     -41.807   6.568  -2.199  1.00 20.00     0.044 C 
ENDBRANCH   4   5
ENDBRANCH   2   4
TORSDOF 2
ENDMDL
