MODEL 1
REMARK VINA RESULT:      -5.3      0.000      0.000
REMARK  3 active torsions:
REMARK  status: ('A' for Active; 'I' for Inactive)
REMARK    1  A    between atoms: C2_2  and  C8_8 
REMARK    2  A    between atoms: C4_4  and  C7_7 
REMARK    3  A    between atoms: C7_7  and  C8_8 
ROOT
HETATM    1  C7  UNL     1     -32.850   6.115   4.075  1.00 20.00     0.034 C 
ENDROOT
BRANCH   1   2
HETATM    2  C4  UNL     1     -32.830   6.890   2.785  1.00 20.00    -0.030 C 
HETATM    3  C3  UNL     1     -32.006   7.919   2.546  1.00 20.00    -0.035 C 
HETATM    4  C5  UNL     1     -31.985   8.686   1.265  1.00 20.00     0.035 C 
ENDBRANCH   1   2
BRANCH   1   5
HETATM    5  C8  UNL     1     -34.183   6.260   4.835  1.00 20.00     0.007 C 
HETATM    6  C6  UNL     1     -33.915   6.565   6.311  1.00 20.00     0.014 C 
BRANCH   5   7
HETATM    7  C2  UNL     1     -35.019   5.006   4.728  1.00 20.00    -0.032 C 
HETATM    8  C1  UNL     1     -34.972   4.000   5.609  1.00 20.00     0.007 C 
ENDBRANCH   5   7
ENDBRANCH   1   5
TORSDOF 3
ENDMDL
MODEL 2
REMARK VINA RESULT:      -5.0      0.918      2.176
REMARK  3 active torsions:
REMARK  status: ('A' for Active; 'I' for Inactive)
REMARK    1  A    between atoms: C2_2  and  C8_8 
REMARK    2  A    between atoms: C4_4  and  C7_7 
REMARK    3  A    between atoms: C7_7  and  C8_8 
ROOT
HETATM    1  C7  UNL     1     -34.711   5.472   3.946  1.00 20.00     0.034 C 
ENDROOT
BRANCH   1   2
HETATM    2  C4  UNL     1     -33.972   6.634   3.339  1.00 20.00    -0.030 C 
HETATM    3  C3  UNL     1     -32.658   6.625   3.072  1.00 20.00    -0.035 C 
HETATM    4  C5  UNL     1     -31.925   7.776   2.468  1.00 20.00     0.035 C 
ENDBRANCH   1   2
BRANCH   1   5
HETATM    5  C8  UNL     1     -34.199   5.111   5.354  1.00 20.00     0.007 C 
HETATM    6  C6  UNL     1     -34.916   3.860   5.868  1.00 20.00     0.014 C 
BRANCH   5   7
HETATM    7  C2  UNL     1     -34.414   6.246   6.328  1.00 20.00    -0.032 C 
HETATM    8  C1  UNL     1     -33.450   7.088   6.717  1.00 20.00     0.007 C 
ENDBRANCH   5   7
ENDBRANCH   1   5
TORSDOF 3
ENDMDL
MODEL 3
REMARK VINA RESULT:      -4.7      0.975      4.678
REMARK  3 active torsions:
REMARK  status: ('A' for Active; 'I' for Inactive)
REMARK    1  A    between atoms: C2_2  and  C8_8 
REMARK    2  A    between atoms: C4_4  and  C7_7 
REMARK    3  A    between atoms: C7_7  and  C8_8 
ROOT
HETATM    1  C7  UNL     1     -33.268   6.318   2.933  1.00 20.00     0.034 C 
ENDROOT
BRANCH   1   2
HETATM    2  C4  UNL     1     -33.630   6.142   4.382  1.00 20.00    -0.030 C 
HETATM    3  C3  UNL     1     -34.524   5.246   4.824  1.00 20.00    -0.035 C 
HETATM    4  C5  UNL     1     -34.882   5.070   6.262  1.00 20.00     0.035 C 
ENDBRANCH   1   2
BRANCH   1   5
HETATM    5  C8  UNL     1     -32.037   7.224   2.733  1.00 20.00     0.007 C 
HETATM    6  C6  UNL     1     -31.434   7.595   4.091  1.00 20.00     0.014 C 
BRANCH   5   7
HETATM    7  C2  UNL     1     -32.394   8.486   1.984  1.00 20.00    -0.032 C 
HETATM    8  C1  UNL     1     -31.866   8.828   0.804  1.00 20.00     0.007 C 
ENDBRANCH   5   7
ENDBRANCH   1   5
TORSDOF 3
ENDMDL
MODEL 4
REMARK VINA RESULT:      -4.4      0.872      4.753
REMARK  3 active torsions:
REMARK  status: ('A' for Active; 'I' for Inactive)
REMARK    1  A    between atoms: C2_2  and  C8_8 
REMARK    2  A    between atoms: C4_4  and  C7_7 
REMARK    3  A    between atoms: C7_7  and  C8_8 
ROOT
HETATM    1  C7  UNL     1     -33.828   7.065   3.858  1.00 20.00     0.034 C 
ENDROOT
BRANCH   1   2
HETATM    2  C4  UNL     1     -34.426   5.771   4.340  1.00 20.00    -0.030 C 
HETATM    3  C3  UNL     1     -34.533   5.435   5.633  1.00 20.00    -0.035 C 
HETATM    4  C5  UNL     1     -35.128   4.153   6.112  1.00 20.00     0.035 C 
ENDBRANCH   1   2
BRANCH   1   5
HETATM    5  C8  UNL     1     -32.825   6.863   2.704  1.00 20.00     0.007 C 
HETATM    6  C6  UNL     1     -31.855   5.729   3.046  1.00 20.00     0.014 C 
BRANCH   5   7
HETATM    7  C2  UNL     1     -32.042   8.124   2.426  1.00 20.00    -0.032 C 
HETATM    8  C1  UNL     1     -32.006   8.733   1.235  1.00 20.00     0.007 C 
ENDBRANCH   5   7
ENDBRANCH   1   5
TORSDOF 3
ENDMDL
MODEL 5
REMARK VINA RESULT:      -4.1     11.033     11.981
REMARK  3 active torsions:
REMARK  status: ('A' for Active; 'I' for Inactive)
REMARK    1  A    between atoms: C2_2  and  C8_8 
REMARK    2  A    between atoms: C4_4  and  C7_7 
REMARK    3  A    between atoms: C7_7  and  C8_8 
ROOT
HETATM    1  C7  UNL     1     -34.512  15.725  -2.500  1.00 20.00     0.034 C 
ENDROOT
BRANCH   1   2
HETATM    2  C4  UNL     1     -34.079  16.764  -1.501  1.00 20.00    -0.030 C 
HETATM    3  C3  UNL     1     -34.712  16.993  -0.341  1.00 20.00    -0.035 C 
HETATM    4  C5  UNL     1     -34.281  18.022   0.651  1.00 20.00     0.035 C 
ENDBRANCH   1   2
BRANCH   1   5
HETATM    5  C8  UNL     1     -33.352  15.237  -3.390  1.00 20.00     0.007 C 
HETATM    6  C6  UNL     1     -33.220  16.138  -4.620  1.00 20.00     0.014 C 
BRANCH   5   7
HETATM    7  C2  UNL     1     -33.562  13.809  -3.838  1.00 20.00    -0.032 C 
HETATM    8  C1  UNL     1     -34.683  13.366  -4.418  1.00 20.00     0.007 C 
ENDBRANCH   5   7
ENDBRANCH   1   5
TORSDOF 3
ENDMDL
MODEL 6
REMARK VINA RESULT:      -4.1     10.962     11.843
REMARK  3 active torsions:
REMARK  status: ('A' for Active; 'I' for Inactive)
REMARK    1  A    between atoms: C2_2  and  C8_8 
REMARK    2  A    between atoms: C4_4  and  C7_7 
REMARK    3  A    between atoms: C7_7  and  C8_8 
ROOT
HETATM    1  C7  UNL     1     -35.051  15.123  -2.946  1.00 20.00     0.034 C 
ENDROOT
BRANCH   1   2
HETATM    2  C4  UNL     1     -34.379  16.253  -2.213  1.00 20.00    -0.030 C 
HETATM    3  C3  UNL     1     -34.648  16.581  -0.941  1.00 20.00    -0.035 C 
HETATM    4  C5  UNL     1     -33.980  17.700  -0.213  1.00 20.00     0.035 C 
ENDBRANCH   1   2
BRANCH   1   5
HETATM    5  C8  UNL     1     -34.052  14.063  -3.449  1.00 20.00     0.007 C 
HETATM    6  C6  UNL     1     -32.683  14.706  -3.690  1.00 20.00     0.014 C 
BRANCH   5   7
HETATM    7  C2  UNL     1     -34.531  13.414  -4.726  1.00 20.00    -0.032 C 
HETATM    8  C1  UNL     1     -34.900  14.095  -5.817  1.00 20.00     0.007 C 
ENDBRANCH   5   7
ENDBRANCH   1   5
TORSDOF 3
ENDMDL
MODEL 7
REMARK VINA RESULT:      -4.0     10.866     11.817
REMARK  3 active torsions:
REMARK  status: ('A' for Active; 'I' for Inactive)
REMARK    1  A    between atoms: C2_2  and  C8_8 
REMARK    2  A    between atoms: C4_4  and  C7_7 
REMARK    3  A    between atoms: C7_7  and  C8_8 
ROOT
HETATM    1  C7  UNL     1     -33.833  16.074  -3.325  1.00 20.00     0.034 C 
ENDROOT
BRANCH   1   2
HETATM    2  C4  UNL     1     -33.843  16.781  -1.997  1.00 20.00    -0.030 C 
HETATM    3  C3  UNL     1     -34.768  16.575  -1.049  1.00 20.00    -0.035 C 
HETATM    4  C5  UNL     1     -34.777  17.275   0.270  1.00 20.00     0.035 C 
ENDBRANCH   1   2
BRANCH   1   5
HETATM    5  C8  UNL     1     -34.377  14.635  -3.236  1.00 20.00     0.007 C 
HETATM    6  C6  UNL     1     -33.323  13.645  -3.739  1.00 20.00     0.014 C 
BRANCH   5   7
HETATM    7  C2  UNL     1     -35.642  14.471  -4.046  1.00 20.00    -0.032 C 
HETATM    8  C1  UNL     1     -36.839  14.925  -3.660  1.00 20.00     0.007 C 
ENDBRANCH   5   7
ENDBRANCH   1   5
TORSDOF 3
ENDMDL
MODEL 8
REMARK VINA RESULT:      -3.9     10.961     12.668
REMARK  3 active torsions:
REMARK  status: ('A' for Active; 'I' for Inactive)
REMARK    1  A    between atoms: C2_2  and  C8_8 
REMARK    2  A    between atoms: C4_4  and  C7_7 
REMARK    3  A    between atoms: C7_7  and  C8_8 
ROOT
HETATM    1  C7  UNL     1     -33.411  16.097  -4.788  1.00 20.00     0.034 C 
ENDROOT
BRANCH   1   2
HETATM    2  C4  UNL     1     -34.488  15.589  -5.708  1.00 20.00    -0.030 C 
HETATM    3  C3  UNL     1     -34.265  15.184  -6.966  1.00 20.00    -0.035 C 
HETATM    4  C5  UNL     1     -35.333  14.678  -7.878  1.00 20.00     0.035 C 
ENDBRANCH   1   2
BRANCH   1   5
HETATM    5  C8  UNL     1     -33.369  15.340  -3.446  1.00 20.00     0.007 C 
HETATM    6  C6  UNL     1     -33.314  13.831  -3.698  1.00 20.00     0.014 C 
BRANCH   5   7
HETATM    7  C2  UNL     1     -34.574  15.659  -2.592  1.00 20.00    -0.032 C 
HETATM    8  C1  UNL     1     -34.520  16.374  -1.463  1.00 20.00     0.007 C 
ENDBRANCH   5   7
ENDBRANCH   1   5
TORSDOF 3
ENDMDL
MODEL 9
REMARK VINA RESULT:      -3.7     11.524     12.435
REMARK  3 active torsions:
REMARK  status: ('A' for Active; 'I' for Inactive)
REMARK    1  A    between atoms: C2_2  and  C8_8 
REMARK    2  A    between atoms: C4_4  and  C7_7 
REMARK    3  A    between atoms: C7_7  and  C8_8 
ROOT
HETATM    1  C7  UNL     1     -34.114  18.299   1.078  1.00 20.00     0.034 C 
ENDROOT
BRANCH   1   2
HETATM    2  C4  UNL     1     -33.987  17.714  -0.303  1.00 20.00    -0.030 C 
HETATM    3  C3  UNL     1     -34.671  16.642  -0.725  1.00 20.00    -0.035 C 
HETATM    4  C5  UNL     1     -34.546  16.063  -2.095  1.00 20.00     0.035 C 
ENDBRANCH   1   2
BRANCH   1   5
HETATM    5  C8  UNL     1     -32.895  19.153   1.477  1.00 20.00     0.007 C 
HETATM    6  C6  UNL     1     -31.807  19.046   0.406  1.00 20.00     0.014 C 
BRANCH   5   7
HETATM    7  C2  UNL     1     -32.329  18.720   2.809  1.00 20.00    -0.032 C 
HETATM    8  C1  UNL     1     -33.073  18.274   3.827  1.00 20.00     0.007 C 
ENDBRANCH   5   7
ENDBRANCH   1   5
TORSDOF 3
ENDMDL
