MODEL 1
REMARK VINA RESULT:      -5.1      0.000      0.000
REMARK  1 active torsions:
REMARK  status: ('A' for Active; 'I' for Inactive)
REMARK    1  A    between atoms: C7_7  and  O12_12 
ROOT
HETATM    1  C1  UNL     1     -34.545  17.103  -0.355  1.00 20.00     0.015 C 
HETATM    2  C2  UNL     1     -34.764  16.607  -1.426  1.00 20.00    -0.079 C 
HETATM    3  C3  UNL     1     -33.946  14.958  -3.061  1.00 20.00     0.055 C 
HETATM    4  C4  UNL     1     -34.110  15.499  -5.544  1.00 20.00     0.013 C 
HETATM    5  C5  UNL     1     -35.072  17.102  -3.815  1.00 20.00     0.060 C 
HETATM    6  C6  UNL     1     -33.991  14.390  -4.487  1.00 20.00    -0.014 C 
HETATM    7  C7  UNL     1     -35.035  15.996  -2.744  1.00 20.00     0.121 C 
HETATM    8  C8  UNL     1     -35.156  16.607  -5.280  1.00 20.00    -0.044 C 
HETATM    9  C9  UNL     1     -35.014  13.266  -4.653  1.00 20.00     0.010 C 
HETATM   10  C10 UNL     1     -34.831  17.803  -6.209  1.00 20.00     0.015 C 
HETATM   11  C11 UNL     1     -36.579  16.151  -5.648  1.00 20.00     0.015 C 
ENDROOT
BRANCH   7  12
HETATM   12  O12 UNL     1     -36.310  15.367  -2.677  1.00 20.00    -0.378 OA
HETATM   13  H30 UNL     1     -36.365  14.789  -3.452  1.00 20.00     0.211 HD
ENDBRANCH   7  12
TORSDOF 1
ENDMDL
MODEL 2
REMARK VINA RESULT:      -4.8      1.801      3.835
REMARK  1 active torsions:
REMARK  status: ('A' for Active; 'I' for Inactive)
REMARK    1  A    between atoms: C7_7  and  O12_12 
ROOT
HETATM    1  C1  UNL     1     -34.497  17.496  -7.904  1.00 20.00     0.015 C 
HETATM    2  C2  UNL     1     -34.366  16.966  -6.834  1.00 20.00    -0.079 C 
HETATM    3  C3  UNL     1     -34.752  14.880  -5.586  1.00 20.00     0.055 C 
HETATM    4  C4  UNL     1     -35.501  15.018  -3.156  1.00 20.00     0.013 C 
HETATM    5  C5  UNL     1     -34.948  17.139  -4.452  1.00 20.00     0.060 C 
HETATM    6  C6  UNL     1     -34.830  14.154  -4.236  1.00 20.00    -0.014 C 
HETATM    7  C7  UNL     1     -34.204  16.315  -5.518  1.00 20.00     0.121 C 
HETATM    8  C8  UNL     1     -35.036  16.489  -3.049  1.00 20.00    -0.044 C 
HETATM    9  C9  UNL     1     -33.494  13.550  -3.800  1.00 20.00     0.010 C 
HETATM   10  C10 UNL     1     -36.092  17.266  -2.226  1.00 20.00     0.015 C 
HETATM   11  C11 UNL     1     -33.711  16.615  -2.277  1.00 20.00     0.015 C 
ENDROOT
BRANCH   7  12
HETATM   12  O12 UNL     1     -32.815  16.297  -5.211  1.00 20.00    -0.378 OA
HETATM   13  H30 UNL     1     -32.727  15.785  -4.394  1.00 20.00     0.211 HD
ENDBRANCH   7  12
TORSDOF 1
ENDMDL
MODEL 3
REMARK VINA RESULT:      -4.7      1.274      3.635
REMARK  1 active torsions:
REMARK  status: ('A' for Active; 'I' for Inactive)
REMARK    1  A    between atoms: C7_7  and  O12_12 
ROOT
HETATM    1  C1  UNL     1     -34.043  18.628  -6.905  1.00 20.00     0.015 C 
HETATM    2  C2  UNL     1     -34.338  17.894  -6.001  1.00 20.00    -0.079 C 
HETATM    3  C3  UNL     1     -33.627  17.071  -3.793  1.00 20.00     0.055 C 
HETATM    4  C4  UNL     1     -33.991  14.617  -3.217  1.00 20.00     0.013 C 
HETATM    5  C5  UNL     1     -34.837  15.556  -5.428  1.00 20.00     0.060 C 
HETATM    6  C6  UNL     1     -33.775  16.037  -2.668  1.00 20.00    -0.014 C 
HETATM    7  C7  UNL     1     -34.702  16.992  -4.889  1.00 20.00     0.121 C 
HETATM    8  C8  UNL     1     -35.028  14.457  -4.353  1.00 20.00    -0.044 C 
HETATM    9  C9  UNL     1     -34.793  16.448  -1.604  1.00 20.00     0.010 C 
HETATM   10  C10 UNL     1     -34.793  13.083  -5.026  1.00 20.00     0.015 C 
HETATM   11  C11 UNL     1     -36.469  14.431  -3.814  1.00 20.00     0.015 C 
ENDROOT
BRANCH   7  12
HETATM   12  O12 UNL     1     -35.959  17.420  -4.377  1.00 20.00    -0.378 OA
HETATM   13  H30 UNL     1     -36.217  16.763  -3.714  1.00 20.00     0.211 HD
ENDBRANCH   7  12
TORSDOF 1
ENDMDL
MODEL 4
REMARK VINA RESULT:      -4.6     11.739     13.851
REMARK  1 active torsions:
REMARK  status: ('A' for Active; 'I' for Inactive)
REMARK    1  A    between atoms: C7_7  and  O12_12 
ROOT
HETATM    1  C1  UNL     1     -41.469   1.998  -3.839  1.00 20.00     0.015 C 
HETATM    2  C2  UNL     1     -41.595   2.853  -3.005  1.00 20.00    -0.079 C 
HETATM    3  C3  UNL     1     -43.000   3.616  -1.133  1.00 20.00     0.055 C 
HETATM    4  C4  UNL     1     -43.417   6.110  -0.842  1.00 20.00     0.013 C 
HETATM    5  C5  UNL     1     -41.856   5.275  -2.672  1.00 20.00     0.060 C 
HETATM    6  C6  UNL     1     -43.394   4.734  -0.158  1.00 20.00    -0.014 C 
HETATM    7  C7  UNL     1     -41.749   3.904  -1.979  1.00 20.00     0.121 C 
HETATM    8  C8  UNL     1     -42.213   6.464  -1.745  1.00 20.00    -0.044 C 
HETATM    9  C9  UNL     1     -42.592   4.706   1.143  1.00 20.00     0.010 C 
HETATM   10  C10 UNL     1     -42.619   7.662  -2.638  1.00 20.00     0.015 C 
HETATM   11  C11 UNL     1     -40.999   6.931  -0.924  1.00 20.00     0.015 C 
ENDROOT
BRANCH   7  12
HETATM   12  O12 UNL     1     -40.586   3.884  -1.159  1.00 20.00    -0.378 OA
HETATM   13  H30 UNL     1     -40.844   4.286  -0.317  1.00 20.00     0.211 HD
ENDBRANCH   7  12
TORSDOF 1
ENDMDL
MODEL 5
REMARK VINA RESULT:      -4.6      1.487      2.659
REMARK  1 active torsions:
REMARK  status: ('A' for Active; 'I' for Inactive)
REMARK    1  A    between atoms: C7_7  and  O12_12 
ROOT
HETATM    1  C1  UNL     1     -33.654  17.688  -0.637  1.00 20.00     0.015 C 
HETATM    2  C2  UNL     1     -33.926  17.113  -1.654  1.00 20.00    -0.079 C 
HETATM    3  C3  UNL     1     -34.317  17.411  -4.067  1.00 20.00     0.055 C 
HETATM    4  C4  UNL     1     -36.156  16.059  -5.194  1.00 20.00     0.013 C 
HETATM    5  C5  UNL     1     -35.613  15.686  -2.734  1.00 20.00     0.060 C 
HETATM    6  C6  UNL     1     -34.850  16.844  -5.390  1.00 20.00    -0.014 C 
HETATM    7  C7  UNL     1     -34.262  16.404  -2.906  1.00 20.00     0.121 C 
HETATM    8  C8  UNL     1     -36.199  15.053  -4.020  1.00 20.00    -0.044 C 
HETATM    9  C9  UNL     1     -33.789  16.086  -6.189  1.00 20.00     0.010 C 
HETATM   10  C10 UNL     1     -37.681  14.698  -3.747  1.00 20.00     0.015 C 
HETATM   11  C11 UNL     1     -35.498  13.730  -4.375  1.00 20.00     0.015 C 
ENDROOT
BRANCH   7  12
HETATM   12  O12 UNL     1     -33.245  15.436  -3.143  1.00 20.00    -0.378 OA
HETATM   13  H30 UNL     1     -32.502  15.918  -3.533  1.00 20.00     0.211 HD
ENDBRANCH   7  12
TORSDOF 1
ENDMDL
MODEL 6
REMARK VINA RESULT:      -4.5      1.852      3.917
REMARK  1 active torsions:
REMARK  status: ('A' for Active; 'I' for Inactive)
REMARK    1  A    between atoms: C7_7  and  O12_12 
ROOT
HETATM    1  C1  UNL     1     -36.338  14.718  -7.917  1.00 20.00     0.015 C 
HETATM    2  C2  UNL     1     -35.699  14.909  -6.918  1.00 20.00    -0.079 C 
HETATM    3  C3  UNL     1     -34.870  13.856  -4.854  1.00 20.00     0.055 C 
HETATM    4  C4  UNL     1     -34.843  15.215  -2.701  1.00 20.00     0.013 C 
HETATM    5  C5  UNL     1     -35.554  16.297  -4.895  1.00 20.00     0.060 C 
HETATM    6  C6  UNL     1     -34.255  14.013  -3.456  1.00 20.00    -0.014 C 
HETATM    7  C7  UNL     1     -34.914  15.145  -5.690  1.00 20.00     0.121 C 
HETATM    8  C8  UNL     1     -34.960  16.544  -3.485  1.00 20.00    -0.044 C 
HETATM    9  C9  UNL     1     -32.727  13.976  -3.465  1.00 20.00     0.010 C 
HETATM   10  C10 UNL     1     -35.929  17.471  -2.712  1.00 20.00     0.015 C 
HETATM   11  C11 UNL     1     -33.615  17.288  -3.554  1.00 20.00     0.015 C 
ENDROOT
BRANCH   7  12
HETATM   12  O12 UNL     1     -33.598  15.522  -6.082  1.00 20.00    -0.378 OA
HETATM   13  H30 UNL     1     -33.689  16.358  -6.561  1.00 20.00     0.211 HD
ENDBRANCH   7  12
TORSDOF 1
ENDMDL
MODEL 7
REMARK VINA RESULT:      -4.5     10.998     13.100
REMARK  1 active torsions:
REMARK  status: ('A' for Active; 'I' for Inactive)
REMARK    1  A    between atoms: C7_7  and  O12_12 
ROOT
HETATM    1  C1  UNL     1     -42.578   8.516  -4.231  1.00 20.00     0.015 C 
HETATM    2  C2  UNL     1     -42.481   7.667  -3.387  1.00 20.00    -0.079 C 
HETATM    3  C3  UNL     1     -41.000   6.750  -1.648  1.00 20.00     0.055 C 
HETATM    4  C4  UNL     1     -40.896   4.226  -1.322  1.00 20.00     0.013 C 
HETATM    5  C5  UNL     1     -42.517   5.238  -3.007  1.00 20.00     0.060 C 
HETATM    6  C6  UNL     1     -40.660   5.604  -0.684  1.00 20.00    -0.014 C 
HETATM    7  C7  UNL     1     -42.362   6.622  -2.350  1.00 20.00     0.121 C 
HETATM    8  C8  UNL     1     -42.227   4.027  -2.085  1.00 20.00    -0.044 C 
HETATM    9  C9  UNL     1     -41.307   5.766   0.692  1.00 20.00     0.010 C 
HETATM   10  C10 UNL     1     -42.085   2.769  -2.976  1.00 20.00     0.015 C 
HETATM   11  C11 UNL     1     -43.398   3.747  -1.127  1.00 20.00     0.015 C 
ENDROOT
BRANCH   7  12
HETATM   12  O12 UNL     1     -43.417   6.817  -1.415  1.00 20.00    -0.378 OA
HETATM   13  H30 UNL     1     -44.071   7.375  -1.860  1.00 20.00     0.211 HD
ENDBRANCH   7  12
TORSDOF 1
ENDMDL
MODEL 8
REMARK VINA RESULT:      -4.5      1.357      2.901
REMARK  1 active torsions:
REMARK  status: ('A' for Active; 'I' for Inactive)
REMARK    1  A    between atoms: C7_7  and  O12_12 
ROOT
HETATM    1  C1  UNL     1     -34.711  17.066  -0.121  1.00 20.00     0.015 C 
HETATM    2  C2  UNL     1     -34.907  16.871  -1.289  1.00 20.00    -0.079 C 
HETATM    3  C3  UNL     1     -36.645  16.801  -3.031  1.00 20.00     0.055 C 
HETATM    4  C4  UNL     1     -36.517  15.003  -4.829  1.00 20.00     0.013 C 
HETATM    5  C5  UNL     1     -34.670  15.212  -3.088  1.00 20.00     0.060 C 
HETATM    6  C6  UNL     1     -37.068  16.386  -4.447  1.00 20.00    -0.014 C 
HETATM    7  C7  UNL     1     -35.148  16.630  -2.727  1.00 20.00     0.121 C 
HETATM    8  C8  UNL     1     -35.026  14.734  -4.518  1.00 20.00    -0.044 C 
HETATM    9  C9  UNL     1     -36.802  17.467  -5.494  1.00 20.00     0.010 C 
HETATM   10  C10 UNL     1     -34.792  13.205  -4.585  1.00 20.00     0.015 C 
HETATM   11  C11 UNL     1     -34.099  15.358  -5.576  1.00 20.00     0.015 C 
ENDROOT
BRANCH   7  12
HETATM   12  O12 UNL     1     -34.385  17.582  -3.460  1.00 20.00    -0.378 OA
HETATM   13  H30 UNL     1     -34.172  17.162  -4.305  1.00 20.00     0.211 HD
ENDBRANCH   7  12
TORSDOF 1
ENDMDL
MODEL 9
REMARK VINA RESULT:      -4.4      1.419      3.976
REMARK  1 active torsions:
REMARK  status: ('A' for Active; 'I' for Inactive)
REMARK    1  A    between atoms: C7_7  and  O12_12 
ROOT
HETATM    1  C1  UNL     1     -34.478  13.139  -4.835  1.00 20.00     0.015 C 
HETATM    2  C2  UNL     1     -34.634  14.273  -4.473  1.00 20.00    -0.079 C 
HETATM    3  C3  UNL     1     -33.657  16.532  -4.530  1.00 20.00     0.055 C 
HETATM    4  C4  UNL     1     -33.796  17.988  -2.445  1.00 20.00     0.013 C 
HETATM    5  C5  UNL     1     -34.914  15.700  -2.491  1.00 20.00     0.060 C 
HETATM    6  C6  UNL     1     -33.624  17.962  -3.972  1.00 20.00    -0.014 C 
HETATM    7  C7  UNL     1     -34.826  15.668  -4.027  1.00 20.00     0.121 C 
HETATM    8  C8  UNL     1     -34.925  17.112  -1.853  1.00 20.00    -0.044 C 
HETATM    9  C9  UNL     1     -34.559  18.917  -4.714  1.00 20.00     0.010 C 
HETATM   10  C10 UNL     1     -34.663  16.955  -0.335  1.00 20.00     0.015 C 
HETATM   11  C11 UNL     1     -36.301  17.787  -1.985  1.00 20.00     0.015 C 
ENDROOT
BRANCH   7  12
HETATM   12  O12 UNL     1     -36.053  16.134  -4.576  1.00 20.00    -0.378 OA
HETATM   13  H30 UNL     1     -36.542  15.345  -4.850  1.00 20.00     0.211 HD
ENDBRANCH   7  12
TORSDOF 1
ENDMDL
