MODEL 1
REMARK VINA RESULT:      -5.3      0.000      0.000
REMARK  3 active torsions:
REMARK  status: ('A' for Active; 'I' for Inactive)
REMARK    1  A    between atoms: C2_2  and  C8_8 
REMARK    2  A    between atoms: C4_4  and  C7_7 
REMARK    3  A    between atoms: C7_7  and  C8_8 
ROOT
HETATM    1  C7  UNL     1     -32.669   6.421   4.069  1.00 20.00     0.034 C 
ENDROOT
BRANCH   1   2
HETATM    2  C4  UNL     1     -32.460   6.928   2.670  1.00 20.00    -0.030 C 
HETATM    3  C3  UNL     1     -32.125   8.193   2.377  1.00 20.00    -0.035 C 
HETATM    4  C5  UNL     1     -31.915   8.697   0.987  1.00 20.00     0.035 C 
ENDBRANCH   1   2
BRANCH   1   5
HETATM    5  C8  UNL     1     -34.160   6.264   4.429  1.00 20.00     0.007 C 
HETATM    6  C6  UNL     1     -34.872   5.426   3.364  1.00 20.00     0.014 C 
BRANCH   5   7
HETATM    7  C2  UNL     1     -34.338   5.611   5.779  1.00 20.00    -0.032 C 
HETATM    8  C1  UNL     1     -34.894   4.407   5.959  1.00 20.00     0.007 C 
ENDBRANCH   5   7
ENDBRANCH   1   5
TORSDOF 3
ENDMDL
MODEL 2
REMARK VINA RESULT:      -5.0      1.047      1.429
REMARK  3 active torsions:
REMARK  status: ('A' for Active; 'I' for Inactive)
REMARK    1  A    between atoms: C2_2  and  C8_8 
REMARK    2  A    between atoms: C4_4  and  C7_7 
REMARK    3  A    between atoms: C7_7  and  C8_8 
ROOT
HETATM    1  C7  UNL     1     -33.224   5.710   3.975  1.00 20.00     0.034 C 
ENDROOT
BRANCH   1   2
HETATM    2  C4  UNL     1     -33.190   6.828   2.970  1.00 20.00    -0.030 C 
HETATM    3  C3  UNL     1     -32.082   7.513   2.655  1.00 20.00    -0.035 C 
HETATM    4  C5  UNL     1     -32.047   8.622   1.655  1.00 20.00     0.035 C 
ENDBRANCH   1   2
BRANCH   1   5
HETATM    5  C8  UNL     1     -34.507   5.717   4.831  1.00 20.00     0.007 C 
HETATM    6  C6  UNL     1     -35.208   4.358   4.738  1.00 20.00     0.014 C 
BRANCH   5   7
HETATM    7  C2  UNL     1     -34.205   6.025   6.278  1.00 20.00    -0.032 C 
HETATM    8  C1  UNL     1     -33.648   7.168   6.698  1.00 20.00     0.007 C 
ENDBRANCH   5   7
ENDBRANCH   1   5
TORSDOF 3
ENDMDL
MODEL 3
REMARK VINA RESULT:      -4.6      1.025      4.839
REMARK  3 active torsions:
REMARK  status: ('A' for Active; 'I' for Inactive)
REMARK    1  A    between atoms: C2_2  and  C8_8 
REMARK    2  A    between atoms: C4_4  and  C7_7 
REMARK    3  A    between atoms: C7_7  and  C8_8 
ROOT
HETATM    1  C7  UNL     1     -33.145   6.347   2.955  1.00 20.00     0.034 C 
ENDROOT
BRANCH   1   2
HETATM    2  C4  UNL     1     -33.558   5.862   4.317  1.00 20.00    -0.030 C 
HETATM    3  C3  UNL     1     -34.678   5.163   4.552  1.00 20.00    -0.035 C 
HETATM    4  C5  UNL     1     -35.087   4.680   5.904  1.00 20.00     0.035 C 
ENDBRANCH   1   2
BRANCH   1   5
HETATM    5  C8  UNL     1     -32.454   7.724   2.997  1.00 20.00     0.007 C 
HETATM    6  C6  UNL     1     -31.227   7.669   3.912  1.00 20.00     0.014 C 
BRANCH   5   7
HETATM    7  C2  UNL     1     -32.029   8.173   1.619  1.00 20.00    -0.032 C 
HETATM    8  C1  UNL     1     -32.276   9.391   1.121  1.00 20.00     0.007 C 
ENDBRANCH   5   7
ENDBRANCH   1   5
TORSDOF 3
ENDMDL
MODEL 4
REMARK VINA RESULT:      -4.5      1.189      1.690
REMARK  3 active torsions:
REMARK  status: ('A' for Active; 'I' for Inactive)
REMARK    1  A    between atoms: C2_2  and  C8_8 
REMARK    2  A    between atoms: C4_4  and  C7_7 
REMARK    3  A    between atoms: C7_7  and  C8_8 
ROOT
HETATM    1  C7  UNL     1     -32.190   6.410   3.417  1.00 20.00     0.034 C 
ENDROOT
BRANCH   1   2
HETATM    2  C4  UNL     1     -32.669   7.608   2.645  1.00 20.00    -0.030 C 
HETATM    3  C3  UNL     1     -31.886   8.336   1.836  1.00 20.00    -0.035 C 
HETATM    4  C5  UNL     1     -32.361   9.524   1.068  1.00 20.00     0.035 C 
ENDBRANCH   1   2
BRANCH   1   5
HETATM    5  C8  UNL     1     -33.322   5.718   4.203  1.00 20.00     0.007 C 
HETATM    6  C6  UNL     1     -33.702   6.558   5.426  1.00 20.00     0.014 C 
BRANCH   5   7
HETATM    7  C2  UNL     1     -34.545   5.506   3.343  1.00 20.00    -0.032 C 
HETATM    8  C1  UNL     1     -35.794   5.456   3.821  1.00 20.00     0.007 C 
ENDBRANCH   5   7
ENDBRANCH   1   5
TORSDOF 3
ENDMDL
MODEL 5
REMARK VINA RESULT:      -4.0     10.639     11.561
REMARK  3 active torsions:
REMARK  status: ('A' for Active; 'I' for Inactive)
REMARK    1  A    between atoms: C2_2  and  C8_8 
REMARK    2  A    between atoms: C4_4  and  C7_7 
REMARK    3  A    between atoms: C7_7  and  C8_8 
ROOT
HETATM    1  C7  UNL     1     -33.735  16.196  -2.960  1.00 20.00     0.034 C 
ENDROOT
BRANCH   1   2
HETATM    2  C4  UNL     1     -33.842  16.993  -1.690  1.00 20.00    -0.030 C 
HETATM    3  C3  UNL     1     -34.672  16.685  -0.684  1.00 20.00    -0.035 C 
HETATM    4  C5  UNL     1     -34.778  17.476   0.578  1.00 20.00     0.035 C 
ENDBRANCH   1   2
BRANCH   1   5
HETATM    5  C8  UNL     1     -34.652  14.956  -2.964  1.00 20.00     0.007 C 
HETATM    6  C6  UNL     1     -35.969  15.280  -3.676  1.00 20.00     0.014 C 
BRANCH   5   7
HETATM    7  C2  UNL     1     -33.993  13.782  -3.646  1.00 20.00    -0.032 C 
HETATM    8  C1  UNL     1     -34.438  13.231  -4.783  1.00 20.00     0.007 C 
ENDBRANCH   5   7
ENDBRANCH   1   5
TORSDOF 3
ENDMDL
MODEL 6
REMARK VINA RESULT:      -4.0     10.818     12.227
REMARK  3 active torsions:
REMARK  status: ('A' for Active; 'I' for Inactive)
REMARK    1  A    between atoms: C2_2  and  C8_8 
REMARK    2  A    between atoms: C4_4  and  C7_7 
REMARK    3  A    between atoms: C7_7  and  C8_8 
ROOT
HETATM    1  C7  UNL     1     -34.497  15.715  -2.518  1.00 20.00     0.034 C 
ENDROOT
BRANCH   1   2
HETATM    2  C4  UNL     1     -34.094  16.764  -1.519  1.00 20.00    -0.030 C 
HETATM    3  C3  UNL     1     -34.724  16.966  -0.354  1.00 20.00    -0.035 C 
HETATM    4  C5  UNL     1     -34.323  18.006   0.639  1.00 20.00     0.035 C 
ENDBRANCH   1   2
BRANCH   1   5
HETATM    5  C8  UNL     1     -33.327  15.270  -3.420  1.00 20.00     0.007 C 
HETATM    6  C6  UNL     1     -33.540  13.826  -3.881  1.00 20.00     0.014 C 
BRANCH   5   7
HETATM    7  C2  UNL     1     -33.189  16.165  -4.628  1.00 20.00    -0.032 C 
HETATM    8  C1  UNL     1     -33.901  16.018  -5.752  1.00 20.00     0.007 C 
ENDBRANCH   5   7
ENDBRANCH   1   5
TORSDOF 3
ENDMDL
MODEL 7
REMARK VINA RESULT:      -3.9      1.725      3.867
REMARK  3 active torsions:
REMARK  status: ('A' for Active; 'I' for Inactive)
REMARK    1  A    between atoms: C2_2  and  C8_8 
REMARK    2  A    between atoms: C4_4  and  C7_7 
REMARK    3  A    between atoms: C7_7  and  C8_8 
ROOT
HETATM    1  C7  UNL     1     -34.400   4.639   5.170  1.00 20.00     0.034 C 
ENDROOT
BRANCH   1   2
HETATM    2  C4  UNL     1     -34.545   5.713   6.212  1.00 20.00    -0.030 C 
HETATM    3  C3  UNL     1     -33.650   6.692   6.404  1.00 20.00    -0.035 C 
HETATM    4  C5  UNL     1     -33.795   7.760   7.437  1.00 20.00     0.035 C 
ENDBRANCH   1   2
BRANCH   1   5
HETATM    5  C8  UNL     1     -34.615   5.166   3.737  1.00 20.00     0.007 C 
HETATM    6  C6  UNL     1     -36.011   5.784   3.608  1.00 20.00     0.014 C 
BRANCH   5   7
HETATM    7  C2  UNL     1     -33.577   6.198   3.365  1.00 20.00    -0.032 C 
HETATM    8  C1  UNL     1     -32.286   5.915   3.149  1.00 20.00     0.007 C 
ENDBRANCH   5   7
ENDBRANCH   1   5
TORSDOF 3
ENDMDL
MODEL 8
REMARK VINA RESULT:      -3.8     10.719     11.644
REMARK  3 active torsions:
REMARK  status: ('A' for Active; 'I' for Inactive)
REMARK    1  A    between atoms: C2_2  and  C8_8 
REMARK    2  A    between atoms: C4_4  and  C7_7 
REMARK    3  A    between atoms: C7_7  and  C8_8 
ROOT
HETATM    1  C7  UNL     1     -33.705  16.058  -2.757  1.00 20.00     0.034 C 
ENDROOT
BRANCH   1   2
HETATM    2  C4  UNL     1     -34.569  16.270  -1.544  1.00 20.00    -0.030 C 
HETATM    3  C3  UNL     1     -34.309  17.178  -0.593  1.00 20.00    -0.035 C 
HETATM    4  C5  UNL     1     -35.167  17.391   0.610  1.00 20.00     0.035 C 
ENDBRANCH   1   2
BRANCH   1   5
HETATM    5  C8  UNL     1     -34.328  15.072  -3.766  1.00 20.00     0.007 C 
HETATM    6  C6  UNL     1     -33.523  13.770  -3.793  1.00 20.00     0.014 C 
BRANCH   5   7
HETATM    7  C2  UNL     1     -35.766  14.763  -3.423  1.00 20.00    -0.032 C 
HETATM    8  C1  UNL     1     -36.761  14.752  -4.318  1.00 20.00     0.007 C 
ENDBRANCH   5   7
ENDBRANCH   1   5
TORSDOF 3
ENDMDL
MODEL 9
REMARK VINA RESULT:      -3.8     11.128     12.293
REMARK  3 active torsions:
REMARK  status: ('A' for Active; 'I' for Inactive)
REMARK    1  A    between atoms: C2_2  and  C8_8 
REMARK    2  A    between atoms: C4_4  and  C7_7 
REMARK    3  A    between atoms: C7_7  and  C8_8 
ROOT
HETATM    1  C7  UNL     1     -33.329  15.208  -3.842  1.00 20.00     0.034 C 
ENDROOT
BRANCH   1   2
HETATM    2  C4  UNL     1     -34.160  15.525  -2.630  1.00 20.00    -0.030 C 
HETATM    3  C3  UNL     1     -33.943  16.579  -1.831  1.00 20.00    -0.035 C 
HETATM    4  C5  UNL     1     -34.770  16.895  -0.629  1.00 20.00     0.035 C 
ENDBRANCH   1   2
BRANCH   1   5
HETATM    5  C8  UNL     1     -34.093  14.369  -4.886  1.00 20.00     0.007 C 
HETATM    6  C6  UNL     1     -35.299  13.688  -4.231  1.00 20.00     0.014 C 
BRANCH   5   7
HETATM    7  C2  UNL     1     -34.566  15.218  -6.041  1.00 20.00    -0.032 C 
HETATM    8  C1  UNL     1     -34.627  14.790  -7.308  1.00 20.00     0.007 C 
ENDBRANCH   5   7
ENDBRANCH   1   5
TORSDOF 3
ENDMDL
