MODEL 1
REMARK VINA RESULT:      -4.0      0.000      0.000
REMARK  3 active torsions:
REMARK  status: ('A' for Active; 'I' for Inactive)
REMARK    1  A    between atoms: C2_2  and  C6_6 
REMARK    2  A    between atoms: C2_2  and  C7_7 
REMARK    3  A    between atoms: C6_6  and  C8_8 
ROOT
HETATM    1  C6  UNL     1     -33.784   7.222   3.778  1.00 20.00     0.042 C 
ENDROOT
BRANCH   1   2
HETATM    2  C2  UNL     1     -34.210   6.244   4.856  1.00 20.00    -0.075 C 
HETATM    3  C1  UNL     1     -33.872   6.438   6.142  1.00 20.00     0.015 C 
BRANCH   2   4
HETATM    4  C7  UNL     1     -34.977   5.019   4.443  1.00 20.00     0.147 C 
HETATM    5 CL9  UNL     1     -35.000   3.823   5.760  1.00 20.00    -0.126 Cl
ENDBRANCH   2   4
ENDBRANCH   1   2
BRANCH   1   6
HETATM    6  C8  UNL     1     -32.319   7.127   3.259  1.00 20.00    -0.048 C 
HETATM    7  C3  UNL     1     -31.933   5.674   2.931  1.00 20.00     0.015 C 
HETATM    8  C4  UNL     1     -32.221   7.958   1.963  1.00 20.00     0.015 C 
HETATM    9  C5  UNL     1     -31.313   7.694   4.272  1.00 20.00     0.015 C 
ENDBRANCH   1   6
TORSDOF 3
ENDMDL
MODEL 2
REMARK VINA RESULT:      -4.0      0.060      1.442
REMARK  3 active torsions:
REMARK  status: ('A' for Active; 'I' for Inactive)
REMARK    1  A    between atoms: C2_2  and  C6_6 
REMARK    2  A    between atoms: C2_2  and  C7_7 
REMARK    3  A    between atoms: C6_6  and  C8_8 
ROOT
HETATM    1  C6  UNL     1     -33.800   7.247   3.743  1.00 20.00     0.042 C 
ENDROOT
BRANCH   1   2
HETATM    2  C2  UNL     1     -34.204   6.250   4.812  1.00 20.00    -0.075 C 
HETATM    3  C1  UNL     1     -33.857   6.431   6.097  1.00 20.00     0.015 C 
BRANCH   2   4
HETATM    4  C7  UNL     1     -34.957   5.019   4.389  1.00 20.00     0.147 C 
HETATM    5 CL9  UNL     1     -34.981   3.821   5.703  1.00 20.00    -0.126 Cl
ENDBRANCH   2   4
ENDBRANCH   1   2
BRANCH   1   6
HETATM    6  C8  UNL     1     -32.335   7.188   3.220  1.00 20.00    -0.048 C 
HETATM    7  C3  UNL     1     -31.342   7.719   4.269  1.00 20.00     0.015 C 
HETATM    8  C4  UNL     1     -31.993   5.711   2.935  1.00 20.00     0.015 C 
HETATM    9  C5  UNL     1     -32.158   7.983   1.917  1.00 20.00     0.015 C 
ENDBRANCH   1   6
TORSDOF 3
ENDMDL
MODEL 3
REMARK VINA RESULT:      -4.0      0.071      1.440
REMARK  3 active torsions:
REMARK  status: ('A' for Active; 'I' for Inactive)
REMARK    1  A    between atoms: C2_2  and  C6_6 
REMARK    2  A    between atoms: C2_2  and  C7_7 
REMARK    3  A    between atoms: C6_6  and  C8_8 
ROOT
HETATM    1  C6  UNL     1     -33.780   7.284   3.792  1.00 20.00     0.042 C 
ENDROOT
BRANCH   1   2
HETATM    2  C2  UNL     1     -34.211   6.262   4.827  1.00 20.00    -0.075 C 
HETATM    3  C1  UNL     1     -33.880   6.403   6.121  1.00 20.00     0.015 C 
BRANCH   2   4
HETATM    4  C7  UNL     1     -34.974   5.054   4.360  1.00 20.00     0.147 C 
HETATM    5 CL9  UNL     1     -34.999   3.804   5.626  1.00 20.00    -0.126 Cl
ENDBRANCH   2   4
ENDBRANCH   1   2
BRANCH   1   6
HETATM    6  C8  UNL     1     -32.342   7.156   3.210  1.00 20.00    -0.048 C 
HETATM    7  C3  UNL     1     -32.188   7.967   1.911  1.00 20.00     0.015 C 
HETATM    8  C4  UNL     1     -31.356   7.722   4.253  1.00 20.00     0.015 C 
HETATM    9  C5  UNL     1     -31.963   5.693   2.932  1.00 20.00     0.015 C 
ENDBRANCH   1   6
TORSDOF 3
ENDMDL
MODEL 4
REMARK VINA RESULT:      -3.7     11.281     13.176
REMARK  3 active torsions:
REMARK  status: ('A' for Active; 'I' for Inactive)
REMARK    1  A    between atoms: C2_2  and  C6_6 
REMARK    2  A    between atoms: C2_2  and  C7_7 
REMARK    3  A    between atoms: C6_6  and  C8_8 
ROOT
HETATM    1  C6  UNL     1     -33.248  16.345  -4.743  1.00 20.00     0.042 C 
ENDROOT
BRANCH   1   2
HETATM    2  C2  UNL     1     -33.640  15.437  -3.594  1.00 20.00    -0.075 C 
HETATM    3  C1  UNL     1     -34.045  15.943  -2.417  1.00 20.00     0.015 C 
BRANCH   2   4
HETATM    4  C7  UNL     1     -33.511  13.952  -3.784  1.00 20.00     0.147 C 
HETATM    5 CL9  UNL     1     -35.088  13.236  -4.195  1.00 20.00    -0.126 Cl
ENDBRANCH   2   4
ENDBRANCH   1   2
BRANCH   1   6
HETATM    6  C8  UNL     1     -34.304  16.586  -5.862  1.00 20.00    -0.048 C 
HETATM    7  C3  UNL     1     -35.732  16.613  -5.290  1.00 20.00     0.015 C 
HETATM    8  C4  UNL     1     -34.013  17.960  -6.501  1.00 20.00     0.015 C 
HETATM    9  C5  UNL     1     -34.227  15.517  -6.963  1.00 20.00     0.015 C 
ENDBRANCH   1   6
TORSDOF 3
ENDMDL
MODEL 5
REMARK VINA RESULT:      -3.7     11.325     13.248
REMARK  3 active torsions:
REMARK  status: ('A' for Active; 'I' for Inactive)
REMARK    1  A    between atoms: C2_2  and  C6_6 
REMARK    2  A    between atoms: C2_2  and  C7_7 
REMARK    3  A    between atoms: C6_6  and  C8_8 
ROOT
HETATM    1  C6  UNL     1     -33.241  16.322  -4.934  1.00 20.00     0.042 C 
ENDROOT
BRANCH   1   2
HETATM    2  C2  UNL     1     -33.571  15.482  -3.715  1.00 20.00    -0.075 C 
HETATM    3  C1  UNL     1     -33.915  16.054  -2.550  1.00 20.00     0.015 C 
BRANCH   2   4
HETATM    4  C7  UNL     1     -33.448  13.987  -3.827  1.00 20.00     0.147 C 
HETATM    5 CL9  UNL     1     -35.040  13.252  -4.127  1.00 20.00    -0.126 Cl
ENDBRANCH   2   4
ENDBRANCH   1   2
BRANCH   1   6
HETATM    6  C8  UNL     1     -34.369  16.537  -5.986  1.00 20.00    -0.048 C 
HETATM    7  C3  UNL     1     -34.186  17.865  -6.742  1.00 20.00     0.015 C 
HETATM    8  C4  UNL     1     -34.289  15.384  -7.008  1.00 20.00     0.015 C 
HETATM    9  C5  UNL     1     -35.765  16.516  -5.345  1.00 20.00     0.015 C 
ENDBRANCH   1   6
TORSDOF 3
ENDMDL
MODEL 6
REMARK VINA RESULT:      -3.7     11.706     12.704
REMARK  3 active torsions:
REMARK  status: ('A' for Active; 'I' for Inactive)
REMARK    1  A    between atoms: C2_2  and  C6_6 
REMARK    2  A    between atoms: C2_2  and  C7_7 
REMARK    3  A    between atoms: C6_6  and  C8_8 
ROOT
HETATM    1  C6  UNL     1     -35.786  15.287  -3.188  1.00 20.00     0.042 C 
ENDROOT
BRANCH   1   2
HETATM    2  C2  UNL     1     -35.562  14.440  -4.426  1.00 20.00    -0.075 C 
HETATM    3  C1  UNL     1     -35.080  13.189  -4.334  1.00 20.00     0.015 C 
BRANCH   2   4
HETATM    4  C7  UNL     1     -35.839  15.055  -5.770  1.00 20.00     0.147 C 
HETATM    5 CL9  UNL     1     -34.364  15.074  -6.764  1.00 20.00    -0.126 Cl
ENDBRANCH   2   4
ENDBRANCH   1   2
BRANCH   1   6
HETATM    6  C8  UNL     1     -34.666  16.293  -2.791  1.00 20.00    -0.048 C 
HETATM    7  C3  UNL     1     -34.927  17.687  -3.386  1.00 20.00     0.015 C 
HETATM    8  C4  UNL     1     -34.664  16.416  -1.253  1.00 20.00     0.015 C 
HETATM    9  C5  UNL     1     -33.277  15.811  -3.238  1.00 20.00     0.015 C 
ENDBRANCH   1   6
TORSDOF 3
ENDMDL
MODEL 7
REMARK VINA RESULT:      -3.7     11.769     12.647
REMARK  3 active torsions:
REMARK  status: ('A' for Active; 'I' for Inactive)
REMARK    1  A    between atoms: C2_2  and  C6_6 
REMARK    2  A    between atoms: C2_2  and  C7_7 
REMARK    3  A    between atoms: C6_6  and  C8_8 
ROOT
HETATM    1  C6  UNL     1     -35.403  15.314  -3.029  1.00 20.00     0.042 C 
ENDROOT
BRANCH   1   2
HETATM    2  C2  UNL     1     -35.047  16.574  -2.265  1.00 20.00    -0.075 C 
HETATM    3  C1  UNL     1     -34.601  16.515  -0.999  1.00 20.00     0.015 C 
BRANCH   2   4
HETATM    4  C7  UNL     1     -35.257  17.901  -2.941  1.00 20.00     0.147 C 
HETATM    5 CL9  UNL     1     -33.704  18.578  -3.482  1.00 20.00    -0.126 Cl
ENDBRANCH   2   4
ENDBRANCH   1   2
BRANCH   1   6
HETATM    6  C8  UNL     1     -34.388  14.809  -4.098  1.00 20.00    -0.048 C 
HETATM    7  C3  UNL     1     -32.936  15.016  -3.634  1.00 20.00     0.015 C 
HETATM    8  C4  UNL     1     -34.622  13.297  -4.296  1.00 20.00     0.015 C 
HETATM    9  C5  UNL     1     -34.585  15.508  -5.451  1.00 20.00     0.015 C 
ENDBRANCH   1   6
TORSDOF 3
ENDMDL
MODEL 8
REMARK VINA RESULT:      -3.7     11.573     13.156
REMARK  3 active torsions:
REMARK  status: ('A' for Active; 'I' for Inactive)
REMARK    1  A    between atoms: C2_2  and  C6_6 
REMARK    2  A    between atoms: C2_2  and  C7_7 
REMARK    3  A    between atoms: C6_6  and  C8_8 
ROOT
HETATM    1  C6  UNL     1     -33.539  15.521  -4.301  1.00 20.00     0.042 C 
ENDROOT
BRANCH   1   2
HETATM    2  C2  UNL     1     -33.701  17.010  -4.061  1.00 20.00    -0.075 C 
HETATM    3  C1  UNL     1     -33.532  17.895  -5.057  1.00 20.00     0.015 C 
BRANCH   2   4
HETATM    4  C7  UNL     1     -34.002  17.478  -2.665  1.00 20.00     0.147 C 
HETATM    5 CL9  UNL     1     -34.512  16.112  -1.645  1.00 20.00    -0.126 Cl
ENDBRANCH   2   4
ENDBRANCH   1   2
BRANCH   1   6
HETATM    6  C8  UNL     1     -34.661  14.794  -5.099  1.00 20.00    -0.048 C 
HETATM    7  C3  UNL     1     -34.408  14.868  -6.615  1.00 20.00     0.015 C 
HETATM    8  C4  UNL     1     -34.656  13.310  -4.680  1.00 20.00     0.015 C 
HETATM    9  C5  UNL     1     -36.050  15.376  -4.796  1.00 20.00     0.015 C 
ENDBRANCH   1   6
TORSDOF 3
ENDMDL
MODEL 9
REMARK VINA RESULT:      -3.7     11.413     12.473
REMARK  3 active torsions:
REMARK  status: ('A' for Active; 'I' for Inactive)
REMARK    1  A    between atoms: C2_2  and  C6_6 
REMARK    2  A    between atoms: C2_2  and  C7_7 
REMARK    3  A    between atoms: C6_6  and  C8_8 
ROOT
HETATM    1  C6  UNL     1     -35.209  15.097  -3.230  1.00 20.00     0.042 C 
ENDROOT
BRANCH   1   2
HETATM    2  C2  UNL     1     -35.180  16.377  -2.417  1.00 20.00    -0.075 C 
HETATM    3  C1  UNL     1     -34.581  16.421  -1.215  1.00 20.00     0.015 C 
BRANCH   2   4
HETATM    4  C7  UNL     1     -35.888  17.585  -2.964  1.00 20.00     0.147 C 
HETATM    5 CL9  UNL     1     -36.882  17.141  -4.370  1.00 20.00    -0.126 Cl
ENDBRANCH   2   4
ENDBRANCH   1   2
BRANCH   1   6
HETATM    6  C8  UNL     1     -34.009  14.823  -4.184  1.00 20.00    -0.048 C 
HETATM    7  C3  UNL     1     -33.076  13.741  -3.615  1.00 20.00     0.015 C 
HETATM    8  C4  UNL     1     -34.577  14.316  -5.526  1.00 20.00     0.015 C 
HETATM    9  C5  UNL     1     -33.191  16.094  -4.458  1.00 20.00     0.015 C 
ENDBRANCH   1   6
TORSDOF 3
ENDMDL
