MODEL 1
REMARK VINA RESULT:      -4.7      0.000      0.000
REMARK  1 active torsions:
REMARK  status: ('A' for Active; 'I' for Inactive)
REMARK    1  A    between atoms: C4_4  and  C9_9 
ROOT
HETATM    1  C1  UNL     1     -34.882   4.363   5.910  1.00 20.00    -0.025 C 
HETATM    2  C2  UNL     1     -34.643   3.785   4.723  1.00 20.00    -0.025 C 
HETATM    3  C5  UNL     1     -35.566   5.856   4.288  1.00 20.00     0.017 C 
HETATM    4  C6  UNL     1     -33.500   6.341   5.353  1.00 20.00     0.017 C 
HETATM    5  C7  UNL     1     -34.931   5.856   5.680  1.00 20.00     0.009 C 
HETATM    6  C8  UNL     1     -34.519   4.896   3.704  1.00 20.00     0.016 C 
HETATM    7  C9  UNL     1     -33.197   5.636   4.006  1.00 20.00     0.015 C 
ENDROOT
BRANCH   7   8
HETATM    8  C4  UNL     1     -32.820   6.604   2.928  1.00 20.00    -0.031 C 
HETATM    9  C3  UNL     1     -31.884   7.550   3.065  1.00 20.00     0.007 C 
ENDBRANCH   7   8
TORSDOF 1
ENDMDL
MODEL 2
REMARK VINA RESULT:      -4.7      0.955      1.978
REMARK  1 active torsions:
REMARK  status: ('A' for Active; 'I' for Inactive)
REMARK    1  A    between atoms: C4_4  and  C9_9 
ROOT
HETATM    1  C1  UNL     1     -35.399   5.049   6.581  1.00 20.00    -0.025 C 
HETATM    2  C2  UNL     1     -34.448   5.993   6.648  1.00 20.00    -0.025 C 
HETATM    3  C5  UNL     1     -33.549   4.217   5.478  1.00 20.00     0.017 C 
HETATM    4  C6  UNL     1     -35.327   4.990   4.106  1.00 20.00     0.017 C 
HETATM    5  C7  UNL     1     -35.076   4.171   5.393  1.00 20.00     0.009 C 
HETATM    6  C8  UNL     1     -33.499   5.752   5.495  1.00 20.00     0.016 C 
HETATM    7  C9  UNL     1     -34.264   6.115   4.202  1.00 20.00     0.015 C 
ENDROOT
BRANCH   7   8
HETATM    8  C4  UNL     1     -33.372   6.160   3.000  1.00 20.00    -0.031 C 
HETATM    9  C3  UNL     1     -32.186   6.778   2.970  1.00 20.00     0.007 C 
ENDBRANCH   7   8
TORSDOF 1
ENDMDL
MODEL 3
REMARK VINA RESULT:      -4.5     11.707     12.622
REMARK  1 active torsions:
REMARK  status: ('A' for Active; 'I' for Inactive)
REMARK    1  A    between atoms: C4_4  and  C9_9 
ROOT
HETATM    1  C1  UNL     1     -34.454  13.524  -4.628  1.00 20.00    -0.025 C 
HETATM    2  C2  UNL     1     -33.370  13.704  -3.859  1.00 20.00    -0.025 C 
HETATM    3  C5  UNL     1     -33.905  15.762  -4.758  1.00 20.00     0.017 C 
HETATM    4  C6  UNL     1     -35.762  15.218  -3.382  1.00 20.00     0.017 C 
HETATM    5  C7  UNL     1     -35.143  14.864  -4.754  1.00 20.00     0.009 C 
HETATM    6  C8  UNL     1     -33.345  15.163  -3.459  1.00 20.00     0.016 C 
HETATM    7  C9  UNL     1     -34.515  15.378  -2.474  1.00 20.00     0.015 C 
ENDROOT
BRANCH   7   8
HETATM    8  C4  UNL     1     -34.465  16.717  -1.805  1.00 20.00    -0.031 C 
HETATM    9  C3  UNL     1     -34.653  16.905  -0.494  1.00 20.00     0.007 C 
ENDBRANCH   7   8
TORSDOF 1
ENDMDL
MODEL 4
REMARK VINA RESULT:      -4.3     11.825     12.836
REMARK  1 active torsions:
REMARK  status: ('A' for Active; 'I' for Inactive)
REMARK    1  A    between atoms: C4_4  and  C9_9 
ROOT
HETATM    1  C1  UNL     1     -33.666  16.984  -1.967  1.00 20.00    -0.025 C 
HETATM    2  C2  UNL     1     -34.711  16.293  -1.485  1.00 20.00    -0.025 C 
HETATM    3  C5  UNL     1     -35.175  16.755  -3.699  1.00 20.00     0.017 C 
HETATM    4  C6  UNL     1     -33.269  15.341  -3.778  1.00 20.00     0.017 C 
HETATM    5  C7  UNL     1     -33.664  16.804  -3.468  1.00 20.00     0.009 C 
HETATM    6  C8  UNL     1     -35.395  15.640  -2.666  1.00 20.00     0.016 C 
HETATM    7  C9  UNL     1     -34.448  14.533  -3.178  1.00 20.00     0.015 C 
ENDROOT
BRANCH   7   8
HETATM    8  C4  UNL     1     -35.099  13.640  -4.188  1.00 20.00    -0.031 C 
HETATM    9  C3  UNL     1     -34.773  13.616  -5.486  1.00 20.00     0.007 C 
ENDBRANCH   7   8
TORSDOF 1
ENDMDL
MODEL 5
REMARK VINA RESULT:      -4.3     11.833     13.008
REMARK  1 active torsions:
REMARK  status: ('A' for Active; 'I' for Inactive)
REMARK    1  A    between atoms: C4_4  and  C9_9 
ROOT
HETATM    1  C1  UNL     1     -34.356  14.974  -5.412  1.00 20.00    -0.025 C 
HETATM    2  C2  UNL     1     -34.854  14.141  -4.486  1.00 20.00    -0.025 C 
HETATM    3  C5  UNL     1     -32.876  14.979  -3.640  1.00 20.00     0.017 C 
HETATM    4  C6  UNL     1     -34.290  16.877  -3.829  1.00 20.00     0.017 C 
HETATM    5  C7  UNL     1     -33.429  15.933  -4.700  1.00 20.00     0.009 C 
HETATM    6  C8  UNL     1     -34.271  14.556  -3.153  1.00 20.00     0.016 C 
HETATM    7  C9  UNL     1     -34.910  15.913  -2.786  1.00 20.00     0.015 C 
ENDROOT
BRANCH   7   8
HETATM    8  C4  UNL     1     -34.613  16.327  -1.378  1.00 20.00    -0.031 C 
HETATM    9  C3  UNL     1     -33.859  17.383  -1.053  1.00 20.00     0.007 C 
ENDBRANCH   7   8
TORSDOF 1
ENDMDL
MODEL 6
REMARK VINA RESULT:      -4.3      1.260      2.889
REMARK  1 active torsions:
REMARK  status: ('A' for Active; 'I' for Inactive)
REMARK    1  A    between atoms: C4_4  and  C9_9 
ROOT
HETATM    1  C1  UNL     1     -34.023   5.054   2.544  1.00 20.00    -0.025 C 
HETATM    2  C2  UNL     1     -32.950   5.666   3.067  1.00 20.00    -0.025 C 
HETATM    3  C5  UNL     1     -34.789   6.949   3.617  1.00 20.00     0.017 C 
HETATM    4  C6  UNL     1     -35.145   4.891   4.746  1.00 20.00     0.017 C 
HETATM    5  C7  UNL     1     -35.229   5.512   3.333  1.00 20.00     0.009 C 
HETATM    6  C8  UNL     1     -33.440   6.521   4.214  1.00 20.00     0.016 C 
HETATM    7  C9  UNL     1     -33.876   5.556   5.339  1.00 20.00     0.015 C 
ENDROOT
BRANCH   7   8
HETATM    8  C4  UNL     1     -34.153   6.264   6.629  1.00 20.00    -0.031 C 
HETATM    9  C3  UNL     1     -33.531   7.382   7.018  1.00 20.00     0.007 C 
ENDBRANCH   7   8
TORSDOF 1
ENDMDL
MODEL 7
REMARK VINA RESULT:      -4.3     11.535     12.767
REMARK  1 active torsions:
REMARK  status: ('A' for Active; 'I' for Inactive)
REMARK    1  A    between atoms: C4_4  and  C9_9 
ROOT
HETATM    1  C1  UNL     1     -34.791  14.021  -5.781  1.00 20.00    -0.025 C 
HETATM    2  C2  UNL     1     -35.077  15.330  -5.712  1.00 20.00    -0.025 C 
HETATM    3  C5  UNL     1     -36.344  14.279  -4.093  1.00 20.00     0.017 C 
HETATM    4  C6  UNL     1     -34.099  13.929  -3.405  1.00 20.00     0.017 C 
HETATM    5  C7  UNL     1     -35.129  13.416  -4.437  1.00 20.00     0.009 C 
HETATM    6  C8  UNL     1     -35.591  15.600  -4.315  1.00 20.00     0.016 C 
HETATM    7  C9  UNL     1     -34.389  15.452  -3.357  1.00 20.00     0.015 C 
ENDROOT
BRANCH   7   8
HETATM    8  C4  UNL     1     -34.694  15.931  -1.972  1.00 20.00    -0.031 C 
HETATM    9  C3  UNL     1     -34.040  16.926  -1.363  1.00 20.00     0.007 C 
ENDBRANCH   7   8
TORSDOF 1
ENDMDL
MODEL 8
REMARK VINA RESULT:      -4.1      8.707     10.195
REMARK  1 active torsions:
REMARK  status: ('A' for Active; 'I' for Inactive)
REMARK    1  A    between atoms: C4_4  and  C9_9 
ROOT
HETATM    1  C1  UNL     1     -41.182   7.227  -0.726  1.00 20.00    -0.025 C 
HETATM    2  C2  UNL     1     -40.574   6.139  -0.230  1.00 20.00    -0.025 C 
HETATM    3  C5  UNL     1     -42.840   5.694  -0.245  1.00 20.00     0.017 C 
HETATM    4  C6  UNL     1     -42.269   5.934  -2.538  1.00 20.00     0.017 C 
HETATM    5  C7  UNL     1     -42.521   6.784  -1.271  1.00 20.00     0.009 C 
HETATM    6  C8  UNL     1     -41.503   4.967  -0.458  1.00 20.00     0.016 C 
HETATM    7  C9  UNL     1     -41.520   4.697  -1.979  1.00 20.00     0.015 C 
ENDROOT
BRANCH   7   8
HETATM    8  C4  UNL     1     -42.204   3.412  -2.327  1.00 20.00    -0.031 C 
HETATM    9  C3  UNL     1     -41.701   2.500  -3.166  1.00 20.00     0.007 C 
ENDBRANCH   7   8
TORSDOF 1
ENDMDL
MODEL 9
REMARK VINA RESULT:      -4.1     11.980     13.422
REMARK  1 active torsions:
REMARK  status: ('A' for Active; 'I' for Inactive)
REMARK    1  A    between atoms: C4_4  and  C9_9 
ROOT
HETATM    1  C1  UNL     1     -34.694  15.651  -2.433  1.00 20.00    -0.025 C 
HETATM    2  C2  UNL     1     -33.694  16.395  -2.928  1.00 20.00    -0.025 C 
HETATM    3  C5  UNL     1     -33.494  14.294  -3.864  1.00 20.00     0.017 C 
HETATM    4  C6  UNL     1     -35.564  15.115  -4.689  1.00 20.00     0.017 C 
HETATM    5  C7  UNL     1     -34.936  14.521  -3.407  1.00 20.00     0.009 C 
HETATM    6  C8  UNL     1     -33.279  15.768  -4.240  1.00 20.00     0.016 C 
HETATM    7  C9  UNL     1     -34.430  16.017  -5.240  1.00 20.00     0.015 C 
ENDROOT
BRANCH   7   8
HETATM    8  C4  UNL     1     -34.056  15.667  -6.647  1.00 20.00    -0.031 C 
HETATM    9  C3  UNL     1     -34.753  14.826  -7.420  1.00 20.00     0.007 C 
ENDBRANCH   7   8
TORSDOF 1
ENDMDL
