MODEL 1
REMARK VINA RESULT:      -4.1      0.000      0.000
REMARK  3 active torsions:
REMARK  status: ('A' for Active; 'I' for Inactive)
REMARK    1  A    between atoms: C1_1  and  C7_7 
REMARK    2  A    between atoms: C1_1  and  C9_9 
REMARK    3  A    between atoms: C7_7  and  C8_8 
ROOT
HETATM    1  C1  UNL     1     -33.848  16.169  -4.241  1.00 20.00     0.134 C 
HETATM    2  O10 UNL     1     -32.854  16.533  -4.873  1.00 20.00    -0.297 OA
ENDROOT
BRANCH   1   3
HETATM    3  C7  UNL     1     -34.518  17.100  -3.233  1.00 20.00     0.083 C 
BRANCH   3   4
HETATM    4  C8  UNL     1     -33.775  17.183  -1.890  1.00 20.00    -0.016 C 
HETATM    5  C2  UNL     1     -34.652  16.616  -0.770  1.00 20.00     0.010 C 
HETATM    6  C3  UNL     1     -33.383  18.626  -1.560  1.00 20.00     0.010 C 
ENDBRANCH   3   4
ENDBRANCH   1   3
BRANCH   1   7
HETATM    7  C9  UNL     1     -34.447  14.759  -4.432  1.00 20.00     0.009 C 
HETATM    8  C4  UNL     1     -33.505  13.713  -3.810  1.00 20.00     0.022 C 
HETATM    9  C5  UNL     1     -35.813  14.653  -3.744  1.00 20.00     0.022 C 
HETATM   10  C6  UNL     1     -34.581  14.475  -5.934  1.00 20.00     0.022 C 
ENDBRANCH   1   7
TORSDOF 3
ENDMDL
MODEL 2
REMARK VINA RESULT:      -4.1      0.051      1.373
REMARK  3 active torsions:
REMARK  status: ('A' for Active; 'I' for Inactive)
REMARK    1  A    between atoms: C1_1  and  C7_7 
REMARK    2  A    between atoms: C1_1  and  C9_9 
REMARK    3  A    between atoms: C7_7  and  C8_8 
ROOT
HETATM    1  C1  UNL     1     -33.860  16.125  -4.257  1.00 20.00     0.134 C 
HETATM    2  O10 UNL     1     -32.870  16.504  -4.888  1.00 20.00    -0.297 OA
ENDROOT
BRANCH   1   3
HETATM    3  C7  UNL     1     -34.542  17.045  -3.247  1.00 20.00     0.083 C 
BRANCH   3   4
HETATM    4  C8  UNL     1     -33.784  17.160  -1.915  1.00 20.00    -0.016 C 
HETATM    5  C2  UNL     1     -34.647  16.620  -0.772  1.00 20.00     0.010 C 
HETATM    6  C3  UNL     1     -33.388  18.610  -1.624  1.00 20.00     0.010 C 
ENDBRANCH   3   4
ENDBRANCH   1   3
BRANCH   1   7
HETATM    7  C9  UNL     1     -34.440  14.709  -4.453  1.00 20.00     0.009 C 
HETATM    8  C4  UNL     1     -35.815  14.619  -3.768  1.00 20.00     0.022 C 
HETATM    9  C5  UNL     1     -34.618  14.398  -5.944  1.00 20.00     0.022 C 
HETATM   10  C6  UNL     1     -33.495  13.689  -3.803  1.00 20.00     0.022 C 
ENDBRANCH   1   7
TORSDOF 3
ENDMDL
MODEL 3
REMARK VINA RESULT:      -4.1      0.028      1.373
REMARK  3 active torsions:
REMARK  status: ('A' for Active; 'I' for Inactive)
REMARK    1  A    between atoms: C1_1  and  C7_7 
REMARK    2  A    between atoms: C1_1  and  C9_9 
REMARK    3  A    between atoms: C7_7  and  C8_8 
ROOT
HETATM    1  C1  UNL     1     -33.849  16.158  -4.228  1.00 20.00     0.134 C 
HETATM    2  O10 UNL     1     -32.866  16.532  -4.871  1.00 20.00    -0.297 OA
ENDROOT
BRANCH   1   3
HETATM    3  C7  UNL     1     -34.525  17.088  -3.222  1.00 20.00     0.083 C 
BRANCH   3   4
HETATM    4  C8  UNL     1     -33.776  17.188  -1.884  1.00 20.00    -0.016 C 
HETATM    5  C2  UNL     1     -34.646  16.634  -0.753  1.00 20.00     0.010 C 
HETATM    6  C3  UNL     1     -33.384  18.635  -1.573  1.00 20.00     0.010 C 
ENDBRANCH   3   4
ENDBRANCH   1   3
BRANCH   1   7
HETATM    7  C9  UNL     1     -34.428  14.738  -4.403  1.00 20.00     0.009 C 
HETATM    8  C4  UNL     1     -34.595  14.434  -5.902  1.00 20.00     0.022 C 
HETATM    9  C5  UNL     1     -33.485  13.691  -3.797  1.00 20.00     0.022 C 
HETATM   10  C6  UNL     1     -35.803  14.674  -3.728  1.00 20.00     0.022 C 
ENDBRANCH   1   7
TORSDOF 3
ENDMDL
MODEL 4
REMARK VINA RESULT:      -3.8      1.586      1.983
REMARK  3 active torsions:
REMARK  status: ('A' for Active; 'I' for Inactive)
REMARK    1  A    between atoms: C1_1  and  C7_7 
REMARK    2  A    between atoms: C1_1  and  C9_9 
REMARK    3  A    between atoms: C7_7  and  C8_8 
ROOT
HETATM    1  C1  UNL     1     -35.143  15.507  -3.390  1.00 20.00     0.134 C 
HETATM    2  O10 UNL     1     -36.258  15.869  -3.773  1.00 20.00    -0.297 OA
ENDROOT
BRANCH   1   3
HETATM    3  C7  UNL     1     -34.699  15.737  -1.947  1.00 20.00     0.083 C 
BRANCH   3   4
HETATM    4  C8  UNL     1     -34.862  17.193  -1.483  1.00 20.00    -0.016 C 
HETATM    5  C2  UNL     1     -33.797  18.075  -2.138  1.00 20.00     0.010 C 
HETATM    6  C3  UNL     1     -34.761  17.305   0.041  1.00 20.00     0.010 C 
ENDBRANCH   3   4
ENDBRANCH   1   3
BRANCH   1   7
HETATM    7  C9  UNL     1     -34.151  14.819  -4.352  1.00 20.00     0.009 C 
HETATM    8  C4  UNL     1     -32.752  14.791  -3.712  1.00 20.00     0.022 C 
HETATM    9  C5  UNL     1     -34.585  13.375  -4.635  1.00 20.00     0.022 C 
HETATM   10  C6  UNL     1     -34.084  15.622  -5.657  1.00 20.00     0.022 C 
ENDBRANCH   1   7
TORSDOF 3
ENDMDL
MODEL 5
REMARK VINA RESULT:      -3.8      2.288      4.338
REMARK  3 active torsions:
REMARK  status: ('A' for Active; 'I' for Inactive)
REMARK    1  A    between atoms: C1_1  and  C7_7 
REMARK    2  A    between atoms: C1_1  and  C9_9 
REMARK    3  A    between atoms: C7_7  and  C8_8 
ROOT
HETATM    1  C1  UNL     1     -34.543  13.925  -4.903  1.00 20.00     0.134 C 
HETATM    2  O10 UNL     1     -34.895  12.792  -4.568  1.00 20.00    -0.297 OA
ENDROOT
BRANCH   1   3
HETATM    3  C7  UNL     1     -34.914  14.487  -6.273  1.00 20.00     0.083 C 
BRANCH   3   4
HETATM    4  C8  UNL     1     -36.404  14.840  -6.406  1.00 20.00    -0.016 C 
HETATM    5  C2  UNL     1     -36.789  14.945  -7.883  1.00 20.00     0.010 C 
HETATM    6  C3  UNL     1     -36.730  16.154  -5.692  1.00 20.00     0.010 C 
ENDBRANCH   3   4
ENDBRANCH   1   3
BRANCH   1   7
HETATM    7  C9  UNL     1     -33.706  14.814  -3.959  1.00 20.00     0.009 C 
HETATM    8  C4  UNL     1     -34.589  15.299  -2.795  1.00 20.00     0.022 C 
HETATM    9  C5  UNL     1     -32.525  14.026  -3.378  1.00 20.00     0.022 C 
HETATM   10  C6  UNL     1     -33.202  16.034  -4.741  1.00 20.00     0.022 C 
ENDBRANCH   1   7
TORSDOF 3
ENDMDL
MODEL 6
REMARK VINA RESULT:      -3.8      1.527      2.271
REMARK  3 active torsions:
REMARK  status: ('A' for Active; 'I' for Inactive)
REMARK    1  A    between atoms: C1_1  and  C7_7 
REMARK    2  A    between atoms: C1_1  and  C9_9 
REMARK    3  A    between atoms: C7_7  and  C8_8 
ROOT
HETATM    1  C1  UNL     1     -35.156  15.737  -3.291  1.00 20.00     0.134 C 
HETATM    2  O10 UNL     1     -36.135  16.329  -3.752  1.00 20.00    -0.297 OA
ENDROOT
BRANCH   1   3
HETATM    3  C7  UNL     1     -34.796  15.854  -1.812  1.00 20.00     0.083 C 
BRANCH   3   4
HETATM    4  C8  UNL     1     -34.854  17.295  -1.280  1.00 20.00    -0.016 C 
HETATM    5  C2  UNL     1     -33.645  18.088  -1.781  1.00 20.00     0.010 C 
HETATM    6  C3  UNL     1     -34.893  17.322   0.250  1.00 20.00     0.010 C 
ENDBRANCH   3   4
ENDBRANCH   1   3
BRANCH   1   7
HETATM    7  C9  UNL     1     -34.252  14.867  -4.190  1.00 20.00     0.009 C 
HETATM    8  C4  UNL     1     -34.256  15.432  -5.622  1.00 20.00     0.022 C 
HETATM    9  C5  UNL     1     -32.808  14.871  -3.671  1.00 20.00     0.022 C 
HETATM   10  C6  UNL     1     -34.806  13.438  -4.219  1.00 20.00     0.022 C 
ENDBRANCH   1   7
TORSDOF 3
ENDMDL
MODEL 7
REMARK VINA RESULT:      -3.8      2.326      3.045
REMARK  3 active torsions:
REMARK  status: ('A' for Active; 'I' for Inactive)
REMARK    1  A    between atoms: C1_1  and  C7_7 
REMARK    2  A    between atoms: C1_1  and  C9_9 
REMARK    3  A    between atoms: C7_7  and  C8_8 
ROOT
HETATM    1  C1  UNL     1     -36.507  15.123  -4.185  1.00 20.00     0.134 C 
HETATM    2  O10 UNL     1     -37.102  14.111  -3.808  1.00 20.00    -0.297 OA
ENDROOT
BRANCH   1   3
HETATM    3  C7  UNL     1     -35.997  16.151  -3.178  1.00 20.00     0.083 C 
BRANCH   3   4
HETATM    4  C8  UNL     1     -34.804  15.653  -2.347  1.00 20.00    -0.016 C 
HETATM    5  C2  UNL     1     -34.637  16.520  -1.097  1.00 20.00     0.010 C 
HETATM    6  C3  UNL     1     -33.510  15.669  -3.165  1.00 20.00     0.010 C 
ENDBRANCH   3   4
ENDBRANCH   1   3
BRANCH   1   7
HETATM    7  C9  UNL     1     -36.266  15.396  -5.685  1.00 20.00     0.009 C 
HETATM    8  C4  UNL     1     -37.596  15.278  -6.448  1.00 20.00     0.022 C 
HETATM    9  C5  UNL     1     -35.709  16.810  -5.895  1.00 20.00     0.022 C 
HETATM   10  C6  UNL     1     -35.286  14.349  -6.230  1.00 20.00     0.022 C 
ENDBRANCH   1   7
TORSDOF 3
ENDMDL
MODEL 8
REMARK VINA RESULT:      -3.7     12.434     14.425
REMARK  3 active torsions:
REMARK  status: ('A' for Active; 'I' for Inactive)
REMARK    1  A    between atoms: C1_1  and  C7_7 
REMARK    2  A    between atoms: C1_1  and  C9_9 
REMARK    3  A    between atoms: C7_7  and  C8_8 
ROOT
HETATM    1  C1  UNL     1     -42.081   5.426  -2.076  1.00 20.00     0.134 C 
HETATM    2  O10 UNL     1     -42.580   5.922  -3.089  1.00 20.00    -0.297 OA
ENDROOT
BRANCH   1   3
HETATM    3  C7  UNL     1     -41.530   4.002  -2.093  1.00 20.00     0.083 C 
BRANCH   3   4
HETATM    4  C8  UNL     1     -42.382   3.027  -2.922  1.00 20.00    -0.016 C 
HETATM    5  C2  UNL     1     -43.417   2.344  -2.026  1.00 20.00     0.010 C 
HETATM    6  C3  UNL     1     -41.510   1.970  -3.605  1.00 20.00     0.010 C 
ENDBRANCH   3   4
ENDBRANCH   1   3
BRANCH   1   7
HETATM    7  C9  UNL     1     -42.003   6.217  -0.753  1.00 20.00     0.009 C 
HETATM    8  C4  UNL     1     -43.006   5.630   0.255  1.00 20.00     0.022 C 
HETATM    9  C5  UNL     1     -40.596   6.123  -0.149  1.00 20.00     0.022 C 
HETATM   10  C6  UNL     1     -42.372   7.681  -1.025  1.00 20.00     0.022 C 
ENDBRANCH   1   7
TORSDOF 3
ENDMDL
MODEL 9
REMARK VINA RESULT:      -3.6      1.609      3.932
REMARK  3 active torsions:
REMARK  status: ('A' for Active; 'I' for Inactive)
REMARK    1  A    between atoms: C1_1  and  C7_7 
REMARK    2  A    between atoms: C1_1  and  C9_9 
REMARK    3  A    between atoms: C7_7  and  C8_8 
ROOT
HETATM    1  C1  UNL     1     -34.092  16.165  -4.745  1.00 20.00     0.134 C 
HETATM    2  O10 UNL     1     -32.918  16.508  -4.906  1.00 20.00    -0.297 OA
ENDROOT
BRANCH   1   3
HETATM    3  C7  UNL     1     -35.196  16.701  -5.654  1.00 20.00     0.083 C 
BRANCH   3   4
HETATM    4  C8  UNL     1     -35.033  16.284  -7.124  1.00 20.00    -0.016 C 
HETATM    5  C2  UNL     1     -36.285  16.664  -7.918  1.00 20.00     0.010 C 
HETATM    6  C3  UNL     1     -34.777  14.780  -7.251  1.00 20.00     0.010 C 
ENDBRANCH   3   4
ENDBRANCH   1   3
BRANCH   1   7
HETATM    7  C9  UNL     1     -34.493  15.192  -3.616  1.00 20.00     0.009 C 
HETATM    8  C4  UNL     1     -34.318  15.888  -2.254  1.00 20.00     0.022 C 
HETATM    9  C5  UNL     1     -35.960  14.770  -3.760  1.00 20.00     0.022 C 
HETATM   10  C6  UNL     1     -33.575  13.964  -3.667  1.00 20.00     0.022 C 
ENDBRANCH   1   7
TORSDOF 3
ENDMDL
