MODEL 1
REMARK VINA RESULT:      -4.4      0.000      0.000
REMARK  7 active torsions:
REMARK  status: ('A' for Active; 'I' for Inactive)
REMARK    1  A    between atoms: C1_1  and  C4_4 
REMARK    2  A    between atoms: C1_1  and  O10_10 
REMARK    3  A    between atoms: C4_4  and  C5_5 
REMARK    4  A    between atoms: C5_5  and  C6_6 
REMARK    5  A    between atoms: C6_6  and  C7_7 
REMARK    6  A    between atoms: C7_7  and  C8_8 
REMARK    7  A    between atoms: C8_8  and  O11_11 
ROOT
HETATM    1  C5  UNL     1     -33.978   5.406   2.916  1.00 20.00     0.010 C 
ENDROOT
BRANCH   1   2
HETATM    2  C4  UNL     1     -34.824   5.842   4.113  1.00 20.00     0.111 C 
BRANCH   2   3
HETATM    3  C1  UNL     1     -34.978   4.760   5.160  1.00 20.00     0.258 C 
HETATM    4  O9  UNL     1     -35.165   3.574   4.924  1.00 20.00    -0.265 OA
BRANCH   3   5
HETATM    5  O10 UNL     1     -34.842   5.318   6.399  1.00 20.00    -0.326 OA
HETATM    6  C2  UNL     1     -34.045   6.506   6.456  1.00 20.00     0.213 C 
ENDBRANCH   3   5
ENDBRANCH   2   3
ENDBRANCH   1   2
BRANCH   1   7
HETATM    7  C6  UNL     1     -32.497   5.760   3.085  1.00 20.00     0.002 C 
BRANCH   7   8
HETATM    8  C7  UNL     1     -32.311   7.257   3.326  1.00 20.00     0.026 C 
BRANCH   8   9
HETATM    9  C8  UNL     1     -31.773   7.963   2.090  1.00 20.00     0.167 C 
BRANCH   9  10
HETATM   10  O11 UNL     1     -32.448   9.204   1.940  1.00 20.00    -0.396 OA
HETATM   11  C3  UNL     1     -32.495   9.612   0.579  1.00 20.00     0.201 C 
ENDBRANCH   9  10
ENDBRANCH   8   9
ENDBRANCH   7   8
ENDBRANCH   1   7
TORSDOF 7
ENDMDL
MODEL 2
REMARK VINA RESULT:      -4.0     10.812     12.002
REMARK  7 active torsions:
REMARK  status: ('A' for Active; 'I' for Inactive)
REMARK    1  A    between atoms: C1_1  and  C4_4 
REMARK    2  A    between atoms: C1_1  and  O10_10 
REMARK    3  A    between atoms: C4_4  and  C5_5 
REMARK    4  A    between atoms: C5_5  and  C6_6 
REMARK    5  A    between atoms: C6_6  and  C7_7 
REMARK    6  A    between atoms: C7_7  and  C8_8 
REMARK    7  A    between atoms: C8_8  and  O11_11 
ROOT
HETATM    1  C5  UNL     1     -33.274  15.415  -3.463  1.00 20.00     0.010 C 
ENDROOT
BRANCH   1   2
HETATM    2  C4  UNL     1     -33.257  13.914  -3.751  1.00 20.00     0.111 C 
BRANCH   2   3
HETATM    3  C1  UNL     1     -34.378  13.470  -4.666  1.00 20.00     0.258 C 
HETATM    4  O9  UNL     1     -35.181  12.583  -4.417  1.00 20.00    -0.265 OA
BRANCH   3   5
HETATM    5  O10 UNL     1     -34.360  14.241  -5.795  1.00 20.00    -0.326 OA
HETATM    6  C2  UNL     1     -35.644  14.604  -6.313  1.00 20.00     0.213 C 
ENDBRANCH   3   5
ENDBRANCH   2   3
ENDBRANCH   1   2
BRANCH   1   7
HETATM    7  C6  UNL     1     -34.375  15.809  -2.472  1.00 20.00     0.002 C 
BRANCH   7   8
HETATM    8  C7  UNL     1     -33.892  16.894  -1.512  1.00 20.00     0.026 C 
BRANCH   8   9
HETATM    9  C8  UNL     1     -34.800  17.015  -0.297  1.00 20.00     0.167 C 
BRANCH   9  10
HETATM   10  O11 UNL     1     -34.164  17.836   0.672  1.00 20.00    -0.396 OA
HETATM   11  C3  UNL     1     -33.177  18.671   0.081  1.00 20.00     0.201 C 
ENDBRANCH   9  10
ENDBRANCH   8   9
ENDBRANCH   7   8
ENDBRANCH   1   7
TORSDOF 7
ENDMDL
MODEL 3
REMARK VINA RESULT:      -4.0      1.181      5.019
REMARK  7 active torsions:
REMARK  status: ('A' for Active; 'I' for Inactive)
REMARK    1  A    between atoms: C1_1  and  C4_4 
REMARK    2  A    between atoms: C1_1  and  O10_10 
REMARK    3  A    between atoms: C4_4  and  C5_5 
REMARK    4  A    between atoms: C5_5  and  C6_6 
REMARK    5  A    between atoms: C6_6  and  C7_7 
REMARK    6  A    between atoms: C7_7  and  C8_8 
REMARK    7  A    between atoms: C8_8  and  O11_11 
ROOT
HETATM    1  C5  UNL     1     -33.672   5.715   3.303  1.00 20.00     0.010 C 
ENDROOT
BRANCH   1   2
HETATM    2  C4  UNL     1     -33.506   7.191   2.943  1.00 20.00     0.111 C 
BRANCH   2   3
HETATM    3  C1  UNL     1     -32.059   7.630   2.880  1.00 20.00     0.258 C 
HETATM    4  O9  UNL     1     -31.249   7.519   3.790  1.00 20.00    -0.265 OA
BRANCH   3   5
HETATM    5  O10 UNL     1     -31.803   8.138   1.638  1.00 20.00    -0.326 OA
HETATM    6  C2  UNL     1     -32.352   9.433   1.377  1.00 20.00     0.213 C 
ENDBRANCH   3   5
ENDBRANCH   2   3
ENDBRANCH   1   2
BRANCH   1   7
HETATM    7  C6  UNL     1     -35.119   5.359   3.664  1.00 20.00     0.002 C 
BRANCH   7   8
HETATM    8  C7  UNL     1     -35.171   4.378   4.833  1.00 20.00     0.026 C 
BRANCH   8   9
HETATM    9  C8  UNL     1     -34.190   4.760   5.932  1.00 20.00     0.167 C 
BRANCH   9  10
HETATM   10  O11 UNL     1     -34.696   5.889   6.628  1.00 20.00    -0.396 OA
HETATM   11  C3  UNL     1     -33.753   6.953   6.656  1.00 20.00     0.201 C 
ENDBRANCH   9  10
ENDBRANCH   8   9
ENDBRANCH   7   8
ENDBRANCH   1   7
TORSDOF 7
ENDMDL
MODEL 4
REMARK VINA RESULT:      -4.0     11.134     12.460
REMARK  7 active torsions:
REMARK  status: ('A' for Active; 'I' for Inactive)
REMARK    1  A    between atoms: C1_1  and  C4_4 
REMARK    2  A    between atoms: C1_1  and  O10_10 
REMARK    3  A    between atoms: C4_4  and  C5_5 
REMARK    4  A    between atoms: C5_5  and  C6_6 
REMARK    5  A    between atoms: C6_6  and  C7_7 
REMARK    6  A    between atoms: C7_7  and  C8_8 
REMARK    7  A    between atoms: C8_8  and  O11_11 
ROOT
HETATM    1  C5  UNL     1     -33.643  16.904  -1.909  1.00 20.00     0.010 C 
ENDROOT
BRANCH   1   2
HETATM    2  C4  UNL     1     -34.209  15.729  -2.708  1.00 20.00     0.111 C 
BRANCH   2   3
HETATM    3  C1  UNL     1     -33.320  15.306  -3.857  1.00 20.00     0.258 C 
HETATM    4  O9  UNL     1     -32.692  16.068  -4.579  1.00 20.00    -0.265 OA
BRANCH   3   5
HETATM    5  O10 UNL     1     -33.312  13.942  -3.933  1.00 20.00    -0.326 OA
HETATM    6  C2  UNL     1     -34.438  13.356  -4.595  1.00 20.00     0.213 C 
ENDBRANCH   3   5
ENDBRANCH   2   3
ENDBRANCH   1   2
BRANCH   1   7
HETATM    7  C6  UNL     1     -34.338  17.079  -0.555  1.00 20.00     0.002 C 
BRANCH   7   8
HETATM    8  C7  UNL     1     -33.724  18.233   0.235  1.00 20.00     0.026 C 
BRANCH   8   9
HETATM    9  C8  UNL     1     -32.851  19.116  -0.645  1.00 20.00     0.167 C 
BRANCH   9  10
HETATM   10  O11 UNL     1     -31.576  19.256  -0.035  1.00 20.00    -0.396 OA
HETATM   11  C3  UNL     1     -31.652  19.101   1.376  1.00 20.00     0.201 C 
ENDBRANCH   9  10
ENDBRANCH   8   9
ENDBRANCH   7   8
ENDBRANCH   1   7
TORSDOF 7
ENDMDL
MODEL 5
REMARK VINA RESULT:      -3.9     10.728     11.861
REMARK  7 active torsions:
REMARK  status: ('A' for Active; 'I' for Inactive)
REMARK    1  A    between atoms: C1_1  and  C4_4 
REMARK    2  A    between atoms: C1_1  and  O10_10 
REMARK    3  A    between atoms: C4_4  and  C5_5 
REMARK    4  A    between atoms: C5_5  and  C6_6 
REMARK    5  A    between atoms: C6_6  and  C7_7 
REMARK    6  A    between atoms: C7_7  and  C8_8 
REMARK    7  A    between atoms: C8_8  and  O11_11 
ROOT
HETATM    1  C5  UNL     1     -34.032  15.780  -2.662  1.00 20.00     0.010 C 
ENDROOT
BRANCH   1   2
HETATM    2  C4  UNL     1     -34.961  14.702  -3.221  1.00 20.00     0.111 C 
BRANCH   2   3
HETATM    3  C1  UNL     1     -34.229  13.635  -4.006  1.00 20.00     0.258 C 
HETATM    4  O9  UNL     1     -33.157  13.138  -3.690  1.00 20.00    -0.265 OA
BRANCH   3   5
HETATM    5  O10 UNL     1     -34.975  13.301  -5.101  1.00 20.00    -0.326 OA
HETATM    6  C2  UNL     1     -34.944  14.243  -6.178  1.00 20.00     0.213 C 
ENDBRANCH   3   5
ENDBRANCH   2   3
ENDBRANCH   1   2
BRANCH   1   7
HETATM    7  C6  UNL     1     -34.577  16.413  -1.377  1.00 20.00     0.002 C 
BRANCH   7   8
HETATM    8  C7  UNL     1     -33.733  17.612  -0.951  1.00 20.00     0.026 C 
BRANCH   8   9
HETATM    9  C8  UNL     1     -34.065  18.059   0.466  1.00 20.00     0.167 C 
BRANCH   9  10
HETATM   10  O11 UNL     1     -35.121  17.252   0.966  1.00 20.00    -0.396 OA
HETATM   11  C3  UNL     1     -35.646  17.773   2.181  1.00 20.00     0.201 C 
ENDBRANCH   9  10
ENDBRANCH   8   9
ENDBRANCH   7   8
ENDBRANCH   1   7
TORSDOF 7
ENDMDL
MODEL 6
REMARK VINA RESULT:      -3.7     10.811     11.648
REMARK  7 active torsions:
REMARK  status: ('A' for Active; 'I' for Inactive)
REMARK    1  A    between atoms: C1_1  and  C4_4 
REMARK    2  A    between atoms: C1_1  and  O10_10 
REMARK    3  A    between atoms: C4_4  and  C5_5 
REMARK    4  A    between atoms: C5_5  and  C6_6 
REMARK    5  A    between atoms: C6_6  and  C7_7 
REMARK    6  A    between atoms: C7_7  and  C8_8 
REMARK    7  A    between atoms: C8_8  and  O11_11 
ROOT
HETATM    1  C5  UNL     1     -35.916  15.312  -3.225  1.00 20.00     0.010 C 
ENDROOT
BRANCH   1   2
HETATM    2  C4  UNL     1     -34.862  14.942  -4.269  1.00 20.00     0.111 C 
BRANCH   2   3
HETATM    3  C1  UNL     1     -34.420  13.497  -4.184  1.00 20.00     0.258 C 
HETATM    4  O9  UNL     1     -35.058  12.540  -4.601  1.00 20.00    -0.265 OA
BRANCH   3   5
HETATM    5  O10 UNL     1     -33.188  13.444  -3.597  1.00 20.00    -0.326 OA
HETATM    6  C2  UNL     1     -32.433  14.659  -3.638  1.00 20.00     0.213 C 
ENDBRANCH   3   5
ENDBRANCH   2   3
ENDBRANCH   1   2
BRANCH   1   7
HETATM    7  C6  UNL     1     -35.592  16.626  -2.507  1.00 20.00     0.002 C 
BRANCH   7   8
HETATM    8  C7  UNL     1     -34.734  16.381  -1.267  1.00 20.00     0.026 C 
BRANCH   8   9
HETATM    9  C8  UNL     1     -33.706  17.485  -1.068  1.00 20.00     0.167 C 
BRANCH   9  10
HETATM   10  O11 UNL     1     -33.813  17.979   0.260  1.00 20.00    -0.396 OA
HETATM   11  C3  UNL     1     -35.027  17.566   0.874  1.00 20.00     0.201 C 
ENDBRANCH   9  10
ENDBRANCH   8   9
ENDBRANCH   7   8
ENDBRANCH   1   7
TORSDOF 7
ENDMDL
MODEL 7
REMARK VINA RESULT:      -3.7      1.152      5.831
REMARK  7 active torsions:
REMARK  status: ('A' for Active; 'I' for Inactive)
REMARK    1  A    between atoms: C1_1  and  C4_4 
REMARK    2  A    between atoms: C1_1  and  O10_10 
REMARK    3  A    between atoms: C4_4  and  C5_5 
REMARK    4  A    between atoms: C5_5  and  C6_6 
REMARK    5  A    between atoms: C6_6  and  C7_7 
REMARK    6  A    between atoms: C7_7  and  C8_8 
REMARK    7  A    between atoms: C8_8  and  O11_11 
ROOT
HETATM    1  C5  UNL     1     -32.026   7.653   3.047  1.00 20.00     0.010 C 
ENDROOT
BRANCH   1   2
HETATM    2  C4  UNL     1     -31.797   8.180   1.630  1.00 20.00     0.111 C 
BRANCH   2   3
HETATM    3  C1  UNL     1     -32.498   9.495   1.363  1.00 20.00     0.258 C 
HETATM    4  O9  UNL     1     -32.694  10.370   2.194  1.00 20.00    -0.265 OA
BRANCH   3   5
HETATM    5  O10 UNL     1     -32.844   9.552   0.042  1.00 20.00    -0.326 OA
HETATM    6  C2  UNL     1     -32.444   8.429  -0.749  1.00 20.00     0.213 C 
ENDBRANCH   3   5
ENDBRANCH   2   3
ENDBRANCH   1   2
BRANCH   1   7
HETATM    7  C6  UNL     1     -32.656   6.255   3.057  1.00 20.00     0.002 C 
BRANCH   7   8
HETATM    8  C7  UNL     1     -33.670   6.115   4.189  1.00 20.00     0.026 C 
BRANCH   8   9
HETATM    9  C8  UNL     1     -34.930   5.395   3.730  1.00 20.00     0.167 C 
BRANCH   9  10
HETATM   10  O11 UNL     1     -35.220   4.348   4.645  1.00 20.00    -0.396 OA
HETATM   11  C3  UNL     1     -34.954   4.736   5.986  1.00 20.00     0.201 C 
ENDBRANCH   9  10
ENDBRANCH   8   9
ENDBRANCH   7   8
ENDBRANCH   1   7
TORSDOF 7
ENDMDL
MODEL 8
REMARK VINA RESULT:      -3.7     10.663     11.727
REMARK  7 active torsions:
REMARK  status: ('A' for Active; 'I' for Inactive)
REMARK    1  A    between atoms: C1_1  and  C4_4 
REMARK    2  A    between atoms: C1_1  and  O10_10 
REMARK    3  A    between atoms: C4_4  and  C5_5 
REMARK    4  A    between atoms: C5_5  and  C6_6 
REMARK    5  A    between atoms: C6_6  and  C7_7 
REMARK    6  A    between atoms: C7_7  and  C8_8 
REMARK    7  A    between atoms: C8_8  and  O11_11 
ROOT
HETATM    1  C5  UNL     1     -34.441  16.515  -1.346  1.00 20.00     0.010 C 
ENDROOT
BRANCH   1   2
HETATM    2  C4  UNL     1     -33.651  17.723  -0.843  1.00 20.00     0.111 C 
BRANCH   2   3
HETATM    3  C1  UNL     1     -33.966  18.086   0.592  1.00 20.00     0.258 C 
HETATM    4  O9  UNL     1     -33.278  18.803   1.305  1.00 20.00    -0.265 OA
BRANCH   3   5
HETATM    5  O10 UNL     1     -35.153  17.508   0.945  1.00 20.00    -0.326 OA
HETATM    6  C2  UNL     1     -35.474  17.562   2.339  1.00 20.00     0.213 C 
ENDBRANCH   3   5
ENDBRANCH   2   3
ENDBRANCH   1   2
BRANCH   1   7
HETATM    7  C6  UNL     1     -33.880  15.952  -2.656  1.00 20.00     0.002 C 
BRANCH   7   8
HETATM    8  C7  UNL     1     -34.743  14.806  -3.179  1.00 20.00     0.026 C 
BRANCH   8   9
HETATM    9  C8  UNL     1     -33.896  13.624  -3.629  1.00 20.00     0.167 C 
BRANCH   9  10
HETATM   10  O11 UNL     1     -34.629  12.870  -4.583  1.00 20.00    -0.396 OA
HETATM   11  C3  UNL     1     -35.007  13.666  -5.700  1.00 20.00     0.201 C 
ENDBRANCH   9  10
ENDBRANCH   8   9
ENDBRANCH   7   8
ENDBRANCH   1   7
TORSDOF 7
ENDMDL
MODEL 9
REMARK VINA RESULT:      -3.6      1.239      1.755
REMARK  7 active torsions:
REMARK  status: ('A' for Active; 'I' for Inactive)
REMARK    1  A    between atoms: C1_1  and  C4_4 
REMARK    2  A    between atoms: C1_1  and  O10_10 
REMARK    3  A    between atoms: C4_4  and  C5_5 
REMARK    4  A    between atoms: C5_5  and  C6_6 
REMARK    5  A    between atoms: C6_6  and  C7_7 
REMARK    6  A    between atoms: C7_7  and  C8_8 
REMARK    7  A    between atoms: C8_8  and  O11_11 
ROOT
HETATM    1  C5  UNL     1     -32.849   6.067   3.277  1.00 20.00     0.010 C 
ENDROOT
BRANCH   1   2
HETATM    2  C4  UNL     1     -33.859   6.036   4.424  1.00 20.00     0.111 C 
BRANCH   2   3
HETATM    3  C1  UNL     1     -35.142   5.317   4.069  1.00 20.00     0.258 C 
HETATM    4  O9  UNL     1     -35.988   5.730   3.289  1.00 20.00    -0.265 OA
BRANCH   3   5
HETATM    5  O10 UNL     1     -35.182   4.125   4.737  1.00 20.00    -0.326 OA
HETATM    6  C2  UNL     1     -34.775   4.174   6.108  1.00 20.00     0.213 C 
ENDBRANCH   3   5
ENDBRANCH   2   3
ENDBRANCH   1   2
BRANCH   1   7
HETATM    7  C6  UNL     1     -31.937   7.298   3.332  1.00 20.00     0.002 C 
BRANCH   7   8
HETATM    8  C7  UNL     1     -31.873   7.999   1.977  1.00 20.00     0.026 C 
BRANCH   8   9
HETATM    9  C8  UNL     1     -32.485   9.391   2.034  1.00 20.00     0.167 C 
BRANCH   9  10
HETATM   10  O11 UNL     1     -32.502   9.939   0.723  1.00 20.00    -0.396 OA
HETATM   11  C3  UNL     1     -32.600   8.923  -0.266  1.00 20.00     0.201 C 
ENDBRANCH   9  10
ENDBRANCH   8   9
ENDBRANCH   7   8
ENDBRANCH   1   7
TORSDOF 7
ENDMDL
