MODEL 1
REMARK VINA RESULT:      -4.5      0.000      0.000
REMARK  3 active torsions:
REMARK  status: ('A' for Active; 'I' for Inactive)
REMARK    1  A    between atoms: C6_6  and  C7_7 
REMARK    2  A    between atoms: C6_6  and  C8_8 
REMARK    3  A    between atoms: C7_7  and  C9_9 
ROOT
HETATM    1  C7  UNL     1     -33.828   7.081   3.709  1.00 20.00     0.008 C 
ENDROOT
BRANCH   1   2
HETATM    2  C6  UNL     1     -34.444   5.685   3.879  1.00 20.00     0.004 C 
BRANCH   2   3
HETATM    3  C8  UNL     1     -34.933   5.405   5.315  1.00 20.00    -0.023 C 
HETATM    4  C1  UNL     1     -34.159   6.206   6.363  1.00 20.00     0.009 C 
HETATM    5  C2  UNL     1     -34.816   3.910   5.620  1.00 20.00     0.009 C 
ENDBRANCH   2   3
ENDBRANCH   1   2
BRANCH   1   6
HETATM    6  C9  UNL     1     -32.361   7.114   3.198  1.00 20.00    -0.051 C 
HETATM    7  C3  UNL     1     -32.232   7.973   1.930  1.00 20.00     0.014 C 
HETATM    8  C4  UNL     1     -31.940   5.670   2.857  1.00 20.00     0.014 C 
HETATM    9  C5  UNL     1     -31.406   7.656   4.276  1.00 20.00     0.014 C 
ENDBRANCH   1   6
TORSDOF 3
ENDMDL
MODEL 2
REMARK VINA RESULT:      -4.5      0.037      1.441
REMARK  3 active torsions:
REMARK  status: ('A' for Active; 'I' for Inactive)
REMARK    1  A    between atoms: C6_6  and  C7_7 
REMARK    2  A    between atoms: C6_6  and  C8_8 
REMARK    3  A    between atoms: C7_7  and  C9_9 
ROOT
HETATM    1  C7  UNL     1     -33.829   7.078   3.721  1.00 20.00     0.008 C 
ENDROOT
BRANCH   1   2
HETATM    2  C6  UNL     1     -34.487   5.699   3.873  1.00 20.00     0.004 C 
BRANCH   2   3
HETATM    3  C8  UNL     1     -34.955   5.402   5.312  1.00 20.00    -0.023 C 
HETATM    4  C1  UNL     1     -34.162   6.185   6.360  1.00 20.00     0.009 C 
HETATM    5  C2  UNL     1     -34.841   3.902   5.596  1.00 20.00     0.009 C 
ENDBRANCH   2   3
ENDBRANCH   1   2
BRANCH   1   6
HETATM    6  C9  UNL     1     -32.377   7.076   3.169  1.00 20.00    -0.051 C 
HETATM    7  C3  UNL     1     -31.919   5.652   2.814  1.00 20.00     0.014 C 
HETATM    8  C4  UNL     1     -31.446   7.631   4.265  1.00 20.00     0.014 C 
HETATM    9  C5  UNL     1     -32.250   7.972   1.925  1.00 20.00     0.014 C 
ENDBRANCH   1   6
TORSDOF 3
ENDMDL
MODEL 3
REMARK VINA RESULT:      -4.4      0.826      4.183
REMARK  3 active torsions:
REMARK  status: ('A' for Active; 'I' for Inactive)
REMARK    1  A    between atoms: C6_6  and  C7_7 
REMARK    2  A    between atoms: C6_6  and  C8_8 
REMARK    3  A    between atoms: C7_7  and  C9_9 
ROOT
HETATM    1  C7  UNL     1     -33.182   5.400   4.044  1.00 20.00     0.008 C 
ENDROOT
BRANCH   1   2
HETATM    2  C6  UNL     1     -33.239   6.429   2.905  1.00 20.00     0.004 C 
BRANCH   2   3
HETATM    3  C8  UNL     1     -31.937   7.242   2.753  1.00 20.00    -0.023 C 
HETATM    4  C1  UNL     1     -31.385   7.722   4.097  1.00 20.00     0.009 C 
HETATM    5  C2  UNL     1     -32.182   8.445   1.839  1.00 20.00     0.009 C 
ENDBRANCH   2   3
ENDBRANCH   1   2
BRANCH   1   6
HETATM    6  C9  UNL     1     -34.454   5.306   4.932  1.00 20.00    -0.051 C 
HETATM    7  C3  UNL     1     -34.669   3.873   5.445  1.00 20.00     0.014 C 
HETATM    8  C4  UNL     1     -35.670   5.706   4.072  1.00 20.00     0.014 C 
HETATM    9  C5  UNL     1     -34.371   6.265   6.131  1.00 20.00     0.014 C 
ENDBRANCH   1   6
TORSDOF 3
ENDMDL
MODEL 4
REMARK VINA RESULT:      -4.4      0.819      4.188
REMARK  3 active torsions:
REMARK  status: ('A' for Active; 'I' for Inactive)
REMARK    1  A    between atoms: C6_6  and  C7_7 
REMARK    2  A    between atoms: C6_6  and  C8_8 
REMARK    3  A    between atoms: C7_7  and  C9_9 
ROOT
HETATM    1  C7  UNL     1     -33.175   5.413   4.087  1.00 20.00     0.008 C 
ENDROOT
BRANCH   1   2
HETATM    2  C6  UNL     1     -33.214   6.391   2.904  1.00 20.00     0.004 C 
BRANCH   2   3
HETATM    3  C8  UNL     1     -31.926   7.227   2.762  1.00 20.00    -0.023 C 
HETATM    4  C1  UNL     1     -31.393   7.716   4.110  1.00 20.00     0.009 C 
HETATM    5  C2  UNL     1     -32.185   8.425   1.845  1.00 20.00     0.009 C 
ENDBRANCH   2   3
ENDBRANCH   1   2
BRANCH   1   6
HETATM    6  C9  UNL     1     -34.491   5.290   4.905  1.00 20.00    -0.051 C 
HETATM    7  C3  UNL     1     -35.710   5.696   4.062  1.00 20.00     0.014 C 
HETATM    8  C4  UNL     1     -34.393   6.241   6.115  1.00 20.00     0.014 C 
HETATM    9  C5  UNL     1     -34.691   3.858   5.430  1.00 20.00     0.014 C 
ENDBRANCH   1   6
TORSDOF 3
ENDMDL
MODEL 5
REMARK VINA RESULT:      -3.8     11.053     12.194
REMARK  3 active torsions:
REMARK  status: ('A' for Active; 'I' for Inactive)
REMARK    1  A    between atoms: C6_6  and  C7_7 
REMARK    2  A    between atoms: C6_6  and  C8_8 
REMARK    3  A    between atoms: C7_7  and  C9_9 
ROOT
HETATM    1  C7  UNL     1     -33.762  15.951  -2.848  1.00 20.00     0.008 C 
ENDROOT
BRANCH   1   2
HETATM    2  C6  UNL     1     -34.690  16.177  -1.645  1.00 20.00     0.004 C 
BRANCH   2   3
HETATM    3  C8  UNL     1     -34.117  17.168  -0.611  1.00 20.00    -0.023 C 
HETATM    4  C1  UNL     1     -35.100  17.466   0.522  1.00 20.00     0.009 C 
HETATM    5  C2  UNL     1     -33.724  18.473  -1.308  1.00 20.00     0.009 C 
ENDBRANCH   2   3
ENDBRANCH   1   2
BRANCH   1   6
HETATM    6  C9  UNL     1     -34.291  14.974  -3.934  1.00 20.00    -0.051 C 
HETATM    7  C3  UNL     1     -35.784  14.670  -3.729  1.00 20.00     0.014 C 
HETATM    8  C4  UNL     1     -33.502  13.655  -3.819  1.00 20.00     0.014 C 
HETATM    9  C5  UNL     1     -34.081  15.543  -5.348  1.00 20.00     0.014 C 
ENDBRANCH   1   6
TORSDOF 3
ENDMDL
MODEL 6
REMARK VINA RESULT:      -3.8     11.084     12.151
REMARK  3 active torsions:
REMARK  status: ('A' for Active; 'I' for Inactive)
REMARK    1  A    between atoms: C6_6  and  C7_7 
REMARK    2  A    between atoms: C6_6  and  C8_8 
REMARK    3  A    between atoms: C7_7  and  C9_9 
ROOT
HETATM    1  C7  UNL     1     -33.733  16.101  -2.600  1.00 20.00     0.008 C 
ENDROOT
BRANCH   1   2
HETATM    2  C6  UNL     1     -34.736  16.254  -1.447  1.00 20.00     0.004 C 
BRANCH   2   3
HETATM    3  C8  UNL     1     -34.594  17.589  -0.689  1.00 20.00    -0.023 C 
HETATM    4  C1  UNL     1     -33.153  18.099  -0.666  1.00 20.00     0.009 C 
HETATM    5  C2  UNL     1     -35.106  17.427   0.745  1.00 20.00     0.009 C 
ENDBRANCH   2   3
ENDBRANCH   1   2
BRANCH   1   6
HETATM    6  C9  UNL     1     -34.155  15.130  -3.738  1.00 20.00    -0.051 C 
HETATM    7  C3  UNL     1     -33.323  13.838  -3.704  1.00 20.00     0.014 C 
HETATM    8  C4  UNL     1     -33.910  15.836  -5.086  1.00 20.00     0.014 C 
HETATM    9  C5  UNL     1     -35.648  14.773  -3.642  1.00 20.00     0.014 C 
ENDBRANCH   1   6
TORSDOF 3
ENDMDL
MODEL 7
REMARK VINA RESULT:      -3.8     11.109     12.117
REMARK  3 active torsions:
REMARK  status: ('A' for Active; 'I' for Inactive)
REMARK    1  A    between atoms: C6_6  and  C7_7 
REMARK    2  A    between atoms: C6_6  and  C8_8 
REMARK    3  A    between atoms: C7_7  and  C9_9 
ROOT
HETATM    1  C7  UNL     1     -33.748  16.116  -2.566  1.00 20.00     0.008 C 
ENDROOT
BRANCH   1   2
HETATM    2  C6  UNL     1     -34.763  16.280  -1.426  1.00 20.00     0.004 C 
BRANCH   2   3
HETATM    3  C8  UNL     1     -34.611  17.610  -0.661  1.00 20.00    -0.023 C 
HETATM    4  C1  UNL     1     -33.163  18.104  -0.627  1.00 20.00     0.009 C 
HETATM    5  C2  UNL     1     -35.132  17.448   0.769  1.00 20.00     0.009 C 
ENDBRANCH   2   3
ENDBRANCH   1   2
BRANCH   1   6
HETATM    6  C9  UNL     1     -34.184  15.182  -3.729  1.00 20.00    -0.051 C 
HETATM    7  C3  UNL     1     -34.003  15.869  -5.092  1.00 20.00     0.014 C 
HETATM    8  C4  UNL     1     -35.679  14.850  -3.543  1.00 20.00     0.014 C 
HETATM    9  C5  UNL     1     -33.390  13.865  -3.716  1.00 20.00     0.014 C 
ENDBRANCH   1   6
TORSDOF 3
ENDMDL
MODEL 8
REMARK VINA RESULT:      -3.8     11.369     12.274
REMARK  3 active torsions:
REMARK  status: ('A' for Active; 'I' for Inactive)
REMARK    1  A    between atoms: C6_6  and  C7_7 
REMARK    2  A    between atoms: C6_6  and  C8_8 
REMARK    3  A    between atoms: C7_7  and  C9_9 
ROOT
HETATM    1  C7  UNL     1     -34.010  15.361  -3.155  1.00 20.00     0.008 C 
ENDROOT
BRANCH   1   2
HETATM    2  C6  UNL     1     -34.873  15.940  -2.024  1.00 20.00     0.004 C 
BRANCH   2   3
HETATM    3  C8  UNL     1     -34.100  16.904  -1.101  1.00 20.00    -0.023 C 
HETATM    4  C1  UNL     1     -34.894  17.278   0.152  1.00 20.00     0.009 C 
HETATM    5  C2  UNL     1     -33.727  18.172  -1.872  1.00 20.00     0.009 C 
ENDBRANCH   2   3
ENDBRANCH   1   2
BRANCH   1   6
HETATM    6  C9  UNL     1     -34.789  14.698  -4.325  1.00 20.00    -0.051 C 
HETATM    7  C3  UNL     1     -34.653  15.518  -5.618  1.00 20.00     0.014 C 
HETATM    8  C4  UNL     1     -36.280  14.638  -3.936  1.00 20.00     0.014 C 
HETATM    9  C5  UNL     1     -34.297  13.263  -4.582  1.00 20.00     0.014 C 
ENDBRANCH   1   6
TORSDOF 3
ENDMDL
MODEL 9
REMARK VINA RESULT:      -3.7     11.477     12.803
REMARK  3 active torsions:
REMARK  status: ('A' for Active; 'I' for Inactive)
REMARK    1  A    between atoms: C6_6  and  C7_7 
REMARK    2  A    between atoms: C6_6  and  C8_8 
REMARK    3  A    between atoms: C7_7  and  C9_9 
ROOT
HETATM    1  C7  UNL     1     -33.802  15.609  -4.852  1.00 20.00     0.008 C 
ENDROOT
BRANCH   1   2
HETATM    2  C6  UNL     1     -33.294  15.367  -3.424  1.00 20.00     0.004 C 
BRANCH   2   3
HETATM    3  C8  UNL     1     -33.599  16.533  -2.462  1.00 20.00    -0.023 C 
HETATM    4  C1  UNL     1     -34.765  16.226  -1.520  1.00 20.00     0.009 C 
HETATM    5  C2  UNL     1     -33.906  17.800  -3.264  1.00 20.00     0.009 C 
ENDBRANCH   2   3
ENDBRANCH   1   2
BRANCH   1   6
HETATM    6  C9  UNL     1     -34.942  14.668  -5.332  1.00 20.00    -0.051 C 
HETATM    7  C3  UNL     1     -34.924  14.507  -6.860  1.00 20.00     0.014 C 
HETATM    8  C4  UNL     1     -36.288  15.297  -4.920  1.00 20.00     0.014 C 
HETATM    9  C5  UNL     1     -34.834  13.281  -4.676  1.00 20.00     0.014 C 
ENDBRANCH   1   6
TORSDOF 3
ENDMDL
