MODEL 1
REMARK VINA RESULT:      -4.7      0.000      0.000
REMARK  4 active torsions:
REMARK  status: ('A' for Active; 'I' for Inactive)
REMARK    1  A    between atoms: C1_1  and  C9_9 
REMARK    2  A    between atoms: C2_2  and  C7_7 
REMARK    3  A    between atoms: C2_2  and  C9_9 
REMARK    4  A    between atoms: C7_7  and  C8_8 
ROOT
HETATM    1  C5  UNL     1     -34.426  14.889  -6.602  1.00 20.00     0.031 C 
HETATM    2  C6  UNL     1     -36.257  15.173  -4.921  1.00 20.00     0.031 C 
HETATM    3  C9  UNL     1     -34.744  14.966  -5.101  1.00 20.00     0.073 C 
ENDROOT
BRANCH   3   4
HETATM    4  C1  UNL     1     -34.371  13.666  -4.366  1.00 20.00     0.138 C 
HETATM    5  C3  UNL     1     -33.050  13.599  -3.638  1.00 20.00     0.092 C 
HETATM    6  O10 UNL     1     -35.108  12.678  -4.396  1.00 20.00    -0.297 OA
ENDBRANCH   3   4
BRANCH   3   7
HETATM    7  C2  UNL     1     -33.986  16.175  -4.504  1.00 20.00     0.142 C 
HETATM    8  O11 UNL     1     -32.908  16.555  -4.964  1.00 20.00    -0.297 OA
BRANCH   7   9
HETATM    9  C7  UNL     1     -34.619  16.875  -3.304  1.00 20.00     0.079 C 
BRANCH   9  10
HETATM   10  C8  UNL     1     -33.803  16.735  -2.021  1.00 20.00     0.003 C 
HETATM   11  C4  UNL     1     -34.680  16.639  -0.780  1.00 20.00     0.005 C 
ENDBRANCH   9  10
ENDBRANCH   7   9
ENDBRANCH   3   7
TORSDOF 4
ENDMDL
MODEL 2
REMARK VINA RESULT:      -4.7      1.498      2.347
REMARK  4 active torsions:
REMARK  status: ('A' for Active; 'I' for Inactive)
REMARK    1  A    between atoms: C1_1  and  C9_9 
REMARK    2  A    between atoms: C2_2  and  C7_7 
REMARK    3  A    between atoms: C2_2  and  C9_9 
REMARK    4  A    between atoms: C7_7  and  C8_8 
ROOT
HETATM    1  C5  UNL     1     -32.556  14.386  -3.536  1.00 20.00     0.031 C 
HETATM    2  C6  UNL     1     -33.447  16.046  -5.182  1.00 20.00     0.031 C 
HETATM    3  C9  UNL     1     -33.834  14.954  -4.171  1.00 20.00     0.073 C 
ENDROOT
BRANCH   3   4
HETATM    4  C1  UNL     1     -34.622  13.879  -4.940  1.00 20.00     0.138 C 
HETATM    5  C3  UNL     1     -35.234  14.243  -6.271  1.00 20.00     0.092 C 
HETATM    6  O10 UNL     1     -34.791  12.750  -4.473  1.00 20.00    -0.297 OA
ENDBRANCH   3   4
BRANCH   3   7
HETATM    7  C2  UNL     1     -34.699  15.577  -3.050  1.00 20.00     0.142 C 
HETATM    8  O11 UNL     1     -35.903  15.334  -2.951  1.00 20.00    -0.297 OA
BRANCH   7   9
HETATM    9  C7  UNL     1     -34.007  16.526  -2.076  1.00 20.00     0.079 C 
BRANCH   9  10
HETATM   10  C8  UNL     1     -34.714  16.633  -0.727  1.00 20.00     0.003 C 
HETATM   11  C4  UNL     1     -34.205  17.801   0.107  1.00 20.00     0.005 C 
ENDBRANCH   9  10
ENDBRANCH   7   9
ENDBRANCH   3   7
TORSDOF 4
ENDMDL
MODEL 3
REMARK VINA RESULT:      -4.5      1.577      1.867
REMARK  4 active torsions:
REMARK  status: ('A' for Active; 'I' for Inactive)
REMARK    1  A    between atoms: C1_1  and  C9_9 
REMARK    2  A    between atoms: C2_2  and  C7_7 
REMARK    3  A    between atoms: C2_2  and  C9_9 
REMARK    4  A    between atoms: C7_7  and  C8_8 
ROOT
HETATM    1  C5  UNL     1     -34.110  16.129  -5.050  1.00 20.00     0.031 C 
HETATM    2  C6  UNL     1     -35.978  14.736  -5.961  1.00 20.00     0.031 C 
HETATM    3  C9  UNL     1     -35.092  14.992  -4.730  1.00 20.00     0.073 C 
ENDROOT
BRANCH   3   4
HETATM    4  C1  UNL     1     -34.364  13.674  -4.410  1.00 20.00     0.138 C 
HETATM    5  C3  UNL     1     -33.070  13.732  -3.635  1.00 20.00     0.092 C 
HETATM    6  O10 UNL     1     -34.796  12.590  -4.808  1.00 20.00    -0.297 OA
ENDBRANCH   3   4
BRANCH   3   7
HETATM    7  C2  UNL     1     -35.980  15.435  -3.543  1.00 20.00     0.142 C 
HETATM    8  O11 UNL     1     -37.018  14.836  -3.252  1.00 20.00    -0.297 OA
BRANCH   7   9
HETATM    9  C7  UNL     1     -35.532  16.660  -2.752  1.00 20.00     0.079 C 
BRANCH   9  10
HETATM   10  C8  UNL     1     -34.744  16.313  -1.491  1.00 20.00     0.003 C 
HETATM   11  C4  UNL     1     -33.702  17.369  -1.146  1.00 20.00     0.005 C 
ENDBRANCH   9  10
ENDBRANCH   7   9
ENDBRANCH   3   7
TORSDOF 4
ENDMDL
MODEL 4
REMARK VINA RESULT:      -4.4      1.157      2.169
REMARK  4 active torsions:
REMARK  status: ('A' for Active; 'I' for Inactive)
REMARK    1  A    between atoms: C1_1  and  C9_9 
REMARK    2  A    between atoms: C2_2  and  C7_7 
REMARK    3  A    between atoms: C2_2  and  C9_9 
REMARK    4  A    between atoms: C7_7  and  C8_8 
ROOT
HETATM    1  C5  UNL     1     -34.558  13.083  -4.767  1.00 20.00     0.031 C 
HETATM    2  C6  UNL     1     -35.205  14.520  -6.710  1.00 20.00     0.031 C 
HETATM    3  C9  UNL     1     -35.016  14.488  -5.184  1.00 20.00     0.073 C 
ENDROOT
BRANCH   3   4
HETATM    4  C1  UNL     1     -36.366  14.867  -4.549  1.00 20.00     0.138 C 
HETATM    5  C3  UNL     1     -36.881  16.274  -4.729  1.00 20.00     0.092 C 
HETATM    6  O10 UNL     1     -37.005  14.059  -3.871  1.00 20.00    -0.297 OA
ENDBRANCH   3   4
BRANCH   3   7
HETATM    7  C2  UNL     1     -33.915  15.498  -4.784  1.00 20.00     0.142 C 
HETATM    8  O11 UNL     1     -33.481  16.333  -5.581  1.00 20.00    -0.297 OA
BRANCH   7   9
HETATM    9  C7  UNL     1     -33.367  15.410  -3.362  1.00 20.00     0.079 C 
BRANCH   9  10
HETATM   10  C8  UNL     1     -33.704  16.629  -2.506  1.00 20.00     0.003 C 
HETATM   11  C4  UNL     1     -34.749  16.322  -1.442  1.00 20.00     0.005 C 
ENDBRANCH   9  10
ENDBRANCH   7   9
ENDBRANCH   3   7
TORSDOF 4
ENDMDL
MODEL 5
REMARK VINA RESULT:      -4.4      1.458      2.817
REMARK  4 active torsions:
REMARK  status: ('A' for Active; 'I' for Inactive)
REMARK    1  A    between atoms: C1_1  and  C9_9 
REMARK    2  A    between atoms: C2_2  and  C7_7 
REMARK    3  A    between atoms: C2_2  and  C9_9 
REMARK    4  A    between atoms: C7_7  and  C8_8 
ROOT
HETATM    1  C5  UNL     1     -34.754  13.432  -4.138  1.00 20.00     0.031 C 
HETATM    2  C6  UNL     1     -32.614  14.586  -3.552  1.00 20.00     0.031 C 
HETATM    3  C9  UNL     1     -34.057  14.796  -4.038  1.00 20.00     0.073 C 
ENDROOT
BRANCH   3   4
HETATM    4  C1  UNL     1     -33.981  15.505  -5.402  1.00 20.00     0.138 C 
HETATM    5  C3  UNL     1     -34.597  14.831  -6.604  1.00 20.00     0.092 C 
HETATM    6  O10 UNL     1     -33.396  16.583  -5.533  1.00 20.00    -0.297 OA
ENDBRANCH   3   4
BRANCH   3   7
HETATM    7  C2  UNL     1     -34.823  15.660  -3.009  1.00 20.00     0.142 C 
HETATM    8  O11 UNL     1     -36.055  15.668  -2.958  1.00 20.00    -0.297 OA
BRANCH   7   9
HETATM    9  C7  UNL     1     -33.993  16.524  -2.063  1.00 20.00     0.079 C 
BRANCH   9  10
HETATM   10  C8  UNL     1     -34.611  16.670  -0.675  1.00 20.00     0.003 C 
HETATM   11  C4  UNL     1     -34.092  17.894   0.068  1.00 20.00     0.005 C 
ENDBRANCH   9  10
ENDBRANCH   7   9
ENDBRANCH   3   7
TORSDOF 4
ENDMDL
MODEL 6
REMARK VINA RESULT:      -4.4      0.986      3.262
REMARK  4 active torsions:
REMARK  status: ('A' for Active; 'I' for Inactive)
REMARK    1  A    between atoms: C1_1  and  C9_9 
REMARK    2  A    between atoms: C2_2  and  C7_7 
REMARK    3  A    between atoms: C2_2  and  C9_9 
REMARK    4  A    between atoms: C7_7  and  C8_8 
ROOT
HETATM    1  C5  UNL     1     -36.295  15.341  -4.058  1.00 20.00     0.031 C 
HETATM    2  C6  UNL     1     -34.436  15.762  -2.438  1.00 20.00     0.031 C 
HETATM    3  C9  UNL     1     -34.782  15.212  -3.831  1.00 20.00     0.073 C 
ENDROOT
BRANCH   3   4
HETATM    4  C1  UNL     1     -34.315  13.746  -3.871  1.00 20.00     0.138 C 
HETATM    5  C3  UNL     1     -32.889  13.429  -3.492  1.00 20.00     0.092 C 
HETATM    6  O10 UNL     1     -35.069  12.843  -4.242  1.00 20.00    -0.297 OA
ENDBRANCH   3   4
BRANCH   3   7
HETATM    7  C2  UNL     1     -34.055  16.052  -4.908  1.00 20.00     0.142 C 
HETATM    8  O11 UNL     1     -32.967  16.587  -4.686  1.00 20.00    -0.297 OA
BRANCH   7   9
HETATM    9  C7  UNL     1     -34.748  16.212  -6.258  1.00 20.00     0.079 C 
BRANCH   9  10
HETATM   10  C8  UNL     1     -34.384  15.120  -7.261  1.00 20.00     0.003 C 
HETATM   11  C4  UNL     1     -35.607  14.389  -7.798  1.00 20.00     0.005 C 
ENDBRANCH   9  10
ENDBRANCH   7   9
ENDBRANCH   3   7
TORSDOF 4
ENDMDL
MODEL 7
REMARK VINA RESULT:      -4.3      1.616      2.511
REMARK  4 active torsions:
REMARK  status: ('A' for Active; 'I' for Inactive)
REMARK    1  A    between atoms: C1_1  and  C9_9 
REMARK    2  A    between atoms: C2_2  and  C7_7 
REMARK    3  A    between atoms: C2_2  and  C9_9 
REMARK    4  A    between atoms: C7_7  and  C8_8 
ROOT
HETATM    1  C5  UNL     1     -34.975  13.952  -5.955  1.00 20.00     0.031 C 
HETATM    2  C6  UNL     1     -34.885  16.378  -5.348  1.00 20.00     0.031 C 
HETATM    3  C9  UNL     1     -35.250  14.973  -4.841  1.00 20.00     0.073 C 
ENDROOT
BRANCH   3   4
HETATM    4  C1  UNL     1     -36.736  15.004  -4.441  1.00 20.00     0.138 C 
HETATM    5  C3  UNL     1     -37.554  16.223  -4.789  1.00 20.00     0.092 C 
HETATM    6  O10 UNL     1     -37.251  14.075  -3.814  1.00 20.00    -0.297 OA
ENDBRANCH   3   4
BRANCH   3   7
HETATM    7  C2  UNL     1     -34.359  14.620  -3.626  1.00 20.00     0.142 C 
HETATM    8  O11 UNL     1     -34.108  13.451  -3.326  1.00 20.00    -0.297 OA
BRANCH   7   9
HETATM    9  C7  UNL     1     -33.814  15.779  -2.797  1.00 20.00     0.079 C 
BRANCH   9  10
HETATM   10  C8  UNL     1     -34.755  16.220  -1.679  1.00 20.00     0.003 C 
HETATM   11  C4  UNL     1     -34.102  17.211  -0.724  1.00 20.00     0.005 C 
ENDBRANCH   9  10
ENDBRANCH   7   9
ENDBRANCH   3   7
TORSDOF 4
ENDMDL
MODEL 8
REMARK VINA RESULT:      -4.3      1.595      3.769
REMARK  4 active torsions:
REMARK  status: ('A' for Active; 'I' for Inactive)
REMARK    1  A    between atoms: C1_1  and  C9_9 
REMARK    2  A    between atoms: C2_2  and  C7_7 
REMARK    3  A    between atoms: C2_2  and  C9_9 
REMARK    4  A    between atoms: C7_7  and  C8_8 
ROOT
HETATM    1  C5  UNL     1     -33.352  16.163  -4.940  1.00 20.00     0.031 C 
HETATM    2  C6  UNL     1     -32.732  14.264  -3.434  1.00 20.00     0.031 C 
HETATM    3  C9  UNL     1     -33.893  14.946  -4.176  1.00 20.00     0.073 C 
ENDROOT
BRANCH   3   4
HETATM    4  C1  UNL     1     -34.937  15.347  -3.118  1.00 20.00     0.138 C 
HETATM    5  C3  UNL     1     -34.474  16.097  -1.892  1.00 20.00     0.092 C 
HETATM    6  O10 UNL     1     -36.124  15.034  -3.237  1.00 20.00    -0.297 OA
ENDBRANCH   3   4
BRANCH   3   7
HETATM    7  C2  UNL     1     -34.498  13.956  -5.200  1.00 20.00     0.142 C 
HETATM    8  O11 UNL     1     -34.692  12.772  -4.919  1.00 20.00    -0.297 OA
BRANCH   7   9
HETATM    9  C7  UNL     1     -34.830  14.500  -6.587  1.00 20.00     0.079 C 
BRANCH   9  10
HETATM   10  C8  UNL     1     -36.314  14.800  -6.782  1.00 20.00     0.003 C 
HETATM   11  C4  UNL     1     -36.646  16.269  -6.560  1.00 20.00     0.005 C 
ENDBRANCH   9  10
ENDBRANCH   7   9
ENDBRANCH   3   7
TORSDOF 4
ENDMDL
MODEL 9
REMARK VINA RESULT:      -4.3      1.132      1.691
REMARK  4 active torsions:
REMARK  status: ('A' for Active; 'I' for Inactive)
REMARK    1  A    between atoms: C1_1  and  C9_9 
REMARK    2  A    between atoms: C2_2  and  C7_7 
REMARK    3  A    between atoms: C2_2  and  C9_9 
REMARK    4  A    between atoms: C7_7  and  C8_8 
ROOT
HETATM    1  C5  UNL     1     -35.869  16.530  -5.490  1.00 20.00     0.031 C 
HETATM    2  C6  UNL     1     -36.121  14.907  -3.603  1.00 20.00     0.031 C 
HETATM    3  C9  UNL     1     -35.202  15.362  -4.749  1.00 20.00     0.073 C 
ENDROOT
BRANCH   3   4
HETATM    4  C1  UNL     1     -34.983  14.146  -5.668  1.00 20.00     0.138 C 
HETATM    5  C3  UNL     1     -34.992  14.357  -7.162  1.00 20.00     0.092 C 
HETATM    6  O10 UNL     1     -34.842  13.011  -5.207  1.00 20.00    -0.297 OA
ENDBRANCH   3   4
BRANCH   3   7
HETATM    7  C2  UNL     1     -33.860  15.860  -4.162  1.00 20.00     0.142 C 
HETATM    8  O11 UNL     1     -32.993  16.371  -4.872  1.00 20.00    -0.297 OA
BRANCH   7   9
HETATM    9  C7  UNL     1     -33.641  15.677  -2.662  1.00 20.00     0.079 C 
BRANCH   9  10
HETATM   10  C8  UNL     1     -33.783  16.972  -1.866  1.00 20.00     0.003 C 
HETATM   11  C4  UNL     1     -34.660  16.805  -0.633  1.00 20.00     0.005 C 
ENDBRANCH   9  10
ENDBRANCH   7   9
ENDBRANCH   3   7
TORSDOF 4
ENDMDL
