MODEL 1
REMARK VINA RESULT:      -4.7      0.000      0.000
REMARK  0 active torsions:
REMARK  status: ('A' for Active; 'I' for Inactive)
ROOT
HETATM    1  C1  UNL     1     -34.855  15.360  -3.243  1.00 20.00    -0.077 C 
HETATM    2  C2  UNL     1     -34.881  16.092  -2.124  1.00 20.00     0.015 C 
HETATM    3  C3  UNL     1     -36.590  15.129  -4.985  1.00 20.00     0.009 C 
HETATM    4  C4  UNL     1     -35.503  14.901  -6.051  1.00 20.00     0.006 C 
HETATM    5  C5  UNL     1     -35.191  13.316  -4.335  1.00 20.00     0.014 C 
HETATM    6  C6  UNL     1     -35.985  14.473  -3.731  1.00 20.00     0.015 C 
HETATM    7  C7  UNL     1     -34.363  14.233  -5.250  1.00 20.00    -0.002 C 
HETATM    8  C8  UNL     1     -33.701  15.219  -4.230  1.00 20.00    -0.021 C 
HETATM    9  C9  UNL     1     -32.460  14.582  -3.577  1.00 20.00     0.020 C 
HETATM   10  C10 UNL     1     -33.290  16.559  -4.857  1.00 20.00     0.020 C 
ENDROOT
TORSDOF 0
ENDMDL
MODEL 2
REMARK VINA RESULT:      -4.7      1.129      2.823
REMARK  0 active torsions:
REMARK  status: ('A' for Active; 'I' for Inactive)
ROOT
HETATM    1  C1  UNL     1     -34.511  15.837  -2.828  1.00 20.00    -0.077 C 
HETATM    2  C2  UNL     1     -34.645  16.227  -1.556  1.00 20.00     0.015 C 
HETATM    3  C3  UNL     1     -33.380  13.833  -3.725  1.00 20.00     0.009 C 
HETATM    4  C4  UNL     1     -34.365  13.795  -4.908  1.00 20.00     0.006 C 
HETATM    5  C5  UNL     1     -33.355  15.924  -4.862  1.00 20.00     0.014 C 
HETATM    6  C6  UNL     1     -33.223  15.340  -3.457  1.00 20.00     0.015 C 
HETATM    7  C7  UNL     1     -34.731  15.284  -5.105  1.00 20.00    -0.002 C 
HETATM    8  C8  UNL     1     -35.581  15.846  -3.915  1.00 20.00    -0.021 C 
HETATM    9  C9  UNL     1     -36.078  17.271  -4.221  1.00 20.00     0.020 C 
HETATM   10  C10 UNL     1     -36.791  14.970  -3.564  1.00 20.00     0.020 C 
ENDROOT
TORSDOF 0
ENDMDL
MODEL 3
REMARK VINA RESULT:      -4.6      0.811      2.245
REMARK  0 active torsions:
REMARK  status: ('A' for Active; 'I' for Inactive)
ROOT
HETATM    1  C1  UNL     1     -34.191  16.088  -4.870  1.00 20.00    -0.077 C 
HETATM    2  C2  UNL     1     -33.558  17.166  -5.346  1.00 20.00     0.015 C 
HETATM    3  C3  UNL     1     -34.979  14.090  -6.088  1.00 20.00     0.009 C 
HETATM    4  C4  UNL     1     -34.758  13.226  -4.833  1.00 20.00     0.006 C 
HETATM    5  C5  UNL     1     -36.177  15.015  -4.251  1.00 20.00     0.014 C 
HETATM    6  C6  UNL     1     -35.411  15.445  -5.501  1.00 20.00     0.015 C 
HETATM    7  C7  UNL     1     -34.991  14.224  -3.677  1.00 20.00    -0.002 C 
HETATM    8  C8  UNL     1     -33.866  15.311  -3.598  1.00 20.00    -0.021 C 
HETATM    9  C9  UNL     1     -34.029  16.179  -2.336  1.00 20.00     0.020 C 
HETATM   10  C10 UNL     1     -32.449  14.723  -3.608  1.00 20.00     0.020 C 
ENDROOT
TORSDOF 0
ENDMDL
MODEL 4
REMARK VINA RESULT:      -4.6      1.007      3.244
REMARK  0 active torsions:
REMARK  status: ('A' for Active; 'I' for Inactive)
ROOT
HETATM    1  C1  UNL     1     -34.306  15.532  -5.274  1.00 20.00    -0.077 C 
HETATM    2  C2  UNL     1     -34.614  15.806  -6.546  1.00 20.00     0.015 C 
HETATM    3  C3  UNL     1     -33.828  17.096  -3.423  1.00 20.00     0.009 C 
HETATM    4  C4  UNL     1     -34.401  16.087  -2.411  1.00 20.00     0.006 C 
HETATM    5  C5  UNL     1     -32.708  15.007  -3.645  1.00 20.00     0.014 C 
HETATM    6  C6  UNL     1     -33.187  16.188  -4.488  1.00 20.00     0.015 C 
HETATM    7  C7  UNL     1     -34.106  14.722  -3.073  1.00 20.00    -0.002 C 
HETATM    8  C8  UNL     1     -34.961  14.496  -4.366  1.00 20.00    -0.021 C 
HETATM    9  C9  UNL     1     -34.778  13.064  -4.902  1.00 20.00     0.020 C 
HETATM   10  C10 UNL     1     -36.460  14.753  -4.158  1.00 20.00     0.020 C 
ENDROOT
TORSDOF 0
ENDMDL
MODEL 5
REMARK VINA RESULT:      -4.4      1.055      3.248
REMARK  0 active torsions:
REMARK  status: ('A' for Active; 'I' for Inactive)
ROOT
HETATM    1  C1  UNL     1     -34.766  14.860  -5.835  1.00 20.00    -0.077 C 
HETATM    2  C2  UNL     1     -34.369  15.052  -7.097  1.00 20.00     0.015 C 
HETATM    3  C3  UNL     1     -33.391  14.570  -3.804  1.00 20.00     0.009 C 
HETATM    4  C4  UNL     1     -34.494  15.224  -2.952  1.00 20.00     0.006 C 
HETATM    5  C5  UNL     1     -35.447  13.414  -4.123  1.00 20.00     0.014 C 
HETATM    6  C6  UNL     1     -34.189  13.824  -4.887  1.00 20.00     0.015 C 
HETATM    7  C7  UNL     1     -35.787  14.856  -3.715  1.00 20.00    -0.002 C 
HETATM    8  C8  UNL     1     -35.886  15.585  -5.097  1.00 20.00    -0.021 C 
HETATM    9  C9  UNL     1     -37.259  15.340  -5.750  1.00 20.00     0.020 C 
HETATM   10  C10 UNL     1     -35.652  17.100  -5.005  1.00 20.00     0.020 C 
ENDROOT
TORSDOF 0
ENDMDL
MODEL 6
REMARK VINA RESULT:      -4.4      1.079      2.413
REMARK  0 active torsions:
REMARK  status: ('A' for Active; 'I' for Inactive)
ROOT
HETATM    1  C1  UNL     1     -35.569  15.212  -3.736  1.00 20.00    -0.077 C 
HETATM    2  C2  UNL     1     -36.868  14.952  -3.553  1.00 20.00     0.015 C 
HETATM    3  C3  UNL     1     -34.270  15.223  -5.836  1.00 20.00     0.009 C 
HETATM    4  C4  UNL     1     -33.339  16.308  -5.265  1.00 20.00     0.006 C 
HETATM    5  C5  UNL     1     -33.344  14.486  -3.771  1.00 20.00     0.014 C 
HETATM    6  C6  UNL     1     -34.627  14.388  -4.594  1.00 20.00     0.015 C 
HETATM    7  C7  UNL     1     -33.360  16.023  -3.747  1.00 20.00    -0.002 C 
HETATM    8  C8  UNL     1     -34.754  16.336  -3.105  1.00 20.00    -0.021 C 
HETATM    9  C9  UNL     1     -34.692  16.212  -1.571  1.00 20.00     0.020 C 
HETATM   10  C10 UNL     1     -35.289  17.730  -3.462  1.00 20.00     0.020 C 
ENDROOT
TORSDOF 0
ENDMDL
MODEL 7
REMARK VINA RESULT:      -4.4      1.232      3.057
REMARK  0 active torsions:
REMARK  status: ('A' for Active; 'I' for Inactive)
ROOT
HETATM    1  C1  UNL     1     -34.735  14.926  -5.984  1.00 20.00    -0.077 C 
HETATM    2  C2  UNL     1     -34.483  14.846  -7.295  1.00 20.00     0.015 C 
HETATM    3  C3  UNL     1     -33.833  13.548  -4.144  1.00 20.00     0.009 C 
HETATM    4  C4  UNL     1     -33.947  14.744  -3.180  1.00 20.00     0.006 C 
HETATM    5  C5  UNL     1     -36.067  14.369  -4.140  1.00 20.00     0.014 C 
HETATM    6  C6  UNL     1     -35.037  13.745  -5.080  1.00 20.00     0.015 C 
HETATM    7  C7  UNL     1     -35.146  15.536  -3.748  1.00 20.00    -0.002 C 
HETATM    8  C8  UNL     1     -34.820  16.189  -5.134  1.00 20.00    -0.021 C 
HETATM    9  C9  UNL     1     -35.965  17.114  -5.588  1.00 20.00     0.020 C 
HETATM   10  C10 UNL     1     -33.512  16.994  -5.135  1.00 20.00     0.020 C 
ENDROOT
TORSDOF 0
ENDMDL
MODEL 8
REMARK VINA RESULT:      -4.3      1.077      2.316
REMARK  0 active torsions:
REMARK  status: ('A' for Active; 'I' for Inactive)
ROOT
HETATM    1  C1  UNL     1     -35.638  15.996  -4.758  1.00 20.00    -0.077 C 
HETATM    2  C2  UNL     1     -36.651  16.730  -5.229  1.00 20.00     0.015 C 
HETATM    3  C3  UNL     1     -35.619  13.613  -4.108  1.00 20.00     0.009 C 
HETATM    4  C4  UNL     1     -34.139  13.503  -4.518  1.00 20.00     0.006 C 
HETATM    5  C5  UNL     1     -34.339  15.256  -2.955  1.00 20.00     0.014 C 
HETATM    6  C6  UNL     1     -35.721  15.052  -3.573  1.00 20.00     0.015 C 
HETATM    7  C7  UNL     1     -33.599  14.929  -4.262  1.00 20.00    -0.002 C 
HETATM    8  C8  UNL     1     -34.198  15.975  -5.261  1.00 20.00    -0.021 C 
HETATM    9  C9  UNL     1     -33.512  17.345  -5.098  1.00 20.00     0.020 C 
HETATM   10  C10 UNL     1     -34.090  15.546  -6.731  1.00 20.00     0.020 C 
ENDROOT
TORSDOF 0
ENDMDL
MODEL 9
REMARK VINA RESULT:      -4.3      0.965      2.659
REMARK  0 active torsions:
REMARK  status: ('A' for Active; 'I' for Inactive)
ROOT
HETATM    1  C1  UNL     1     -34.027  15.924  -5.045  1.00 20.00    -0.077 C 
HETATM    2  C2  UNL     1     -33.329  17.042  -5.271  1.00 20.00     0.015 C 
HETATM    3  C3  UNL     1     -35.129  15.178  -2.964  1.00 20.00     0.009 C 
HETATM    4  C4  UNL     1     -36.202  14.442  -3.785  1.00 20.00     0.006 C 
HETATM    5  C5  UNL     1     -34.088  13.655  -4.469  1.00 20.00     0.014 C 
HETATM    6  C6  UNL     1     -33.867  15.027  -3.832  1.00 20.00     0.015 C 
HETATM    7  C7  UNL     1     -35.446  14.047  -5.074  1.00 20.00    -0.002 C 
HETATM    8  C8  UNL     1     -35.080  15.292  -5.950  1.00 20.00    -0.021 C 
HETATM    9  C9  UNL     1     -34.489  14.856  -7.304  1.00 20.00     0.020 C 
HETATM   10  C10 UNL     1     -36.272  16.223  -6.213  1.00 20.00     0.020 C 
ENDROOT
TORSDOF 0
ENDMDL
