MODEL 1
REMARK VINA RESULT:      -3.6      0.000      0.000
REMARK  0 active torsions:
REMARK  status: ('A' for Active; 'I' for Inactive)
ROOT
HETATM    1  C1  UNL     1     -33.270   6.170   3.882  1.00 20.00     0.111 C 
HETATM    2  C2  UNL     1     -35.163   4.886   4.642  1.00 20.00     0.049 C 
HETATM    3  C3  UNL     1     -34.200   5.782   4.882  1.00 20.00     0.104 C 
HETATM    4  N4  UNL     1     -32.509   6.487   3.066  1.00 20.00    -0.190 NA
HETATM    5 CL5  UNL     1     -34.041   6.513   6.437  1.00 20.00    -0.073 Cl
ENDROOT
TORSDOF 0
ENDMDL
MODEL 2
REMARK VINA RESULT:      -3.5      1.470      1.701
REMARK  0 active torsions:
REMARK  status: ('A' for Active; 'I' for Inactive)
ROOT
HETATM    1  C1  UNL     1     -33.330   6.218   3.997  1.00 20.00     0.111 C 
HETATM    2  C2  UNL     1     -34.102   6.351   6.277  1.00 20.00     0.049 C 
HETATM    3  C3  UNL     1     -34.141   5.771   5.072  1.00 20.00     0.104 C 
HETATM    4  N4  UNL     1     -32.667   6.583   3.117  1.00 20.00    -0.190 NA
HETATM    5 CL5  UNL     1     -35.196   4.439   4.767  1.00 20.00    -0.073 Cl
ENDROOT
TORSDOF 0
ENDMDL
MODEL 3
REMARK VINA RESULT:      -3.5      2.486      2.561
REMARK  0 active torsions:
REMARK  status: ('A' for Active; 'I' for Inactive)
ROOT
HETATM    1  C1  UNL     1     -34.125   6.216   6.019  1.00 20.00     0.111 C 
HETATM    2  C2  UNL     1     -34.968   3.975   5.743  1.00 20.00     0.049 C 
HETATM    3  C3  UNL     1     -34.694   5.181   5.234  1.00 20.00     0.104 C 
HETATM    4  N4  UNL     1     -33.661   7.064   6.661  1.00 20.00    -0.190 NA
HETATM    5 CL5  UNL     1     -35.027   5.536   3.577  1.00 20.00    -0.073 Cl
ENDROOT
TORSDOF 0
ENDMDL
MODEL 4
REMARK VINA RESULT:      -3.4      2.034      2.500
REMARK  0 active torsions:
REMARK  status: ('A' for Active; 'I' for Inactive)
ROOT
HETATM    1  C1  UNL     1     -34.726   4.713   5.101  1.00 20.00     0.111 C 
HETATM    2  C2  UNL     1     -33.620   6.471   3.877  1.00 20.00     0.049 C 
HETATM    3  C3  UNL     1     -34.066   5.968   5.033  1.00 20.00     0.104 C 
HETATM    4  N4  UNL     1     -35.266   3.688   5.158  1.00 20.00    -0.190 NA
HETATM    5 CL5  UNL     1     -33.858   6.833   6.512  1.00 20.00    -0.073 Cl
ENDROOT
TORSDOF 0
ENDMDL
MODEL 5
REMARK VINA RESULT:      -3.3      2.325      2.476
REMARK  0 active torsions:
REMARK  status: ('A' for Active; 'I' for Inactive)
ROOT
HETATM    1  C1  UNL     1     -34.033   6.315   5.928  1.00 20.00     0.111 C 
HETATM    2  C2  UNL     1     -34.567   5.638   3.677  1.00 20.00     0.049 C 
HETATM    3  C3  UNL     1     -34.499   5.363   4.984  1.00 20.00     0.104 C 
HETATM    4  N4  UNL     1     -33.651   7.092   6.700  1.00 20.00    -0.190 NA
HETATM    5 CL5  UNL     1     -34.980   3.820   5.589  1.00 20.00    -0.073 Cl
ENDROOT
TORSDOF 0
ENDMDL
MODEL 6
REMARK VINA RESULT:      -3.3      2.493      2.865
REMARK  0 active torsions:
REMARK  status: ('A' for Active; 'I' for Inactive)
ROOT
HETATM    1  C1  UNL     1     -34.702   4.723   5.211  1.00 20.00     0.111 C 
HETATM    2  C2  UNL     1     -33.930   6.671   6.402  1.00 20.00     0.049 C 
HETATM    3  C3  UNL     1     -34.034   5.974   5.266  1.00 20.00     0.104 C 
HETATM    4  N4  UNL     1     -35.248   3.700   5.165  1.00 20.00    -0.190 NA
HETATM    5 CL5  UNL     1     -33.350   6.571   3.798  1.00 20.00    -0.073 Cl
ENDROOT
TORSDOF 0
ENDMDL
MODEL 7
REMARK VINA RESULT:      -3.3      2.463      2.568
REMARK  0 active torsions:
REMARK  status: ('A' for Active; 'I' for Inactive)
ROOT
HETATM    1  C1  UNL     1     -33.907   6.323   5.447  1.00 20.00     0.111 C 
HETATM    2  C2  UNL     1     -34.811   5.362   3.430  1.00 20.00     0.049 C 
HETATM    3  C3  UNL     1     -33.805   5.955   4.080  1.00 20.00     0.104 C 
HETATM    4  N4  UNL     1     -33.990   6.625   6.565  1.00 20.00    -0.190 NA
HETATM    5 CL5  UNL     1     -32.318   6.306   3.276  1.00 20.00    -0.073 Cl
ENDROOT
TORSDOF 0
ENDMDL
MODEL 8
REMARK VINA RESULT:      -3.2      2.555      2.928
REMARK  0 active torsions:
REMARK  status: ('A' for Active; 'I' for Inactive)
ROOT
HETATM    1  C1  UNL     1     -33.807   6.400   5.420  1.00 20.00     0.111 C 
HETATM    2  C2  UNL     1     -32.445   6.598   3.442  1.00 20.00     0.049 C 
HETATM    3  C3  UNL     1     -33.556   6.162   4.044  1.00 20.00     0.104 C 
HETATM    4  N4  UNL     1     -34.013   6.593   6.546  1.00 20.00    -0.190 NA
HETATM    5 CL5  UNL     1     -34.749   5.278   3.163  1.00 20.00    -0.073 Cl
ENDROOT
TORSDOF 0
ENDMDL
MODEL 9
REMARK VINA RESULT:      -3.0     11.616     12.094
REMARK  0 active torsions:
REMARK  status: ('A' for Active; 'I' for Inactive)
ROOT
HETATM    1  C1  UNL     1     -34.559  13.817  -3.917  1.00 20.00     0.111 C 
HETATM    2  C2  UNL     1     -33.028  15.673  -4.061  1.00 20.00     0.049 C 
HETATM    3  C3  UNL     1     -34.046  15.056  -3.452  1.00 20.00     0.104 C 
HETATM    4  N4  UNL     1     -34.980  12.804  -4.297  1.00 20.00    -0.190 NA
HETATM    5 CL5  UNL     1     -34.793  15.748  -2.058  1.00 20.00    -0.073 Cl
ENDROOT
TORSDOF 0
ENDMDL
