MODEL 1
REMARK VINA RESULT:      -5.6      0.000      0.000
REMARK  0 active torsions:
REMARK  status: ('A' for Active; 'I' for Inactive)
ROOT
HETATM    1  C1  UNL     1     -33.465  14.129  -3.798  1.00 20.00     0.047 C 
HETATM    2  C2  UNL     1     -33.208  15.356  -3.328  1.00 20.00    -0.013 C 
HETATM    3  C3  UNL     1     -34.426  17.703  -5.658  1.00 20.00    -0.030 C 
HETATM    4  C4  UNL     1     -33.735  18.308  -4.687  1.00 20.00    -0.030 C 
HETATM    5  C5  UNL     1     -34.861  13.697  -4.057  1.00 20.00     0.149 C 
HETATM    6  C6  UNL     1     -35.272  16.493  -5.431  1.00 20.00     0.033 C 
HETATM    7  C7  UNL     1     -33.733  17.839  -3.266  1.00 20.00     0.040 C 
HETATM    8  C8  UNL     1     -35.991  14.685  -3.833  1.00 20.00     0.088 C 
HETATM    9  C9  UNL     1     -35.515  16.142  -3.939  1.00 20.00     0.008 C 
HETATM   10  C10 UNL     1     -34.272  16.400  -3.039  1.00 20.00    -0.019 C 
HETATM   11  C11 UNL     1     -34.631  16.277  -1.541  1.00 20.00     0.020 C 
HETATM   12  O12 UNL     1     -35.084  12.539  -4.407  1.00 20.00    -0.293 OA
ENDROOT
TORSDOF 0
ENDMDL
MODEL 2
REMARK VINA RESULT:      -5.2      0.985      2.676
REMARK  0 active torsions:
REMARK  status: ('A' for Active; 'I' for Inactive)
ROOT
HETATM    1  C1  UNL     1     -35.926  14.788  -4.773  1.00 20.00     0.047 C 
HETATM    2  C2  UNL     1     -35.711  16.109  -4.812  1.00 20.00    -0.013 C 
HETATM    3  C3  UNL     1     -35.178  17.234  -1.515  1.00 20.00    -0.030 C 
HETATM    4  C4  UNL     1     -35.254  18.263  -2.364  1.00 20.00    -0.030 C 
HETATM    5  C5  UNL     1     -34.889  13.872  -4.237  1.00 20.00     0.149 C 
HETATM    6  C6  UNL     1     -34.571  15.917  -1.874  1.00 20.00     0.033 C 
HETATM    7  C7  UNL     1     -34.738  18.209  -3.768  1.00 20.00     0.040 C 
HETATM    8  C8  UNL     1     -33.604  14.456  -3.682  1.00 20.00     0.088 C 
HETATM    9  C9  UNL     1     -33.785  15.908  -3.212  1.00 20.00     0.008 C 
HETATM   10  C10 UNL     1     -34.445  16.784  -4.315  1.00 20.00    -0.019 C 
HETATM   11  C11 UNL     1     -33.510  16.946  -5.536  1.00 20.00     0.020 C 
HETATM   12  O12 UNL     1     -35.069  12.656  -4.288  1.00 20.00    -0.293 OA
ENDROOT
TORSDOF 0
ENDMDL
MODEL 3
REMARK VINA RESULT:      -5.2      1.869      3.249
REMARK  0 active torsions:
REMARK  status: ('A' for Active; 'I' for Inactive)
ROOT
HETATM    1  C1  UNL     1     -35.954  15.574  -3.111  1.00 20.00     0.047 C 
HETATM    2  C2  UNL     1     -35.916  15.026  -4.332  1.00 20.00    -0.013 C 
HETATM    3  C3  UNL     1     -34.116  17.191  -6.452  1.00 20.00    -0.030 C 
HETATM    4  C4  UNL     1     -34.661  16.187  -7.146  1.00 20.00    -0.030 C 
HETATM    5  C5  UNL     1     -34.698  15.851  -2.370  1.00 20.00     0.149 C 
HETATM    6  C6  UNL     1     -33.593  17.037  -5.061  1.00 20.00     0.033 C 
HETATM    7  C7  UNL     1     -34.808  14.800  -6.605  1.00 20.00     0.040 C 
HETATM    8  C8  UNL     1     -33.368  15.557  -3.037  1.00 20.00     0.088 C 
HETATM    9  C9  UNL     1     -33.475  15.570  -4.571  1.00 20.00     0.008 C 
HETATM   10  C10 UNL     1     -34.638  14.663  -5.067  1.00 20.00    -0.019 C 
HETATM   11  C11 UNL     1     -34.352  13.174  -4.768  1.00 20.00     0.020 C 
HETATM   12  O12 UNL     1     -34.755  16.275  -1.216  1.00 20.00    -0.293 OA
ENDROOT
TORSDOF 0
ENDMDL
MODEL 4
REMARK VINA RESULT:      -5.1      1.564      2.343
REMARK  0 active torsions:
REMARK  status: ('A' for Active; 'I' for Inactive)
ROOT
HETATM    1  C1  UNL     1     -33.456  15.137  -3.526  1.00 20.00     0.047 C 
HETATM    2  C2  UNL     1     -34.414  16.023  -3.826  1.00 20.00    -0.013 C 
HETATM    3  C3  UNL     1     -34.710  16.176  -7.334  1.00 20.00    -0.030 C 
HETATM    4  C4  UNL     1     -35.464  17.113  -6.750  1.00 20.00    -0.030 C 
HETATM    5  C5  UNL     1     -33.583  13.719  -3.945  1.00 20.00     0.149 C 
HETATM    6  C6  UNL     1     -34.481  14.823  -6.746  1.00 20.00     0.033 C 
HETATM    7  C7  UNL     1     -36.161  16.907  -5.442  1.00 20.00     0.040 C 
HETATM    8  C8  UNL     1     -34.787  13.298  -4.766  1.00 20.00     0.088 C 
HETATM    9  C9  UNL     1     -35.398  14.475  -5.543  1.00 20.00     0.008 C 
HETATM   10  C10 UNL     1     -35.671  15.690  -4.610  1.00 20.00    -0.019 C 
HETATM   11  C11 UNL     1     -36.775  15.366  -3.578  1.00 20.00     0.020 C 
HETATM   12  O12 UNL     1     -32.734  12.903  -3.587  1.00 20.00    -0.293 OA
ENDROOT
TORSDOF 0
ENDMDL
MODEL 5
REMARK VINA RESULT:      -5.1      1.597      2.618
REMARK  0 active torsions:
REMARK  status: ('A' for Active; 'I' for Inactive)
ROOT
HETATM    1  C1  UNL     1     -34.120  15.760  -6.113  1.00 20.00     0.047 C 
HETATM    2  C2  UNL     1     -33.593  16.154  -4.947  1.00 20.00    -0.013 C 
HETATM    3  C3  UNL     1     -36.207  16.429  -2.598  1.00 20.00    -0.030 C 
HETATM    4  C4  UNL     1     -35.059  16.891  -2.092  1.00 20.00    -0.030 C 
HETATM    5  C5  UNL     1     -34.842  14.468  -6.216  1.00 20.00     0.149 C 
HETATM    6  C6  UNL     1     -36.281  15.274  -3.542  1.00 20.00     0.033 C 
HETATM    7  C7  UNL     1     -33.723  16.299  -2.415  1.00 20.00     0.040 C 
HETATM    8  C8  UNL     1     -35.025  13.624  -4.969  1.00 20.00     0.088 C 
HETATM    9  C9  UNL     1     -34.963  14.467  -3.686  1.00 20.00     0.008 C 
HETATM   10  C10 UNL     1     -33.692  15.363  -3.655  1.00 20.00    -0.019 C 
HETATM   11  C11 UNL     1     -32.408  14.508  -3.550  1.00 20.00     0.020 C 
HETATM   12  O12 UNL     1     -35.245  14.084  -7.314  1.00 20.00    -0.293 OA
ENDROOT
TORSDOF 0
ENDMDL
MODEL 6
REMARK VINA RESULT:      -5.0      1.145      2.925
REMARK  0 active torsions:
REMARK  status: ('A' for Active; 'I' for Inactive)
ROOT
HETATM    1  C1  UNL     1     -35.076  13.858  -3.891  1.00 20.00     0.047 C 
HETATM    2  C2  UNL     1     -35.802  14.970  -4.062  1.00 20.00    -0.013 C 
HETATM    3  C3  UNL     1     -35.186  17.115  -1.334  1.00 20.00    -0.030 C 
HETATM    4  C4  UNL     1     -36.163  17.596  -2.109  1.00 20.00    -0.030 C 
HETATM    5  C5  UNL     1     -33.596  13.928  -3.808  1.00 20.00     0.149 C 
HETATM    6  C6  UNL     1     -34.009  16.365  -1.869  1.00 20.00     0.033 C 
HETATM    7  C7  UNL     1     -36.185  17.436  -3.596  1.00 20.00     0.040 C 
HETATM    8  C8  UNL     1     -32.919  15.284  -3.864  1.00 20.00     0.088 C 
HETATM    9  C9  UNL     1     -33.854  16.417  -3.412  1.00 20.00     0.008 C 
HETATM   10  C10 UNL     1     -35.214  16.366  -4.166  1.00 20.00    -0.019 C 
HETATM   11  C11 UNL     1     -35.031  16.668  -5.671  1.00 20.00     0.020 C 
HETATM   12  O12 UNL     1     -32.942  12.888  -3.736  1.00 20.00    -0.293 OA
ENDROOT
TORSDOF 0
ENDMDL
MODEL 7
REMARK VINA RESULT:      -5.0      1.285      2.919
REMARK  0 active torsions:
REMARK  status: ('A' for Active; 'I' for Inactive)
ROOT
HETATM    1  C1  UNL     1     -36.636  16.272  -4.203  1.00 20.00     0.047 C 
HETATM    2  C2  UNL     1     -35.691  17.220  -4.259  1.00 20.00    -0.013 C 
HETATM    3  C3  UNL     1     -34.319  17.596  -1.034  1.00 20.00    -0.030 C 
HETATM    4  C4  UNL     1     -33.849  18.531  -1.865  1.00 20.00    -0.030 C 
HETATM    5  C5  UNL     1     -36.293  14.890  -3.787  1.00 20.00     0.149 C 
HETATM    6  C6  UNL     1     -34.634  16.200  -1.463  1.00 20.00     0.033 C 
HETATM    7  C7  UNL     1     -33.586  18.282  -3.317  1.00 20.00     0.040 C 
HETATM    8  C8  UNL     1     -34.868  14.576  -3.373  1.00 20.00     0.088 C 
HETATM    9  C9  UNL     1     -34.121  15.826  -2.879  1.00 20.00     0.008 C 
HETATM   10  C10 UNL     1     -34.233  16.995  -3.900  1.00 20.00    -0.019 C 
HETATM   11  C11 UNL     1     -33.490  16.664  -5.214  1.00 20.00     0.020 C 
HETATM   12  O12 UNL     1     -37.156  14.014  -3.824  1.00 20.00    -0.293 OA
ENDROOT
TORSDOF 0
ENDMDL
MODEL 8
REMARK VINA RESULT:      -4.9      1.474      1.867
REMARK  0 active torsions:
REMARK  status: ('A' for Active; 'I' for Inactive)
ROOT
HETATM    1  C1  UNL     1     -36.047  14.016  -3.971  1.00 20.00     0.047 C 
HETATM    2  C2  UNL     1     -34.872  14.627  -3.774  1.00 20.00    -0.013 C 
HETATM    3  C3  UNL     1     -34.622  17.292  -6.067  1.00 20.00    -0.030 C 
HETATM    4  C4  UNL     1     -33.474  17.124  -5.402  1.00 20.00    -0.030 C 
HETATM    5  C5  UNL     1     -37.320  14.760  -3.807  1.00 20.00     0.149 C 
HETATM    6  C6  UNL     1     -35.965  17.067  -5.454  1.00 20.00     0.033 C 
HETATM    7  C7  UNL     1     -33.411  16.693  -3.971  1.00 20.00     0.040 C 
HETATM    8  C8  UNL     1     -37.272  16.238  -3.468  1.00 20.00     0.088 C 
HETATM    9  C9  UNL     1     -35.954  16.891  -3.912  1.00 20.00     0.008 C 
HETATM   10  C10 UNL     1     -34.722  16.090  -3.398  1.00 20.00    -0.019 C 
HETATM   11  C11 UNL     1     -34.620  16.152  -1.856  1.00 20.00     0.020 C 
HETATM   12  O12 UNL     1     -38.390  14.161  -3.909  1.00 20.00    -0.293 OA
ENDROOT
TORSDOF 0
ENDMDL
MODEL 9
REMARK VINA RESULT:      -4.8      2.109      3.787
REMARK  0 active torsions:
REMARK  status: ('A' for Active; 'I' for Inactive)
ROOT
HETATM    1  C1  UNL     1     -37.086  15.910  -6.032  1.00 20.00     0.047 C 
HETATM    2  C2  UNL     1     -36.099  16.386  -5.264  1.00 20.00    -0.013 C 
HETATM    3  C3  UNL     1     -34.436  13.651  -3.790  1.00 20.00    -0.030 C 
HETATM    4  C4  UNL     1     -33.988  14.807  -3.291  1.00 20.00    -0.030 C 
HETATM    5  C5  UNL     1     -36.787  15.007  -7.171  1.00 20.00     0.149 C 
HETATM    6  C6  UNL     1     -34.864  13.481  -5.211  1.00 20.00     0.033 C 
HETATM    7  C7  UNL     1     -33.865  16.058  -4.103  1.00 20.00     0.040 C 
HETATM    8  C8  UNL     1     -35.351  14.586  -7.420  1.00 20.00     0.088 C 
HETATM    9  C9  UNL     1     -34.496  14.664  -6.145  1.00 20.00     0.008 C 
HETATM   10  C10 UNL     1     -34.630  16.052  -5.455  1.00 20.00    -0.019 C 
HETATM   11  C11 UNL     1     -34.023  17.173  -6.330  1.00 20.00     0.020 C 
HETATM   12  O12 UNL     1     -37.697  14.648  -7.917  1.00 20.00    -0.293 OA
ENDROOT
TORSDOF 0
ENDMDL
