MODEL 1
REMARK VINA RESULT:      -4.8      0.000      0.000
REMARK  1 active torsions:
REMARK  status: ('A' for Active; 'I' for Inactive)
REMARK    1  A    between atoms: C8_8  and  O10_10 
ROOT
HETATM    1  C1  UNL     1     -34.549  13.203  -4.861  1.00 20.00     0.005 C 
HETATM    2  C2  UNL     1     -36.394  14.797  -4.287  1.00 20.00     0.005 C 
HETATM    3  C3  UNL     1     -33.794  13.661  -3.605  1.00 20.00     0.008 C 
HETATM    4  C4  UNL     1     -35.608  15.251  -3.048  1.00 20.00     0.008 C 
HETATM    5  C5  UNL     1     -34.531  15.530  -5.790  1.00 20.00     0.042 C 
HETATM    6  C6  UNL     1     -35.432  14.341  -5.398  1.00 20.00    -0.012 C 
HETATM    7  C7  UNL     1     -34.095  15.148  -3.322  1.00 20.00     0.019 C 
HETATM    8  C8  UNL     1     -33.716  16.006  -4.563  1.00 20.00     0.058 C 
HETATM    9  C9  UNL     1     -33.900  17.508  -4.327  1.00 20.00     0.046 C 
ENDROOT
BRANCH   8  10
HETATM   10  O10 UNL     1     -32.327  15.805  -4.854  1.00 20.00    -0.390 OA
HETATM   11  H26 UNL     1     -32.227  14.860  -5.039  1.00 20.00     0.210 HD
ENDBRANCH   8  10
TORSDOF 1
ENDMDL
MODEL 2
REMARK VINA RESULT:      -4.7      1.106      1.462
REMARK  1 active torsions:
REMARK  status: ('A' for Active; 'I' for Inactive)
REMARK    1  A    between atoms: C8_8  and  O10_10 
ROOT
HETATM    1  C1  UNL     1     -35.148  13.558  -3.972  1.00 20.00     0.005 C 
HETATM    2  C2  UNL     1     -35.328  15.674  -2.643  1.00 20.00     0.005 C 
HETATM    3  C3  UNL     1     -33.624  13.744  -4.019  1.00 20.00     0.008 C 
HETATM    4  C4  UNL     1     -33.804  15.846  -2.722  1.00 20.00     0.008 C 
HETATM    5  C5  UNL     1     -35.507  15.746  -5.139  1.00 20.00     0.042 C 
HETATM    6  C6  UNL     1     -35.850  14.923  -3.880  1.00 20.00    -0.012 C 
HETATM    7  C7  UNL     1     -33.278  15.248  -4.041  1.00 20.00     0.019 C 
HETATM    8  C8  UNL     1     -33.975  15.929  -5.254  1.00 20.00     0.058 C 
HETATM    9  C9  UNL     1     -33.605  17.408  -5.399  1.00 20.00     0.046 C 
ENDROOT
BRANCH   8  10
HETATM   10  O10 UNL     1     -33.544  15.280  -6.456  1.00 20.00    -0.390 OA
HETATM   11  H26 UNL     1     -33.932  15.784  -7.186  1.00 20.00     0.210 HD
ENDBRANCH   8  10
TORSDOF 1
ENDMDL
MODEL 3
REMARK VINA RESULT:      -4.7      0.952      1.389
REMARK  1 active torsions:
REMARK  status: ('A' for Active; 'I' for Inactive)
REMARK    1  A    between atoms: C8_8  and  O10_10 
ROOT
HETATM    1  C1  UNL     1     -34.787  14.074  -6.141  1.00 20.00     0.005 C 
HETATM    2  C2  UNL     1     -36.353  15.612  -4.934  1.00 20.00     0.005 C 
HETATM    3  C3  UNL     1     -34.612  13.272  -4.844  1.00 20.00     0.008 C 
HETATM    4  C4  UNL     1     -36.145  14.804  -3.645  1.00 20.00     0.008 C 
HETATM    5  C5  UNL     1     -33.910  16.149  -5.042  1.00 20.00     0.042 C 
HETATM    6  C6  UNL     1     -35.098  15.546  -5.821  1.00 20.00    -0.012 C 
HETATM    7  C7  UNL     1     -34.723  14.212  -3.624  1.00 20.00     0.019 C 
HETATM    8  C8  UNL     1     -33.667  15.348  -3.740  1.00 20.00     0.058 C 
HETATM    9  C9  UNL     1     -33.650  16.273  -2.519  1.00 20.00     0.046 C 
ENDROOT
BRANCH   8  10
HETATM   10  O10 UNL     1     -32.364  14.758  -3.824  1.00 20.00    -0.390 OA
HETATM   11  H26 UNL     1     -32.240  14.265  -3.001  1.00 20.00     0.210 HD
ENDBRANCH   8  10
TORSDOF 1
ENDMDL
MODEL 4
REMARK VINA RESULT:      -4.7      1.323      2.783
REMARK  1 active torsions:
REMARK  status: ('A' for Active; 'I' for Inactive)
REMARK    1  A    between atoms: C8_8  and  O10_10 
ROOT
HETATM    1  C1  UNL     1     -34.644  15.583  -2.638  1.00 20.00     0.005 C 
HETATM    2  C2  UNL     1     -33.342  13.754  -3.749  1.00 20.00     0.005 C 
HETATM    3  C3  UNL     1     -35.897  15.119  -3.394  1.00 20.00     0.008 C 
HETATM    4  C4  UNL     1     -34.606  13.323  -4.508  1.00 20.00     0.008 C 
HETATM    5  C5  UNL     1     -33.442  16.028  -4.792  1.00 20.00     0.042 C 
HETATM    6  C6  UNL     1     -33.379  15.264  -3.453  1.00 20.00    -0.012 C 
HETATM    7  C7  UNL     1     -35.500  14.550  -4.773  1.00 20.00     0.019 C 
HETATM    8  C8  UNL     1     -34.712  15.624  -5.577  1.00 20.00     0.058 C 
HETATM    9  C9  UNL     1     -34.361  15.166  -6.996  1.00 20.00     0.046 C 
ENDROOT
BRANCH   8  10
HETATM   10  O10 UNL     1     -35.534  16.790  -5.714  1.00 20.00    -0.390 OA
HETATM   11  H26 UNL     1     -36.104  16.809  -4.932  1.00 20.00     0.210 HD
ENDBRANCH   8  10
TORSDOF 1
ENDMDL
MODEL 5
REMARK VINA RESULT:      -4.6      1.738      3.037
REMARK  1 active torsions:
REMARK  status: ('A' for Active; 'I' for Inactive)
REMARK    1  A    between atoms: C8_8  and  O10_10 
ROOT
HETATM    1  C1  UNL     1     -33.697  13.658  -3.654  1.00 20.00     0.005 C 
HETATM    2  C2  UNL     1     -33.408  15.955  -4.614  1.00 20.00     0.005 C 
HETATM    3  C3  UNL     1     -34.530  13.274  -4.885  1.00 20.00     0.008 C 
HETATM    4  C4  UNL     1     -34.262  15.550  -5.824  1.00 20.00     0.008 C 
HETATM    5  C5  UNL     1     -35.312  15.479  -3.059  1.00 20.00     0.042 C 
HETATM    6  C6  UNL     1     -33.834  15.163  -3.365  1.00 20.00    -0.012 C 
HETATM    7  C7  UNL     1     -35.310  14.503  -5.398  1.00 20.00     0.019 C 
HETATM    8  C8  UNL     1     -36.202  15.072  -4.258  1.00 20.00     0.058 C 
HETATM    9  C9  UNL     1     -37.080  16.241  -4.716  1.00 20.00     0.046 C 
ENDROOT
BRANCH   8  10
HETATM   10  O10 UNL     1     -37.093  14.041  -3.813  1.00 20.00    -0.390 OA
HETATM   11  H26 UNL     1     -37.456  13.637  -4.615  1.00 20.00     0.210 HD
ENDBRANCH   8  10
TORSDOF 1
ENDMDL
MODEL 6
REMARK VINA RESULT:      -4.6      1.781      2.789
REMARK  1 active torsions:
REMARK  status: ('A' for Active; 'I' for Inactive)
REMARK    1  A    between atoms: C8_8  and  O10_10 
ROOT
HETATM    1  C1  UNL     1     -37.091  15.203  -5.421  1.00 20.00     0.005 C 
HETATM    2  C2  UNL     1     -35.063  16.644  -5.125  1.00 20.00     0.005 C 
HETATM    3  C3  UNL     1     -37.048  14.874  -3.922  1.00 20.00     0.008 C 
HETATM    4  C4  UNL     1     -35.032  16.283  -3.633  1.00 20.00     0.008 C 
HETATM    5  C5  UNL     1     -34.803  14.234  -5.755  1.00 20.00     0.042 C 
HETATM    6  C6  UNL     1     -35.674  15.494  -5.945  1.00 20.00    -0.012 C 
HETATM    7  C7  UNL     1     -35.586  14.859  -3.427  1.00 20.00     0.019 C 
HETATM    8  C8  UNL     1     -34.760  13.837  -4.260  1.00 20.00     0.058 C 
HETATM    9  C9  UNL     1     -33.317  13.697  -3.768  1.00 20.00     0.046 C 
ENDROOT
BRANCH   8  10
HETATM   10  O10 UNL     1     -35.365  12.544  -4.131  1.00 20.00    -0.390 OA
HETATM   11  H26 UNL     1     -36.127  12.663  -3.547  1.00 20.00     0.210 HD
ENDBRANCH   8  10
TORSDOF 1
ENDMDL
MODEL 7
REMARK VINA RESULT:      -4.6      1.573      2.603
REMARK  1 active torsions:
REMARK  status: ('A' for Active; 'I' for Inactive)
REMARK    1  A    between atoms: C8_8  and  O10_10 
ROOT
HETATM    1  C1  UNL     1     -34.601  14.716  -5.797  1.00 20.00     0.005 C 
HETATM    2  C2  UNL     1     -33.480  13.559  -3.878  1.00 20.00     0.005 C 
HETATM    3  C3  UNL     1     -33.773  15.973  -5.493  1.00 20.00     0.008 C 
HETATM    4  C4  UNL     1     -32.680  14.836  -3.584  1.00 20.00     0.008 C 
HETATM    5  C5  UNL     1     -35.637  14.779  -3.515  1.00 20.00     0.042 C 
HETATM    6  C6  UNL     1     -34.840  13.909  -4.509  1.00 20.00    -0.012 C 
HETATM    7  C7  UNL     1     -33.508  16.075  -3.976  1.00 20.00     0.019 C 
HETATM    8  C8  UNL     1     -34.860  16.081  -3.206  1.00 20.00     0.058 C 
HETATM    9  C9  UNL     1     -34.685  16.273  -1.697  1.00 20.00     0.046 C 
ENDROOT
BRANCH   8  10
HETATM   10  O10 UNL     1     -35.649  17.184  -3.670  1.00 20.00    -0.390 OA
HETATM   11  H26 UNL     1     -35.195  17.983  -3.367  1.00 20.00     0.210 HD
ENDBRANCH   8  10
TORSDOF 1
ENDMDL
MODEL 8
REMARK VINA RESULT:      -4.5     11.589     12.615
REMARK  1 active torsions:
REMARK  status: ('A' for Active; 'I' for Inactive)
REMARK    1  A    between atoms: C8_8  and  O10_10 
ROOT
HETATM    1  C1  UNL     1     -41.245   3.911  -1.960  1.00 20.00     0.005 C 
HETATM    2  C2  UNL     1     -43.417   4.270  -0.765  1.00 20.00     0.005 C 
HETATM    3  C3  UNL     1     -40.527   4.672  -0.836  1.00 20.00     0.008 C 
HETATM    4  C4  UNL     1     -42.677   5.045   0.335  1.00 20.00     0.008 C 
HETATM    5  C5  UNL     1     -42.654   5.914  -2.493  1.00 20.00     0.042 C 
HETATM    6  C6  UNL     1     -42.688   4.419  -2.113  1.00 20.00    -0.012 C 
HETATM    7  C7  UNL     1     -41.454   5.766  -0.265  1.00 20.00     0.019 C 
HETATM    8  C8  UNL     1     -41.903   6.722  -1.407  1.00 20.00     0.058 C 
HETATM    9  C9  UNL     1     -42.754   7.892  -0.904  1.00 20.00     0.046 C 
ENDROOT
BRANCH   8  10
HETATM   10  O10 UNL     1     -40.738   7.294  -2.013  1.00 20.00    -0.390 OA
HETATM   11  H26 UNL     1     -40.014   7.154  -1.385  1.00 20.00     0.210 HD
ENDBRANCH   8  10
TORSDOF 1
ENDMDL
MODEL 9
REMARK VINA RESULT:      -4.4      1.654      2.828
REMARK  1 active torsions:
REMARK  status: ('A' for Active; 'I' for Inactive)
REMARK    1  A    between atoms: C8_8  and  O10_10 
ROOT
HETATM    1  C1  UNL     1     -33.188  15.888  -4.464  1.00 20.00     0.005 C 
HETATM    2  C2  UNL     1     -34.511  14.646  -6.192  1.00 20.00     0.005 C 
HETATM    3  C3  UNL     1     -33.472  14.756  -3.467  1.00 20.00     0.008 C 
HETATM    4  C4  UNL     1     -34.796  13.538  -5.169  1.00 20.00     0.008 C 
HETATM    5  C5  UNL     1     -35.638  16.341  -4.734  1.00 20.00     0.042 C 
HETATM    6  C6  UNL     1     -34.334  16.001  -5.484  1.00 20.00    -0.012 C 
HETATM    7  C7  UNL     1     -34.858  14.139  -3.751  1.00 20.00     0.019 C 
HETATM    8  C8  UNL     1     -35.949  15.245  -3.685  1.00 20.00     0.058 C 
HETATM    9  C9  UNL     1     -37.367  14.696  -3.866  1.00 20.00     0.046 C 
ENDROOT
BRANCH   8  10
HETATM   10  O10 UNL     1     -35.909  15.855  -2.389  1.00 20.00    -0.390 OA
HETATM   11  H26 UNL     1     -35.413  15.246  -1.823  1.00 20.00     0.210 HD
ENDBRANCH   8  10
TORSDOF 1
ENDMDL
