MODEL 1
REMARK VINA RESULT:      -4.6      0.000      0.000
REMARK  2 active torsions:
REMARK  status: ('A' for Active; 'I' for Inactive)
REMARK    1  A    between atoms: C6_6  and  C7_7 
REMARK    2  A    between atoms: C7_7  and  C8_8 
ROOT
HETATM    1  C1  UNL     1     -37.017  14.681  -3.814  1.00 20.00     0.069 C 
HETATM    2  C2  UNL     1     -34.497  13.262  -4.843  1.00 20.00     0.002 C 
HETATM    3  C3  UNL     1     -34.874  14.230  -5.964  1.00 20.00     0.002 C 
HETATM    4  C4  UNL     1     -34.635  14.048  -3.538  1.00 20.00     0.024 C 
HETATM    5  C5  UNL     1     -35.222  15.555  -5.286  1.00 20.00     0.024 C 
HETATM    6  C6  UNL     1     -35.624  15.177  -3.856  1.00 20.00     0.050 C 
HETATM    7  N9  UNL     1     -38.110  14.292  -3.782  1.00 20.00    -0.196 NA
ENDROOT
BRANCH   6   8
HETATM    8  C7  UNL     1     -35.478  16.352  -2.890  1.00 20.00     0.039 C 
BRANCH   8   9
HETATM    9  C8  UNL     1     -34.323  16.188  -1.914  1.00 20.00     0.116 C 
HETATM   10 CL10 UNL     1     -34.707  16.845  -0.306  1.00 20.00    -0.130 Cl
ENDBRANCH   8   9
ENDBRANCH   6   8
TORSDOF 2
ENDMDL
MODEL 2
REMARK VINA RESULT:      -4.5     11.645     12.609
REMARK  2 active torsions:
REMARK  status: ('A' for Active; 'I' for Inactive)
REMARK    1  A    between atoms: C6_6  and  C7_7 
REMARK    2  A    between atoms: C7_7  and  C8_8 
ROOT
HETATM    1  C1  UNL     1     -35.745   5.818   3.627  1.00 20.00     0.069 C 
HETATM    2  C2  UNL     1     -34.688   5.654   6.503  1.00 20.00     0.002 C 
HETATM    3  C3  UNL     1     -34.937   4.200   6.105  1.00 20.00     0.002 C 
HETATM    4  C4  UNL     1     -33.991   6.308   5.310  1.00 20.00     0.024 C 
HETATM    5  C5  UNL     1     -34.379   4.042   4.691  1.00 20.00     0.024 C 
HETATM    6  C6  UNL     1     -34.391   5.456   4.099  1.00 20.00     0.050 C 
HETATM    7  N9  UNL     1     -36.807   6.101   3.256  1.00 20.00    -0.196 NA
ENDROOT
BRANCH   6   8
HETATM    8  C7  UNL     1     -33.399   5.602   2.945  1.00 20.00     0.039 C 
BRANCH   8   9
HETATM    9  C8  UNL     1     -32.207   6.485   3.286  1.00 20.00     0.116 C 
HETATM   10 CL10 UNL     1     -32.122   7.924   2.242  1.00 20.00    -0.130 Cl
ENDBRANCH   8   9
ENDBRANCH   6   8
TORSDOF 2
ENDMDL
MODEL 3
REMARK VINA RESULT:      -4.4      0.818      1.380
REMARK  2 active torsions:
REMARK  status: ('A' for Active; 'I' for Inactive)
REMARK    1  A    between atoms: C6_6  and  C7_7 
REMARK    2  A    between atoms: C7_7  and  C8_8 
ROOT
HETATM    1  C1  UNL     1     -36.661  14.530  -4.038  1.00 20.00     0.069 C 
HETATM    2  C2  UNL     1     -35.308  14.331  -6.786  1.00 20.00     0.002 C 
HETATM    3  C3  UNL     1     -35.533  15.829  -6.579  1.00 20.00     0.002 C 
HETATM    4  C4  UNL     1     -34.766  13.796  -5.461  1.00 20.00     0.024 C 
HETATM    5  C5  UNL     1     -35.117  16.129  -5.139  1.00 20.00     0.024 C 
HETATM    6  C6  UNL     1     -35.251  14.792  -4.400  1.00 20.00     0.050 C 
HETATM    7  N9  UNL     1     -37.767  14.324  -3.754  1.00 20.00    -0.196 NA
ENDROOT
BRANCH   6   8
HETATM    8  C7  UNL     1     -34.390  14.748  -3.139  1.00 20.00     0.039 C 
BRANCH   8   9
HETATM    9  C8  UNL     1     -34.011  16.128  -2.621  1.00 20.00     0.116 C 
HETATM   10 CL10 UNL     1     -34.644  16.425  -0.986  1.00 20.00    -0.130 Cl
ENDBRANCH   8   9
ENDBRANCH   6   8
TORSDOF 2
ENDMDL
MODEL 4
REMARK VINA RESULT:      -4.3      2.078      2.566
REMARK  2 active torsions:
REMARK  status: ('A' for Active; 'I' for Inactive)
REMARK    1  A    between atoms: C6_6  and  C7_7 
REMARK    2  A    between atoms: C7_7  and  C8_8 
ROOT
HETATM    1  C1  UNL     1     -33.936  16.316  -4.791  1.00 20.00     0.069 C 
HETATM    2  C2  UNL     1     -35.735  13.874  -4.323  1.00 20.00     0.002 C 
HETATM    3  C3  UNL     1     -34.327  13.291  -4.455  1.00 20.00     0.002 C 
HETATM    4  C4  UNL     1     -35.605  15.099  -3.418  1.00 20.00     0.024 C 
HETATM    5  C5  UNL     1     -33.413  14.191  -3.624  1.00 20.00     0.024 C 
HETATM    6  C6  UNL     1     -34.141  15.538  -3.550  1.00 20.00     0.050 C 
HETATM    7  N9  UNL     1     -33.775  16.926  -5.764  1.00 20.00    -0.196 NA
ENDROOT
BRANCH   6   8
HETATM    8  C7  UNL     1     -33.685  16.370  -2.352  1.00 20.00     0.039 C 
BRANCH   8   9
HETATM    9  C8  UNL     1     -34.708  16.415  -1.227  1.00 20.00     0.116 C 
HETATM   10 CL10 UNL     1     -34.263  17.586   0.036  1.00 20.00    -0.130 Cl
ENDBRANCH   8   9
ENDBRANCH   6   8
TORSDOF 2
ENDMDL
MODEL 5
REMARK VINA RESULT:      -4.3      1.638      2.111
REMARK  2 active torsions:
REMARK  status: ('A' for Active; 'I' for Inactive)
REMARK    1  A    between atoms: C6_6  and  C7_7 
REMARK    2  A    between atoms: C7_7  and  C8_8 
ROOT
HETATM    1  C1  UNL     1     -34.745  13.926  -4.140  1.00 20.00     0.069 C 
HETATM    2  C2  UNL     1     -33.574  16.260  -5.753  1.00 20.00     0.002 C 
HETATM    3  C3  UNL     1     -35.084  16.371  -5.963  1.00 20.00     0.002 C 
HETATM    4  C4  UNL     1     -33.371  15.987  -4.263  1.00 20.00     0.024 C 
HETATM    5  C5  UNL     1     -35.723  16.160  -4.591  1.00 20.00     0.024 C 
HETATM    6  C6  UNL     1     -34.689  15.362  -3.789  1.00 20.00     0.050 C 
HETATM    7  N9  UNL     1     -34.790  12.800  -4.416  1.00 20.00    -0.196 NA
ENDROOT
BRANCH   6   8
HETATM    8  C7  UNL     1     -34.887  15.520  -2.282  1.00 20.00     0.039 C 
BRANCH   8   9
HETATM    9  C8  UNL     1     -34.119  16.695  -1.695  1.00 20.00     0.116 C 
HETATM   10 CL10 UNL     1     -34.672  17.104  -0.054  1.00 20.00    -0.130 Cl
ENDBRANCH   8   9
ENDBRANCH   6   8
TORSDOF 2
ENDMDL
MODEL 6
REMARK VINA RESULT:      -4.3      2.030      2.766
REMARK  2 active torsions:
REMARK  status: ('A' for Active; 'I' for Inactive)
REMARK    1  A    between atoms: C6_6  and  C7_7 
REMARK    2  A    between atoms: C7_7  and  C8_8 
ROOT
HETATM    1  C1  UNL     1     -34.662  13.793  -5.004  1.00 20.00     0.069 C 
HETATM    2  C2  UNL     1     -35.720  14.607  -7.768  1.00 20.00     0.002 C 
HETATM    3  C3  UNL     1     -36.753  15.161  -6.786  1.00 20.00     0.002 C 
HETATM    4  C4  UNL     1     -34.350  14.944  -7.180  1.00 20.00     0.024 C 
HETATM    5  C5  UNL     1     -35.959  15.806  -5.650  1.00 20.00     0.024 C 
HETATM    6  C6  UNL     1     -34.593  15.110  -5.674  1.00 20.00     0.050 C 
HETATM    7  N9  UNL     1     -34.717  12.760  -4.479  1.00 20.00    -0.196 NA
ENDROOT
BRANCH   6   8
HETATM    8  C7  UNL     1     -33.508  15.957  -5.011  1.00 20.00     0.039 C 
BRANCH   8   9
HETATM    9  C8  UNL     1     -34.048  16.892  -3.938  1.00 20.00     0.116 C 
HETATM   10 CL10 UNL     1     -34.007  16.149  -2.322  1.00 20.00    -0.130 Cl
ENDBRANCH   8   9
ENDBRANCH   6   8
TORSDOF 2
ENDMDL
MODEL 7
REMARK VINA RESULT:      -4.1      1.986      2.229
REMARK  2 active torsions:
REMARK  status: ('A' for Active; 'I' for Inactive)
REMARK    1  A    between atoms: C6_6  and  C7_7 
REMARK    2  A    between atoms: C7_7  and  C8_8 
ROOT
HETATM    1  C1  UNL     1     -37.062  14.766  -4.028  1.00 20.00     0.069 C 
HETATM    2  C2  UNL     1     -34.244  13.647  -3.551  1.00 20.00     0.002 C 
HETATM    3  C3  UNL     1     -34.564  13.269  -4.997  1.00 20.00     0.002 C 
HETATM    4  C4  UNL     1     -34.690  15.099  -3.382  1.00 20.00     0.024 C 
HETATM    5  C5  UNL     1     -35.190  14.510  -5.634  1.00 20.00     0.024 C 
HETATM    6  C6  UNL     1     -35.759  15.316  -4.461  1.00 20.00     0.050 C 
HETATM    7  N9  UNL     1     -38.084  14.334  -3.688  1.00 20.00    -0.196 NA
ENDROOT
BRANCH   6   8
HETATM    8  C7  UNL     1     -35.926  16.794  -4.810  1.00 20.00     0.039 C 
BRANCH   8   9
HETATM    9  C8  UNL     1     -34.750  17.653  -4.369  1.00 20.00     0.116 C 
HETATM   10 CL10 UNL     1     -33.493  17.760  -5.623  1.00 20.00    -0.130 Cl
ENDBRANCH   8   9
ENDBRANCH   6   8
TORSDOF 2
ENDMDL
MODEL 8
REMARK VINA RESULT:      -4.1      3.028      4.139
REMARK  2 active torsions:
REMARK  status: ('A' for Active; 'I' for Inactive)
REMARK    1  A    between atoms: C6_6  and  C7_7 
REMARK    2  A    between atoms: C7_7  and  C8_8 
ROOT
HETATM    1  C1  UNL     1     -34.600  13.910  -4.577  1.00 20.00     0.069 C 
HETATM    2  C2  UNL     1     -35.548  16.149  -2.704  1.00 20.00     0.002 C 
HETATM    3  C3  UNL     1     -34.069  15.969  -2.364  1.00 20.00     0.002 C 
HETATM    4  C4  UNL     1     -35.639  16.136  -4.230  1.00 20.00     0.024 C 
HETATM    5  C5  UNL     1     -33.334  15.855  -3.700  1.00 20.00     0.024 C 
HETATM    6  C6  UNL     1     -34.394  15.370  -4.696  1.00 20.00     0.050 C 
HETATM    7  N9  UNL     1     -34.761  12.765  -4.483  1.00 20.00    -0.196 NA
ENDROOT
BRANCH   6   8
HETATM    8  C7  UNL     1     -34.021  15.711  -6.138  1.00 20.00     0.039 C 
BRANCH   8   9
HETATM    9  C8  UNL     1     -35.229  15.862  -7.051  1.00 20.00     0.116 C 
HETATM   10 CL10 UNL     1     -35.605  14.354  -7.918  1.00 20.00    -0.130 Cl
ENDBRANCH   8   9
ENDBRANCH   6   8
TORSDOF 2
ENDMDL
MODEL 9
REMARK VINA RESULT:      -4.0      2.671      3.396
REMARK  2 active torsions:
REMARK  status: ('A' for Active; 'I' for Inactive)
REMARK    1  A    between atoms: C6_6  and  C7_7 
REMARK    2  A    between atoms: C7_7  and  C8_8 
ROOT
HETATM    1  C1  UNL     1     -35.148  13.772  -4.450  1.00 20.00     0.069 C 
HETATM    2  C2  UNL     1     -33.740  15.924  -2.774  1.00 20.00     0.002 C 
HETATM    3  C3  UNL     1     -33.269  16.186  -4.205  1.00 20.00     0.002 C 
HETATM    4  C4  UNL     1     -35.246  15.675  -2.861  1.00 20.00     0.024 C 
HETATM    5  C5  UNL     1     -34.511  16.082  -5.090  1.00 20.00     0.024 C 
HETATM    6  C6  UNL     1     -35.489  15.204  -4.301  1.00 20.00     0.050 C 
HETATM    7  N9  UNL     1     -34.881  12.650  -4.567  1.00 20.00    -0.196 NA
ENDROOT
BRANCH   6   8
HETATM    8  C7  UNL     1     -36.937  15.426  -4.738  1.00 20.00     0.039 C 
BRANCH   8   9
HETATM    9  C8  UNL     1     -37.954  14.896  -3.737  1.00 20.00     0.116 C 
HETATM   10 CL10 UNL     1     -39.491  14.454  -4.516  1.00 20.00    -0.130 Cl
ENDBRANCH   8   9
ENDBRANCH   6   8
TORSDOF 2
ENDMDL
