MODEL 1
REMARK VINA RESULT:      -4.0      0.000      0.000
REMARK  2 active torsions:
REMARK  status: ('A' for Active; 'I' for Inactive)
REMARK    1  A    between atoms: C1_1  and  C3_3 
REMARK    2  A    between atoms: C1_1  and  O5_5 
ROOT
HETATM    1  C1  UNL     1     -34.060   5.773   3.951  1.00 20.00     0.291 C 
HETATM    2  O4  UNL     1     -34.379   5.279   2.878  1.00 20.00    -0.262 OA
ENDROOT
BRANCH   1   3
HETATM    3  C3  UNL     1     -34.811   5.607   5.245  1.00 20.00     0.277 C 
HETATM    4 CL6  UNL     1     -34.838   3.897   5.705  1.00 20.00    -0.097 Cl
HETATM    5 CL7  UNL     1     -33.997   6.578   6.479  1.00 20.00    -0.097 Cl
ENDBRANCH   1   3
BRANCH   1   6
HETATM    6  O5  UNL     1     -32.949   6.541   4.172  1.00 20.00    -0.324 OA
HETATM    7  C2  UNL     1     -32.277   7.007   2.998  1.00 20.00     0.213 C 
ENDBRANCH   1   6
TORSDOF 2
ENDMDL
MODEL 2
REMARK VINA RESULT:      -4.0      0.770      1.730
REMARK  2 active torsions:
REMARK  status: ('A' for Active; 'I' for Inactive)
REMARK    1  A    between atoms: C1_1  and  C3_3 
REMARK    2  A    between atoms: C1_1  and  O5_5 
ROOT
HETATM    1  C1  UNL     1     -34.458   5.854   4.115  1.00 20.00     0.291 C 
HETATM    2  O4  UNL     1     -35.444   5.452   3.511  1.00 20.00    -0.262 OA
ENDROOT
BRANCH   1   3
HETATM    3  C3  UNL     1     -34.019   5.385   5.476  1.00 20.00     0.277 C 
HETATM    4 CL6  UNL     1     -33.959   6.760   6.591  1.00 20.00    -0.097 Cl
HETATM    5 CL7  UNL     1     -35.176   4.171   6.036  1.00 20.00    -0.097 Cl
ENDBRANCH   1   3
BRANCH   1   6
HETATM    6  O5  UNL     1     -33.566   6.779   3.648  1.00 20.00    -0.324 OA
HETATM    7  C2  UNL     1     -32.319   6.255   3.181  1.00 20.00     0.213 C 
ENDBRANCH   1   6
TORSDOF 2
ENDMDL
MODEL 3
REMARK VINA RESULT:      -3.6      1.531      2.078
REMARK  2 active torsions:
REMARK  status: ('A' for Active; 'I' for Inactive)
REMARK    1  A    between atoms: C1_1  and  C3_3 
REMARK    2  A    between atoms: C1_1  and  O5_5 
ROOT
HETATM    1  C1  UNL     1     -33.810   6.300   5.058  1.00 20.00     0.291 C 
HETATM    2  O4  UNL     1     -33.642   6.713   6.198  1.00 20.00    -0.262 OA
ENDROOT
BRANCH   1   3
HETATM    3  C3  UNL     1     -34.573   5.056   4.686  1.00 20.00     0.277 C 
HETATM    4 CL6  UNL     1     -35.179   4.267   6.152  1.00 20.00    -0.097 Cl
HETATM    5 CL7  UNL     1     -35.908   5.530   3.628  1.00 20.00    -0.097 Cl
ENDBRANCH   1   3
BRANCH   1   6
HETATM    6  O5  UNL     1     -33.360   6.908   3.919  1.00 20.00    -0.324 OA
HETATM    7  C2  UNL     1     -32.304   6.229   3.232  1.00 20.00     0.213 C 
ENDBRANCH   1   6
TORSDOF 2
ENDMDL
MODEL 4
REMARK VINA RESULT:      -3.5      2.328      3.543
REMARK  2 active torsions:
REMARK  status: ('A' for Active; 'I' for Inactive)
REMARK    1  A    between atoms: C1_1  and  C3_3 
REMARK    2  A    between atoms: C1_1  and  O5_5 
ROOT
HETATM    1  C1  UNL     1     -34.151   6.155   5.095  1.00 20.00     0.291 C 
HETATM    2  O4  UNL     1     -33.684   6.622   6.126  1.00 20.00    -0.262 OA
ENDROOT
BRANCH   1   3
HETATM    3  C3  UNL     1     -33.765   6.565   3.699  1.00 20.00     0.277 C 
HETATM    4 CL6  UNL     1     -32.022   6.872   3.628  1.00 20.00    -0.097 Cl
HETATM    5 CL7  UNL     1     -34.219   5.257   2.600  1.00 20.00    -0.097 Cl
ENDBRANCH   1   3
BRANCH   1   6
HETATM    6  O5  UNL     1     -35.085   5.158   5.028  1.00 20.00    -0.324 OA
HETATM    7  C2  UNL     1     -34.882   4.059   5.922  1.00 20.00     0.213 C 
ENDBRANCH   1   6
TORSDOF 2
ENDMDL
MODEL 5
REMARK VINA RESULT:      -3.4     11.994     12.741
REMARK  2 active torsions:
REMARK  status: ('A' for Active; 'I' for Inactive)
REMARK    1  A    between atoms: C1_1  and  C3_3 
REMARK    2  A    between atoms: C1_1  and  O5_5 
ROOT
HETATM    1  C1  UNL     1     -35.354  13.631  -4.340  1.00 20.00     0.291 C 
HETATM    2  O4  UNL     1     -34.868  12.522  -4.524  1.00 20.00    -0.262 OA
ENDROOT
BRANCH   1   3
HETATM    3  C3  UNL     1     -34.644  14.940  -4.560  1.00 20.00     0.277 C 
HETATM    4 CL6  UNL     1     -33.117  14.950  -3.662  1.00 20.00    -0.097 Cl
HETATM    5 CL7  UNL     1     -34.355  15.121  -6.295  1.00 20.00    -0.097 Cl
ENDBRANCH   1   3
BRANCH   1   6
HETATM    6  O5  UNL     1     -36.635  13.877  -3.929  1.00 20.00    -0.324 OA
HETATM    7  C2  UNL     1     -36.904  15.221  -3.514  1.00 20.00     0.213 C 
ENDBRANCH   1   6
TORSDOF 2
ENDMDL
MODEL 6
REMARK VINA RESULT:      -3.3      2.688      3.014
REMARK  2 active torsions:
REMARK  status: ('A' for Active; 'I' for Inactive)
REMARK    1  A    between atoms: C1_1  and  C3_3 
REMARK    2  A    between atoms: C1_1  and  O5_5 
ROOT
HETATM    1  C1  UNL     1     -34.723   4.724   5.184  1.00 20.00     0.291 C 
HETATM    2  O4  UNL     1     -35.038   3.569   4.925  1.00 20.00    -0.262 OA
ENDROOT
BRANCH   1   3
HETATM    3  C3  UNL     1     -34.655   5.852   4.189  1.00 20.00     0.277 C 
HETATM    4 CL6  UNL     1     -33.278   5.609   3.103  1.00 20.00    -0.097 Cl
HETATM    5 CL7  UNL     1     -36.174   5.874   3.284  1.00 20.00    -0.097 Cl
ENDBRANCH   1   3
BRANCH   1   6
HETATM    6  O5  UNL     1     -34.403   5.200   6.425  1.00 20.00    -0.324 OA
HETATM    7  C2  UNL     1     -33.991   6.570   6.476  1.00 20.00     0.213 C 
ENDBRANCH   1   6
TORSDOF 2
ENDMDL
MODEL 7
REMARK VINA RESULT:      -3.3      1.713      1.889
REMARK  2 active torsions:
REMARK  status: ('A' for Active; 'I' for Inactive)
REMARK    1  A    between atoms: C1_1  and  C3_3 
REMARK    2  A    between atoms: C1_1  and  O5_5 
ROOT
HETATM    1  C1  UNL     1     -32.566   6.473   3.420  1.00 20.00     0.291 C 
HETATM    2  O4  UNL     1     -32.044   5.418   3.084  1.00 20.00    -0.262 OA
ENDROOT
BRANCH   1   3
HETATM    3  C3  UNL     1     -33.922   6.609   4.060  1.00 20.00     0.277 C 
HETATM    4 CL6  UNL     1     -34.988   5.318   3.482  1.00 20.00    -0.097 Cl
HETATM    5 CL7  UNL     1     -33.710   6.512   5.814  1.00 20.00    -0.097 Cl
ENDBRANCH   1   3
BRANCH   1   6
HETATM    6  O5  UNL     1     -31.999   7.712   3.300  1.00 20.00    -0.324 OA
HETATM    7  C2  UNL     1     -32.062   8.296   1.994  1.00 20.00     0.213 C 
ENDBRANCH   1   6
TORSDOF 2
ENDMDL
MODEL 8
REMARK VINA RESULT:      -3.3      1.540      2.212
REMARK  2 active torsions:
REMARK  status: ('A' for Active; 'I' for Inactive)
REMARK    1  A    between atoms: C1_1  and  C3_3 
REMARK    2  A    between atoms: C1_1  and  O5_5 
ROOT
HETATM    1  C1  UNL     1     -33.926   6.351   5.379  1.00 20.00     0.291 C 
HETATM    2  O4  UNL     1     -33.337   6.771   6.367  1.00 20.00    -0.262 OA
ENDROOT
BRANCH   1   3
HETATM    3  C3  UNL     1     -35.050   5.350   5.394  1.00 20.00     0.277 C 
HETATM    4 CL6  UNL     1     -35.809   5.279   3.795  1.00 20.00    -0.097 Cl
HETATM    5 CL7  UNL     1     -34.375   3.778   5.841  1.00 20.00    -0.097 Cl
ENDBRANCH   1   3
BRANCH   1   6
HETATM    6  O5  UNL     1     -33.687   6.739   4.089  1.00 20.00    -0.324 OA
HETATM    7  C2  UNL     1     -32.419   6.349   3.551  1.00 20.00     0.213 C 
ENDBRANCH   1   6
TORSDOF 2
ENDMDL
MODEL 9
REMARK VINA RESULT:      -3.3      1.808      2.832
REMARK  2 active torsions:
REMARK  status: ('A' for Active; 'I' for Inactive)
REMARK    1  A    between atoms: C1_1  and  C3_3 
REMARK    2  A    between atoms: C1_1  and  O5_5 
ROOT
HETATM    1  C1  UNL     1     -34.552   5.549   3.840  1.00 20.00     0.291 C 
HETATM    2  O4  UNL     1     -34.470   5.068   2.717  1.00 20.00    -0.262 OA
ENDROOT
BRANCH   1   3
HETATM    3  C3  UNL     1     -33.800   6.758   4.328  1.00 20.00     0.277 C 
HETATM    4 CL6  UNL     1     -33.696   6.724   6.095  1.00 20.00    -0.097 Cl
HETATM    5 CL7  UNL     1     -32.188   6.728   3.601  1.00 20.00    -0.097 Cl
ENDBRANCH   1   3
BRANCH   1   6
HETATM    6  O5  UNL     1     -35.363   5.090   4.841  1.00 20.00    -0.324 OA
HETATM    7  C2  UNL     1     -34.970   3.848   5.435  1.00 20.00     0.213 C 
ENDBRANCH   1   6
TORSDOF 2
ENDMDL
