MODEL 1
REMARK VINA RESULT:      -4.5      0.000      0.000
REMARK  1 active torsions:
REMARK  status: ('A' for Active; 'I' for Inactive)
REMARK    1  A    between atoms: C1_1  and  N7_7 
ROOT
HETATM    1  C2  UNL     1     -35.216   4.860   6.125  1.00 20.00     0.003 C 
HETATM    2  C3  UNL     1     -35.099   4.184   4.758  1.00 20.00     0.020 C 
HETATM    3  C4  UNL     1     -33.977   5.704   6.425  1.00 20.00     0.020 C 
HETATM    4  C5  UNL     1     -34.810   5.203   3.660  1.00 20.00     0.123 C 
HETATM    5  C6  UNL     1     -33.702   6.702   5.303  1.00 20.00     0.123 C 
HETATM    6  N7  UNL     1     -33.661   6.032   4.008  1.00 20.00    -0.381 N 
ENDROOT
BRANCH   6   7
HETATM    7  C1  UNL     1     -32.636   6.225   3.141  1.00 20.00     0.168 C 
HETATM    8  S8  UNL     1     -32.128   7.732   2.649  1.00 20.00    -0.074 SA
ENDBRANCH   6   7
TORSDOF 1
ENDMDL
MODEL 2
REMARK VINA RESULT:      -3.6     11.847     12.502
REMARK  1 active torsions:
REMARK  status: ('A' for Active; 'I' for Inactive)
REMARK    1  A    between atoms: C1_1  and  N7_7 
ROOT
HETATM    1  C2  UNL     1     -34.775  13.500  -4.487  1.00 20.00     0.003 C 
HETATM    2  C3  UNL     1     -33.424  13.633  -3.782  1.00 20.00     0.020 C 
HETATM    3  C4  UNL     1     -35.824  14.397  -3.831  1.00 20.00     0.020 C 
HETATM    4  C5  UNL     1     -32.980  15.090  -3.707  1.00 20.00     0.123 C 
HETATM    5  C6  UNL     1     -35.346  15.845  -3.754  1.00 20.00     0.123 C 
HETATM    6  N7  UNL     1     -34.029  15.926  -3.134  1.00 20.00    -0.381 N 
ENDROOT
BRANCH   6   7
HETATM    7  C1  UNL     1     -33.774  16.789  -2.119  1.00 20.00     0.168 C 
HETATM    8  S8  UNL     1     -34.664  16.833  -0.713  1.00 20.00    -0.074 SA
ENDBRANCH   6   7
TORSDOF 1
ENDMDL
MODEL 3
REMARK VINA RESULT:      -3.5      0.671      1.888
REMARK  1 active torsions:
REMARK  status: ('A' for Active; 'I' for Inactive)
REMARK    1  A    between atoms: C1_1  and  N7_7 
ROOT
HETATM    1  C2  UNL     1     -34.992   4.706   5.975  1.00 20.00     0.003 C 
HETATM    2  C3  UNL     1     -34.357   6.046   6.349  1.00 20.00     0.020 C 
HETATM    3  C4  UNL     1     -35.461   4.711   4.520  1.00 20.00     0.020 C 
HETATM    4  C5  UNL     1     -33.242   6.420   5.379  1.00 20.00     0.123 C 
HETATM    5  C6  UNL     1     -34.330   5.105   3.574  1.00 20.00     0.123 C 
HETATM    6  N7  UNL     1     -33.707   6.354   3.999  1.00 20.00    -0.381 N 
ENDROOT
BRANCH   6   7
HETATM    7  C1  UNL     1     -33.509   7.379   3.133  1.00 20.00     0.168 C 
HETATM    8  S8  UNL     1     -32.017   7.768   2.506  1.00 20.00    -0.074 SA
ENDBRANCH   6   7
TORSDOF 1
ENDMDL
MODEL 4
REMARK VINA RESULT:      -3.4      9.527     10.470
REMARK  1 active torsions:
REMARK  status: ('A' for Active; 'I' for Inactive)
REMARK    1  A    between atoms: C1_1  and  N7_7 
ROOT
HETATM    1  C2  UNL     1     -41.133   7.195  -0.808  1.00 20.00     0.003 C 
HETATM    2  C3  UNL     1     -42.364   7.097  -1.710  1.00 20.00     0.020 C 
HETATM    3  C4  UNL     1     -40.863   5.865  -0.105  1.00 20.00     0.020 C 
HETATM    4  C5  UNL     1     -42.241   5.935  -2.690  1.00 20.00     0.123 C 
HETATM    5  C6  UNL     1     -40.762   4.718  -1.107  1.00 20.00     0.123 C 
HETATM    6  N7  UNL     1     -41.923   4.695  -1.990  1.00 20.00    -0.381 N 
ENDROOT
BRANCH   6   7
HETATM    7  C1  UNL     1     -42.629   3.557  -2.205  1.00 20.00     0.168 C 
HETATM    8  S8  UNL     1     -42.100   2.326  -3.191  1.00 20.00    -0.074 SA
ENDBRANCH   6   7
TORSDOF 1
ENDMDL
MODEL 5
REMARK VINA RESULT:      -3.4      9.545     10.547
REMARK  1 active torsions:
REMARK  status: ('A' for Active; 'I' for Inactive)
REMARK    1  A    between atoms: C1_1  and  N7_7 
ROOT
HETATM    1  C2  UNL     1     -41.562   7.305  -0.949  1.00 20.00     0.003 C 
HETATM    2  C3  UNL     1     -40.757   6.186  -0.288  1.00 20.00     0.020 C 
HETATM    3  C4  UNL     1     -41.842   6.982  -2.417  1.00 20.00     0.020 C 
HETATM    4  C5  UNL     1     -41.438   4.833  -0.466  1.00 20.00     0.123 C 
HETATM    5  C6  UNL     1     -42.508   5.617  -2.567  1.00 20.00     0.123 C 
HETATM    6  N7  UNL     1     -41.747   4.587  -1.871  1.00 20.00    -0.381 N 
ENDROOT
BRANCH   6   7
HETATM    7  C1  UNL     1     -41.402   3.425  -2.480  1.00 20.00     0.168 C 
HETATM    8  S8  UNL     1     -42.488   2.469  -3.304  1.00 20.00    -0.074 SA
ENDBRANCH   6   7
TORSDOF 1
ENDMDL
MODEL 6
REMARK VINA RESULT:      -3.4     12.399     13.619
REMARK  1 active torsions:
REMARK  status: ('A' for Active; 'I' for Inactive)
REMARK    1  A    between atoms: C1_1  and  N7_7 
ROOT
HETATM    1  C2  UNL     1     -34.482  13.281  -4.886  1.00 20.00     0.003 C 
HETATM    2  C3  UNL     1     -34.051  13.874  -3.544  1.00 20.00     0.020 C 
HETATM    3  C4  UNL     1     -35.051  14.363  -5.805  1.00 20.00     0.020 C 
HETATM    4  C5  UNL     1     -33.086  15.039  -3.738  1.00 20.00     0.123 C 
HETATM    5  C6  UNL     1     -34.073  15.523  -5.966  1.00 20.00     0.123 C 
HETATM    6  N7  UNL     1     -33.635  16.021  -4.667  1.00 20.00    -0.381 N 
ENDROOT
BRANCH   6   7
HETATM    7  C1  UNL     1     -33.672  17.342  -4.364  1.00 20.00     0.168 C 
HETATM    8  S8  UNL     1     -33.700  18.543  -5.516  1.00 20.00    -0.074 SA
ENDBRANCH   6   7
TORSDOF 1
ENDMDL
MODEL 7
REMARK VINA RESULT:      -3.4     12.488     12.866
REMARK  1 active torsions:
REMARK  status: ('A' for Active; 'I' for Inactive)
REMARK    1  A    between atoms: C1_1  and  N7_7 
ROOT
HETATM    1  C2  UNL     1     -34.679  15.910  -2.217  1.00 20.00     0.003 C 
HETATM    2  C3  UNL     1     -33.459  15.607  -3.088  1.00 20.00     0.020 C 
HETATM    3  C4  UNL     1     -35.961  15.903  -3.051  1.00 20.00     0.020 C 
HETATM    4  C5  UNL     1     -33.641  14.307  -3.864  1.00 20.00     0.123 C 
HETATM    5  C6  UNL     1     -36.108  14.599  -3.830  1.00 20.00     0.123 C 
HETATM    6  N7  UNL     1     -34.902  14.311  -4.597  1.00 20.00    -0.381 N 
ENDROOT
BRANCH   6   7
HETATM    7  C1  UNL     1     -34.958  13.993  -5.915  1.00 20.00     0.168 C 
HETATM    8  S8  UNL     1     -34.589  15.070  -7.130  1.00 20.00    -0.074 SA
ENDBRANCH   6   7
TORSDOF 1
ENDMDL
MODEL 8
REMARK VINA RESULT:      -3.3     12.015     13.163
REMARK  1 active torsions:
REMARK  status: ('A' for Active; 'I' for Inactive)
REMARK    1  A    between atoms: C1_1  and  N7_7 
ROOT
HETATM    1  C2  UNL     1     -34.682  14.263  -5.846  1.00 20.00     0.003 C 
HETATM    2  C3  UNL     1     -35.099  13.912  -4.416  1.00 20.00     0.020 C 
HETATM    3  C4  UNL     1     -34.328  15.745  -5.964  1.00 20.00     0.020 C 
HETATM    4  C5  UNL     1     -34.036  14.339  -3.410  1.00 20.00     0.123 C 
HETATM    5  C6  UNL     1     -33.276  16.148  -4.934  1.00 20.00     0.123 C 
HETATM    6  N7  UNL     1     -33.678  15.741  -3.592  1.00 20.00    -0.381 N 
ENDROOT
BRANCH   6   7
HETATM    7  C1  UNL     1     -33.653  16.609  -2.550  1.00 20.00     0.168 C 
HETATM    8  S8  UNL     1     -34.714  16.529  -1.270  1.00 20.00    -0.074 SA
ENDBRANCH   6   7
TORSDOF 1
ENDMDL
MODEL 9
REMARK VINA RESULT:      -3.3     12.449     13.608
REMARK  1 active torsions:
REMARK  status: ('A' for Active; 'I' for Inactive)
REMARK    1  A    between atoms: C1_1  and  N7_7 
ROOT
HETATM    1  C2  UNL     1     -33.345  13.778  -3.740  1.00 20.00     0.003 C 
HETATM    2  C3  UNL     1     -33.233  15.286  -3.508  1.00 20.00     0.020 C 
HETATM    3  C4  UNL     1     -34.636  13.434  -4.482  1.00 20.00     0.020 C 
HETATM    4  C5  UNL     1     -33.377  16.059  -4.814  1.00 20.00     0.123 C 
HETATM    5  C6  UNL     1     -34.763  14.235  -5.776  1.00 20.00     0.123 C 
HETATM    6  N7  UNL     1     -34.587  15.661  -5.524  1.00 20.00    -0.381 N 
ENDROOT
BRANCH   6   7
HETATM    7  C1  UNL     1     -35.472  16.578  -5.990  1.00 20.00     0.168 C 
HETATM    8  S8  UNL     1     -36.543  17.392  -5.010  1.00 20.00    -0.074 SA
ENDBRANCH   6   7
TORSDOF 1
ENDMDL
