MODEL 1
REMARK VINA RESULT:      -3.0      0.000      0.000
REMARK  3 active torsions:
REMARK  status: ('A' for Active; 'I' for Inactive)
REMARK    1  A    between atoms: C1_1  and  S7_7 
REMARK    2  A    between atoms: C1_1  and  S8_8 
REMARK    3  A    between atoms: C5_5  and  S8_8 
ROOT
HETATM    1  S8  UNL     1     -35.734  15.683  -3.609  1.00 20.00    -0.103 SA
ENDROOT
BRANCH   1   2
HETATM    2  C1  UNL     1     -34.762  16.916  -2.826  1.00 20.00     0.102 C 
HETATM    3  S6  UNL     1     -34.128  18.231  -3.643  1.00 20.00    -0.065 SA
BRANCH   2   4
HETATM    4  S7  UNL     1     -34.567  16.698  -1.092  1.00 20.00    -0.124 SA
HETATM    5  H18 UNL     1     -33.871  15.553  -1.151  1.00 20.00     0.108 HD
ENDBRANCH   2   4
ENDBRANCH   1   2
BRANCH   1   6
HETATM    6  C5  UNL     1     -34.391  14.786  -4.480  1.00 20.00     0.003 C 
HETATM    7  C2  UNL     1     -33.090  14.964  -3.693  1.00 20.00     0.026 C 
HETATM    8  C3  UNL     1     -34.771  13.304  -4.553  1.00 20.00     0.026 C 
HETATM    9  C4  UNL     1     -34.246  15.367  -5.889  1.00 20.00     0.026 C 
ENDBRANCH   1   6
TORSDOF 3
ENDMDL
MODEL 2
REMARK VINA RESULT:      -2.9      1.969      3.587
REMARK  3 active torsions:
REMARK  status: ('A' for Active; 'I' for Inactive)
REMARK    1  A    between atoms: C1_1  and  S7_7 
REMARK    2  A    between atoms: C1_1  and  S8_8 
REMARK    3  A    between atoms: C5_5  and  S8_8 
ROOT
HETATM    1  S8  UNL     1     -33.357  15.530  -3.464  1.00 20.00    -0.103 SA
ENDROOT
BRANCH   1   2
HETATM    2  C1  UNL     1     -34.147  14.964  -4.925  1.00 20.00     0.102 C 
HETATM    3  S6  UNL     1     -34.304  15.905  -6.299  1.00 20.00    -0.065 SA
BRANCH   2   4
HETATM    4  S7  UNL     1     -34.698  13.295  -4.856  1.00 20.00    -0.124 SA
HETATM    5  H18 UNL     1     -35.004  13.173  -6.156  1.00 20.00     0.108 HD
ENDBRANCH   2   4
ENDBRANCH   1   2
BRANCH   1   6
HETATM    6  C5  UNL     1     -34.766  16.448  -2.729  1.00 20.00     0.003 C 
HETATM    7  C2  UNL     1     -34.595  16.474  -1.207  1.00 20.00     0.026 C 
HETATM    8  C3  UNL     1     -34.757  17.874  -3.289  1.00 20.00     0.026 C 
HETATM    9  C4  UNL     1     -36.067  15.737  -3.107  1.00 20.00     0.026 C 
ENDBRANCH   1   6
TORSDOF 3
ENDMDL
MODEL 3
REMARK VINA RESULT:      -2.9      1.178      2.396
REMARK  3 active torsions:
REMARK  status: ('A' for Active; 'I' for Inactive)
REMARK    1  A    between atoms: C1_1  and  S7_7 
REMARK    2  A    between atoms: C1_1  and  S8_8 
REMARK    3  A    between atoms: C5_5  and  S8_8 
ROOT
HETATM    1  S8  UNL     1     -33.199  15.328  -3.635  1.00 20.00    -0.103 SA
ENDROOT
BRANCH   1   2
HETATM    2  C1  UNL     1     -33.937  16.706  -2.836  1.00 20.00     0.102 C 
HETATM    3  S6  UNL     1     -34.494  16.653  -1.260  1.00 20.00    -0.065 SA
BRANCH   2   4
HETATM    4  S7  UNL     1     -33.976  18.174  -3.803  1.00 20.00    -0.124 SA
HETATM    5  H18 UNL     1     -34.676  18.919  -2.935  1.00 20.00     0.108 HD
ENDBRANCH   2   4
ENDBRANCH   1   2
BRANCH   1   6
HETATM    6  C5  UNL     1     -34.674  14.709  -4.532  1.00 20.00     0.003 C 
HETATM    7  C2  UNL     1     -35.921  15.012  -3.697  1.00 20.00     0.026 C 
HETATM    8  C3  UNL     1     -34.753  15.425  -5.884  1.00 20.00     0.026 C 
HETATM    9  C4  UNL     1     -34.525  13.199  -4.740  1.00 20.00     0.026 C 
ENDBRANCH   1   6
TORSDOF 3
ENDMDL
MODEL 4
REMARK VINA RESULT:      -2.9      2.124      3.587
REMARK  3 active torsions:
REMARK  status: ('A' for Active; 'I' for Inactive)
REMARK    1  A    between atoms: C1_1  and  S7_7 
REMARK    2  A    between atoms: C1_1  and  S8_8 
REMARK    3  A    between atoms: C5_5  and  S8_8 
ROOT
HETATM    1  S8  UNL     1     -33.954  15.997  -5.310  1.00 20.00    -0.103 SA
ENDROOT
BRANCH   1   2
HETATM    2  C1  UNL     1     -35.514  15.564  -5.986  1.00 20.00     0.102 C 
HETATM    3  S6  UNL     1     -36.963  16.123  -5.363  1.00 20.00    -0.065 SA
BRANCH   2   4
HETATM    4  S7  UNL     1     -35.431  14.552  -7.421  1.00 20.00    -0.124 SA
HETATM    5  H18 UNL     1     -36.671  14.803  -7.867  1.00 20.00     0.108 HD
ENDBRANCH   2   4
ENDBRANCH   1   2
BRANCH   1   6
HETATM    6  C5  UNL     1     -33.955  14.861  -3.868  1.00 20.00     0.003 C 
HETATM    7  C2  UNL     1     -34.740  13.600  -4.237  1.00 20.00     0.026 C 
HETATM    8  C3  UNL     1     -32.502  14.505  -3.535  1.00 20.00     0.026 C 
HETATM    9  C4  UNL     1     -34.612  15.572  -2.683  1.00 20.00     0.026 C 
ENDBRANCH   1   6
TORSDOF 3
ENDMDL
MODEL 5
REMARK VINA RESULT:      -2.9      2.097      3.456
REMARK  3 active torsions:
REMARK  status: ('A' for Active; 'I' for Inactive)
REMARK    1  A    between atoms: C1_1  and  S7_7 
REMARK    2  A    between atoms: C1_1  and  S8_8 
REMARK    3  A    between atoms: C5_5  and  S8_8 
ROOT
HETATM    1  S8  UNL     1     -34.019  16.071  -5.265  1.00 20.00    -0.103 SA
ENDROOT
BRANCH   1   2
HETATM    2  C1  UNL     1     -35.543  15.555  -5.963  1.00 20.00     0.102 C 
HETATM    3  S6  UNL     1     -37.029  16.029  -5.358  1.00 20.00    -0.065 SA
BRANCH   2   4
HETATM    4  S7  UNL     1     -35.385  14.556  -7.401  1.00 20.00    -0.124 SA
HETATM    5  H18 UNL     1     -35.680  15.512  -8.294  1.00 20.00     0.108 HD
ENDBRANCH   2   4
ENDBRANCH   1   2
BRANCH   1   6
HETATM    6  C5  UNL     1     -33.959  14.909  -3.846  1.00 20.00     0.003 C 
HETATM    7  C2  UNL     1     -32.496  14.567  -3.552  1.00 20.00     0.026 C 
HETATM    8  C3  UNL     1     -34.599  15.594  -2.634  1.00 20.00     0.026 C 
HETATM    9  C4  UNL     1     -34.739  13.644  -4.214  1.00 20.00     0.026 C 
ENDBRANCH   1   6
TORSDOF 3
ENDMDL
MODEL 6
REMARK VINA RESULT:      -2.8      1.946      3.331
REMARK  3 active torsions:
REMARK  status: ('A' for Active; 'I' for Inactive)
REMARK    1  A    between atoms: C1_1  and  S7_7 
REMARK    2  A    between atoms: C1_1  and  S8_8 
REMARK    3  A    between atoms: C5_5  and  S8_8 
ROOT
HETATM    1  S8  UNL     1     -35.764  16.148  -4.642  1.00 20.00    -0.103 SA
ENDROOT
BRANCH   1   2
HETATM    2  C1  UNL     1     -34.873  16.287  -6.147  1.00 20.00     0.102 C 
HETATM    3  S6  UNL     1     -34.621  14.995  -7.179  1.00 20.00    -0.065 SA
BRANCH   2   4
HETATM    4  S7  UNL     1     -34.326  17.916  -6.522  1.00 20.00    -0.124 SA
HETATM    5  H18 UNL     1     -34.321  17.780  -7.857  1.00 20.00     0.108 HD
ENDBRANCH   2   4
ENDBRANCH   1   2
BRANCH   1   6
HETATM    6  C5  UNL     1     -34.442  15.406  -3.608  1.00 20.00     0.003 C 
HETATM    7  C2  UNL     1     -33.083  15.858  -4.149  1.00 20.00     0.026 C 
HETATM    8  C3  UNL     1     -34.628  15.891  -2.167  1.00 20.00     0.026 C 
HETATM    9  C4  UNL     1     -34.563  13.882  -3.675  1.00 20.00     0.026 C 
ENDBRANCH   1   6
TORSDOF 3
ENDMDL
MODEL 7
REMARK VINA RESULT:      -2.8      1.293      2.240
REMARK  3 active torsions:
REMARK  status: ('A' for Active; 'I' for Inactive)
REMARK    1  A    between atoms: C1_1  and  S7_7 
REMARK    2  A    between atoms: C1_1  and  S8_8 
REMARK    3  A    between atoms: C5_5  and  S8_8 
ROOT
HETATM    1  S8  UNL     1     -33.762  16.458  -4.244  1.00 20.00    -0.103 SA
ENDROOT
BRANCH   1   2
HETATM    2  C1  UNL     1     -34.786  17.002  -2.927  1.00 20.00     0.102 C 
HETATM    3  S6  UNL     1     -34.516  16.579  -1.331  1.00 20.00    -0.065 SA
BRANCH   2   4
HETATM    4  S7  UNL     1     -36.079  18.091  -3.410  1.00 20.00    -0.124 SA
HETATM    5  H18 UNL     1     -36.853  17.169  -4.000  1.00 20.00     0.108 HD
ENDBRANCH   2   4
ENDBRANCH   1   2
BRANCH   1   6
HETATM    6  C5  UNL     1     -34.445  14.766  -4.442  1.00 20.00     0.003 C 
HETATM    7  C2  UNL     1     -34.575  14.461  -5.937  1.00 20.00     0.026 C 
HETATM    8  C3  UNL     1     -33.481  13.777  -3.779  1.00 20.00     0.026 C 
HETATM    9  C4  UNL     1     -35.816  14.707  -3.763  1.00 20.00     0.026 C 
ENDBRANCH   1   6
TORSDOF 3
ENDMDL
MODEL 8
REMARK VINA RESULT:      -2.8      1.979      3.510
REMARK  3 active torsions:
REMARK  status: ('A' for Active; 'I' for Inactive)
REMARK    1  A    between atoms: C1_1  and  S7_7 
REMARK    2  A    between atoms: C1_1  and  S8_8 
REMARK    3  A    between atoms: C5_5  and  S8_8 
ROOT
HETATM    1  S8  UNL     1     -35.896  15.989  -4.442  1.00 20.00    -0.103 SA
ENDROOT
BRANCH   1   2
HETATM    2  C1  UNL     1     -35.260  16.000  -6.077  1.00 20.00     0.102 C 
HETATM    3  S6  UNL     1     -35.091  14.614  -6.997  1.00 20.00    -0.065 SA
BRANCH   2   4
HETATM    4  S7  UNL     1     -34.881  17.600  -6.701  1.00 20.00    -0.124 SA
HETATM    5  H18 UNL     1     -33.735  17.769  -6.025  1.00 20.00     0.108 HD
ENDBRANCH   2   4
ENDBRANCH   1   2
BRANCH   1   6
HETATM    6  C5  UNL     1     -34.385  15.430  -3.563  1.00 20.00     0.003 C 
HETATM    7  C2  UNL     1     -34.349  13.899  -3.575  1.00 20.00     0.026 C 
HETATM    8  C3  UNL     1     -33.164  15.996  -4.294  1.00 20.00     0.026 C 
HETATM    9  C4  UNL     1     -34.432  15.952  -2.125  1.00 20.00     0.026 C 
ENDBRANCH   1   6
TORSDOF 3
ENDMDL
MODEL 9
REMARK VINA RESULT:      -2.8      2.378      2.658
REMARK  3 active torsions:
REMARK  status: ('A' for Active; 'I' for Inactive)
REMARK    1  A    between atoms: C1_1  and  S7_7 
REMARK    2  A    between atoms: C1_1  and  S8_8 
REMARK    3  A    between atoms: C5_5  and  S8_8 
ROOT
HETATM    1  S8  UNL     1     -35.320  14.517  -5.259  1.00 20.00    -0.103 SA
ENDROOT
BRANCH   1   2
HETATM    2  C1  UNL     1     -36.589  15.644  -4.812  1.00 20.00     0.102 C 
HETATM    3  S6  UNL     1     -36.554  17.265  -5.224  1.00 20.00    -0.065 SA
BRANCH   2   4
HETATM    4  S7  UNL     1     -37.943  14.915  -3.958  1.00 20.00    -0.124 SA
HETATM    5  H18 UNL     1     -38.306  14.065  -4.930  1.00 20.00     0.108 HD
ENDBRANCH   2   4
ENDBRANCH   1   2
BRANCH   1   6
HETATM    6  C5  UNL     1     -34.074  14.994  -4.000  1.00 20.00     0.003 C 
HETATM    7  C2  UNL     1     -34.805  15.473  -2.742  1.00 20.00     0.026 C 
HETATM    8  C3  UNL     1     -33.216  13.766  -3.682  1.00 20.00     0.026 C 
HETATM    9  C4  UNL     1     -33.203  16.116  -4.570  1.00 20.00     0.026 C 
ENDBRANCH   1   6
TORSDOF 3
ENDMDL
