MODEL 1
REMARK VINA RESULT:      -3.1      0.000      0.000
REMARK  1 active torsions:
REMARK  status: ('A' for Active; 'I' for Inactive)
REMARK    1  A    between atoms: C3_3  and  C4_4 
ROOT
HETATM    1  C1  UNL     1     -34.750   3.926   5.329  1.00 20.00     0.033 C 
HETATM    2  C2  UNL     1     -34.281   6.338   5.865  1.00 20.00     0.033 C 
HETATM    3  C4  UNL     1     -34.473   5.314   4.741  1.00 20.00     0.042 C 
HETATM    4 CL6  UNL     1     -35.937   5.807   3.801  1.00 20.00    -0.119 Cl
ENDROOT
BRANCH   3   5
HETATM    5  C3  UNL     1     -33.289   5.302   3.760  1.00 20.00     0.139 C 
HETATM    6 CL5  UNL     1     -32.733   6.931   3.292  1.00 20.00    -0.129 Cl
ENDBRANCH   3   5
TORSDOF 1
ENDMDL
MODEL 2
REMARK VINA RESULT:      -3.1      1.352      1.868
REMARK  1 active torsions:
REMARK  status: ('A' for Active; 'I' for Inactive)
REMARK    1  A    between atoms: C3_3  and  C4_4 
ROOT
HETATM    1  C1  UNL     1     -35.760   5.751   3.925  1.00 20.00     0.033 C 
HETATM    2  C2  UNL     1     -34.737   3.943   5.343  1.00 20.00     0.033 C 
HETATM    3  C4  UNL     1     -34.498   5.299   4.668  1.00 20.00     0.042 C 
HETATM    4 CL6  UNL     1     -34.177   6.506   5.977  1.00 20.00    -0.119 Cl
ENDROOT
BRANCH   3   5
HETATM    5  C3  UNL     1     -33.261   5.282   3.755  1.00 20.00     0.139 C 
HETATM    6 CL5  UNL     1     -32.547   6.895   3.491  1.00 20.00    -0.129 Cl
ENDBRANCH   3   5
TORSDOF 1
ENDMDL
MODEL 3
REMARK VINA RESULT:      -3.0      2.130      2.700
REMARK  1 active torsions:
REMARK  status: ('A' for Active; 'I' for Inactive)
REMARK    1  A    between atoms: C3_3  and  C4_4 
ROOT
HETATM    1  C1  UNL     1     -36.073   5.929   3.625  1.00 20.00     0.033 C 
HETATM    2  C2  UNL     1     -33.911   5.032   2.705  1.00 20.00     0.033 C 
HETATM    3  C4  UNL     1     -34.679   5.400   3.979  1.00 20.00     0.042 C 
HETATM    4 CL6  UNL     1     -34.902   3.881   4.937  1.00 20.00    -0.119 Cl
ENDROOT
BRANCH   3   5
HETATM    5  C3  UNL     1     -33.895   6.382   4.866  1.00 20.00     0.139 C 
HETATM    6 CL5  UNL     1     -34.245   6.209   6.606  1.00 20.00    -0.129 Cl
ENDBRANCH   3   5
TORSDOF 1
ENDMDL
MODEL 4
REMARK VINA RESULT:      -3.0      1.982      2.264
REMARK  1 active torsions:
REMARK  status: ('A' for Active; 'I' for Inactive)
REMARK    1  A    between atoms: C3_3  and  C4_4 
ROOT
HETATM    1  C1  UNL     1     -34.871   4.110   4.916  1.00 20.00     0.033 C 
HETATM    2  C2  UNL     1     -36.064   5.937   3.665  1.00 20.00     0.033 C 
HETATM    3  C4  UNL     1     -34.696   5.374   4.068  1.00 20.00     0.042 C 
HETATM    4 CL6  UNL     1     -33.838   4.894   2.549  1.00 20.00    -0.119 Cl
ENDROOT
BRANCH   3   5
HETATM    5  C3  UNL     1     -33.820   6.426   4.768  1.00 20.00     0.139 C 
HETATM    6 CL5  UNL     1     -34.074   6.509   6.531  1.00 20.00    -0.129 Cl
ENDBRANCH   3   5
TORSDOF 1
ENDMDL
MODEL 5
REMARK VINA RESULT:      -2.9      1.685      2.294
REMARK  1 active torsions:
REMARK  status: ('A' for Active; 'I' for Inactive)
REMARK    1  A    between atoms: C3_3  and  C4_4 
ROOT
HETATM    1  C1  UNL     1     -33.938   4.991   2.683  1.00 20.00     0.033 C 
HETATM    2  C2  UNL     1     -34.905   4.115   4.833  1.00 20.00     0.033 C 
HETATM    3  C4  UNL     1     -34.652   5.367   3.986  1.00 20.00     0.042 C 
HETATM    4 CL6  UNL     1     -36.264   6.058   3.542  1.00 20.00    -0.119 Cl
ENDROOT
BRANCH   3   5
HETATM    5  C3  UNL     1     -33.895   6.454   4.769  1.00 20.00     0.139 C 
HETATM    6 CL5  UNL     1     -34.164   6.382   6.530  1.00 20.00    -0.129 Cl
ENDBRANCH   3   5
TORSDOF 1
ENDMDL
MODEL 6
REMARK VINA RESULT:      -2.9     11.972     12.733
REMARK  1 active torsions:
REMARK  status: ('A' for Active; 'I' for Inactive)
REMARK    1  A    between atoms: C3_3  and  C4_4 
ROOT
HETATM    1  C1  UNL     1     -33.490  13.705  -3.778  1.00 20.00     0.033 C 
HETATM    2  C2  UNL     1     -35.747  14.804  -3.639  1.00 20.00     0.033 C 
HETATM    3  C4  UNL     1     -34.246  15.037  -3.840  1.00 20.00     0.042 C 
HETATM    4 CL6  UNL     1     -34.018  15.714  -5.502  1.00 20.00    -0.119 Cl
ENDROOT
BRANCH   3   5
HETATM    5  C3  UNL     1     -33.682  16.070  -2.850  1.00 20.00     0.139 C 
HETATM    6 CL5  UNL     1     -34.655  16.242  -1.365  1.00 20.00    -0.129 Cl
ENDBRANCH   3   5
TORSDOF 1
ENDMDL
MODEL 7
REMARK VINA RESULT:      -2.9     12.189     12.787
REMARK  1 active torsions:
REMARK  status: ('A' for Active; 'I' for Inactive)
REMARK    1  A    between atoms: C3_3  and  C4_4 
ROOT
HETATM    1  C1  UNL     1     -35.678  14.733  -3.650  1.00 20.00     0.033 C 
HETATM    2  C2  UNL     1     -34.055  15.625  -5.352  1.00 20.00     0.033 C 
HETATM    3  C4  UNL     1     -34.220  15.127  -3.912  1.00 20.00     0.042 C 
HETATM    4 CL6  UNL     1     -33.214  13.634  -3.734  1.00 20.00    -0.119 Cl
ENDROOT
BRANCH   3   5
HETATM    5  C3  UNL     1     -33.701  16.147  -2.884  1.00 20.00     0.139 C 
HETATM    6 CL5  UNL     1     -34.677  16.217  -1.393  1.00 20.00    -0.129 Cl
ENDBRANCH   3   5
TORSDOF 1
ENDMDL
MODEL 8
REMARK VINA RESULT:      -2.9     12.358     13.005
REMARK  1 active torsions:
REMARK  status: ('A' for Active; 'I' for Inactive)
REMARK    1  A    between atoms: C3_3  and  C4_4 
ROOT
HETATM    1  C1  UNL     1     -34.679  14.535  -5.731  1.00 20.00     0.033 C 
HETATM    2  C2  UNL     1     -33.197  16.227  -4.607  1.00 20.00     0.033 C 
HETATM    3  C4  UNL     1     -34.124  15.026  -4.389  1.00 20.00     0.042 C 
HETATM    4 CL6  UNL     1     -33.125  13.689  -3.692  1.00 20.00    -0.119 Cl
ENDROOT
BRANCH   3   5
HETATM    5  C3  UNL     1     -35.240  15.332  -3.376  1.00 20.00     0.139 C 
HETATM    6 CL5  UNL     1     -34.640  15.989  -1.830  1.00 20.00    -0.129 Cl
ENDBRANCH   3   5
TORSDOF 1
ENDMDL
MODEL 9
REMARK VINA RESULT:      -2.8     12.184     12.995
REMARK  1 active torsions:
REMARK  status: ('A' for Active; 'I' for Inactive)
REMARK    1  A    between atoms: C3_3  and  C4_4 
ROOT
HETATM    1  C1  UNL     1     -34.870  15.526  -2.667  1.00 20.00     0.033 C 
HETATM    2  C2  UNL     1     -34.841  13.453  -4.090  1.00 20.00     0.033 C 
HETATM    3  C4  UNL     1     -34.258  14.858  -3.903  1.00 20.00     0.042 C 
HETATM    4 CL6  UNL     1     -32.484  14.673  -3.599  1.00 20.00    -0.119 Cl
ENDROOT
BRANCH   3   5
HETATM    5  C3  UNL     1     -34.412  15.723  -5.165  1.00 20.00     0.139 C 
HETATM    6 CL5  UNL     1     -34.425  14.780  -6.679  1.00 20.00    -0.129 Cl
ENDBRANCH   3   5
TORSDOF 1
ENDMDL
