MODEL 1
REMARK VINA RESULT:      -5.1      0.000      0.000
REMARK  2 active torsions:
REMARK  status: ('A' for Active; 'I' for Inactive)
REMARK    1  A    between atoms: C1_1  and  C8_8 
REMARK    2  A    between atoms: C8_8  and  O10_10 
ROOT
HETATM    1  C1  UNL     1     -34.201  15.975  -2.412  1.00 20.00    -0.069 C 
HETATM    2  C2  UNL     1     -34.395  16.544  -1.372  1.00 20.00    -0.108 C 
HETATM    3  C9  UNL     1     -34.633  17.237  -0.106  1.00 20.00     0.112 C 
ENDROOT
BRANCH   1   4
HETATM    4  C8  UNL     1     -33.962  15.278  -3.687  1.00 20.00     0.121 C 
HETATM    5  C6  UNL     1     -34.740  13.953  -3.713  1.00 20.00     0.051 C 
HETATM    6  C4  UNL     1     -34.622  13.236  -5.060  1.00 20.00     0.004 C 
HETATM    7  C3  UNL     1     -35.032  14.142  -6.217  1.00 20.00     0.000 C 
HETATM    8  C5  UNL     1     -34.248  15.450  -6.211  1.00 20.00     0.004 C 
HETATM    9  C7  UNL     1     -34.368  16.173  -4.869  1.00 20.00     0.051 C 
BRANCH   4  10
HETATM   10  O10 UNL     1     -32.570  14.971  -3.789  1.00 20.00    -0.378 OA
HETATM   11  H24 UNL     1     -32.094  15.776  -3.535  1.00 20.00     0.211 HD
ENDBRANCH   4  10
ENDBRANCH   1   4
TORSDOF 2
ENDMDL
MODEL 2
REMARK VINA RESULT:      -4.8     11.021     12.210
REMARK  2 active torsions:
REMARK  status: ('A' for Active; 'I' for Inactive)
REMARK    1  A    between atoms: C1_1  and  C8_8 
REMARK    2  A    between atoms: C8_8  and  O10_10 
ROOT
HETATM    1  C1  UNL     1     -32.792   7.337   2.812  1.00 20.00    -0.069 C 
HETATM    2  C2  UNL     1     -32.474   8.209   2.049  1.00 20.00    -0.108 C 
HETATM    3  C9  UNL     1     -32.088   9.270   1.120  1.00 20.00     0.112 C 
ENDROOT
BRANCH   1   4
HETATM    4  C8  UNL     1     -33.181   6.268   3.748  1.00 20.00     0.121 C 
HETATM    5  C6  UNL     1     -33.371   6.849   5.157  1.00 20.00     0.051 C 
HETATM    6  C4  UNL     1     -33.887   5.805   6.151  1.00 20.00     0.004 C 
HETATM    7  C3  UNL     1     -35.163   5.135   5.652  1.00 20.00     0.000 C 
HETATM    8  C5  UNL     1     -34.976   4.537   4.261  1.00 20.00     0.004 C 
HETATM    9  C7  UNL     1     -34.467   5.578   3.263  1.00 20.00     0.051 C 
BRANCH   4  10
HETATM   10  O10 UNL     1     -32.128   5.304   3.808  1.00 20.00    -0.378 OA
HETATM   11  H24 UNL     1     -31.921   5.068   2.891  1.00 20.00     0.211 HD
ENDBRANCH   4  10
ENDBRANCH   1   4
TORSDOF 2
ENDMDL
MODEL 3
REMARK VINA RESULT:      -4.7     12.071     13.792
REMARK  2 active torsions:
REMARK  status: ('A' for Active; 'I' for Inactive)
REMARK    1  A    between atoms: C1_1  and  C8_8 
REMARK    2  A    between atoms: C8_8  and  O10_10 
ROOT
HETATM    1  C1  UNL     1     -41.808   3.332  -2.592  1.00 20.00    -0.069 C 
HETATM    2  C2  UNL     1     -41.664   2.365  -3.289  1.00 20.00    -0.108 C 
HETATM    3  C9  UNL     1     -41.490   1.186  -4.137  1.00 20.00     0.112 C 
ENDROOT
BRANCH   1   4
HETATM    4  C8  UNL     1     -41.983   4.518  -1.736  1.00 20.00     0.121 C 
HETATM    5  C6  UNL     1     -40.709   4.765  -0.914  1.00 20.00     0.051 C 
HETATM    6  C4  UNL     1     -40.789   6.051  -0.089  1.00 20.00     0.004 C 
HETATM    7  C3  UNL     1     -41.129   7.257  -0.959  1.00 20.00     0.000 C 
HETATM    8  C5  UNL     1     -42.405   7.029  -1.763  1.00 20.00     0.004 C 
HETATM    9  C7  UNL     1     -42.327   5.747  -2.593  1.00 20.00     0.051 C 
BRANCH   4  10
HETATM   10  O10 UNL     1     -43.055   4.272  -0.823  1.00 20.00    -0.378 OA
HETATM   11  H24 UNL     1     -43.611   3.592  -1.232  1.00 20.00     0.211 HD
ENDBRANCH   4  10
ENDBRANCH   1   4
TORSDOF 2
ENDMDL
MODEL 4
REMARK VINA RESULT:      -4.7      1.599      2.189
REMARK  2 active torsions:
REMARK  status: ('A' for Active; 'I' for Inactive)
REMARK    1  A    between atoms: C1_1  and  C8_8 
REMARK    2  A    between atoms: C8_8  and  O10_10 
ROOT
HETATM    1  C1  UNL     1     -35.021  16.083  -2.127  1.00 20.00    -0.069 C 
HETATM    2  C2  UNL     1     -34.677  16.731  -1.176  1.00 20.00    -0.108 C 
HETATM    3  C9  UNL     1     -34.259  17.520  -0.018  1.00 20.00     0.112 C 
ENDROOT
BRANCH   1   4
HETATM    4  C8  UNL     1     -35.442  15.287  -3.293  1.00 20.00     0.121 C 
HETATM    5  C6  UNL     1     -35.449  16.167  -4.552  1.00 20.00     0.051 C 
HETATM    6  C4  UNL     1     -35.770  15.368  -5.818  1.00 20.00     0.004 C 
HETATM    7  C3  UNL     1     -34.835  14.174  -5.981  1.00 20.00     0.000 C 
HETATM    8  C5  UNL     1     -34.839  13.283  -4.743  1.00 20.00     0.004 C 
HETATM    9  C7  UNL     1     -34.513  14.077  -3.477  1.00 20.00     0.051 C 
BRANCH   4  10
HETATM   10  O10 UNL     1     -36.777  14.823  -3.074  1.00 20.00    -0.378 OA
HETATM   11  H24 UNL     1     -37.306  15.606  -2.857  1.00 20.00     0.211 HD
ENDBRANCH   4  10
ENDBRANCH   1   4
TORSDOF 2
ENDMDL
MODEL 5
REMARK VINA RESULT:      -4.5     12.165     13.942
REMARK  2 active torsions:
REMARK  status: ('A' for Active; 'I' for Inactive)
REMARK    1  A    between atoms: C1_1  and  C8_8 
REMARK    2  A    between atoms: C8_8  and  O10_10 
ROOT
HETATM    1  C1  UNL     1     -41.575   3.466  -2.463  1.00 20.00    -0.069 C 
HETATM    2  C2  UNL     1     -41.565   2.515  -3.196  1.00 20.00    -0.108 C 
HETATM    3  C9  UNL     1     -41.554   1.356  -4.089  1.00 20.00     0.112 C 
ENDROOT
BRANCH   1   4
HETATM    4  C8  UNL     1     -41.586   4.632  -1.564  1.00 20.00     0.121 C 
HETATM    5  C6  UNL     1     -42.024   5.886  -2.337  1.00 20.00     0.051 C 
HETATM    6  C4  UNL     1     -42.164   7.110  -1.428  1.00 20.00     0.004 C 
HETATM    7  C3  UNL     1     -43.093   6.832  -0.250  1.00 20.00     0.000 C 
HETATM    8  C5  UNL     1     -42.652   5.601   0.536  1.00 20.00     0.004 C 
HETATM    9  C7  UNL     1     -42.516   4.375  -0.368  1.00 20.00     0.051 C 
BRANCH   4  10
HETATM   10  O10 UNL     1     -40.258   4.855  -1.083  1.00 20.00    -0.378 OA
HETATM   11  H24 UNL     1     -39.707   5.011  -1.866  1.00 20.00     0.211 HD
ENDBRANCH   4  10
ENDBRANCH   1   4
TORSDOF 2
ENDMDL
MODEL 6
REMARK VINA RESULT:      -4.4      1.576      1.882
REMARK  2 active torsions:
REMARK  status: ('A' for Active; 'I' for Inactive)
REMARK    1  A    between atoms: C1_1  and  C8_8 
REMARK    2  A    between atoms: C8_8  and  O10_10 
ROOT
HETATM    1  C1  UNL     1     -34.729  16.505  -1.588  1.00 20.00    -0.069 C 
HETATM    2  C2  UNL     1     -34.674  17.049  -0.518  1.00 20.00    -0.108 C 
HETATM    3  C9  UNL     1     -34.608  17.711   0.784  1.00 20.00     0.112 C 
ENDROOT
BRANCH   1   4
HETATM    4  C8  UNL     1     -34.796  15.839  -2.900  1.00 20.00     0.121 C 
HETATM    5  C6  UNL     1     -33.713  14.752  -2.991  1.00 20.00     0.051 C 
HETATM    6  C4  UNL     1     -33.806  13.947  -4.290  1.00 20.00     0.004 C 
HETATM    7  C3  UNL     1     -35.200  13.359  -4.489  1.00 20.00     0.000 C 
HETATM    8  C5  UNL     1     -36.279  14.435  -4.421  1.00 20.00     0.004 C 
HETATM    9  C7  UNL     1     -36.193  15.238  -3.122  1.00 20.00     0.051 C 
BRANCH   4  10
HETATM   10  O10 UNL     1     -34.535  16.805  -3.920  1.00 20.00    -0.378 OA
HETATM   11  H24 UNL     1     -33.595  16.723  -4.141  1.00 20.00     0.211 HD
ENDBRANCH   4  10
ENDBRANCH   1   4
TORSDOF 2
ENDMDL
MODEL 7
REMARK VINA RESULT:      -4.3     11.385     12.576
REMARK  2 active torsions:
REMARK  status: ('A' for Active; 'I' for Inactive)
REMARK    1  A    between atoms: C1_1  and  C8_8 
REMARK    2  A    between atoms: C8_8  and  O10_10 
ROOT
HETATM    1  C1  UNL     1     -33.165   7.114   3.129  1.00 20.00    -0.069 C 
HETATM    2  C2  UNL     1     -32.410   7.679   2.385  1.00 20.00    -0.108 C 
HETATM    3  C9  UNL     1     -31.491   8.367   1.478  1.00 20.00     0.112 C 
ENDROOT
BRANCH   1   4
HETATM    4  C8  UNL     1     -34.091   6.421   4.041  1.00 20.00     0.121 C 
HETATM    5  C6  UNL     1     -34.253   4.956   3.610  1.00 20.00     0.051 C 
HETATM    6  C4  UNL     1     -35.117   4.154   4.587  1.00 20.00     0.004 C 
HETATM    7  C3  UNL     1     -34.591   4.257   6.016  1.00 20.00     0.000 C 
HETATM    8  C5  UNL     1     -34.447   5.709   6.459  1.00 20.00     0.004 C 
HETATM    9  C7  UNL     1     -33.581   6.512   5.488  1.00 20.00     0.051 C 
BRANCH   4  10
HETATM   10  O10 UNL     1     -35.373   7.048   3.958  1.00 20.00    -0.378 OA
HETATM   11  H24 UNL     1     -35.858   6.785   4.754  1.00 20.00     0.211 HD
ENDBRANCH   4  10
ENDBRANCH   1   4
TORSDOF 2
ENDMDL
MODEL 8
REMARK VINA RESULT:      -4.0     10.824     12.265
REMARK  2 active torsions:
REMARK  status: ('A' for Active; 'I' for Inactive)
REMARK    1  A    between atoms: C1_1  and  C8_8 
REMARK    2  A    between atoms: C8_8  and  O10_10 
ROOT
HETATM    1  C1  UNL     1     -42.373   7.652  -3.360  1.00 20.00    -0.069 C 
HETATM    2  C2  UNL     1     -42.452   8.386  -4.308  1.00 20.00    -0.108 C 
HETATM    3  C9  UNL     1     -42.548   9.279  -5.462  1.00 20.00     0.112 C 
ENDROOT
BRANCH   1   4
HETATM    4  C8  UNL     1     -42.276   6.753  -2.197  1.00 20.00     0.121 C 
HETATM    5  C6  UNL     1     -42.291   5.289  -2.664  1.00 20.00     0.051 C 
HETATM    6  C4  UNL     1     -42.079   4.308  -1.508  1.00 20.00     0.004 C 
HETATM    7  C3  UNL     1     -40.809   4.628  -0.725  1.00 20.00     0.000 C 
HETATM    8  C5  UNL     1     -40.797   6.073  -0.240  1.00 20.00     0.004 C 
HETATM    9  C7  UNL     1     -41.003   7.057  -1.393  1.00 20.00     0.051 C 
BRANCH   4  10
HETATM   10  O10 UNL     1     -43.417   6.959  -1.361  1.00 20.00    -0.378 OA
HETATM   11  H24 UNL     1     -43.081   7.297  -0.518  1.00 20.00     0.211 HD
ENDBRANCH   4  10
ENDBRANCH   1   4
TORSDOF 2
ENDMDL
MODEL 9
REMARK VINA RESULT:      -4.0      1.837      3.865
REMARK  2 active torsions:
REMARK  status: ('A' for Active; 'I' for Inactive)
REMARK    1  A    between atoms: C1_1  and  C8_8 
REMARK    2  A    between atoms: C8_8  and  O10_10 
ROOT
HETATM    1  C1  UNL     1     -34.079  17.196  -6.263  1.00 20.00    -0.069 C 
HETATM    2  C2  UNL     1     -34.214  18.128  -7.009  1.00 20.00    -0.108 C 
HETATM    3  C9  UNL     1     -34.378  19.262  -7.917  1.00 20.00     0.112 C 
ENDROOT
BRANCH   1   4
HETATM    4  C8  UNL     1     -33.914  16.054  -5.348  1.00 20.00     0.121 C 
HETATM    5  C6  UNL     1     -34.643  16.333  -4.025  1.00 20.00     0.051 C 
HETATM    6  C4  UNL     1     -34.602  15.134  -3.074  1.00 20.00     0.004 C 
HETATM    7  C3  UNL     1     -35.131  13.868  -3.743  1.00 20.00     0.000 C 
HETATM    8  C5  UNL     1     -34.398  13.572  -5.047  1.00 20.00     0.004 C 
HETATM    9  C7  UNL     1     -34.441  14.766  -6.001  1.00 20.00     0.051 C 
BRANCH   4  10
HETATM   10  O10 UNL     1     -32.523  15.895  -5.058  1.00 20.00    -0.378 OA
HETATM   11  H24 UNL     1     -32.111  15.560  -5.869  1.00 20.00     0.211 HD
ENDBRANCH   4  10
ENDBRANCH   1   4
TORSDOF 2
ENDMDL
