MODEL 1
REMARK VINA RESULT:      -5.0      0.000      0.000
REMARK  0 active torsions:
REMARK  status: ('A' for Active; 'I' for Inactive)
ROOT
HETATM    1  C1  UNL     1     -37.229  14.844  -3.954  1.00 20.00     0.064 C 
HETATM    2  C2  UNL     1     -33.104  16.008  -4.464  1.00 20.00     0.005 C 
HETATM    3  C3  UNL     1     -33.731  13.679  -3.800  1.00 20.00     0.005 C 
HETATM    4  C4  UNL     1     -33.997  15.881  -5.706  1.00 20.00     0.006 C 
HETATM    5  C5  UNL     1     -34.645  13.574  -5.028  1.00 20.00     0.006 C 
HETATM    6  C6  UNL     1     -35.075  15.613  -2.966  1.00 20.00     0.024 C 
HETATM    7  C7  UNL     1     -35.977  15.575  -4.216  1.00 20.00     0.097 C 
HETATM    8  C8  UNL     1     -33.652  15.138  -3.320  1.00 20.00    -0.013 C 
HETATM    9  C9  UNL     1     -35.198  14.964  -5.406  1.00 20.00     0.003 C 
HETATM   10  N10 UNL     1     -38.215  14.269  -3.746  1.00 20.00    -0.197 NA
ENDROOT
TORSDOF 0
ENDMDL
MODEL 2
REMARK VINA RESULT:      -4.9      1.763      3.115
REMARK  0 active torsions:
REMARK  status: ('A' for Active; 'I' for Inactive)
ROOT
HETATM    1  C1  UNL     1     -34.445  13.558  -4.179  1.00 20.00     0.064 C 
HETATM    2  C2  UNL     1     -33.761  17.356  -2.246  1.00 20.00     0.005 C 
HETATM    3  C3  UNL     1     -35.096  17.187  -4.354  1.00 20.00     0.005 C 
HETATM    4  C4  UNL     1     -34.706  16.346  -1.581  1.00 20.00     0.006 C 
HETATM    5  C5  UNL     1     -36.016  16.154  -3.690  1.00 20.00     0.006 C 
HETATM    6  C6  UNL     1     -33.141  15.674  -3.998  1.00 20.00     0.024 C 
HETATM    7  C7  UNL     1     -34.025  14.639  -3.271  1.00 20.00     0.097 C 
HETATM    8  C8  UNL     1     -33.681  17.097  -3.760  1.00 20.00    -0.013 C 
HETATM    9  C9  UNL     1     -35.240  15.350  -2.627  1.00 20.00     0.003 C 
HETATM   10  N10 UNL     1     -34.776  12.708  -4.895  1.00 20.00    -0.197 NA
ENDROOT
TORSDOF 0
ENDMDL
MODEL 3
REMARK VINA RESULT:      -4.6      1.995      2.968
REMARK  0 active torsions:
REMARK  status: ('A' for Active; 'I' for Inactive)
ROOT
HETATM    1  C1  UNL     1     -34.802  16.204  -1.610  1.00 20.00     0.064 C 
HETATM    2  C2  UNL     1     -35.059  14.624  -5.618  1.00 20.00     0.005 C 
HETATM    3  C3  UNL     1     -33.198  16.148  -4.933  1.00 20.00     0.005 C 
HETATM    4  C4  UNL     1     -34.688  13.675  -4.470  1.00 20.00     0.006 C 
HETATM    5  C5  UNL     1     -32.855  15.208  -3.769  1.00 20.00     0.006 C 
HETATM    6  C6  UNL     1     -35.487  16.481  -3.990  1.00 20.00     0.024 C 
HETATM    7  C7  UNL     1     -35.198  15.495  -2.839  1.00 20.00     0.097 C 
HETATM    8  C8  UNL     1     -34.701  16.074  -5.251  1.00 20.00    -0.013 C 
HETATM    9  C9  UNL     1     -34.121  14.475  -3.282  1.00 20.00     0.003 C 
HETATM   10  N10 UNL     1     -34.491  16.763  -0.643  1.00 20.00    -0.197 NA
ENDROOT
TORSDOF 0
ENDMDL
MODEL 4
REMARK VINA RESULT:      -4.6      2.147      3.326
REMARK  0 active torsions:
REMARK  status: ('A' for Active; 'I' for Inactive)
ROOT
HETATM    1  C1  UNL     1     -34.025  16.940  -1.884  1.00 20.00     0.064 C 
HETATM    2  C2  UNL     1     -34.921  13.550  -4.400  1.00 20.00     0.005 C 
HETATM    3  C3  UNL     1     -34.774  15.865  -5.334  1.00 20.00     0.005 C 
HETATM    4  C4  UNL     1     -33.501  13.700  -3.837  1.00 20.00     0.006 C 
HETATM    5  C5  UNL     1     -33.367  16.017  -4.741  1.00 20.00     0.006 C 
HETATM    6  C6  UNL     1     -35.702  15.507  -3.043  1.00 20.00     0.024 C 
HETATM    7  C7  UNL     1     -34.294  15.594  -2.417  1.00 20.00     0.097 C 
HETATM    8  C8  UNL     1     -35.619  14.919  -4.464  1.00 20.00    -0.013 C 
HETATM    9  C9  UNL     1     -33.232  15.169  -3.459  1.00 20.00     0.003 C 
HETATM   10  N10 UNL     1     -33.814  18.001  -1.464  1.00 20.00    -0.197 NA
ENDROOT
TORSDOF 0
ENDMDL
MODEL 5
REMARK VINA RESULT:      -4.5      0.995      2.209
REMARK  0 active torsions:
REMARK  status: ('A' for Active; 'I' for Inactive)
ROOT
HETATM    1  C1  UNL     1     -37.023  14.537  -4.010  1.00 20.00     0.064 C 
HETATM    2  C2  UNL     1     -33.052  16.138  -4.553  1.00 20.00     0.005 C 
HETATM    3  C3  UNL     1     -34.693  17.216  -3.004  1.00 20.00     0.005 C 
HETATM    4  C4  UNL     1     -33.220  14.816  -3.791  1.00 20.00     0.006 C 
HETATM    5  C5  UNL     1     -34.877  15.882  -2.269  1.00 20.00     0.006 C 
HETATM    6  C6  UNL     1     -35.493  16.159  -5.122  1.00 20.00     0.024 C 
HETATM    7  C7  UNL     1     -35.633  14.788  -4.429  1.00 20.00     0.097 C 
HETATM    8  C8  UNL     1     -34.346  16.965  -4.481  1.00 20.00    -0.013 C 
HETATM    9  C9  UNL     1     -34.652  14.702  -3.235  1.00 20.00     0.003 C 
HETATM   10  N10 UNL     1     -38.117  14.340  -3.680  1.00 20.00    -0.197 NA
ENDROOT
TORSDOF 0
ENDMDL
MODEL 6
REMARK VINA RESULT:      -4.5      1.704      2.676
REMARK  0 active torsions:
REMARK  status: ('A' for Active; 'I' for Inactive)
ROOT
HETATM    1  C1  UNL     1     -35.402  16.715  -6.039  1.00 20.00     0.064 C 
HETATM    2  C2  UNL     1     -33.275  13.765  -3.715  1.00 20.00     0.005 C 
HETATM    3  C3  UNL     1     -34.546  15.621  -2.620  1.00 20.00     0.005 C 
HETATM    4  C4  UNL     1     -34.551  13.344  -4.456  1.00 20.00     0.006 C 
HETATM    5  C5  UNL     1     -35.809  15.211  -3.390  1.00 20.00     0.006 C 
HETATM    6  C6  UNL     1     -33.362  16.032  -4.781  1.00 20.00     0.024 C 
HETATM    7  C7  UNL     1     -34.593  15.569  -5.588  1.00 20.00     0.097 C 
HETATM    8  C8  UNL     1     -33.290  15.279  -3.439  1.00 20.00    -0.013 C 
HETATM    9  C9  UNL     1     -35.429  14.577  -4.744  1.00 20.00     0.003 C 
HETATM   10  N10 UNL     1     -36.038  17.618  -6.394  1.00 20.00    -0.197 NA
ENDROOT
TORSDOF 0
ENDMDL
MODEL 7
REMARK VINA RESULT:      -4.4      1.896      2.680
REMARK  0 active torsions:
REMARK  status: ('A' for Active; 'I' for Inactive)
ROOT
HETATM    1  C1  UNL     1     -34.398  16.330  -1.956  1.00 20.00     0.064 C 
HETATM    2  C2  UNL     1     -34.397  14.805  -5.993  1.00 20.00     0.005 C 
HETATM    3  C3  UNL     1     -35.484  13.548  -4.124  1.00 20.00     0.005 C 
HETATM    4  C4  UNL     1     -35.267  16.025  -5.663  1.00 20.00     0.006 C 
HETATM    5  C5  UNL     1     -36.327  14.784  -3.782  1.00 20.00     0.006 C 
HETATM    6  C6  UNL     1     -33.398  14.853  -3.695  1.00 20.00     0.024 C 
HETATM    7  C7  UNL     1     -34.211  16.131  -3.403  1.00 20.00     0.097 C 
HETATM    8  C8  UNL     1     -34.135  13.975  -4.725  1.00 20.00    -0.013 C 
HETATM    9  C9  UNL     1     -35.564  16.072  -4.152  1.00 20.00     0.003 C 
HETATM   10  N10 UNL     1     -34.546  16.486  -0.816  1.00 20.00    -0.197 NA
ENDROOT
TORSDOF 0
ENDMDL
MODEL 8
REMARK VINA RESULT:      -4.4     11.074     12.568
REMARK  0 active torsions:
REMARK  status: ('A' for Active; 'I' for Inactive)
ROOT
HETATM    1  C1  UNL     1     -42.236   3.459  -2.278  1.00 20.00     0.064 C 
HETATM    2  C2  UNL     1     -41.187   7.369  -0.780  1.00 20.00     0.005 C 
HETATM    3  C3  UNL     1     -43.416   6.343  -0.300  1.00 20.00     0.005 C 
HETATM    4  C4  UNL     1     -40.502   6.135  -0.174  1.00 20.00     0.006 C 
HETATM    5  C5  UNL     1     -42.723   5.101   0.275  1.00 20.00     0.006 C 
HETATM    6  C6  UNL     1     -42.312   5.940  -2.504  1.00 20.00     0.024 C 
HETATM    7  C7  UNL     1     -41.551   4.720  -1.943  1.00 20.00     0.097 C 
HETATM    8  C8  UNL     1     -42.543   6.981  -1.393  1.00 20.00    -0.013 C 
HETATM    9  C9  UNL     1     -41.361   4.880  -0.416  1.00 20.00     0.003 C 
HETATM   10  N10 UNL     1     -42.775   2.467  -2.541  1.00 20.00    -0.197 NA
ENDROOT
TORSDOF 0
ENDMDL
MODEL 9
REMARK VINA RESULT:      -4.3      1.734      2.518
REMARK  0 active torsions:
REMARK  status: ('A' for Active; 'I' for Inactive)
ROOT
HETATM    1  C1  UNL     1     -35.103  13.701  -4.166  1.00 20.00     0.064 C 
HETATM    2  C2  UNL     1     -34.929  17.951  -3.436  1.00 20.00     0.005 C 
HETATM    3  C3  UNL     1     -33.326  16.828  -4.993  1.00 20.00     0.005 C 
HETATM    4  C4  UNL     1     -36.100  17.387  -4.254  1.00 20.00     0.006 C 
HETATM    5  C5  UNL     1     -34.503  16.243  -5.785  1.00 20.00     0.006 C 
HETATM    6  C6  UNL     1     -34.112  15.634  -2.944  1.00 20.00     0.024 C 
HETATM    7  C7  UNL     1     -35.340  15.076  -3.693  1.00 20.00     0.097 C 
HETATM    8  C8  UNL     1     -33.717  17.008  -3.516  1.00 20.00    -0.013 C 
HETATM    9  C9  UNL     1     -35.716  16.023  -4.858  1.00 20.00     0.003 C 
HETATM   10  N10 UNL     1     -34.915  12.618  -4.537  1.00 20.00    -0.197 NA
ENDROOT
TORSDOF 0
ENDMDL
