MODEL 1
REMARK VINA RESULT:      -4.6      0.000      0.000
REMARK  0 active torsions:
REMARK  status: ('A' for Active; 'I' for Inactive)
ROOT
HETATM    1  C1  UNL     1     -36.914  14.923  -3.810  1.00 20.00     0.064 C 
HETATM    2  C2  UNL     1     -33.488  13.728  -3.808  1.00 20.00     0.005 C 
HETATM    3  C3  UNL     1     -34.414  13.798  -5.031  1.00 20.00     0.006 C 
HETATM    4  C4  UNL     1     -34.753  15.589  -2.715  1.00 20.00     0.024 C 
HETATM    5  C5  UNL     1     -33.452  15.939  -4.689  1.00 20.00     0.010 C 
HETATM    6  C6  UNL     1     -35.689  15.719  -3.933  1.00 20.00     0.097 C 
HETATM    7  C7  UNL     1     -33.407  15.195  -3.354  1.00 20.00    -0.013 C 
HETATM    8  C8  UNL     1     -34.778  15.295  -5.107  1.00 20.00     0.003 C 
HETATM    9  N9  UNL     1     -37.883  14.293  -3.712  1.00 20.00    -0.197 NA
ENDROOT
TORSDOF 0
ENDMDL
MODEL 2
REMARK VINA RESULT:      -4.5      1.567      2.911
REMARK  0 active torsions:
REMARK  status: ('A' for Active; 'I' for Inactive)
ROOT
HETATM    1  C1  UNL     1     -34.304  13.673  -4.062  1.00 20.00     0.064 C 
HETATM    2  C2  UNL     1     -35.373  17.141  -4.027  1.00 20.00     0.005 C 
HETATM    3  C3  UNL     1     -35.877  16.036  -3.088  1.00 20.00     0.006 C 
HETATM    4  C4  UNL     1     -33.212  15.918  -4.340  1.00 20.00     0.024 C 
HETATM    5  C5  UNL     1     -33.828  16.871  -2.237  1.00 20.00     0.010 C 
HETATM    6  C6  UNL     1     -33.661  14.800  -3.380  1.00 20.00     0.097 C 
HETATM    7  C7  UNL     1     -33.864  17.177  -3.735  1.00 20.00    -0.013 C 
HETATM    8  C8  UNL     1     -34.587  15.550  -2.396  1.00 20.00     0.003 C 
HETATM    9  N9  UNL     1     -34.812  12.781  -4.603  1.00 20.00    -0.197 NA
ENDROOT
TORSDOF 0
ENDMDL
MODEL 3
REMARK VINA RESULT:      -4.4      0.877      2.133
REMARK  0 active torsions:
REMARK  status: ('A' for Active; 'I' for Inactive)
ROOT
HETATM    1  C1  UNL     1     -36.499  14.300  -4.082  1.00 20.00     0.064 C 
HETATM    2  C2  UNL     1     -33.982  16.838  -3.457  1.00 20.00     0.005 C 
HETATM    3  C3  UNL     1     -34.483  15.802  -2.441  1.00 20.00     0.006 C 
HETATM    4  C4  UNL     1     -34.576  15.308  -5.345  1.00 20.00     0.024 C 
HETATM    5  C5  UNL     1     -32.828  14.785  -3.802  1.00 20.00     0.010 C 
HETATM    6  C6  UNL     1     -35.063  14.224  -4.364  1.00 20.00     0.097 C 
HETATM    7  C7  UNL     1     -33.407  15.964  -4.584  1.00 20.00    -0.013 C 
HETATM    8  C8  UNL     1     -34.165  14.458  -3.128  1.00 20.00     0.003 C 
HETATM    9  N9  UNL     1     -37.636  14.361  -3.858  1.00 20.00    -0.197 NA
ENDROOT
TORSDOF 0
ENDMDL
MODEL 4
REMARK VINA RESULT:      -4.1      1.628      2.310
REMARK  0 active torsions:
REMARK  status: ('A' for Active; 'I' for Inactive)
ROOT
HETATM    1  C1  UNL     1     -34.937  13.649  -4.136  1.00 20.00     0.064 C 
HETATM    2  C2  UNL     1     -33.309  16.712  -5.201  1.00 20.00     0.005 C 
HETATM    3  C3  UNL     1     -34.596  16.125  -5.798  1.00 20.00     0.006 C 
HETATM    4  C4  UNL     1     -33.777  15.578  -3.021  1.00 20.00     0.024 C 
HETATM    5  C5  UNL     1     -35.159  17.344  -3.844  1.00 20.00     0.010 C 
HETATM    6  C6  UNL     1     -35.093  14.990  -3.565  1.00 20.00     0.097 C 
HETATM    7  C7  UNL     1     -33.688  16.944  -3.729  1.00 20.00    -0.013 C 
HETATM    8  C8  UNL     1     -35.546  16.060  -4.584  1.00 20.00     0.003 C 
HETATM    9  N9  UNL     1     -34.814  12.588  -4.588  1.00 20.00    -0.197 NA
ENDROOT
TORSDOF 0
ENDMDL
MODEL 5
REMARK VINA RESULT:      -4.1      1.662      2.717
REMARK  0 active torsions:
REMARK  status: ('A' for Active; 'I' for Inactive)
ROOT
HETATM    1  C1  UNL     1     -34.597  13.790  -4.899  1.00 20.00     0.064 C 
HETATM    2  C2  UNL     1     -34.876  16.842  -2.956  1.00 20.00     0.005 C 
HETATM    3  C3  UNL     1     -33.675  15.886  -2.959  1.00 20.00     0.006 C 
HETATM    4  C4  UNL     1     -35.494  16.107  -5.267  1.00 20.00     0.024 C 
HETATM    5  C5  UNL     1     -33.490  17.333  -4.827  1.00 20.00     0.010 C 
HETATM    6  C6  UNL     1     -34.283  15.155  -5.329  1.00 20.00     0.097 C 
HETATM    7  C7  UNL     1     -34.965  17.286  -4.426  1.00 20.00    -0.013 C 
HETATM    8  C8  UNL     1     -33.243  15.872  -4.439  1.00 20.00     0.003 C 
HETATM    9  N9  UNL     1     -34.846  12.709  -4.558  1.00 20.00    -0.197 NA
ENDROOT
TORSDOF 0
ENDMDL
MODEL 6
REMARK VINA RESULT:      -4.1      1.982      2.748
REMARK  0 active torsions:
REMARK  status: ('A' for Active; 'I' for Inactive)
ROOT
HETATM    1  C1  UNL     1     -34.970  14.696  -6.711  1.00 20.00     0.064 C 
HETATM    2  C2  UNL     1     -32.800  14.840  -3.806  1.00 20.00     0.005 C 
HETATM    3  C3  UNL     1     -33.431  16.046  -4.516  1.00 20.00     0.006 C 
HETATM    4  C4  UNL     1     -34.663  13.370  -4.601  1.00 20.00     0.024 C 
HETATM    5  C5  UNL     1     -35.029  15.128  -3.024  1.00 20.00     0.010 C 
HETATM    6  C6  UNL     1     -35.351  14.557  -5.303  1.00 20.00     0.097 C 
HETATM    7  C7  UNL     1     -34.025  14.025  -3.359  1.00 20.00    -0.013 C 
HETATM    8  C8  UNL     1     -34.943  15.756  -4.418  1.00 20.00     0.003 C 
HETATM    9  N9  UNL     1     -34.668  14.807  -7.826  1.00 20.00    -0.197 NA
ENDROOT
TORSDOF 0
ENDMDL
MODEL 7
REMARK VINA RESULT:      -4.1     11.602     12.680
REMARK  0 active torsions:
REMARK  status: ('A' for Active; 'I' for Inactive)
ROOT
HETATM    1  C1  UNL     1     -42.180   3.589  -2.230  1.00 20.00     0.064 C 
HETATM    2  C2  UNL     1     -43.057   6.278   0.044  1.00 20.00     0.005 C 
HETATM    3  C3  UNL     1     -42.555   4.885   0.451  1.00 20.00     0.006 C 
HETATM    4  C4  UNL     1     -41.882   6.082  -2.156  1.00 20.00     0.024 C 
HETATM    5  C5  UNL     1     -40.681   6.232  -0.095  1.00 20.00     0.010 C 
HETATM    6  C6  UNL     1     -41.328   4.694  -1.781  1.00 20.00     0.097 C 
HETATM    7  C7  UNL     1     -41.898   6.825  -0.806  1.00 20.00    -0.013 C 
HETATM    8  C8  UNL     1     -41.182   4.792  -0.245  1.00 20.00     0.003 C 
HETATM    9  N9  UNL     1     -42.855   2.715  -2.586  1.00 20.00    -0.197 NA
ENDROOT
TORSDOF 0
ENDMDL
MODEL 8
REMARK VINA RESULT:      -4.1      1.914      2.887
REMARK  0 active torsions:
REMARK  status: ('A' for Active; 'I' for Inactive)
ROOT
HETATM    1  C1  UNL     1     -33.639  16.173  -2.741  1.00 20.00     0.064 C 
HETATM    2  C2  UNL     1     -36.069  13.921  -4.222  1.00 20.00     0.005 C 
HETATM    3  C3  UNL     1     -36.026  15.445  -4.409  1.00 20.00     0.006 C 
HETATM    4  C4  UNL     1     -33.608  13.884  -3.775  1.00 20.00     0.024 C 
HETATM    5  C5  UNL     1     -34.490  14.455  -5.921  1.00 20.00     0.010 C 
HETATM    6  C6  UNL     1     -33.508  15.407  -3.984  1.00 20.00     0.097 C 
HETATM    7  C7  UNL     1     -34.707  13.469  -4.773  1.00 20.00    -0.013 C 
HETATM    8  C8  UNL     1     -34.627  15.682  -5.014  1.00 20.00     0.003 C 
HETATM    9  N9  UNL     1     -33.743  16.779  -1.758  1.00 20.00    -0.197 NA
ENDROOT
TORSDOF 0
ENDMDL
MODEL 9
REMARK VINA RESULT:      -4.1     11.260     12.565
REMARK  0 active torsions:
REMARK  status: ('A' for Active; 'I' for Inactive)
ROOT
HETATM    1  C1  UNL     1     -42.999   4.181  -2.713  1.00 20.00     0.064 C 
HETATM    2  C2  UNL     1     -41.217   6.983  -1.250  1.00 20.00     0.005 C 
HETATM    3  C3  UNL     1     -42.743   6.830  -1.326  1.00 20.00     0.006 C 
HETATM    4  C4  UNL     1     -40.944   4.496  -1.304  1.00 20.00     0.024 C 
HETATM    5  C5  UNL     1     -41.957   5.612   0.550  1.00 20.00     0.010 C 
HETATM    6  C6  UNL     1     -42.471   4.291  -1.351  1.00 20.00     0.097 C 
HETATM    7  C7  UNL     1     -40.791   5.755  -0.428  1.00 20.00    -0.013 C 
HETATM    8  C8  UNL     1     -43.001   5.512  -0.567  1.00 20.00     0.003 C 
HETATM    9  N9  UNL     1     -43.417   4.094  -3.792  1.00 20.00    -0.197 NA
ENDROOT
TORSDOF 0
ENDMDL
