MODEL 1
REMARK VINA RESULT:      -4.0      0.000      0.000
REMARK  2 active torsions:
REMARK  status: ('A' for Active; 'I' for Inactive)
REMARK    1  A    between atoms: C4_4  and  C5_5 
REMARK    2  A    between atoms: C4_4  and  C6_6 
ROOT
HETATM    1  C1  UNL     1     -34.553  13.734  -4.268  1.00 20.00     0.068 C 
HETATM    2  C2  UNL     1     -32.514  14.928  -3.611  1.00 20.00     0.031 C 
HETATM    3  C3  UNL     1     -34.215  16.037  -5.070  1.00 20.00     0.031 C 
HETATM    4  C6  UNL     1     -34.023  15.066  -3.895  1.00 20.00     0.043 C 
HETATM    5  N7  UNL     1     -34.968  12.691  -4.561  1.00 20.00    -0.196 NA
ENDROOT
BRANCH   4   6
HETATM    6  C4  UNL     1     -34.720  15.580  -2.608  1.00 20.00     0.039 C 
BRANCH   6   7
HETATM    7  C5  UNL     1     -33.943  16.642  -1.831  1.00 20.00     0.116 C 
HETATM    8 CL8  UNL     1     -34.722  16.942  -0.256  1.00 20.00    -0.130 Cl
ENDBRANCH   6   7
ENDBRANCH   4   6
TORSDOF 2
ENDMDL
MODEL 2
REMARK VINA RESULT:      -3.9     11.724     12.344
REMARK  2 active torsions:
REMARK  status: ('A' for Active; 'I' for Inactive)
REMARK    1  A    between atoms: C4_4  and  C5_5 
REMARK    2  A    between atoms: C4_4  and  C6_6 
ROOT
HETATM    1  C1  UNL     1     -34.232   6.145   5.550  1.00 20.00     0.068 C 
HETATM    2  C2  UNL     1     -34.722   3.911   4.665  1.00 20.00     0.031 C 
HETATM    3  C3  UNL     1     -35.908   5.918   3.761  1.00 20.00     0.031 C 
HETATM    4  C6  UNL     1     -34.569   5.403   4.312  1.00 20.00     0.043 C 
HETATM    5  N7  UNL     1     -33.968   6.726   6.518  1.00 20.00    -0.196 NA
ENDROOT
BRANCH   4   6
HETATM    6  C4  UNL     1     -33.429   5.549   3.271  1.00 20.00     0.039 C 
BRANCH   6   7
HETATM    7  C5  UNL     1     -32.373   6.600   3.611  1.00 20.00     0.116 C 
HETATM    8 CL8  UNL     1     -32.227   7.776   2.279  1.00 20.00    -0.130 Cl
ENDBRANCH   6   7
ENDBRANCH   4   6
TORSDOF 2
ENDMDL
MODEL 3
REMARK VINA RESULT:      -3.8      1.660      2.005
REMARK  2 active torsions:
REMARK  status: ('A' for Active; 'I' for Inactive)
REMARK    1  A    between atoms: C4_4  and  C5_5 
REMARK    2  A    between atoms: C4_4  and  C6_6 
ROOT
HETATM    1  C1  UNL     1     -36.763  14.452  -3.988  1.00 20.00     0.068 C 
HETATM    2  C2  UNL     1     -34.742  13.231  -4.648  1.00 20.00     0.031 C 
HETATM    3  C3  UNL     1     -35.139  15.557  -5.472  1.00 20.00     0.031 C 
HETATM    4  C6  UNL     1     -35.318  14.611  -4.275  1.00 20.00     0.043 C 
HETATM    5  N7  UNL     1     -37.894  14.328  -3.762  1.00 20.00    -0.196 NA
ENDROOT
BRANCH   4   6
HETATM    6  C4  UNL     1     -34.574  15.132  -3.018  1.00 20.00     0.039 C 
BRANCH   6   7
HETATM    7  C5  UNL     1     -35.155  16.405  -2.405  1.00 20.00     0.116 C 
HETATM    8 CL8  UNL     1     -34.639  16.559  -0.705  1.00 20.00    -0.130 Cl
ENDBRANCH   6   7
ENDBRANCH   4   6
TORSDOF 2
ENDMDL
MODEL 4
REMARK VINA RESULT:      -3.7      2.661      3.354
REMARK  2 active torsions:
REMARK  status: ('A' for Active; 'I' for Inactive)
REMARK    1  A    between atoms: C4_4  and  C5_5 
REMARK    2  A    between atoms: C4_4  and  C6_6 
ROOT
HETATM    1  C1  UNL     1     -34.709  13.792  -4.065  1.00 20.00     0.068 C 
HETATM    2  C2  UNL     1     -34.853  15.604  -2.421  1.00 20.00     0.031 C 
HETATM    3  C3  UNL     1     -32.725  15.194  -3.666  1.00 20.00     0.031 C 
HETATM    4  C6  UNL     1     -34.257  15.173  -3.774  1.00 20.00     0.043 C 
HETATM    5  N7  UNL     1     -35.062  12.711  -4.293  1.00 20.00    -0.196 NA
ENDROOT
BRANCH   4   6
HETATM    6  C4  UNL     1     -34.766  16.146  -4.869  1.00 20.00     0.039 C 
BRANCH   6   7
HETATM    7  C5  UNL     1     -33.877  16.247  -6.108  1.00 20.00     0.116 C 
HETATM    8 CL8  UNL     1     -34.369  15.033  -7.317  1.00 20.00    -0.130 Cl
ENDBRANCH   6   7
ENDBRANCH   4   6
TORSDOF 2
ENDMDL
MODEL 5
REMARK VINA RESULT:      -3.7      1.658      2.241
REMARK  2 active torsions:
REMARK  status: ('A' for Active; 'I' for Inactive)
REMARK    1  A    between atoms: C4_4  and  C5_5 
REMARK    2  A    between atoms: C4_4  and  C6_6 
ROOT
HETATM    1  C1  UNL     1     -34.718  13.840  -4.983  1.00 20.00     0.068 C 
HETATM    2  C2  UNL     1     -34.396  15.029  -7.102  1.00 20.00     0.031 C 
HETATM    3  C3  UNL     1     -35.944  15.940  -5.364  1.00 20.00     0.031 C 
HETATM    4  C6  UNL     1     -34.622  15.189  -5.587  1.00 20.00     0.043 C 
HETATM    5  N7  UNL     1     -34.792  12.783  -4.510  1.00 20.00    -0.196 NA
ENDROOT
BRANCH   4   6
HETATM    6  C4  UNL     1     -33.418  15.961  -4.988  1.00 20.00     0.039 C 
BRANCH   6   7
HETATM    7  C5  UNL     1     -33.778  16.990  -3.917  1.00 20.00     0.116 C 
HETATM    8 CL8  UNL     1     -33.853  16.210  -2.316  1.00 20.00    -0.130 Cl
ENDBRANCH   6   7
ENDBRANCH   4   6
TORSDOF 2
ENDMDL
MODEL 6
REMARK VINA RESULT:      -3.6      3.357      4.088
REMARK  2 active torsions:
REMARK  status: ('A' for Active; 'I' for Inactive)
REMARK    1  A    between atoms: C4_4  and  C5_5 
REMARK    2  A    between atoms: C4_4  and  C6_6 
ROOT
HETATM    1  C1  UNL     1     -36.782  14.461  -4.008  1.00 20.00     0.068 C 
HETATM    2  C2  UNL     1     -34.663  15.232  -3.045  1.00 20.00     0.031 C 
HETATM    3  C3  UNL     1     -34.716  13.236  -4.549  1.00 20.00     0.031 C 
HETATM    4  C6  UNL     1     -35.335  14.618  -4.288  1.00 20.00     0.043 C 
HETATM    5  N7  UNL     1     -37.914  14.339  -3.790  1.00 20.00    -0.196 NA
ENDROOT
BRANCH   4   6
HETATM    6  C4  UNL     1     -35.121  15.576  -5.489  1.00 20.00     0.039 C 
BRANCH   6   7
HETATM    7  C5  UNL     1     -34.415  14.955  -6.693  1.00 20.00     0.116 C 
HETATM    8 CL8  UNL     1     -35.615  14.391  -7.884  1.00 20.00    -0.130 Cl
ENDBRANCH   6   7
ENDBRANCH   4   6
TORSDOF 2
ENDMDL
MODEL 7
REMARK VINA RESULT:      -3.6      2.389      3.025
REMARK  2 active torsions:
REMARK  status: ('A' for Active; 'I' for Inactive)
REMARK    1  A    between atoms: C4_4  and  C5_5 
REMARK    2  A    between atoms: C4_4  and  C6_6 
ROOT
HETATM    1  C1  UNL     1     -36.448  14.580  -3.776  1.00 20.00     0.068 C 
HETATM    2  C2  UNL     1     -34.744  15.747  -2.456  1.00 20.00     0.031 C 
HETATM    3  C3  UNL     1     -34.184  13.623  -3.649  1.00 20.00     0.031 C 
HETATM    4  C6  UNL     1     -35.007  14.918  -3.728  1.00 20.00     0.043 C 
HETATM    5  N7  UNL     1     -37.577  14.315  -3.814  1.00 20.00    -0.196 NA
ENDROOT
BRANCH   4   6
HETATM    6  C4  UNL     1     -34.614  15.771  -4.962  1.00 20.00     0.039 C 
BRANCH   6   7
HETATM    7  C5  UNL     1     -33.257  16.466  -4.863  1.00 20.00     0.116 C 
HETATM    8 CL8  UNL     1     -33.436  18.211  -5.180  1.00 20.00    -0.130 Cl
ENDBRANCH   6   7
ENDBRANCH   4   6
TORSDOF 2
ENDMDL
MODEL 8
REMARK VINA RESULT:      -3.6      1.794      2.402
REMARK  2 active torsions:
REMARK  status: ('A' for Active; 'I' for Inactive)
REMARK    1  A    between atoms: C4_4  and  C5_5 
REMARK    2  A    between atoms: C4_4  and  C6_6 
ROOT
HETATM    1  C1  UNL     1     -33.604  16.001  -4.686  1.00 20.00     0.068 C 
HETATM    2  C2  UNL     1     -35.461  14.409  -4.842  1.00 20.00     0.031 C 
HETATM    3  C3  UNL     1     -33.332  13.760  -3.704  1.00 20.00     0.031 C 
HETATM    4  C6  UNL     1     -34.307  14.919  -3.958  1.00 20.00     0.043 C 
HETATM    5  N7  UNL     1     -33.053  16.848  -5.255  1.00 20.00    -0.196 NA
ENDROOT
BRANCH   4   6
HETATM    6  C4  UNL     1     -34.905  15.463  -2.634  1.00 20.00     0.039 C 
BRANCH   6   7
HETATM    7  C5  UNL     1     -34.060  16.525  -1.931  1.00 20.00     0.116 C 
HETATM    8 CL8  UNL     1     -34.708  16.846  -0.302  1.00 20.00    -0.130 Cl
ENDBRANCH   6   7
ENDBRANCH   4   6
TORSDOF 2
ENDMDL
MODEL 9
REMARK VINA RESULT:      -3.6     12.303     13.242
REMARK  2 active torsions:
REMARK  status: ('A' for Active; 'I' for Inactive)
REMARK    1  A    between atoms: C4_4  and  C5_5 
REMARK    2  A    between atoms: C4_4  and  C6_6 
ROOT
HETATM    1  C1  UNL     1     -42.754   5.100  -2.878  1.00 20.00     0.068 C 
HETATM    2  C2  UNL     1     -43.176   3.541  -1.034  1.00 20.00     0.031 C 
HETATM    3  C3  UNL     1     -41.695   2.879  -2.936  1.00 20.00     0.031 C 
HETATM    4  C6  UNL     1     -42.128   4.050  -2.041  1.00 20.00     0.043 C 
HETATM    5  N7  UNL     1     -43.245   5.922  -3.533  1.00 20.00    -0.196 NA
ENDROOT
BRANCH   4   6
HETATM    6  C4  UNL     1     -40.930   4.638  -1.250  1.00 20.00     0.039 C 
BRANCH   6   7
HETATM    7  C5  UNL     1     -41.301   5.668  -0.184  1.00 20.00     0.116 C 
HETATM    8 CL8  UNL     1     -40.987   7.316  -0.787  1.00 20.00    -0.130 Cl
ENDBRANCH   6   7
ENDBRANCH   4   6
TORSDOF 2
ENDMDL
