MODEL 1
REMARK VINA RESULT:      -5.8      0.000      0.000
REMARK  3 active torsions:
REMARK  status: ('A' for Active; 'I' for Inactive)
REMARK    1  A    between atoms: C5_5  and  C7_7 
REMARK    2  A    between atoms: C6_6  and  C8_8 
REMARK    3  A    between atoms: C7_7  and  C8_8 
ROOT
HETATM    1  C1  UNL     1     -32.045   7.003   3.324  1.00 20.00     0.012 C 
HETATM    2  C3  UNL     1     -32.966   6.280   3.057  1.00 20.00    -0.117 C 
HETATM    3  C5  UNL     1     -34.090   5.395   2.724  1.00 20.00     0.093 C 
ENDROOT
BRANCH   3   4
HETATM    4  C7  UNL     1     -35.168   5.392   3.811  1.00 20.00     0.013 C 
BRANCH   4   5
HETATM    5  C8  UNL     1     -35.011   4.227   4.800  1.00 20.00     0.013 C 
BRANCH   5   6
HETATM    6  C6  UNL     1     -35.044   4.682   6.260  1.00 20.00     0.093 C 
HETATM    7  C4  UNL     1     -34.327   5.948   6.466  1.00 20.00    -0.117 C 
HETATM    8  C2  UNL     1     -33.740   6.981   6.640  1.00 20.00     0.012 C 
ENDBRANCH   5   6
ENDBRANCH   4   5
ENDBRANCH   3   4
TORSDOF 3
ENDMDL
MODEL 2
REMARK VINA RESULT:      -5.8      0.027      3.307
REMARK  3 active torsions:
REMARK  status: ('A' for Active; 'I' for Inactive)
REMARK    1  A    between atoms: C5_5  and  C7_7 
REMARK    2  A    between atoms: C6_6  and  C8_8 
REMARK    3  A    between atoms: C7_7  and  C8_8 
ROOT
HETATM    1  C1  UNL     1     -33.715   6.979   6.653  1.00 20.00     0.012 C 
HETATM    2  C3  UNL     1     -34.324   5.958   6.480  1.00 20.00    -0.117 C 
HETATM    3  C5  UNL     1     -35.069   4.708   6.276  1.00 20.00     0.093 C 
ENDROOT
BRANCH   3   4
HETATM    4  C7  UNL     1     -35.041   4.248   4.817  1.00 20.00     0.013 C 
BRANCH   4   5
HETATM    5  C8  UNL     1     -35.174   5.412   3.824  1.00 20.00     0.013 C 
BRANCH   5   6
HETATM    6  C6  UNL     1     -34.094   5.392   2.741  1.00 20.00     0.093 C 
HETATM    7  C4  UNL     1     -32.962   6.270   3.067  1.00 20.00    -0.117 C 
HETATM    8  C2  UNL     1     -32.035   6.988   3.328  1.00 20.00     0.012 C 
ENDBRANCH   5   6
ENDBRANCH   4   5
ENDBRANCH   3   4
TORSDOF 3
ENDMDL
MODEL 3
REMARK VINA RESULT:      -5.2      1.312      2.573
REMARK  3 active torsions:
REMARK  status: ('A' for Active; 'I' for Inactive)
REMARK    1  A    between atoms: C5_5  and  C7_7 
REMARK    2  A    between atoms: C6_6  and  C8_8 
REMARK    3  A    between atoms: C7_7  and  C8_8 
ROOT
HETATM    1  C1  UNL     1     -32.215   9.064   1.176  1.00 20.00     0.012 C 
HETATM    2  C3  UNL     1     -32.058   8.202   1.998  1.00 20.00    -0.117 C 
HETATM    3  C5  UNL     1     -31.860   7.147   3.002  1.00 20.00     0.093 C 
ENDROOT
BRANCH   3   4
HETATM    4  C7  UNL     1     -33.158   6.786   3.728  1.00 20.00     0.013 C 
BRANCH   4   5
HETATM    5  C8  UNL     1     -33.932   5.655   3.034  1.00 20.00     0.013 C 
BRANCH   5   6
HETATM    6  C6  UNL     1     -35.258   5.334   3.728  1.00 20.00     0.093 C 
HETATM    7  C4  UNL     1     -35.067   4.886   5.114  1.00 20.00    -0.117 C 
HETATM    8  C2  UNL     1     -34.917   4.518   6.247  1.00 20.00     0.012 C 
ENDBRANCH   5   6
ENDBRANCH   4   5
ENDBRANCH   3   4
TORSDOF 3
ENDMDL
MODEL 4
REMARK VINA RESULT:      -5.2      1.309      4.199
REMARK  3 active torsions:
REMARK  status: ('A' for Active; 'I' for Inactive)
REMARK    1  A    between atoms: C5_5  and  C7_7 
REMARK    2  A    between atoms: C6_6  and  C8_8 
REMARK    3  A    between atoms: C7_7  and  C8_8 
ROOT
HETATM    1  C1  UNL     1     -34.829   4.627   6.272  1.00 20.00     0.012 C 
HETATM    2  C3  UNL     1     -34.986   4.937   5.122  1.00 20.00    -0.117 C 
HETATM    3  C5  UNL     1     -35.184   5.315   3.716  1.00 20.00     0.093 C 
ENDROOT
BRANCH   3   4
HETATM    4  C7  UNL     1     -33.866   5.650   3.014  1.00 20.00     0.013 C 
BRANCH   4   5
HETATM    5  C8  UNL     1     -33.057   6.726   3.753  1.00 20.00     0.013 C 
BRANCH   5   6
HETATM    6  C6  UNL     1     -31.796   7.143   2.994  1.00 20.00     0.093 C 
HETATM    7  C4  UNL     1     -32.054   8.226   2.036  1.00 20.00    -0.117 C 
HETATM    8  C2  UNL     1     -32.261   9.110   1.249  1.00 20.00     0.012 C 
ENDBRANCH   5   6
ENDBRANCH   4   5
ENDBRANCH   3   4
TORSDOF 3
ENDMDL
MODEL 5
REMARK VINA RESULT:      -5.1      1.513      4.461
REMARK  3 active torsions:
REMARK  status: ('A' for Active; 'I' for Inactive)
REMARK    1  A    between atoms: C5_5  and  C7_7 
REMARK    2  A    between atoms: C6_6  and  C8_8 
REMARK    3  A    between atoms: C7_7  and  C8_8 
ROOT
HETATM    1  C1  UNL     1     -35.102   3.957   5.981  1.00 20.00     0.012 C 
HETATM    2  C3  UNL     1     -34.595   5.000   5.671  1.00 20.00    -0.117 C 
HETATM    3  C5  UNL     1     -33.974   6.278   5.297  1.00 20.00     0.093 C 
ENDROOT
BRANCH   3   4
HETATM    4  C7  UNL     1     -33.967   6.499   3.783  1.00 20.00     0.013 C 
BRANCH   4   5
HETATM    5  C8  UNL     1     -32.590   6.246   3.152  1.00 20.00     0.013 C 
BRANCH   5   6
HETATM    6  C6  UNL     1     -31.716   7.501   3.117  1.00 20.00     0.093 C 
HETATM    7  C4  UNL     1     -31.965   8.322   1.924  1.00 20.00    -0.117 C 
HETATM    8  C2  UNL     1     -32.165   8.995   0.951  1.00 20.00     0.012 C 
ENDBRANCH   5   6
ENDBRANCH   4   5
ENDBRANCH   3   4
TORSDOF 3
ENDMDL
MODEL 6
REMARK VINA RESULT:      -4.9      1.249      2.396
REMARK  3 active torsions:
REMARK  status: ('A' for Active; 'I' for Inactive)
REMARK    1  A    between atoms: C5_5  and  C7_7 
REMARK    2  A    between atoms: C6_6  and  C8_8 
REMARK    3  A    between atoms: C7_7  and  C8_8 
ROOT
HETATM    1  C1  UNL     1     -32.124   8.850   1.687  1.00 20.00     0.012 C 
HETATM    2  C3  UNL     1     -32.191   7.819   2.299  1.00 20.00    -0.117 C 
HETATM    3  C5  UNL     1     -32.268   6.554   3.043  1.00 20.00     0.093 C 
ENDROOT
BRANCH   3   4
HETATM    4  C7  UNL     1     -33.517   6.475   3.925  1.00 20.00     0.013 C 
BRANCH   4   5
HETATM    5  C8  UNL     1     -33.253   6.922   5.370  1.00 20.00     0.013 C 
BRANCH   5   6
HETATM    6  C6  UNL     1     -34.246   6.319   6.366  1.00 20.00     0.093 C 
HETATM    7  C4  UNL     1     -34.661   4.962   5.987  1.00 20.00    -0.117 C 
HETATM    8  C2  UNL     1     -35.005   3.853   5.680  1.00 20.00     0.012 C 
ENDBRANCH   5   6
ENDBRANCH   4   5
ENDBRANCH   3   4
TORSDOF 3
ENDMDL
MODEL 7
REMARK VINA RESULT:      -3.9     11.703     13.089
REMARK  3 active torsions:
REMARK  status: ('A' for Active; 'I' for Inactive)
REMARK    1  A    between atoms: C5_5  and  C7_7 
REMARK    2  A    between atoms: C6_6  and  C8_8 
REMARK    3  A    between atoms: C7_7  and  C8_8 
ROOT
HETATM    1  C1  UNL     1     -34.790  17.058  -0.139  1.00 20.00     0.012 C 
HETATM    2  C3  UNL     1     -34.435  16.648  -1.210  1.00 20.00    -0.117 C 
HETATM    3  C5  UNL     1     -33.996  16.152  -2.522  1.00 20.00     0.093 C 
ENDROOT
BRANCH   3   4
HETATM    4  C7  UNL     1     -34.954  15.105  -3.096  1.00 20.00     0.013 C 
BRANCH   4   5
HETATM    5  C8  UNL     1     -34.231  13.838  -3.576  1.00 20.00     0.013 C 
BRANCH   5   6
HETATM    6  C6  UNL     1     -34.772  13.318  -4.909  1.00 20.00     0.093 C 
HETATM    7  C4  UNL     1     -34.603  14.290  -5.997  1.00 20.00    -0.117 C 
HETATM    8  C2  UNL     1     -34.469  15.083  -6.890  1.00 20.00     0.012 C 
ENDBRANCH   5   6
ENDBRANCH   4   5
ENDBRANCH   3   4
TORSDOF 3
ENDMDL
MODEL 8
REMARK VINA RESULT:      -3.9     11.831     12.652
REMARK  3 active torsions:
REMARK  status: ('A' for Active; 'I' for Inactive)
REMARK    1  A    between atoms: C5_5  and  C7_7 
REMARK    2  A    between atoms: C6_6  and  C8_8 
REMARK    3  A    between atoms: C7_7  and  C8_8 
ROOT
HETATM    1  C1  UNL     1     -34.764  14.810  -6.964  1.00 20.00     0.012 C 
HETATM    2  C3  UNL     1     -34.713  14.151  -5.962  1.00 20.00    -0.117 C 
HETATM    3  C5  UNL     1     -34.656  13.340  -4.737  1.00 20.00     0.093 C 
ENDROOT
BRANCH   3   4
HETATM    4  C7  UNL     1     -33.545  13.798  -3.790  1.00 20.00     0.013 C 
BRANCH   4   5
HETATM    5  C8  UNL     1     -33.677  15.275  -3.387  1.00 20.00     0.013 C 
BRANCH   5   6
HETATM    6  C6  UNL     1     -34.962  15.562  -2.609  1.00 20.00     0.093 C 
HETATM    7  C4  UNL     1     -34.717  16.367  -1.404  1.00 20.00    -0.117 C 
HETATM    8  C2  UNL     1     -34.520  17.023  -0.418  1.00 20.00     0.012 C 
ENDBRANCH   5   6
ENDBRANCH   4   5
ENDBRANCH   3   4
TORSDOF 3
ENDMDL
MODEL 9
REMARK VINA RESULT:      -3.8      0.960      2.649
REMARK  3 active torsions:
REMARK  status: ('A' for Active; 'I' for Inactive)
REMARK    1  A    between atoms: C5_5  and  C7_7 
REMARK    2  A    between atoms: C6_6  and  C8_8 
REMARK    3  A    between atoms: C7_7  and  C8_8 
ROOT
HETATM    1  C1  UNL     1     -32.411   6.816   3.630  1.00 20.00     0.012 C 
HETATM    2  C3  UNL     1     -32.775   6.920   4.770  1.00 20.00    -0.117 C 
HETATM    3  C5  UNL     1     -33.215   7.051   6.166  1.00 20.00     0.093 C 
ENDROOT
BRANCH   3   4
HETATM    4  C7  UNL     1     -34.401   6.139   6.488  1.00 20.00     0.013 C 
BRANCH   4   5
HETATM    5  C8  UNL     1     -34.080   4.651   6.285  1.00 20.00     0.013 C 
BRANCH   5   6
HETATM    6  C6  UNL     1     -35.016   3.976   5.281  1.00 20.00     0.093 C 
HETATM    7  C4  UNL     1     -35.505   4.910   4.258  1.00 20.00    -0.117 C 
HETATM    8  C2  UNL     1     -35.908   5.671   3.421  1.00 20.00     0.012 C 
ENDBRANCH   5   6
ENDBRANCH   4   5
ENDBRANCH   3   4
TORSDOF 3
ENDMDL
