MODEL 1
REMARK VINA RESULT:      -5.0      0.000      0.000
REMARK  0 active torsions:
REMARK  status: ('A' for Active; 'I' for Inactive)
ROOT
HETATM    1  C1  UNL     1     -33.910  16.318  -2.489  1.00 20.00     0.002 A 
HETATM    2  C2  UNL     1     -34.267  15.052  -2.948  1.00 20.00     0.016 A 
HETATM    3  C3  UNL     1     -33.747  17.386  -3.389  1.00 20.00     0.019 A 
HETATM    4  C4  UNL     1     -34.451  14.899  -4.310  1.00 20.00     0.017 A 
HETATM    5  C5  UNL     1     -34.296  15.940  -5.217  1.00 20.00    -0.026 A 
HETATM    6  C6  UNL     1     -33.941  17.199  -4.762  1.00 20.00     0.018 A 
HETATM    7  C7  UNL     1     -34.821  13.704  -5.050  1.00 20.00     0.160 A 
HETATM    8  C8  UNL     1     -34.550  15.522  -6.629  1.00 20.00     0.048 A 
HETATM    9  C9  UNL     1     -34.903  14.028  -6.522  1.00 20.00     0.088 A 
HETATM   10  O10 UNL     1     -35.029  12.618  -4.540  1.00 20.00    -0.292 OA
HETATM   11 BR11 UNL     1     -33.711  18.661  -5.938  1.00 20.00    -0.051 Br
ENDROOT
TORSDOF 0
ENDMDL
MODEL 2
REMARK VINA RESULT:      -5.0      1.079      2.882
REMARK  0 active torsions:
REMARK  status: ('A' for Active; 'I' for Inactive)
ROOT
HETATM    1  C1  UNL     1     -35.220  15.549  -7.918  1.00 20.00     0.002 A 
HETATM    2  C2  UNL     1     -35.147  14.434  -7.084  1.00 20.00     0.016 A 
HETATM    3  C3  UNL     1     -34.759  16.802  -7.478  1.00 20.00     0.019 A 
HETATM    4  C4  UNL     1     -34.608  14.619  -5.824  1.00 20.00     0.017 A 
HETATM    5  C5  UNL     1     -34.146  15.848  -5.370  1.00 20.00    -0.026 A 
HETATM    6  C6  UNL     1     -34.219  16.956  -6.197  1.00 20.00     0.018 A 
HETATM    7  C7  UNL     1     -34.414  13.642  -4.766  1.00 20.00     0.160 A 
HETATM    8  C8  UNL     1     -33.610  15.787  -3.976  1.00 20.00     0.048 A 
HETATM    9  C9  UNL     1     -33.786  14.314  -3.568  1.00 20.00     0.088 A 
HETATM   10  O10 UNL     1     -34.720  12.467  -4.852  1.00 20.00    -0.292 OA
HETATM   11 BR11 UNL     1     -33.611  18.660  -5.646  1.00 20.00    -0.051 Br
ENDROOT
TORSDOF 0
ENDMDL
MODEL 3
REMARK VINA RESULT:      -4.7      2.185      2.768
REMARK  0 active torsions:
REMARK  status: ('A' for Active; 'I' for Inactive)
ROOT
HETATM    1  C1  UNL     1     -37.614  15.937  -3.514  1.00 20.00     0.002 A 
HETATM    2  C2  UNL     1     -36.986  14.750  -3.888  1.00 20.00     0.016 A 
HETATM    3  C3  UNL     1     -36.865  17.016  -3.015  1.00 20.00     0.019 A 
HETATM    4  C4  UNL     1     -35.611  14.688  -3.746  1.00 20.00     0.017 A 
HETATM    5  C5  UNL     1     -34.852  15.743  -3.256  1.00 20.00    -0.026 A 
HETATM    6  C6  UNL     1     -35.475  16.923  -2.884  1.00 20.00     0.018 A 
HETATM    7  C7  UNL     1     -34.714  13.587  -4.055  1.00 20.00     0.160 A 
HETATM    8  C8  UNL     1     -33.391  15.430  -3.199  1.00 20.00     0.048 A 
HETATM    9  C9  UNL     1     -33.294  13.990  -3.733  1.00 20.00     0.088 A 
HETATM   10  O10 UNL     1     -35.073  12.514  -4.502  1.00 20.00    -0.292 OA
HETATM   11 BR11 UNL     1     -34.506  18.399  -2.209  1.00 20.00    -0.051 Br
ENDROOT
TORSDOF 0
ENDMDL
MODEL 4
REMARK VINA RESULT:      -4.7      2.510      2.703
REMARK  0 active torsions:
REMARK  status: ('A' for Active; 'I' for Inactive)
ROOT
HETATM    1  C1  UNL     1     -34.285  17.195  -1.854  1.00 20.00     0.002 A 
HETATM    2  C2  UNL     1     -33.692  16.026  -2.329  1.00 20.00     0.016 A 
HETATM    3  C3  UNL     1     -35.635  17.474  -2.129  1.00 20.00     0.019 A 
HETATM    4  C4  UNL     1     -34.484  15.169  -3.072  1.00 20.00     0.017 A 
HETATM    5  C5  UNL     1     -35.819  15.426  -3.354  1.00 20.00    -0.026 A 
HETATM    6  C6  UNL     1     -36.410  16.587  -2.884  1.00 20.00     0.018 A 
HETATM    7  C7  UNL     1     -34.126  13.899  -3.681  1.00 20.00     0.160 A 
HETATM    8  C8  UNL     1     -36.456  14.349  -4.173  1.00 20.00     0.048 A 
HETATM    9  C9  UNL     1     -35.329  13.326  -4.392  1.00 20.00     0.088 A 
HETATM   10  O10 UNL     1     -33.021  13.393  -3.615  1.00 20.00    -0.292 OA
HETATM   11 BR11 UNL     1     -38.221  17.002  -3.230  1.00 20.00    -0.051 Br
ENDROOT
TORSDOF 0
ENDMDL
MODEL 5
REMARK VINA RESULT:      -4.6      2.038      2.762
REMARK  0 active torsions:
REMARK  status: ('A' for Active; 'I' for Inactive)
ROOT
HETATM    1  C1  UNL     1     -33.635  18.235  -4.963  1.00 20.00     0.002 A 
HETATM    2  C2  UNL     1     -33.817  17.201  -5.880  1.00 20.00     0.016 A 
HETATM    3  C3  UNL     1     -33.859  18.022  -3.591  1.00 20.00     0.019 A 
HETATM    4  C4  UNL     1     -34.223  15.976  -5.383  1.00 20.00     0.017 A 
HETATM    5  C5  UNL     1     -34.449  15.744  -4.032  1.00 20.00    -0.026 A 
HETATM    6  C6  UNL     1     -34.269  16.770  -3.120  1.00 20.00     0.018 A 
HETATM    7  C7  UNL     1     -34.485  14.743  -6.106  1.00 20.00     0.160 A 
HETATM    8  C8  UNL     1     -34.879  14.341  -3.748  1.00 20.00     0.048 A 
HETATM    9  C9  UNL     1     -34.903  13.667  -5.131  1.00 20.00     0.088 A 
HETATM   10  O10 UNL     1     -34.377  14.618  -7.312  1.00 20.00    -0.292 OA
HETATM   11 BR11 UNL     1     -34.559  16.527  -1.267  1.00 20.00    -0.051 Br
ENDROOT
TORSDOF 0
ENDMDL
MODEL 6
REMARK VINA RESULT:      -4.5      2.303      3.466
REMARK  0 active torsions:
REMARK  status: ('A' for Active; 'I' for Inactive)
ROOT
HETATM    1  C1  UNL     1     -34.636  13.667  -3.855  1.00 20.00     0.002 A 
HETATM    2  C2  UNL     1     -34.275  14.827  -3.171  1.00 20.00     0.016 A 
HETATM    3  C3  UNL     1     -34.834  13.690  -5.246  1.00 20.00     0.019 A 
HETATM    4  C4  UNL     1     -34.126  15.983  -3.916  1.00 20.00     0.017 A 
HETATM    5  C5  UNL     1     -34.316  16.026  -5.292  1.00 20.00    -0.026 A 
HETATM    6  C6  UNL     1     -34.675  14.875  -5.972  1.00 20.00     0.018 A 
HETATM    7  C7  UNL     1     -33.761  17.315  -3.465  1.00 20.00     0.160 A 
HETATM    8  C8  UNL     1     -34.095  17.389  -5.864  1.00 20.00     0.048 A 
HETATM    9  C9  UNL     1     -33.722  18.253  -4.647  1.00 20.00     0.088 A 
HETATM   10  O10 UNL     1     -33.527  17.607  -2.307  1.00 20.00    -0.292 OA
HETATM   11 BR11 UNL     1     -34.952  14.861  -7.842  1.00 20.00    -0.051 Br
ENDROOT
TORSDOF 0
ENDMDL
MODEL 7
REMARK VINA RESULT:      -4.4      2.933      4.453
REMARK  0 active torsions:
REMARK  status: ('A' for Active; 'I' for Inactive)
ROOT
HETATM    1  C1  UNL     1     -33.885  17.337  -6.042  1.00 20.00     0.002 A 
HETATM    2  C2  UNL     1     -33.642  18.123  -4.917  1.00 20.00     0.016 A 
HETATM    3  C3  UNL     1     -34.319  16.007  -5.906  1.00 20.00     0.019 A 
HETATM    4  C4  UNL     1     -33.846  17.539  -3.679  1.00 20.00     0.017 A 
HETATM    5  C5  UNL     1     -34.276  16.227  -3.523  1.00 20.00    -0.026 A 
HETATM    6  C6  UNL     1     -34.516  15.445  -4.640  1.00 20.00     0.018 A 
HETATM    7  C7  UNL     1     -33.673  18.122  -2.359  1.00 20.00     0.160 A 
HETATM    8  C8  UNL     1     -34.421  15.832  -2.088  1.00 20.00     0.048 A 
HETATM    9  C9  UNL     1     -34.020  17.095  -1.307  1.00 20.00     0.088 A 
HETATM   10  O10 UNL     1     -33.302  19.263  -2.156  1.00 20.00    -0.292 OA
HETATM   11 BR11 UNL     1     -35.101  13.653  -4.502  1.00 20.00    -0.051 Br
ENDROOT
TORSDOF 0
ENDMDL
MODEL 8
REMARK VINA RESULT:      -4.4      6.383      7.968
REMARK  0 active torsions:
REMARK  status: ('A' for Active; 'I' for Inactive)
ROOT
HETATM    1  C1  UNL     1     -35.355  17.848  -0.029  1.00 20.00     0.002 A 
HETATM    2  C2  UNL     1     -34.023  18.212  -0.222  1.00 20.00     0.016 A 
HETATM    3  C3  UNL     1     -35.915  17.844   1.261  1.00 20.00     0.019 A 
HETATM    4  C4  UNL     1     -33.292  18.563   0.899  1.00 20.00     0.017 A 
HETATM    5  C5  UNL     1     -33.827  18.566   2.181  1.00 20.00    -0.026 A 
HETATM    6  C6  UNL     1     -35.149  18.205   2.374  1.00 20.00     0.018 A 
HETATM    7  C7  UNL     1     -31.902  18.978   0.984  1.00 20.00     0.160 A 
HETATM    8  C8  UNL     1     -32.837  18.983   3.221  1.00 20.00     0.048 A 
HETATM    9  C9  UNL     1     -31.549  19.260   2.425  1.00 20.00     0.088 A 
HETATM   10  O10 UNL     1     -31.155  19.075   0.029  1.00 20.00    -0.292 OA
HETATM   11 BR11 UNL     1     -35.943  18.186   4.090  1.00 20.00    -0.051 Br
ENDROOT
TORSDOF 0
ENDMDL
MODEL 9
REMARK VINA RESULT:      -4.4      7.023      8.777
REMARK  0 active torsions:
REMARK  status: ('A' for Active; 'I' for Inactive)
ROOT
HETATM    1  C1  UNL     1     -31.744  19.135   0.559  1.00 20.00     0.002 A 
HETATM    2  C2  UNL     1     -31.345  19.194   1.893  1.00 20.00     0.016 A 
HETATM    3  C3  UNL     1     -33.058  18.768   0.221  1.00 20.00     0.019 A 
HETATM    4  C4  UNL     1     -32.291  18.880   2.853  1.00 20.00     0.017 A 
HETATM    5  C5  UNL     1     -33.595  18.516   2.540  1.00 20.00    -0.026 A 
HETATM    6  C6  UNL     1     -33.992  18.456   1.215  1.00 20.00     0.018 A 
HETATM    7  C7  UNL     1     -32.148  18.861   4.299  1.00 20.00     0.160 A 
HETATM    8  C8  UNL     1     -34.421  18.225   3.751  1.00 20.00     0.048 A 
HETATM    9  C9  UNL     1     -33.459  18.456   4.929  1.00 20.00     0.088 A 
HETATM   10  O10 UNL     1     -31.119  19.132   4.890  1.00 20.00    -0.292 OA
HETATM   11 BR11 UNL     1     -35.748  17.967   0.716  1.00 20.00    -0.051 Br
ENDROOT
TORSDOF 0
ENDMDL
