MODEL 1
REMARK VINA RESULT:      -2.9      0.000      0.000
REMARK  1 active torsions:
REMARK  status: ('A' for Active; 'I' for Inactive)
REMARK    1  A    between atoms: C1_1  and  C3_3 
ROOT
HETATM    1  C2  UNL     1     -34.056  13.647  -4.068  1.00 20.00     0.208 A 
HETATM    2  C3  UNL     1     -35.391  14.019  -4.658  1.00 20.00     0.206 A 
HETATM    3  O5  UNL     1     -35.058  12.660  -4.336  1.00 20.00    -0.374 OA
ENDROOT
BRANCH   2   4
HETATM    4  C1  UNL     1     -36.443  14.576  -3.810  1.00 20.00     0.265 C 
HETATM    5  O4  UNL     1     -37.588  14.138  -3.777  1.00 20.00    -0.304 OA
ENDBRANCH   2   4
TORSDOF 1
ENDMDL
MODEL 2
REMARK VINA RESULT:      -2.6     12.120     12.635
REMARK  1 active torsions:
REMARK  status: ('A' for Active; 'I' for Inactive)
REMARK    1  A    between atoms: C1_1  and  C3_3 
ROOT
HETATM    1  C2  UNL     1     -34.741   4.183   5.821  1.00 20.00     0.208 A 
HETATM    2  C3  UNL     1     -34.842   5.397   4.936  1.00 20.00     0.206 A 
HETATM    3  O5  UNL     1     -34.811   5.505   6.367  1.00 20.00    -0.374 OA
ENDROOT
BRANCH   2   4
HETATM    4  C1  UNL     1     -33.649   5.938   4.287  1.00 20.00     0.265 C 
HETATM    5  O4  UNL     1     -33.508   5.993   3.070  1.00 20.00    -0.304 OA
ENDBRANCH   2   4
TORSDOF 1
ENDMDL
MODEL 3
REMARK VINA RESULT:      -2.6      0.654      2.702
REMARK  1 active torsions:
REMARK  status: ('A' for Active; 'I' for Inactive)
REMARK    1  A    between atoms: C1_1  and  C3_3 
ROOT
HETATM    1  C2  UNL     1     -37.261  15.522  -4.308  1.00 20.00     0.208 A 
HETATM    2  C3  UNL     1     -36.211  14.614  -3.725  1.00 20.00     0.206 A 
HETATM    3  O5  UNL     1     -37.596  14.238  -3.771  1.00 20.00    -0.374 OA
ENDROOT
BRANCH   2   4
HETATM    4  C1  UNL     1     -35.361  13.810  -4.603  1.00 20.00     0.265 C 
HETATM    5  O4  UNL     1     -35.013  12.663  -4.341  1.00 20.00    -0.304 OA
ENDBRANCH   2   4
TORSDOF 1
ENDMDL
MODEL 4
REMARK VINA RESULT:      -2.6     11.765     12.232
REMARK  1 active torsions:
REMARK  status: ('A' for Active; 'I' for Inactive)
REMARK    1  A    between atoms: C1_1  and  C3_3 
ROOT
HETATM    1  C2  UNL     1     -33.290   6.150   3.666  1.00 20.00     0.208 A 
HETATM    2  C3  UNL     1     -34.633   5.785   4.244  1.00 20.00     0.206 A 
HETATM    3  O5  UNL     1     -34.205   5.304   2.961  1.00 20.00    -0.374 OA
ENDROOT
BRANCH   2   4
HETATM    4  C1  UNL     1     -34.740   4.733   5.254  1.00 20.00     0.265 C 
HETATM    5  O4  UNL     1     -35.181   3.613   5.018  1.00 20.00    -0.304 OA
ENDBRANCH   2   4
TORSDOF 1
ENDMDL
MODEL 5
REMARK VINA RESULT:      -2.6     12.177     12.650
REMARK  1 active torsions:
REMARK  status: ('A' for Active; 'I' for Inactive)
REMARK    1  A    between atoms: C1_1  and  C3_3 
ROOT
HETATM    1  C2  UNL     1     -34.409   5.915   6.358  1.00 20.00     0.208 A 
HETATM    2  C3  UNL     1     -34.332   4.988   5.173  1.00 20.00     0.206 A 
HETATM    3  O5  UNL     1     -35.282   4.787   6.230  1.00 20.00    -0.374 OA
ENDROOT
BRANCH   2   4
HETATM    4  C1  UNL     1     -34.948   5.364   3.901  1.00 20.00     0.265 C 
HETATM    5  O4  UNL     1     -34.363   5.308   2.825  1.00 20.00    -0.304 OA
ENDBRANCH   2   4
TORSDOF 1
ENDMDL
MODEL 6
REMARK VINA RESULT:      -2.6     12.897     13.299
REMARK  1 active torsions:
REMARK  status: ('A' for Active; 'I' for Inactive)
REMARK    1  A    between atoms: C1_1  and  C3_3 
ROOT
HETATM    1  C2  UNL     1     -35.228   4.610   4.333  1.00 20.00     0.208 A 
HETATM    2  C3  UNL     1     -35.207   4.961   5.798  1.00 20.00     0.206 A 
HETATM    3  O5  UNL     1     -34.931   3.630   5.334  1.00 20.00    -0.374 OA
ENDROOT
BRANCH   2   4
HETATM    4  C1  UNL     1     -34.043   5.627   6.380  1.00 20.00     0.265 C 
HETATM    5  O4  UNL     1     -34.006   6.827   6.629  1.00 20.00    -0.304 OA
ENDBRANCH   2   4
TORSDOF 1
ENDMDL
MODEL 7
REMARK VINA RESULT:      -2.6      1.719      2.942
REMARK  1 active torsions:
REMARK  status: ('A' for Active; 'I' for Inactive)
REMARK    1  A    between atoms: C1_1  and  C3_3 
ROOT
HETATM    1  C2  UNL     1     -35.820  13.860  -4.286  1.00 20.00     0.208 A 
HETATM    2  C3  UNL     1     -34.536  13.935  -3.502  1.00 20.00     0.206 A 
HETATM    3  O5  UNL     1     -34.874  12.784  -4.292  1.00 20.00    -0.374 OA
ENDROOT
BRANCH   2   4
HETATM    4  C1  UNL     1     -33.395  14.685  -4.026  1.00 20.00     0.265 C 
HETATM    5  O4  UNL     1     -32.266  14.615  -3.553  1.00 20.00    -0.304 OA
ENDBRANCH   2   4
TORSDOF 1
ENDMDL
MODEL 8
REMARK VINA RESULT:      -2.6      1.798      2.563
REMARK  1 active torsions:
REMARK  status: ('A' for Active; 'I' for Inactive)
REMARK    1  A    between atoms: C1_1  and  C3_3 
ROOT
HETATM    1  C2  UNL     1     -33.173  15.667  -3.901  1.00 20.00     0.208 A 
HETATM    2  C3  UNL     1     -33.551  14.213  -3.798  1.00 20.00     0.206 A 
HETATM    3  O5  UNL     1     -34.138  15.210  -2.947  1.00 20.00    -0.374 OA
ENDROOT
BRANCH   2   4
HETATM    4  C1  UNL     1     -34.498  13.628  -4.746  1.00 20.00     0.265 C 
HETATM    5  O4  UNL     1     -35.131  12.601  -4.523  1.00 20.00    -0.304 OA
ENDBRANCH   2   4
TORSDOF 1
ENDMDL
MODEL 9
REMARK VINA RESULT:      -2.5     10.902     11.547
REMARK  1 active torsions:
REMARK  status: ('A' for Active; 'I' for Inactive)
REMARK    1  A    between atoms: C1_1  and  C3_3 
ROOT
HETATM    1  C2  UNL     1     -35.024   5.341   3.844  1.00 20.00     0.208 A 
HETATM    2  C3  UNL     1     -33.929   6.345   4.091  1.00 20.00     0.206 A 
HETATM    3  O5  UNL     1     -34.144   5.230   4.969  1.00 20.00    -0.374 OA
ENDROOT
BRANCH   2   4
HETATM    4  C1  UNL     1     -32.674   6.265   3.346  1.00 20.00     0.265 C 
HETATM    5  O4  UNL     1     -32.190   7.211   2.732  1.00 20.00    -0.304 OA
ENDBRANCH   2   4
TORSDOF 1
ENDMDL
