MODEL 1
REMARK VINA RESULT:      -5.2      0.000      0.000
REMARK  3 active torsions:
REMARK  status: ('A' for Active; 'I' for Inactive)
REMARK    1  A    between atoms: C3_3  and  C8_8 
REMARK    2  A    between atoms: C6_6  and  C7_7 
REMARK    3  A    between atoms: C7_7  and  C8_8 
ROOT
HETATM    1  C5  UNL     1     -35.183   5.452   3.485  1.00 20.00     0.010 C 
HETATM    2  C8  UNL     1     -34.010   6.294   3.988  1.00 20.00    -0.014 C 
ENDROOT
BRANCH   2   3
HETATM    3  C3  UNL     1     -33.632   5.857   5.405  1.00 20.00    -0.011 A 
HETATM    4  C1  UNL     1     -33.967   6.730   6.583  1.00 20.00     0.005 A 
HETATM    5  C2  UNL     1     -34.698   5.433   6.377  1.00 20.00     0.005 A 
ENDBRANCH   2   3
BRANCH   2   6
HETATM    6  C7  UNL     1     -32.778   6.199   3.067  1.00 20.00     0.004 C 
BRANCH   6   7
HETATM    7  C6  UNL     1     -31.876   7.434   3.127  1.00 20.00    -0.004 C 
HETATM    8  C4  UNL     1     -32.102   8.345   1.930  1.00 20.00     0.005 C 
ENDBRANCH   6   7
ENDBRANCH   2   6
TORSDOF 3
ENDMDL
MODEL 2
REMARK VINA RESULT:      -4.9      1.085      2.039
REMARK  3 active torsions:
REMARK  status: ('A' for Active; 'I' for Inactive)
REMARK    1  A    between atoms: C3_3  and  C8_8 
REMARK    2  A    between atoms: C6_6  and  C7_7 
REMARK    3  A    between atoms: C7_7  and  C8_8 
ROOT
HETATM    1  C5  UNL     1     -33.674   6.972   6.362  1.00 20.00     0.010 C 
HETATM    2  C8  UNL     1     -33.710   6.058   5.137  1.00 20.00    -0.014 C 
ENDROOT
BRANCH   2   3
HETATM    3  C3  UNL     1     -34.966   5.184   5.183  1.00 20.00    -0.011 A 
HETATM    4  C1  UNL     1     -34.855   3.689   5.055  1.00 20.00     0.005 A 
HETATM    5  C2  UNL     1     -35.235   4.305   6.373  1.00 20.00     0.005 A 
ENDBRANCH   2   3
BRANCH   2   6
HETATM    6  C7  UNL     1     -33.672   6.846   3.813  1.00 20.00     0.004 C 
BRANCH   6   7
HETATM    7  C6  UNL     1     -32.334   6.735   3.078  1.00 20.00    -0.004 C 
HETATM    8  C4  UNL     1     -32.046   7.984   2.258  1.00 20.00     0.005 C 
ENDBRANCH   6   7
ENDBRANCH   2   6
TORSDOF 3
ENDMDL
MODEL 3
REMARK VINA RESULT:      -4.5      1.009      3.999
REMARK  3 active torsions:
REMARK  status: ('A' for Active; 'I' for Inactive)
REMARK    1  A    between atoms: C3_3  and  C8_8 
REMARK    2  A    between atoms: C6_6  and  C7_7 
REMARK    3  A    between atoms: C7_7  and  C8_8 
ROOT
HETATM    1  C5  UNL     1     -33.636   6.746   5.496  1.00 20.00     0.010 C 
HETATM    2  C8  UNL     1     -33.845   6.618   3.987  1.00 20.00    -0.014 C 
ENDROOT
BRANCH   2   3
HETATM    3  C3  UNL     1     -32.489   6.632   3.276  1.00 20.00    -0.011 A 
HETATM    4  C1  UNL     1     -32.123   7.769   2.363  1.00 20.00     0.005 A 
HETATM    5  C2  UNL     1     -31.428   7.615   3.687  1.00 20.00     0.005 A 
ENDBRANCH   2   3
BRANCH   2   6
HETATM    6  C7  UNL     1     -34.620   5.342   3.606  1.00 20.00     0.004 C 
BRANCH   6   7
HETATM    7  C6  UNL     1     -35.498   4.803   4.738  1.00 20.00    -0.004 C 
HETATM    8  C4  UNL     1     -34.754   3.772   5.574  1.00 20.00     0.005 C 
ENDBRANCH   6   7
ENDBRANCH   2   6
TORSDOF 3
ENDMDL
MODEL 4
REMARK VINA RESULT:      -4.2      0.864      3.751
REMARK  3 active torsions:
REMARK  status: ('A' for Active; 'I' for Inactive)
REMARK    1  A    between atoms: C3_3  and  C8_8 
REMARK    2  A    between atoms: C6_6  and  C7_7 
REMARK    3  A    between atoms: C7_7  and  C8_8 
ROOT
HETATM    1  C5  UNL     1     -34.505   5.412   2.704  1.00 20.00     0.010 C 
HETATM    2  C8  UNL     1     -33.468   5.630   3.806  1.00 20.00    -0.014 C 
ENDROOT
BRANCH   2   3
HETATM    3  C3  UNL     1     -32.208   6.263   3.211  1.00 20.00    -0.011 A 
HETATM    4  C1  UNL     1     -32.290   7.580   2.488  1.00 20.00     0.005 A 
HETATM    5  C2  UNL     1     -31.616   7.499   3.830  1.00 20.00     0.005 A 
ENDBRANCH   2   3
BRANCH   2   6
HETATM    6  C7  UNL     1     -34.002   6.511   4.952  1.00 20.00     0.004 C 
BRANCH   6   7
HETATM    7  C6  UNL     1     -34.317   5.726   6.228  1.00 20.00    -0.004 C 
HETATM    8  C4  UNL     1     -34.894   4.355   5.908  1.00 20.00     0.005 C 
ENDBRANCH   6   7
ENDBRANCH   2   6
TORSDOF 3
ENDMDL
MODEL 5
REMARK VINA RESULT:      -4.0      1.053      2.153
REMARK  3 active torsions:
REMARK  status: ('A' for Active; 'I' for Inactive)
REMARK    1  A    between atoms: C3_3  and  C8_8 
REMARK    2  A    between atoms: C6_6  and  C7_7 
REMARK    3  A    between atoms: C7_7  and  C8_8 
ROOT
HETATM    1  C5  UNL     1     -31.989   5.294   3.198  1.00 20.00     0.010 C 
HETATM    2  C8  UNL     1     -32.941   6.460   2.925  1.00 20.00    -0.014 C 
ENDROOT
BRANCH   2   3
HETATM    3  C3  UNL     1     -34.057   6.469   3.972  1.00 20.00    -0.011 A 
HETATM    4  C1  UNL     1     -35.234   5.542   3.835  1.00 20.00     0.005 A 
HETATM    5  C2  UNL     1     -34.218   5.313   4.920  1.00 20.00     0.005 A 
ENDBRANCH   2   3
BRANCH   2   6
HETATM    6  C7  UNL     1     -32.219   7.820   2.921  1.00 20.00     0.004 C 
BRANCH   6   7
HETATM    7  C6  UNL     1     -31.934   8.355   1.515  1.00 20.00    -0.004 C 
HETATM    8  C4  UNL     1     -32.407   9.793   1.362  1.00 20.00     0.005 C 
ENDBRANCH   6   7
ENDBRANCH   2   6
TORSDOF 3
ENDMDL
MODEL 6
REMARK VINA RESULT:      -3.9     11.163     11.912
REMARK  3 active torsions:
REMARK  status: ('A' for Active; 'I' for Inactive)
REMARK    1  A    between atoms: C3_3  and  C8_8 
REMARK    2  A    between atoms: C6_6  and  C7_7 
REMARK    3  A    between atoms: C7_7  and  C8_8 
ROOT
HETATM    1  C5  UNL     1     -32.455  14.874  -3.726  1.00 20.00     0.010 C 
HETATM    2  C8  UNL     1     -33.775  15.609  -3.488  1.00 20.00    -0.014 C 
ENDROOT
BRANCH   2   3
HETATM    3  C3  UNL     1     -34.898  14.592  -3.270  1.00 20.00    -0.011 A 
HETATM    4  C1  UNL     1     -36.032  14.491  -4.254  1.00 20.00     0.005 A 
HETATM    5  C2  UNL     1     -35.015  13.388  -4.163  1.00 20.00     0.005 A 
ENDBRANCH   2   3
BRANCH   2   6
HETATM    6  C7  UNL     1     -33.704  16.573  -2.289  1.00 20.00     0.004 C 
BRANCH   6   7
HETATM    7  C6  UNL     1     -34.808  16.340  -1.254  1.00 20.00    -0.004 C 
HETATM    8  C4  UNL     1     -34.661  17.276  -0.064  1.00 20.00     0.005 C 
ENDBRANCH   6   7
ENDBRANCH   2   6
TORSDOF 3
ENDMDL
MODEL 7
REMARK VINA RESULT:      -3.8     10.912     11.984
REMARK  3 active torsions:
REMARK  status: ('A' for Active; 'I' for Inactive)
REMARK    1  A    between atoms: C3_3  and  C8_8 
REMARK    2  A    between atoms: C6_6  and  C7_7 
REMARK    3  A    between atoms: C7_7  and  C8_8 
ROOT
HETATM    1  C5  UNL     1     -33.687  16.897  -4.337  1.00 20.00     0.010 C 
HETATM    2  C8  UNL     1     -33.431  15.948  -3.166  1.00 20.00    -0.014 C 
ENDROOT
BRANCH   2   3
HETATM    3  C3  UNL     1     -34.647  15.938  -2.236  1.00 20.00    -0.011 A 
HETATM    4  C1  UNL     1     -34.574  16.592  -0.883  1.00 20.00     0.005 A 
HETATM    5  C2  UNL     1     -35.409  17.207  -1.971  1.00 20.00     0.005 A 
ENDBRANCH   2   3
BRANCH   2   6
HETATM    6  C7  UNL     1     -33.117  14.513  -3.628  1.00 20.00     0.004 C 
BRANCH   6   7
HETATM    7  C6  UNL     1     -34.349  13.606  -3.681  1.00 20.00    -0.004 C 
HETATM    8  C4  UNL     1     -34.789  13.351  -5.115  1.00 20.00     0.005 C 
ENDBRANCH   6   7
ENDBRANCH   2   6
TORSDOF 3
ENDMDL
MODEL 8
REMARK VINA RESULT:      -3.8      1.291      3.601
REMARK  3 active torsions:
REMARK  status: ('A' for Active; 'I' for Inactive)
REMARK    1  A    between atoms: C3_3  and  C8_8 
REMARK    2  A    between atoms: C6_6  and  C7_7 
REMARK    3  A    between atoms: C7_7  and  C8_8 
ROOT
HETATM    1  C5  UNL     1     -35.198   3.937   5.067  1.00 20.00     0.010 C 
HETATM    2  C8  UNL     1     -34.175   5.063   5.217  1.00 20.00    -0.014 C 
ENDROOT
BRANCH   2   3
HETATM    3  C3  UNL     1     -34.221   5.969   3.984  1.00 20.00    -0.011 A 
HETATM    4  C1  UNL     1     -33.000   6.142   3.123  1.00 20.00     0.005 A 
HETATM    5  C2  UNL     1     -34.183   5.373   2.604  1.00 20.00     0.005 A 
ENDBRANCH   2   3
BRANCH   2   6
HETATM    6  C7  UNL     1     -34.404   5.902   6.488  1.00 20.00     0.004 C 
BRANCH   6   7
HETATM    7  C6  UNL     1     -33.486   7.123   6.586  1.00 20.00    -0.004 C 
HETATM    8  C4  UNL     1     -33.932   8.065   7.695  1.00 20.00     0.005 C 
ENDBRANCH   6   7
ENDBRANCH   2   6
TORSDOF 3
ENDMDL
MODEL 9
REMARK VINA RESULT:      -3.8     10.849     12.701
REMARK  3 active torsions:
REMARK  status: ('A' for Active; 'I' for Inactive)
REMARK    1  A    between atoms: C3_3  and  C8_8 
REMARK    2  A    between atoms: C6_6  and  C7_7 
REMARK    3  A    between atoms: C7_7  and  C8_8 
ROOT
HETATM    1  C5  UNL     1     -33.978  13.550  -3.674  1.00 20.00     0.010 C 
HETATM    2  C8  UNL     1     -33.619  14.956  -4.155  1.00 20.00    -0.014 C 
ENDROOT
BRANCH   2   3
HETATM    3  C3  UNL     1     -34.613  15.404  -5.229  1.00 20.00    -0.011 A 
HETATM    4  C1  UNL     1     -34.131  15.757  -6.609  1.00 20.00     0.005 A 
HETATM    5  C2  UNL     1     -34.931  14.503  -6.391  1.00 20.00     0.005 A 
ENDBRANCH   2   3
BRANCH   2   6
HETATM    6  C7  UNL     1     -33.594  15.983  -3.007  1.00 20.00     0.004 C 
BRANCH   6   7
HETATM    7  C6  UNL     1     -34.837  15.930  -2.116  1.00 20.00    -0.004 C 
HETATM    8  C4  UNL     1     -34.610  16.662  -0.802  1.00 20.00     0.005 C 
ENDBRANCH   6   7
ENDBRANCH   2   6
TORSDOF 3
ENDMDL
