MODEL 1
REMARK VINA RESULT:      -4.5      0.000      0.000
REMARK  1 active torsions:
REMARK  status: ('A' for Active; 'I' for Inactive)
REMARK    1  A    between atoms: C1_1  and  C2_2 
ROOT
HETATM    1  C1  UNL     1     -33.653   5.827   4.496  1.00 20.00    -0.005 C 
HETATM    2  C3  UNL     1     -34.797   5.151   4.684  1.00 20.00    -0.031 C 
HETATM    3  C5  UNL     1     -35.056   4.272   5.862  1.00 20.00     0.036 C 
ENDROOT
BRANCH   1   4
HETATM    4  C2  UNL     1     -33.414   6.676   3.351  1.00 20.00    -0.005 C 
HETATM    5  C4  UNL     1     -32.225   7.240   3.092  1.00 20.00    -0.031 C 
HETATM    6  C6  UNL     1     -31.966   8.119   1.913  1.00 20.00     0.036 C 
ENDBRANCH   1   4
TORSDOF 1
ENDMDL
MODEL 2
REMARK VINA RESULT:      -4.5      0.063      4.304
REMARK  1 active torsions:
REMARK  status: ('A' for Active; 'I' for Inactive)
REMARK    1  A    between atoms: C1_1  and  C2_2 
ROOT
HETATM    1  C1  UNL     1     -33.376   6.641   3.284  1.00 20.00    -0.005 C 
HETATM    2  C3  UNL     1     -32.214   7.271   3.059  1.00 20.00    -0.031 C 
HETATM    3  C5  UNL     1     -31.961   8.145   1.875  1.00 20.00     0.036 C 
ENDROOT
BRANCH   1   4
HETATM    4  C2  UNL     1     -33.609   5.797   4.434  1.00 20.00    -0.005 C 
HETATM    5  C4  UNL     1     -34.785   5.198   4.679  1.00 20.00    -0.031 C 
HETATM    6  C6  UNL     1     -35.037   4.325   5.863  1.00 20.00     0.036 C 
ENDBRANCH   1   4
TORSDOF 1
ENDMDL
MODEL 3
REMARK VINA RESULT:      -3.6     11.152     11.685
REMARK  1 active torsions:
REMARK  status: ('A' for Active; 'I' for Inactive)
REMARK    1  A    between atoms: C1_1  and  C2_2 
ROOT
HETATM    1  C1  UNL     1     -33.758  16.310  -2.363  1.00 20.00    -0.005 C 
HETATM    2  C3  UNL     1     -34.700  16.289  -1.408  1.00 20.00    -0.031 C 
HETATM    3  C5  UNL     1     -34.688  17.185  -0.214  1.00 20.00     0.036 C 
ENDROOT
BRANCH   1   4
HETATM    4  C2  UNL     1     -33.779  15.437  -3.515  1.00 20.00    -0.005 C 
HETATM    5  C4  UNL     1     -34.356  14.226  -3.507  1.00 20.00    -0.031 C 
HETATM    6  C6  UNL     1     -34.385  13.316  -4.690  1.00 20.00     0.036 C 
ENDBRANCH   1   4
TORSDOF 1
ENDMDL
MODEL 4
REMARK VINA RESULT:      -3.6     11.153     11.743
REMARK  1 active torsions:
REMARK  status: ('A' for Active; 'I' for Inactive)
REMARK    1  A    between atoms: C1_1  and  C2_2 
ROOT
HETATM    1  C1  UNL     1     -33.783  15.434  -3.518  1.00 20.00    -0.005 C 
HETATM    2  C3  UNL     1     -34.364  14.225  -3.507  1.00 20.00    -0.031 C 
HETATM    3  C5  UNL     1     -34.389  13.308  -4.684  1.00 20.00     0.036 C 
ENDROOT
BRANCH   1   4
HETATM    4  C2  UNL     1     -33.765  16.314  -2.371  1.00 20.00    -0.005 C 
HETATM    5  C4  UNL     1     -34.696  16.281  -1.406  1.00 20.00    -0.031 C 
HETATM    6  C6  UNL     1     -34.687  17.185  -0.217  1.00 20.00     0.036 C 
ENDBRANCH   1   4
TORSDOF 1
ENDMDL
MODEL 5
REMARK VINA RESULT:      -3.5     11.114     11.728
REMARK  1 active torsions:
REMARK  status: ('A' for Active; 'I' for Inactive)
REMARK    1  A    between atoms: C1_1  and  C2_2 
ROOT
HETATM    1  C1  UNL     1     -34.323  16.581  -1.745  1.00 20.00    -0.005 C 
HETATM    2  C3  UNL     1     -34.713  16.866  -0.494  1.00 20.00    -0.031 C 
HETATM    3  C5  UNL     1     -34.126  17.968   0.326  1.00 20.00     0.036 C 
ENDROOT
BRANCH   1   4
HETATM    4  C2  UNL     1     -34.899  15.512  -2.529  1.00 20.00    -0.005 C 
HETATM    5  C4  UNL     1     -34.165  14.659  -3.259  1.00 20.00    -0.031 C 
HETATM    6  C6  UNL     1     -34.748  13.551  -4.072  1.00 20.00     0.036 C 
ENDBRANCH   1   4
TORSDOF 1
ENDMDL
MODEL 6
REMARK VINA RESULT:      -3.5     11.165     11.718
REMARK  1 active torsions:
REMARK  status: ('A' for Active; 'I' for Inactive)
REMARK    1  A    between atoms: C1_1  and  C2_2 
ROOT
HETATM    1  C1  UNL     1     -34.885  15.492  -2.436  1.00 20.00    -0.005 C 
HETATM    2  C3  UNL     1     -34.183  14.710  -3.270  1.00 20.00    -0.031 C 
HETATM    3  C5  UNL     1     -34.786  13.612  -4.081  1.00 20.00     0.036 C 
ENDROOT
BRANCH   1   4
HETATM    4  C2  UNL     1     -34.290  16.553  -1.656  1.00 20.00    -0.005 C 
HETATM    5  C4  UNL     1     -34.722  16.895  -0.433  1.00 20.00    -0.031 C 
HETATM    6  C6  UNL     1     -34.116  17.989   0.383  1.00 20.00     0.036 C 
ENDBRANCH   1   4
TORSDOF 1
ENDMDL
MODEL 7
REMARK VINA RESULT:      -3.4     11.670     12.252
REMARK  1 active torsions:
REMARK  status: ('A' for Active; 'I' for Inactive)
REMARK    1  A    between atoms: C1_1  and  C2_2 
ROOT
HETATM    1  C1  UNL     1     -33.877  16.655  -1.976  1.00 20.00    -0.005 C 
HETATM    2  C3  UNL     1     -33.922  15.661  -2.877  1.00 20.00    -0.031 C 
HETATM    3  C5  UNL     1     -33.105  15.639  -4.126  1.00 20.00     0.036 C 
ENDROOT
BRANCH   1   4
HETATM    4  C2  UNL     1     -34.673  16.666  -0.770  1.00 20.00    -0.005 C 
HETATM    5  C4  UNL     1     -34.520  17.578   0.202  1.00 20.00    -0.031 C 
HETATM    6  C6  UNL     1     -35.336  17.600   1.452  1.00 20.00     0.036 C 
ENDBRANCH   1   4
TORSDOF 1
ENDMDL
MODEL 8
REMARK VINA RESULT:      -3.2     10.037     10.953
REMARK  1 active torsions:
REMARK  status: ('A' for Active; 'I' for Inactive)
REMARK    1  A    between atoms: C1_1  and  C2_2 
ROOT
HETATM    1  C1  UNL     1     -41.892   4.351  -2.183  1.00 20.00    -0.005 C 
HETATM    2  C3  UNL     1     -41.039   4.554  -1.168  1.00 20.00    -0.031 C 
HETATM    3  C5  UNL     1     -40.725   5.901  -0.606  1.00 20.00     0.036 C 
ENDROOT
BRANCH   1   4
HETATM    4  C2  UNL     1     -42.188   3.042  -2.718  1.00 20.00    -0.005 C 
HETATM    5  C4  UNL     1     -41.307   2.324  -3.432  1.00 20.00    -0.031 C 
HETATM    6  C6  UNL     1     -41.601   0.971  -3.990  1.00 20.00     0.036 C 
ENDBRANCH   1   4
TORSDOF 1
ENDMDL
MODEL 9
REMARK VINA RESULT:      -3.2     10.035     10.789
REMARK  1 active torsions:
REMARK  status: ('A' for Active; 'I' for Inactive)
REMARK    1  A    between atoms: C1_1  and  C2_2 
ROOT
HETATM    1  C1  UNL     1     -42.206   3.030  -2.687  1.00 20.00    -0.005 C 
HETATM    2  C3  UNL     1     -41.325   2.351  -3.437  1.00 20.00    -0.031 C 
HETATM    3  C5  UNL     1     -41.597   1.002  -4.016  1.00 20.00     0.036 C 
ENDROOT
BRANCH   1   4
HETATM    4  C2  UNL     1     -41.932   4.335  -2.131  1.00 20.00    -0.005 C 
HETATM    5  C4  UNL     1     -41.002   4.552  -1.189  1.00 20.00    -0.031 C 
HETATM    6  C6  UNL     1     -40.710   5.896  -0.608  1.00 20.00     0.036 C 
ENDBRANCH   1   4
TORSDOF 1
ENDMDL
