MODEL 1
REMARK VINA RESULT:      -5.0      0.000      0.000
REMARK  2 active torsions:
REMARK  status: ('A' for Active; 'I' for Inactive)
REMARK    1  A    between atoms: C1_1  and  C6_6 
REMARK    2  A    between atoms: C1_1  and  C7_7 
ROOT
HETATM    1  C1  UNL     1     -34.327   5.557   3.747  1.00 20.00     0.135 C 
HETATM    2  O8  UNL     1     -34.627   5.138   2.630  1.00 20.00    -0.297 OA
ENDROOT
BRANCH   1   3
HETATM    3  C6  UNL     1     -33.122   6.364   3.968  1.00 20.00     0.056 A 
HETATM    4  C2  UNL     1     -31.902   6.116   3.124  1.00 20.00     0.013 A 
HETATM    5  C3  UNL     1     -32.706   7.366   2.925  1.00 20.00     0.013 A 
ENDBRANCH   1   3
BRANCH   1   6
HETATM    6  C7  UNL     1     -35.180   5.268   4.952  1.00 20.00     0.056 A 
HETATM    7  C4  UNL     1     -34.850   4.075   5.775  1.00 20.00     0.013 A 
HETATM    8  C5  UNL     1     -34.576   5.453   6.298  1.00 20.00     0.013 A 
ENDBRANCH   1   6
TORSDOF 2
ENDMDL
MODEL 2
REMARK VINA RESULT:      -5.0      1.559      1.707
REMARK  2 active torsions:
REMARK  status: ('A' for Active; 'I' for Inactive)
REMARK    1  A    between atoms: C1_1  and  C6_6 
REMARK    2  A    between atoms: C1_1  and  C7_7 
ROOT
HETATM    1  C1  UNL     1     -33.947   6.219   4.926  1.00 20.00     0.135 C 
HETATM    2  O8  UNL     1     -33.441   6.757   5.910  1.00 20.00    -0.297 OA
ENDROOT
BRANCH   1   3
HETATM    3  C6  UNL     1     -33.471   6.496   3.567  1.00 20.00     0.056 A 
HETATM    4  C2  UNL     1     -32.159   7.209   3.375  1.00 20.00     0.013 A 
HETATM    5  C3  UNL     1     -32.273   5.751   3.040  1.00 20.00     0.013 A 
ENDBRANCH   1   3
BRANCH   1   6
HETATM    6  C7  UNL     1     -35.084   5.243   5.059  1.00 20.00     0.056 A 
HETATM    7  C4  UNL     1     -34.774   3.791   4.991  1.00 20.00     0.013 A 
HETATM    8  C5  UNL     1     -35.160   4.421   6.295  1.00 20.00     0.013 A 
ENDBRANCH   1   6
TORSDOF 2
ENDMDL
MODEL 3
REMARK VINA RESULT:      -4.9      0.872      3.398
REMARK  2 active torsions:
REMARK  status: ('A' for Active; 'I' for Inactive)
REMARK    1  A    between atoms: C1_1  and  C6_6 
REMARK    2  A    between atoms: C1_1  and  C7_7 
ROOT
HETATM    1  C1  UNL     1     -34.573   5.534   3.849  1.00 20.00     0.135 C 
HETATM    2  O8  UNL     1     -35.776   5.553   3.590  1.00 20.00    -0.297 OA
ENDROOT
BRANCH   1   3
HETATM    3  C6  UNL     1     -34.074   5.090   5.155  1.00 20.00     0.056 A 
HETATM    4  C2  UNL     1     -34.459   5.855   6.392  1.00 20.00     0.013 A 
HETATM    5  C3  UNL     1     -35.037   4.493   6.146  1.00 20.00     0.013 A 
ENDBRANCH   1   3
BRANCH   1   6
HETATM    6  C7  UNL     1     -33.543   5.964   2.840  1.00 20.00     0.056 A 
HETATM    7  C4  UNL     1     -32.782   7.213   3.103  1.00 20.00     0.013 A 
HETATM    8  C5  UNL     1     -32.109   5.880   3.225  1.00 20.00     0.013 A 
ENDBRANCH   1   6
TORSDOF 2
ENDMDL
MODEL 4
REMARK VINA RESULT:      -4.9      1.608      3.720
REMARK  2 active torsions:
REMARK  status: ('A' for Active; 'I' for Inactive)
REMARK    1  A    between atoms: C1_1  and  C6_6 
REMARK    2  A    between atoms: C1_1  and  C7_7 
ROOT
HETATM    1  C1  UNL     1     -33.804   6.327   5.124  1.00 20.00     0.135 C 
HETATM    2  O8  UNL     1     -33.166   6.951   5.971  1.00 20.00    -0.297 OA
ENDROOT
BRANCH   1   3
HETATM    3  C6  UNL     1     -34.906   5.434   5.495  1.00 20.00     0.056 A 
HETATM    4  C2  UNL     1     -35.243   4.267   4.606  1.00 20.00     0.013 A 
HETATM    5  C3  UNL     1     -34.598   4.029   5.938  1.00 20.00     0.013 A 
ENDBRANCH   1   3
BRANCH   1   6
HETATM    6  C7  UNL     1     -33.492   6.445   3.657  1.00 20.00     0.056 A 
HETATM    7  C4  UNL     1     -32.347   7.301   3.250  1.00 20.00     0.013 A 
HETATM    8  C5  UNL     1     -32.247   5.809   3.153  1.00 20.00     0.013 A 
ENDBRANCH   1   6
TORSDOF 2
ENDMDL
MODEL 5
REMARK VINA RESULT:      -4.6      0.475      3.403
REMARK  2 active torsions:
REMARK  status: ('A' for Active; 'I' for Inactive)
REMARK    1  A    between atoms: C1_1  and  C6_6 
REMARK    2  A    between atoms: C1_1  and  C7_7 
ROOT
HETATM    1  C1  UNL     1     -34.252   5.740   3.530  1.00 20.00     0.135 C 
HETATM    2  O8  UNL     1     -34.264   5.110   2.473  1.00 20.00    -0.297 OA
ENDROOT
BRANCH   1   3
HETATM    3  C6  UNL     1     -35.151   5.402   4.638  1.00 20.00     0.056 A 
HETATM    4  C2  UNL     1     -35.079   4.031   5.255  1.00 20.00     0.013 A 
HETATM    5  C3  UNL     1     -34.580   5.221   6.019  1.00 20.00     0.013 A 
ENDBRANCH   1   3
BRANCH   1   6
HETATM    6  C7  UNL     1     -33.313   6.895   3.747  1.00 20.00     0.056 A 
HETATM    7  C4  UNL     1     -31.862   6.672   3.517  1.00 20.00     0.013 A 
HETATM    8  C5  UNL     1     -32.660   7.501   2.557  1.00 20.00     0.013 A 
ENDBRANCH   1   6
TORSDOF 2
ENDMDL
MODEL 6
REMARK VINA RESULT:      -4.1     11.601     12.827
REMARK  2 active torsions:
REMARK  status: ('A' for Active; 'I' for Inactive)
REMARK    1  A    between atoms: C1_1  and  C6_6 
REMARK    2  A    between atoms: C1_1  and  C7_7 
ROOT
HETATM    1  C1  UNL     1     -34.468  13.674  -4.837  1.00 20.00     0.135 C 
HETATM    2  O8  UNL     1     -34.887  12.523  -4.955  1.00 20.00    -0.297 OA
ENDROOT
BRANCH   1   3
HETATM    3  C6  UNL     1     -34.585  14.651  -5.925  1.00 20.00     0.056 A 
HETATM    4  C2  UNL     1     -35.327  14.275  -7.179  1.00 20.00     0.013 A 
HETATM    5  C3  UNL     1     -35.928  15.262  -6.224  1.00 20.00     0.013 A 
ENDBRANCH   1   3
BRANCH   1   6
HETATM    6  C7  UNL     1     -33.813  14.148  -3.568  1.00 20.00     0.056 A 
HETATM    7  C4  UNL     1     -33.095  15.449  -3.593  1.00 20.00     0.013 A 
HETATM    8  C5  UNL     1     -34.403  15.321  -2.873  1.00 20.00     0.013 A 
ENDBRANCH   1   6
TORSDOF 2
ENDMDL
MODEL 7
REMARK VINA RESULT:      -4.1      2.200      3.300
REMARK  2 active torsions:
REMARK  status: ('A' for Active; 'I' for Inactive)
REMARK    1  A    between atoms: C1_1  and  C6_6 
REMARK    2  A    between atoms: C1_1  and  C7_7 
ROOT
HETATM    1  C1  UNL     1     -32.063   7.451   3.113  1.00 20.00     0.135 C 
HETATM    2  O8  UNL     1     -31.138   7.939   3.760  1.00 20.00    -0.297 OA
ENDROOT
BRANCH   1   3
HETATM    3  C6  UNL     1     -32.633   8.135   1.948  1.00 20.00     0.056 A 
HETATM    4  C2  UNL     1     -32.390   9.608   1.765  1.00 20.00     0.013 A 
HETATM    5  C3  UNL     1     -31.717   8.621   0.859  1.00 20.00     0.013 A 
ENDBRANCH   1   3
BRANCH   1   6
HETATM    6  C7  UNL     1     -32.663   6.120   3.478  1.00 20.00     0.056 A 
HETATM    7  C4  UNL     1     -33.847   6.107   4.376  1.00 20.00     0.013 A 
HETATM    8  C5  UNL     1     -33.998   5.777   2.921  1.00 20.00     0.013 A 
ENDBRANCH   1   6
TORSDOF 2
ENDMDL
MODEL 8
REMARK VINA RESULT:      -4.0     11.675     12.962
REMARK  2 active torsions:
REMARK  status: ('A' for Active; 'I' for Inactive)
REMARK    1  A    between atoms: C1_1  and  C6_6 
REMARK    2  A    between atoms: C1_1  and  C7_7 
ROOT
HETATM    1  C1  UNL     1     -34.427  13.739  -4.807  1.00 20.00     0.135 C 
HETATM    2  O8  UNL     1     -34.841  12.583  -4.885  1.00 20.00    -0.297 OA
ENDROOT
BRANCH   1   3
HETATM    3  C6  UNL     1     -33.799  14.251  -3.585  1.00 20.00     0.056 A 
HETATM    4  C2  UNL     1     -33.274  15.661  -3.560  1.00 20.00     0.013 A 
HETATM    5  C3  UNL     1     -34.507  15.310  -2.782  1.00 20.00     0.013 A 
ENDBRANCH   1   3
BRANCH   1   6
HETATM    6  C7  UNL     1     -34.539  14.695  -5.964  1.00 20.00     0.056 A 
HETATM    7  C4  UNL     1     -35.301  14.259  -7.163  1.00 20.00     0.013 A 
HETATM    8  C5  UNL     1     -35.867  15.300  -6.246  1.00 20.00     0.013 A 
ENDBRANCH   1   6
TORSDOF 2
ENDMDL
MODEL 9
REMARK VINA RESULT:      -4.0     11.555     12.308
REMARK  2 active torsions:
REMARK  status: ('A' for Active; 'I' for Inactive)
REMARK    1  A    between atoms: C1_1  and  C6_6 
REMARK    2  A    between atoms: C1_1  and  C7_7 
ROOT
HETATM    1  C1  UNL     1     -33.599  15.037  -3.340  1.00 20.00     0.135 C 
HETATM    2  O8  UNL     1     -32.393  15.044  -3.587  1.00 20.00    -0.297 OA
ENDROOT
BRANCH   1   3
HETATM    3  C6  UNL     1     -34.416  13.835  -3.528  1.00 20.00     0.056 A 
HETATM    4  C2  UNL     1     -35.758  13.951  -4.199  1.00 20.00     0.013 A 
HETATM    5  C3  UNL     1     -34.618  13.291  -4.916  1.00 20.00     0.013 A 
ENDBRANCH   1   3
BRANCH   1   6
HETATM    6  C7  UNL     1     -34.304  16.264  -2.827  1.00 20.00     0.056 A 
HETATM    7  C4  UNL     1     -34.760  16.271  -1.413  1.00 20.00     0.013 A 
HETATM    8  C5  UNL     1     -33.597  17.115  -1.836  1.00 20.00     0.013 A 
ENDBRANCH   1   6
TORSDOF 2
ENDMDL
