MODEL 1
REMARK VINA RESULT:      -3.8      0.000      0.000
REMARK  2 active torsions:
REMARK  status: ('A' for Active; 'I' for Inactive)
REMARK    1  A    between atoms: C1_1  and  C3_3 
REMARK    2  A    between atoms: C2_2  and  C3_3 
ROOT
HETATM    1  C3  UNL     1     -33.973   6.394   4.124  1.00 20.00     0.109 C 
HETATM    2 CL6  UNL     1     -33.816   6.533   5.909  1.00 20.00    -0.123 Cl
ENDROOT
BRANCH   1   3
HETATM    3  C1  UNL     1     -34.928   5.248   3.772  1.00 20.00     0.135 C 
HETATM    4 CL4  UNL     1     -35.141   4.069   5.089  1.00 20.00    -0.129 Cl
ENDBRANCH   1   3
BRANCH   1   5
HETATM    5  C2  UNL     1     -32.572   6.304   3.516  1.00 20.00     0.135 C 
HETATM    6 CL5  UNL     1     -32.209   7.701   2.473  1.00 20.00    -0.129 Cl
ENDBRANCH   1   5
TORSDOF 2
ENDMDL
MODEL 2
REMARK VINA RESULT:      -3.7      1.215      3.661
REMARK  2 active torsions:
REMARK  status: ('A' for Active; 'I' for Inactive)
REMARK    1  A    between atoms: C1_1  and  C3_3 
REMARK    2  A    between atoms: C2_2  and  C3_3 
ROOT
HETATM    1  C3  UNL     1     -33.993   6.462   4.225  1.00 20.00     0.109 C 
HETATM    2 CL6  UNL     1     -35.277   5.451   3.478  1.00 20.00    -0.123 Cl
ENDROOT
BRANCH   1   3
HETATM    3  C1  UNL     1     -32.668   6.255   3.483  1.00 20.00     0.135 C 
HETATM    4 CL4  UNL     1     -32.170   7.661   2.509  1.00 20.00    -0.129 Cl
ENDBRANCH   1   3
BRANCH   1   5
HETATM    5  C2  UNL     1     -33.964   6.183   5.729  1.00 20.00     0.135 C 
HETATM    6 CL5  UNL     1     -34.961   4.772   6.162  1.00 20.00    -0.129 Cl
ENDBRANCH   1   5
TORSDOF 2
ENDMDL
MODEL 3
REMARK VINA RESULT:      -3.5      1.417      2.639
REMARK  2 active torsions:
REMARK  status: ('A' for Active; 'I' for Inactive)
REMARK    1  A    between atoms: C1_1  and  C3_3 
REMARK    2  A    between atoms: C2_2  and  C3_3 
ROOT
HETATM    1  C3  UNL     1     -34.051   5.322   5.146  1.00 20.00     0.109 C 
HETATM    2 CL6  UNL     1     -35.203   3.966   4.894  1.00 20.00    -0.123 Cl
ENDROOT
BRANCH   1   3
HETATM    3  C1  UNL     1     -34.385   6.054   6.451  1.00 20.00     0.135 C 
HETATM    4 CL4  UNL     1     -33.253   7.372   6.837  1.00 20.00    -0.129 Cl
ENDBRANCH   1   3
BRANCH   1   5
HETATM    5  C2  UNL     1     -34.031   6.187   3.885  1.00 20.00     0.135 C 
HETATM    6 CL5  UNL     1     -32.370   6.576   3.373  1.00 20.00    -0.129 Cl
ENDBRANCH   1   5
TORSDOF 2
ENDMDL
MODEL 4
REMARK VINA RESULT:      -3.4      0.896      3.532
REMARK  2 active torsions:
REMARK  status: ('A' for Active; 'I' for Inactive)
REMARK    1  A    between atoms: C1_1  and  C3_3 
REMARK    2  A    between atoms: C2_2  and  C3_3 
ROOT
HETATM    1  C3  UNL     1     -33.737   5.785   4.675  1.00 20.00     0.109 C 
HETATM    2 CL6  UNL     1     -33.783   6.750   6.190  1.00 20.00    -0.123 Cl
ENDROOT
BRANCH   1   3
HETATM    3  C1  UNL     1     -33.455   6.704   3.481  1.00 20.00     0.135 C 
HETATM    4 CL4  UNL     1     -31.776   7.294   3.417  1.00 20.00    -0.129 Cl
ENDBRANCH   1   3
BRANCH   1   5
HETATM    5  C2  UNL     1     -35.018   4.953   4.587  1.00 20.00     0.135 C 
HETATM    6 CL5  UNL     1     -35.312   4.025   6.078  1.00 20.00    -0.129 Cl
ENDBRANCH   1   5
TORSDOF 2
ENDMDL
MODEL 5
REMARK VINA RESULT:      -3.4      1.021      1.021
REMARK  2 active torsions:
REMARK  status: ('A' for Active; 'I' for Inactive)
REMARK    1  A    between atoms: C1_1  and  C3_3 
REMARK    2  A    between atoms: C2_2  and  C3_3 
ROOT
HETATM    1  C3  UNL     1     -34.235   6.424   4.577  1.00 20.00     0.109 C 
HETATM    2 CL6  UNL     1     -34.022   6.420   6.360  1.00 20.00    -0.123 Cl
ENDROOT
BRANCH   1   3
HETATM    3  C1  UNL     1     -34.821   5.085   4.118  1.00 20.00     0.135 C 
HETATM    4 CL4  UNL     1     -34.955   3.881   5.423  1.00 20.00    -0.129 Cl
ENDBRANCH   1   3
BRANCH   1   5
HETATM    5  C2  UNL     1     -32.910   6.828   3.927  1.00 20.00     0.135 C 
HETATM    6 CL5  UNL     1     -32.265   5.542   2.878  1.00 20.00    -0.129 Cl
ENDBRANCH   1   5
TORSDOF 2
ENDMDL
MODEL 6
REMARK VINA RESULT:      -3.3      1.407      1.940
REMARK  2 active torsions:
REMARK  status: ('A' for Active; 'I' for Inactive)
REMARK    1  A    between atoms: C1_1  and  C3_3 
REMARK    2  A    between atoms: C2_2  and  C3_3 
ROOT
HETATM    1  C3  UNL     1     -33.631   5.855   4.045  1.00 20.00     0.109 C 
HETATM    2 CL6  UNL     1     -35.279   5.490   3.431  1.00 20.00    -0.123 Cl
ENDROOT
BRANCH   1   3
HETATM    3  C1  UNL     1     -33.720   6.470   5.446  1.00 20.00     0.135 C 
HETATM    4 CL4  UNL     1     -34.722   5.526   6.576  1.00 20.00    -0.129 Cl
ENDBRANCH   1   3
BRANCH   1   5
HETATM    5  C2  UNL     1     -32.893   6.691   2.997  1.00 20.00     0.135 C 
HETATM    6 CL5  UNL     1     -31.502   7.556   3.697  1.00 20.00    -0.129 Cl
ENDBRANCH   1   5
TORSDOF 2
ENDMDL
MODEL 7
REMARK VINA RESULT:      -3.3      1.339      3.422
REMARK  2 active torsions:
REMARK  status: ('A' for Active; 'I' for Inactive)
REMARK    1  A    between atoms: C1_1  and  C3_3 
REMARK    2  A    between atoms: C2_2  and  C3_3 
ROOT
HETATM    1  C3  UNL     1     -34.223   6.310   4.672  1.00 20.00     0.109 C 
HETATM    2 CL6  UNL     1     -32.627   6.560   3.887  1.00 20.00    -0.123 Cl
ENDROOT
BRANCH   1   3
HETATM    3  C1  UNL     1     -34.041   6.149   6.185  1.00 20.00     0.135 C 
HETATM    4 CL4  UNL     1     -33.241   7.539   6.959  1.00 20.00    -0.129 Cl
ENDBRANCH   1   3
BRANCH   1   5
HETATM    5  C2  UNL     1     -34.943   5.162   3.962  1.00 20.00     0.135 C 
HETATM    6 CL5  UNL     1     -35.131   3.742   5.020  1.00 20.00    -0.129 Cl
ENDBRANCH   1   5
TORSDOF 2
ENDMDL
MODEL 8
REMARK VINA RESULT:      -3.2      1.780      3.076
REMARK  2 active torsions:
REMARK  status: ('A' for Active; 'I' for Inactive)
REMARK    1  A    between atoms: C1_1  and  C3_3 
REMARK    2  A    between atoms: C2_2  and  C3_3 
ROOT
HETATM    1  C3  UNL     1     -34.752   5.581   5.124  1.00 20.00     0.109 C 
HETATM    2 CL6  UNL     1     -35.050   3.820   4.930  1.00 20.00    -0.123 Cl
ENDROOT
BRANCH   1   3
HETATM    3  C1  UNL     1     -33.730   6.055   4.085  1.00 20.00     0.135 C 
HETATM    4 CL4  UNL     1     -33.941   5.304   2.484  1.00 20.00    -0.129 Cl
ENDBRANCH   1   3
BRANCH   1   5
HETATM    5  C2  UNL     1     -34.393   5.859   6.585  1.00 20.00     0.135 C 
HETATM    6 CL5  UNL     1     -33.359   7.298   6.753  1.00 20.00    -0.129 Cl
ENDBRANCH   1   5
TORSDOF 2
ENDMDL
MODEL 9
REMARK VINA RESULT:      -3.1      1.453      2.869
REMARK  2 active torsions:
REMARK  status: ('A' for Active; 'I' for Inactive)
REMARK    1  A    between atoms: C1_1  and  C3_3 
REMARK    2  A    between atoms: C2_2  and  C3_3 
ROOT
HETATM    1  C3  UNL     1     -33.278   5.883   4.079  1.00 20.00     0.109 C 
HETATM    2 CL6  UNL     1     -32.154   7.081   3.352  1.00 20.00    -0.123 Cl
ENDROOT
BRANCH   1   3
HETATM    3  C1  UNL     1     -34.303   5.428   3.034  1.00 20.00     0.135 C 
HETATM    4 CL4  UNL     1     -35.992   5.690   3.533  1.00 20.00    -0.129 Cl
ENDBRANCH   1   3
BRANCH   1   5
HETATM    5  C2  UNL     1     -33.857   6.474   5.366  1.00 20.00     0.135 C 
HETATM    6 CL5  UNL     1     -34.433   5.208   6.478  1.00 20.00    -0.129 Cl
ENDBRANCH   1   5
TORSDOF 2
ENDMDL
