MODEL 1
REMARK VINA RESULT:      -4.2      0.000      0.000
REMARK  1 active torsions:
REMARK  status: ('A' for Active; 'I' for Inactive)
REMARK    1  A    between atoms: C1_1  and  C4_4 
REMARK       I    between atoms: C1_1  and  N5_5 
ROOT
HETATM    1  C1  UNL     1     -34.394   5.392   4.461  1.00 20.00     0.326 C 
HETATM    2  C2  UNL     1     -33.411   6.961   6.195  1.00 20.00     0.152 C 
HETATM    3  C3  UNL     1     -32.595   6.968   3.871  1.00 20.00     0.152 C 
HETATM    4  N5  UNL     1     -33.511   6.398   4.851  1.00 20.00    -0.353 N 
HETATM    5  O6  UNL     1     -34.856   5.283   3.322  1.00 20.00    -0.263 OA
ENDROOT
BRANCH   1   6
HETATM    6  C4  UNL     1     -34.793   4.386   5.508  1.00 20.00     0.472 C 
HETATM    7  F7  UNL     1     -33.726   3.889   6.183  1.00 20.00    -0.162 F 
HETATM    8  F8  UNL     1     -35.652   4.903   6.422  1.00 20.00    -0.162 F 
HETATM    9  F9  UNL     1     -35.426   3.315   4.955  1.00 20.00    -0.162 F 
ENDBRANCH   1   6
TORSDOF 1
ENDMDL
MODEL 2
REMARK VINA RESULT:      -4.2     12.902     13.574
REMARK  1 active torsions:
REMARK  status: ('A' for Active; 'I' for Inactive)
REMARK    1  A    between atoms: C1_1  and  C4_4 
REMARK       I    between atoms: C1_1  and  N5_5 
ROOT
HETATM    1  C1  UNL     1     -34.497  13.800  -4.887  1.00 20.00     0.326 C 
HETATM    2  C2  UNL     1     -35.364  16.132  -5.385  1.00 20.00     0.152 C 
HETATM    3  C3  UNL     1     -35.420  14.365  -7.100  1.00 20.00     0.152 C 
HETATM    4  N5  UNL     1     -35.069  14.746  -5.738  1.00 20.00    -0.353 N 
HETATM    5  O6  UNL     1     -34.720  12.588  -4.955  1.00 20.00    -0.263 OA
ENDROOT
BRANCH   1   6
HETATM    6  C4  UNL     1     -33.554  14.309  -3.830  1.00 20.00     0.472 C 
HETATM    7  F7  UNL     1     -32.794  15.345  -4.269  1.00 20.00    -0.162 F 
HETATM    8  F8  UNL     1     -34.202  14.722  -2.712  1.00 20.00    -0.162 F 
HETATM    9  F9  UNL     1     -32.683  13.343  -3.431  1.00 20.00    -0.162 F 
ENDBRANCH   1   6
TORSDOF 1
ENDMDL
MODEL 3
REMARK VINA RESULT:      -4.2     12.899     13.583
REMARK  1 active torsions:
REMARK  status: ('A' for Active; 'I' for Inactive)
REMARK    1  A    between atoms: C1_1  and  C4_4 
REMARK       I    between atoms: C1_1  and  N5_5 
ROOT
HETATM    1  C1  UNL     1     -34.493  13.795  -4.887  1.00 20.00     0.326 C 
HETATM    2  C2  UNL     1     -35.338  16.135  -5.383  1.00 20.00     0.152 C 
HETATM    3  C3  UNL     1     -35.421  14.367  -7.096  1.00 20.00     0.152 C 
HETATM    4  N5  UNL     1     -35.059  14.745  -5.736  1.00 20.00    -0.353 N 
HETATM    5  O6  UNL     1     -34.728  12.585  -4.952  1.00 20.00    -0.263 OA
ENDROOT
BRANCH   1   6
HETATM    6  C4  UNL     1     -33.539  14.295  -3.836  1.00 20.00     0.472 C 
HETATM    7  F7  UNL     1     -32.673  13.335  -3.423  1.00 20.00    -0.162 F 
HETATM    8  F8  UNL     1     -32.804  15.352  -4.263  1.00 20.00    -0.162 F 
HETATM    9  F9  UNL     1     -34.198  14.716  -2.723  1.00 20.00    -0.162 F 
ENDBRANCH   1   6
TORSDOF 1
ENDMDL
MODEL 4
REMARK VINA RESULT:      -4.1      2.966      3.819
REMARK  1 active torsions:
REMARK  status: ('A' for Active; 'I' for Inactive)
REMARK    1  A    between atoms: C1_1  and  C4_4 
REMARK       I    between atoms: C1_1  and  N5_5 
ROOT
HETATM    1  C1  UNL     1     -33.452   6.412   4.988  1.00 20.00     0.326 C 
HETATM    2  C2  UNL     1     -35.238   5.337   3.542  1.00 20.00     0.152 C 
HETATM    3  C3  UNL     1     -34.929   4.659   5.889  1.00 20.00     0.152 C 
HETATM    4  N5  UNL     1     -34.499   5.513   4.789  1.00 20.00    -0.353 N 
HETATM    5  O6  UNL     1     -33.193   6.940   6.073  1.00 20.00    -0.263 OA
ENDROOT
BRANCH   1   6
HETATM    6  C4  UNL     1     -32.598   6.745   3.794  1.00 20.00     0.472 C 
HETATM    7  F7  UNL     1     -32.109   5.638   3.181  1.00 20.00    -0.162 F 
HETATM    8  F8  UNL     1     -33.270   7.466   2.861  1.00 20.00    -0.162 F 
HETATM    9  F9  UNL     1     -31.517   7.493   4.146  1.00 20.00    -0.162 F 
ENDBRANCH   1   6
TORSDOF 1
ENDMDL
MODEL 5
REMARK VINA RESULT:      -3.8      1.630      2.430
REMARK  1 active torsions:
REMARK  status: ('A' for Active; 'I' for Inactive)
REMARK    1  A    between atoms: C1_1  and  C4_4 
REMARK       I    between atoms: C1_1  and  N5_5 
ROOT
HETATM    1  C1  UNL     1     -33.954   5.836   4.779  1.00 20.00     0.326 C 
HETATM    2  C2  UNL     1     -33.600   5.048   2.394  1.00 20.00     0.152 C 
HETATM    3  C3  UNL     1     -32.825   7.269   3.124  1.00 20.00     0.152 C 
HETATM    4  N5  UNL     1     -33.488   6.020   3.479  1.00 20.00    -0.353 N 
HETATM    5  O6  UNL     1     -33.439   6.351   5.776  1.00 20.00    -0.263 OA
ENDROOT
BRANCH   1   6
HETATM    6  C4  UNL     1     -35.161   4.954   4.958  1.00 20.00     0.472 C 
HETATM    7  F7  UNL     1     -36.191   5.315   4.151  1.00 20.00    -0.162 F 
HETATM    8  F8  UNL     1     -34.889   3.648   4.713  1.00 20.00    -0.162 F 
HETATM    9  F9  UNL     1     -35.638   5.011   6.231  1.00 20.00    -0.162 F 
ENDBRANCH   1   6
TORSDOF 1
ENDMDL
MODEL 6
REMARK VINA RESULT:      -3.8      1.659      2.195
REMARK  1 active torsions:
REMARK  status: ('A' for Active; 'I' for Inactive)
REMARK    1  A    between atoms: C1_1  and  C4_4 
REMARK       I    between atoms: C1_1  and  N5_5 
ROOT
HETATM    1  C1  UNL     1     -33.947   5.862   4.709  1.00 20.00     0.326 C 
HETATM    2  C2  UNL     1     -33.580   5.046   2.336  1.00 20.00     0.152 C 
HETATM    3  C3  UNL     1     -32.787   7.265   3.050  1.00 20.00     0.152 C 
HETATM    4  N5  UNL     1     -33.467   6.027   3.411  1.00 20.00    -0.353 N 
HETATM    5  O6  UNL     1     -33.435   6.381   5.705  1.00 20.00    -0.263 OA
ENDROOT
BRANCH   1   6
HETATM    6  C4  UNL     1     -35.165   4.995   4.886  1.00 20.00     0.472 C 
HETATM    7  F7  UNL     1     -35.634   5.014   6.159  1.00 20.00    -0.162 F 
HETATM    8  F8  UNL     1     -36.184   5.360   4.068  1.00 20.00    -0.162 F 
HETATM    9  F9  UNL     1     -34.896   3.692   4.599  1.00 20.00    -0.162 F 
ENDBRANCH   1   6
TORSDOF 1
ENDMDL
MODEL 7
REMARK VINA RESULT:      -3.7     12.918     13.590
REMARK  1 active torsions:
REMARK  status: ('A' for Active; 'I' for Inactive)
REMARK    1  A    between atoms: C1_1  and  C4_4 
REMARK       I    between atoms: C1_1  and  N5_5 
ROOT
HETATM    1  C1  UNL     1     -34.116  15.089  -4.934  1.00 20.00     0.326 C 
HETATM    2  C2  UNL     1     -33.790  16.552  -2.887  1.00 20.00     0.152 C 
HETATM    3  C3  UNL     1     -33.428  17.444  -5.154  1.00 20.00     0.152 C 
HETATM    4  N5  UNL     1     -33.795  16.302  -4.326  1.00 20.00    -0.353 N 
HETATM    5  O6  UNL     1     -34.624  14.993  -6.055  1.00 20.00    -0.263 OA
ENDROOT
BRANCH   1   6
HETATM    6  C4  UNL     1     -33.815  13.833  -4.161  1.00 20.00     0.472 C 
HETATM    7  F7  UNL     1     -33.963  12.713  -4.914  1.00 20.00    -0.162 F 
HETATM    8  F8  UNL     1     -32.556  13.823  -3.657  1.00 20.00    -0.162 F 
HETATM    9  F9  UNL     1     -34.652  13.688  -3.098  1.00 20.00    -0.162 F 
ENDBRANCH   1   6
TORSDOF 1
ENDMDL
MODEL 8
REMARK VINA RESULT:      -3.7     12.924     13.609
REMARK  1 active torsions:
REMARK  status: ('A' for Active; 'I' for Inactive)
REMARK    1  A    between atoms: C1_1  and  C4_4 
REMARK       I    between atoms: C1_1  and  N5_5 
ROOT
HETATM    1  C1  UNL     1     -34.063  15.134  -4.879  1.00 20.00     0.326 C 
HETATM    2  C2  UNL     1     -33.825  16.631  -2.846  1.00 20.00     0.152 C 
HETATM    3  C3  UNL     1     -33.447  17.507  -5.116  1.00 20.00     0.152 C 
HETATM    4  N5  UNL     1     -33.793  16.363  -4.281  1.00 20.00    -0.353 N 
HETATM    5  O6  UNL     1     -34.547  15.007  -6.008  1.00 20.00    -0.263 OA
ENDROOT
BRANCH   1   6
HETATM    6  C4  UNL     1     -33.739  13.897  -4.084  1.00 20.00     0.472 C 
HETATM    7  F7  UNL     1     -34.529  13.763  -2.989  1.00 20.00    -0.162 F 
HETATM    8  F8  UNL     1     -33.861  12.763  -4.818  1.00 20.00    -0.162 F 
HETATM    9  F9  UNL     1     -32.457  13.919  -3.628  1.00 20.00    -0.162 F 
ENDBRANCH   1   6
TORSDOF 1
ENDMDL
MODEL 9
REMARK VINA RESULT:      -3.7     12.460     13.049
REMARK  1 active torsions:
REMARK  status: ('A' for Active; 'I' for Inactive)
REMARK    1  A    between atoms: C1_1  and  C4_4 
REMARK       I    between atoms: C1_1  and  N5_5 
ROOT
HETATM    1  C1  UNL     1     -35.925  14.519  -3.704  1.00 20.00     0.326 C 
HETATM    2  C2  UNL     1     -34.578  16.059  -2.205  1.00 20.00     0.152 C 
HETATM    3  C3  UNL     1     -36.774  16.745  -3.081  1.00 20.00     0.152 C 
HETATM    4  N5  UNL     1     -35.743  15.717  -3.016  1.00 20.00    -0.353 N 
HETATM    5  O6  UNL     1     -37.028  14.012  -3.926  1.00 20.00    -0.263 OA
ENDROOT
BRANCH   1   6
HETATM    6  C4  UNL     1     -34.688  13.817  -4.199  1.00 20.00     0.472 C 
HETATM    7  F7  UNL     1     -33.876  14.639  -4.911  1.00 20.00    -0.162 F 
HETATM    8  F8  UNL     1     -33.953  13.289  -3.189  1.00 20.00    -0.162 F 
HETATM    9  F9  UNL     1     -34.999  12.781  -5.025  1.00 20.00    -0.162 F 
ENDBRANCH   1   6
TORSDOF 1
ENDMDL
