MODEL 1
REMARK VINA RESULT:      -3.4      0.000      0.000
REMARK  2 active torsions:
REMARK  status: ('A' for Active; 'I' for Inactive)
REMARK    1  A    between atoms: C3_3  and  C4_4 
REMARK    2  A    between atoms: C4_4  and  O5_5 
ROOT
HETATM    1  C1  UNL     1     -33.377  13.772  -3.721  1.00 20.00     0.046 C 
HETATM    2  C2  UNL     1     -34.732  14.189  -5.782  1.00 20.00     0.046 C 
HETATM    3  C4  UNL     1     -34.797  13.844  -4.293  1.00 20.00     0.063 C 
ENDROOT
BRANCH   3   4
HETATM    4  C3  UNL     1     -35.626  14.852  -3.481  1.00 20.00     0.151 C 
HETATM    5 CL6  UNL     1     -34.659  15.736  -2.271  1.00 20.00    -0.127 Cl
ENDBRANCH   3   4
BRANCH   3   6
HETATM    6  O5  UNL     1     -35.379  12.544  -4.172  1.00 20.00    -0.390 OA
HETATM    7  H15 UNL     1     -36.285  12.619  -4.505  1.00 20.00     0.210 HD
ENDBRANCH   3   6
TORSDOF 2
ENDMDL
MODEL 2
REMARK VINA RESULT:      -3.3      1.670      2.435
REMARK  2 active torsions:
REMARK  status: ('A' for Active; 'I' for Inactive)
REMARK    1  A    between atoms: C3_3  and  C4_4 
REMARK    2  A    between atoms: C4_4  and  O5_5 
ROOT
HETATM    1  C1  UNL     1     -35.635  14.840  -3.593  1.00 20.00     0.046 C 
HETATM    2  C2  UNL     1     -33.382  13.777  -3.816  1.00 20.00     0.046 C 
HETATM    3  C4  UNL     1     -34.812  13.797  -4.357  1.00 20.00     0.063 C 
ENDROOT
BRANCH   3   4
HETATM    4  C3  UNL     1     -34.878  14.095  -5.863  1.00 20.00     0.151 C 
HETATM    5 CL6  UNL     1     -34.072  15.623  -6.307  1.00 20.00    -0.127 Cl
ENDBRANCH   3   4
BRANCH   3   6
HETATM    6  O5  UNL     1     -35.393  12.516  -4.101  1.00 20.00    -0.390 OA
HETATM    7  H15 UNL     1     -35.722  12.192  -4.952  1.00 20.00     0.210 HD
ENDBRANCH   3   6
TORSDOF 2
ENDMDL
MODEL 3
REMARK VINA RESULT:      -3.2      0.607      1.812
REMARK  2 active torsions:
REMARK  status: ('A' for Active; 'I' for Inactive)
REMARK    1  A    between atoms: C3_3  and  C4_4 
REMARK    2  A    between atoms: C4_4  and  O5_5 
ROOT
HETATM    1  C1  UNL     1     -34.900  14.213  -5.871  1.00 20.00     0.046 C 
HETATM    2  C2  UNL     1     -36.074  14.715  -3.720  1.00 20.00     0.046 C 
HETATM    3  C4  UNL     1     -34.916  13.949  -4.361  1.00 20.00     0.063 C 
ENDROOT
BRANCH   3   4
HETATM    4  C3  UNL     1     -33.550  14.319  -3.762  1.00 20.00     0.151 C 
HETATM    5 CL6  UNL     1     -33.584  15.843  -2.836  1.00 20.00    -0.127 Cl
ENDBRANCH   3   4
BRANCH   3   6
HETATM    6  O5  UNL     1     -35.156  12.553  -4.168  1.00 20.00    -0.390 OA
HETATM    7  H15 UNL     1     -34.914  12.118  -4.999  1.00 20.00     0.210 HD
ENDBRANCH   3   6
TORSDOF 2
ENDMDL
MODEL 4
REMARK VINA RESULT:      -3.1     12.271     12.668
REMARK  2 active torsions:
REMARK  status: ('A' for Active; 'I' for Inactive)
REMARK    1  A    between atoms: C3_3  and  C4_4 
REMARK    2  A    between atoms: C4_4  and  O5_5 
ROOT
HETATM    1  C1  UNL     1     -33.504   5.243   4.113  1.00 20.00     0.046 C 
HETATM    2  C2  UNL     1     -35.964   5.652   3.920  1.00 20.00     0.046 C 
HETATM    3  C4  UNL     1     -34.873   4.969   4.746  1.00 20.00     0.063 C 
ENDROOT
BRANCH   3   4
HETATM    4  C3  UNL     1     -34.860   5.424   6.213  1.00 20.00     0.151 C 
HETATM    5 CL6  UNL     1     -33.801   6.831   6.498  1.00 20.00    -0.127 Cl
ENDBRANCH   3   4
BRANCH   3   6
HETATM    6  O5  UNL     1     -35.101   3.558   4.688  1.00 20.00    -0.390 OA
HETATM    7  H15 UNL     1     -35.944   3.438   4.228  1.00 20.00     0.210 HD
ENDBRANCH   3   6
TORSDOF 2
ENDMDL
MODEL 5
REMARK VINA RESULT:      -3.1     11.986     12.261
REMARK  2 active torsions:
REMARK  status: ('A' for Active; 'I' for Inactive)
REMARK    1  A    between atoms: C3_3  and  C4_4 
REMARK    2  A    between atoms: C4_4  and  O5_5 
ROOT
HETATM    1  C1  UNL     1     -42.015   4.503   0.187  1.00 20.00     0.046 C 
HETATM    2  C2  UNL     1     -41.019   6.351  -1.173  1.00 20.00     0.046 C 
HETATM    3  C4  UNL     1     -41.308   4.850  -1.128  1.00 20.00     0.063 C 
ENDROOT
BRANCH   3   4
HETATM    4  C3  UNL     1     -42.163   4.369  -2.311  1.00 20.00     0.151 C 
HETATM    5 CL6  UNL     1     -41.597   2.824  -2.999  1.00 20.00    -0.127 Cl
ENDBRANCH   3   4
BRANCH   3   6
HETATM    6  O5  UNL     1     -40.054   4.164  -1.139  1.00 20.00    -0.390 OA
HETATM    7  H15 UNL     1     -39.373   4.840  -1.007  1.00 20.00     0.210 HD
ENDBRANCH   3   6
TORSDOF 2
ENDMDL
MODEL 6
REMARK VINA RESULT:      -3.1     11.545     12.070
REMARK  2 active torsions:
REMARK  status: ('A' for Active; 'I' for Inactive)
REMARK    1  A    between atoms: C3_3  and  C4_4 
REMARK    2  A    between atoms: C4_4  and  O5_5 
ROOT
HETATM    1  C1  UNL     1     -34.227   6.306   5.324  1.00 20.00     0.046 C 
HETATM    2  C2  UNL     1     -34.865   3.927   4.888  1.00 20.00     0.046 C 
HETATM    3  C4  UNL     1     -34.715   5.315   4.262  1.00 20.00     0.063 C 
ENDROOT
BRANCH   3   4
HETATM    4  C3  UNL     1     -33.751   5.331   3.065  1.00 20.00     0.151 C 
HETATM    5 CL6  UNL     1     -32.363   6.425   3.302  1.00 20.00    -0.127 Cl
ENDBRANCH   3   4
BRANCH   3   6
HETATM    6  O5  UNL     1     -36.011   5.742   3.834  1.00 20.00    -0.390 OA
HETATM    7  H15 UNL     1     -36.620   5.524   4.554  1.00 20.00     0.210 HD
ENDBRANCH   3   6
TORSDOF 2
ENDMDL
MODEL 7
REMARK VINA RESULT:      -3.1     11.725     12.156
REMARK  2 active torsions:
REMARK  status: ('A' for Active; 'I' for Inactive)
REMARK    1  A    between atoms: C3_3  and  C4_4 
REMARK    2  A    between atoms: C4_4  and  O5_5 
ROOT
HETATM    1  C1  UNL     1     -34.941   4.088   4.866  1.00 20.00     0.046 C 
HETATM    2  C2  UNL     1     -34.061   4.979   2.701  1.00 20.00     0.046 C 
HETATM    3  C4  UNL     1     -34.772   5.344   4.005  1.00 20.00     0.063 C 
ENDROOT
BRANCH   3   4
HETATM    4  C3  UNL     1     -34.029   6.421   4.811  1.00 20.00     0.151 C 
HETATM    5 CL6  UNL     1     -34.222   6.232   6.574  1.00 20.00    -0.127 Cl
ENDBRANCH   3   4
BRANCH   3   6
HETATM    6  O5  UNL     1     -36.079   5.819   3.671  1.00 20.00    -0.390 OA
HETATM    7  H15 UNL     1     -36.626   5.032   3.533  1.00 20.00     0.210 HD
ENDBRANCH   3   6
TORSDOF 2
ENDMDL
MODEL 8
REMARK VINA RESULT:      -3.0      2.725      3.125
REMARK  2 active torsions:
REMARK  status: ('A' for Active; 'I' for Inactive)
REMARK    1  A    between atoms: C3_3  and  C4_4 
REMARK    2  A    between atoms: C4_4  and  O5_5 
ROOT
HETATM    1  C1  UNL     1     -34.369  13.758  -3.846  1.00 20.00     0.046 C 
HETATM    2  C2  UNL     1     -33.919  15.905  -2.644  1.00 20.00     0.046 C 
HETATM    3  C4  UNL     1     -33.573  15.067  -3.876  1.00 20.00     0.063 C 
ENDROOT
BRANCH   3   4
HETATM    4  C3  UNL     1     -33.847  15.804  -5.196  1.00 20.00     0.151 C 
HETATM    5 CL6  UNL     1     -34.446  14.725  -6.485  1.00 20.00    -0.127 Cl
ENDBRANCH   3   4
BRANCH   3   6
HETATM    6  O5  UNL     1     -32.185  14.732  -3.799  1.00 20.00    -0.390 OA
HETATM    7  H15 UNL     1     -31.736  15.512  -3.443  1.00 20.00     0.210 HD
ENDBRANCH   3   6
TORSDOF 2
ENDMDL
MODEL 9
REMARK VINA RESULT:      -3.0      2.138      2.572
REMARK  2 active torsions:
REMARK  status: ('A' for Active; 'I' for Inactive)
REMARK    1  A    between atoms: C3_3  and  C4_4 
REMARK    2  A    between atoms: C4_4  and  O5_5 
ROOT
HETATM    1  C1  UNL     1     -34.460  15.028  -5.779  1.00 20.00     0.046 C 
HETATM    2  C2  UNL     1     -33.528  13.984  -3.706  1.00 20.00     0.046 C 
HETATM    3  C4  UNL     1     -33.712  15.297  -4.469  1.00 20.00     0.063 C 
ENDROOT
BRANCH   3   4
HETATM    4  C3  UNL     1     -34.467  16.360  -3.656  1.00 20.00     0.151 C 
HETATM    5 CL6  UNL     1     -34.563  15.971  -1.918  1.00 20.00    -0.127 Cl
ENDBRANCH   3   4
BRANCH   3   6
HETATM    6  O5  UNL     1     -32.413  15.791  -4.806  1.00 20.00    -0.390 OA
HETATM    7  H15 UNL     1     -32.386  16.711  -4.505  1.00 20.00     0.210 HD
ENDBRANCH   3   6
TORSDOF 2
ENDMDL
