MODEL 1
REMARK VINA RESULT:      -4.0      0.000      0.000
REMARK  2 active torsions:
REMARK  status: ('A' for Active; 'I' for Inactive)
REMARK    1  A    between atoms: C3_3  and  C4_4 
REMARK    2  A    between atoms: C4_4  and  S6_6 
ROOT
HETATM    1  C1  UNL     1     -32.254   7.726   2.467  1.00 20.00     0.133 C 
HETATM    2  N5  UNL     1     -32.218   8.683   1.813  1.00 20.00    -0.184 NA
HETATM    3  S6  UNL     1     -32.299   6.329   3.419  1.00 20.00    -0.046 SA
ENDROOT
BRANCH   3   4
HETATM    4  C4  UNL     1     -34.039   6.409   3.926  1.00 20.00     0.135 C 
BRANCH   4   5
HETATM    5  C3  UNL     1     -34.204   5.971   5.352  1.00 20.00    -0.011 C 
HETATM    6  C2  UNL     1     -33.820   6.721   6.395  1.00 20.00     0.027 C 
HETATM    7 BR7  UNL     1     -34.906   4.251   5.601  1.00 20.00    -0.056 Br
ENDBRANCH   4   5
ENDBRANCH   3   4
TORSDOF 2
ENDMDL
MODEL 2
REMARK VINA RESULT:      -3.8      1.288      1.540
REMARK  2 active torsions:
REMARK  status: ('A' for Active; 'I' for Inactive)
REMARK    1  A    between atoms: C3_3  and  C4_4 
REMARK    2  A    between atoms: C4_4  and  S6_6 
ROOT
HETATM    1  C1  UNL     1     -32.237   7.658   2.477  1.00 20.00     0.133 C 
HETATM    2  N5  UNL     1     -32.202   8.653   1.883  1.00 20.00    -0.184 NA
HETATM    3  S6  UNL     1     -32.279   6.206   3.343  1.00 20.00    -0.046 SA
ENDROOT
BRANCH   3   4
HETATM    4  C4  UNL     1     -34.077   6.077   3.556  1.00 20.00     0.135 C 
BRANCH   4   5
HETATM    5  C3  UNL     1     -34.418   5.492   4.896  1.00 20.00    -0.011 C 
HETATM    6  C2  UNL     1     -35.083   4.337   5.041  1.00 20.00     0.027 C 
HETATM    7 BR7  UNL     1     -33.936   6.526   6.383  1.00 20.00    -0.056 Br
ENDBRANCH   4   5
ENDBRANCH   3   4
TORSDOF 2
ENDMDL
MODEL 3
REMARK VINA RESULT:      -3.3     11.436     12.073
REMARK  2 active torsions:
REMARK  status: ('A' for Active; 'I' for Inactive)
REMARK    1  A    between atoms: C3_3  and  C4_4 
REMARK    2  A    between atoms: C4_4  and  S6_6 
ROOT
HETATM    1  C1  UNL     1     -36.225  13.973  -4.245  1.00 20.00     0.133 C 
HETATM    2  N5  UNL     1     -37.241  14.312  -3.801  1.00 20.00    -0.184 NA
HETATM    3  S6  UNL     1     -34.749  13.475  -4.900  1.00 20.00    -0.046 SA
ENDROOT
BRANCH   3   4
HETATM    4  C4  UNL     1     -33.653  14.114  -3.603  1.00 20.00     0.135 C 
BRANCH   4   5
HETATM    5  C3  UNL     1     -33.704  15.613  -3.547  1.00 20.00    -0.011 C 
HETATM    6  C2  UNL     1     -33.266  16.397  -4.543  1.00 20.00     0.027 C 
HETATM    7 BR7  UNL     1     -34.342  16.347  -1.944  1.00 20.00    -0.056 Br
ENDBRANCH   4   5
ENDBRANCH   3   4
TORSDOF 2
ENDMDL
MODEL 4
REMARK VINA RESULT:      -3.3     11.584     12.364
REMARK  2 active torsions:
REMARK  status: ('A' for Active; 'I' for Inactive)
REMARK    1  A    between atoms: C3_3  and  C4_4 
REMARK    2  A    between atoms: C4_4  and  S6_6 
ROOT
HETATM    1  C1  UNL     1     -35.589  13.590  -4.277  1.00 20.00     0.133 C 
HETATM    2  N5  UNL     1     -34.837  12.757  -4.568  1.00 20.00    -0.184 NA
HETATM    3  S6  UNL     1     -36.691  14.798  -3.850  1.00 20.00    -0.046 SA
ENDROOT
BRANCH   3   4
HETATM    4  C4  UNL     1     -35.753  16.235  -4.440  1.00 20.00     0.135 C 
BRANCH   4   5
HETATM    5  C3  UNL     1     -34.443  16.355  -3.718  1.00 20.00    -0.011 C 
HETATM    6  C2  UNL     1     -33.261  16.394  -4.350  1.00 20.00     0.027 C 
HETATM    7 BR7  UNL     1     -34.542  16.357  -1.846  1.00 20.00    -0.056 Br
ENDBRANCH   4   5
ENDBRANCH   3   4
TORSDOF 2
ENDMDL
MODEL 5
REMARK VINA RESULT:      -3.2     11.334     11.966
REMARK  2 active torsions:
REMARK  status: ('A' for Active; 'I' for Inactive)
REMARK    1  A    between atoms: C3_3  and  C4_4 
REMARK    2  A    between atoms: C4_4  and  S6_6 
ROOT
HETATM    1  C1  UNL     1     -34.098  13.665  -4.173  1.00 20.00     0.133 C 
HETATM    2  N5  UNL     1     -34.818  12.808  -4.473  1.00 20.00    -0.184 NA
HETATM    3  S6  UNL     1     -33.041  14.909  -3.733  1.00 20.00    -0.046 SA
ENDROOT
BRANCH   3   4
HETATM    4  C4  UNL     1     -34.155  16.314  -4.009  1.00 20.00     0.135 C 
BRANCH   4   5
HETATM    5  C3  UNL     1     -35.214  16.377  -2.948  1.00 20.00    -0.011 C 
HETATM    6  C2  UNL     1     -36.525  16.317  -3.220  1.00 20.00     0.027 C 
HETATM    7 BR7  UNL     1     -34.599  16.639  -1.196  1.00 20.00    -0.056 Br
ENDBRANCH   4   5
ENDBRANCH   3   4
TORSDOF 2
ENDMDL
MODEL 6
REMARK VINA RESULT:      -3.2     11.961     13.156
REMARK  2 active torsions:
REMARK  status: ('A' for Active; 'I' for Inactive)
REMARK    1  A    between atoms: C3_3  and  C4_4 
REMARK    2  A    between atoms: C4_4  and  S6_6 
ROOT
HETATM    1  C1  UNL     1     -35.256  13.762  -3.998  1.00 20.00     0.133 C 
HETATM    2  N5  UNL     1     -34.964  12.721  -4.417  1.00 20.00    -0.184 NA
HETATM    3  S6  UNL     1     -35.682  15.276  -3.380  1.00 20.00    -0.046 SA
ENDROOT
BRANCH   3   4
HETATM    4  C4  UNL     1     -35.763  16.190  -4.945  1.00 20.00     0.135 C 
BRANCH   4   5
HETATM    5  C3  UNL     1     -34.460  16.103  -5.685  1.00 20.00    -0.011 C 
HETATM    6  C2  UNL     1     -33.336  16.695  -5.257  1.00 20.00     0.027 C 
HETATM    7 BR7  UNL     1     -34.510  15.183  -7.318  1.00 20.00    -0.056 Br
ENDBRANCH   4   5
ENDBRANCH   3   4
TORSDOF 2
ENDMDL
MODEL 7
REMARK VINA RESULT:      -3.1     12.011     13.256
REMARK  2 active torsions:
REMARK  status: ('A' for Active; 'I' for Inactive)
REMARK    1  A    between atoms: C3_3  and  C4_4 
REMARK    2  A    between atoms: C4_4  and  S6_6 
ROOT
HETATM    1  C1  UNL     1     -34.739  13.748  -3.894  1.00 20.00     0.133 C 
HETATM    2  N5  UNL     1     -34.963  12.731  -4.403  1.00 20.00    -0.184 NA
HETATM    3  S6  UNL     1     -34.420  15.231  -3.147  1.00 20.00    -0.046 SA
ENDROOT
BRANCH   3   4
HETATM    4  C4  UNL     1     -33.096  15.804  -4.247  1.00 20.00     0.135 C 
BRANCH   4   5
HETATM    5  C3  UNL     1     -33.655  16.584  -5.400  1.00 20.00    -0.011 C 
HETATM    6  C2  UNL     1     -34.070  16.008  -6.538  1.00 20.00     0.027 C 
HETATM    7 BR7  UNL     1     -33.660  18.447  -5.199  1.00 20.00    -0.056 Br
ENDBRANCH   4   5
ENDBRANCH   3   4
TORSDOF 2
ENDMDL
MODEL 8
REMARK VINA RESULT:      -3.1     12.057     12.379
REMARK  2 active torsions:
REMARK  status: ('A' for Active; 'I' for Inactive)
REMARK    1  A    between atoms: C3_3  and  C4_4 
REMARK    2  A    between atoms: C4_4  and  S6_6 
ROOT
HETATM    1  C1  UNL     1     -34.652  13.827  -4.821  1.00 20.00     0.133 C 
HETATM    2  N5  UNL     1     -34.923  12.783  -4.393  1.00 20.00    -0.184 NA
HETATM    3  S6  UNL     1     -34.261  15.345  -5.452  1.00 20.00    -0.046 SA
ENDROOT
BRANCH   3   4
HETATM    4  C4  UNL     1     -33.548  16.080  -3.954  1.00 20.00     0.135 C 
BRANCH   4   5
HETATM    5  C3  UNL     1     -34.623  16.475  -2.985  1.00 20.00    -0.011 C 
HETATM    6  C2  UNL     1     -34.551  16.221  -1.671  1.00 20.00     0.027 C 
HETATM    7 BR7  UNL     1     -36.143  17.277  -3.735  1.00 20.00    -0.056 Br
ENDBRANCH   4   5
ENDBRANCH   3   4
TORSDOF 2
ENDMDL
MODEL 9
REMARK VINA RESULT:      -3.0     11.794     12.476
REMARK  2 active torsions:
REMARK  status: ('A' for Active; 'I' for Inactive)
REMARK    1  A    between atoms: C3_3  and  C4_4 
REMARK    2  A    between atoms: C4_4  and  S6_6 
ROOT
HETATM    1  C1  UNL     1     -37.425  15.177  -4.019  1.00 20.00     0.133 C 
HETATM    2  N5  UNL     1     -38.107  14.279  -3.751  1.00 20.00    -0.184 NA
HETATM    3  S6  UNL     1     -36.437  16.493  -4.409  1.00 20.00    -0.046 SA
ENDROOT
BRANCH   3   4
HETATM    4  C4  UNL     1     -34.965  15.573  -4.936  1.00 20.00     0.135 C 
BRANCH   4   5
HETATM    5  C3  UNL     1     -34.198  15.061  -3.752  1.00 20.00    -0.011 C 
HETATM    6  C2  UNL     1     -33.602  13.861  -3.730  1.00 20.00     0.027 C 
HETATM    7 BR7  UNL     1     -34.192  16.173  -2.242  1.00 20.00    -0.056 Br
ENDBRANCH   4   5
ENDBRANCH   3   4
TORSDOF 2
ENDMDL
