MODEL 1
REMARK VINA RESULT:      -2.7      0.000      0.000
REMARK  1 active torsions:
REMARK  status: ('A' for Active; 'I' for Inactive)
REMARK    1  A    between atoms: C5_5  and  S6_6 
ROOT
HETATM    1  C1  UNL     1     -33.819  16.361  -2.354  1.00 20.00     0.026 C 
HETATM    2  C2  UNL     1     -32.596  14.527  -3.563  1.00 20.00     0.026 C 
HETATM    3  C3  UNL     1     -33.364  16.564  -4.819  1.00 20.00     0.026 C 
HETATM    4  C5  UNL     1     -33.685  15.598  -3.675  1.00 20.00    -0.003 C 
ENDROOT
BRANCH   4   5
HETATM    5  S6  UNL     1     -35.279  14.766  -4.038  1.00 20.00    -0.165 SA
HETATM    6  C4  UNL     1     -34.606  13.270  -4.791  1.00 20.00     0.090 C 
ENDBRANCH   4   5
TORSDOF 1
ENDMDL
MODEL 2
REMARK VINA RESULT:      -2.7      0.120      1.758
REMARK  1 active torsions:
REMARK  status: ('A' for Active; 'I' for Inactive)
REMARK    1  A    between atoms: C5_5  and  S6_6 
ROOT
HETATM    1  C1  UNL     1     -32.675  14.394  -3.551  1.00 20.00     0.026 C 
HETATM    2  C2  UNL     1     -33.276  16.450  -4.868  1.00 20.00     0.026 C 
HETATM    3  C3  UNL     1     -33.824  16.323  -2.418  1.00 20.00     0.026 C 
HETATM    4  C5  UNL     1     -33.693  15.526  -3.719  1.00 20.00    -0.003 C 
ENDROOT
BRANCH   4   5
HETATM    5  S6  UNL     1     -35.325  14.795  -4.128  1.00 20.00    -0.165 SA
HETATM    6  C4  UNL     1     -34.727  13.235  -4.812  1.00 20.00     0.090 C 
ENDBRANCH   4   5
TORSDOF 1
ENDMDL
MODEL 3
REMARK VINA RESULT:      -2.7      0.102      1.790
REMARK  1 active torsions:
REMARK  status: ('A' for Active; 'I' for Inactive)
REMARK    1  A    between atoms: C5_5  and  S6_6 
ROOT
HETATM    1  C1  UNL     1     -33.308  16.514  -4.824  1.00 20.00     0.026 C 
HETATM    2  C2  UNL     1     -33.799  16.351  -2.364  1.00 20.00     0.026 C 
HETATM    3  C3  UNL     1     -32.675  14.441  -3.550  1.00 20.00     0.026 C 
HETATM    4  C5  UNL     1     -33.696  15.574  -3.680  1.00 20.00    -0.003 C 
ENDROOT
BRANCH   4   5
HETATM    5  S6  UNL     1     -35.339  14.845  -4.050  1.00 20.00    -0.165 SA
HETATM    6  C4  UNL     1     -34.762  13.264  -4.702  1.00 20.00     0.090 C 
ENDBRANCH   4   5
TORSDOF 1
ENDMDL
MODEL 4
REMARK VINA RESULT:      -2.7      1.641      2.327
REMARK  1 active torsions:
REMARK  status: ('A' for Active; 'I' for Inactive)
REMARK    1  A    between atoms: C5_5  and  S6_6 
ROOT
HETATM    1  C1  UNL     1     -35.785  14.064  -4.195  1.00 20.00     0.026 C 
HETATM    2  C2  UNL     1     -33.335  13.746  -3.731  1.00 20.00     0.026 C 
HETATM    3  C3  UNL     1     -34.599  15.596  -2.593  1.00 20.00     0.026 C 
HETATM    4  C5  UNL     1     -34.465  14.770  -3.875  1.00 20.00    -0.003 C 
ENDROOT
BRANCH   4   5
HETATM    5  S6  UNL     1     -34.050  15.898  -5.262  1.00 20.00    -0.165 SA
HETATM    6  C4  UNL     1     -34.560  14.817  -6.615  1.00 20.00     0.090 C 
ENDBRANCH   4   5
TORSDOF 1
ENDMDL
MODEL 5
REMARK VINA RESULT:      -2.7      1.645      2.337
REMARK  1 active torsions:
REMARK  status: ('A' for Active; 'I' for Inactive)
REMARK    1  A    between atoms: C5_5  and  S6_6 
ROOT
HETATM    1  C1  UNL     1     -34.593  15.572  -2.619  1.00 20.00     0.026 C 
HETATM    2  C2  UNL     1     -35.767  14.042  -4.231  1.00 20.00     0.026 C 
HETATM    3  C3  UNL     1     -33.323  13.718  -3.747  1.00 20.00     0.026 C 
HETATM    4  C5  UNL     1     -34.448  14.745  -3.900  1.00 20.00    -0.003 C 
ENDROOT
BRANCH   4   5
HETATM    5  S6  UNL     1     -34.030  15.873  -5.285  1.00 20.00    -0.165 SA
HETATM    6  C4  UNL     1     -34.573  14.808  -6.637  1.00 20.00     0.090 C 
ENDBRANCH   4   5
TORSDOF 1
ENDMDL
MODEL 6
REMARK VINA RESULT:      -2.7     11.619     12.563
REMARK  1 active torsions:
REMARK  status: ('A' for Active; 'I' for Inactive)
REMARK    1  A    between atoms: C5_5  and  S6_6 
ROOT
HETATM    1  C1  UNL     1     -42.609   5.484   0.294  1.00 20.00     0.026 C 
HETATM    2  C2  UNL     1     -40.708   4.578  -1.079  1.00 20.00     0.026 C 
HETATM    3  C3  UNL     1     -41.015   7.062  -0.845  1.00 20.00     0.026 C 
HETATM    4  C5  UNL     1     -41.729   5.711  -0.939  1.00 20.00    -0.003 C 
ENDROOT
BRANCH   4   5
HETATM    5  S6  UNL     1     -42.798   5.712  -2.431  1.00 20.00    -0.165 SA
HETATM    6  C4  UNL     1     -42.333   7.339  -3.060  1.00 20.00     0.090 C 
ENDBRANCH   4   5
TORSDOF 1
ENDMDL
MODEL 7
REMARK VINA RESULT:      -2.7      1.096      2.704
REMARK  1 active torsions:
REMARK  status: ('A' for Active; 'I' for Inactive)
REMARK    1  A    between atoms: C5_5  and  S6_6 
ROOT
HETATM    1  C1  UNL     1     -34.332  15.466  -5.759  1.00 20.00     0.026 C 
HETATM    2  C2  UNL     1     -32.993  15.078  -3.667  1.00 20.00     0.026 C 
HETATM    3  C3  UNL     1     -34.548  13.294  -4.512  1.00 20.00     0.026 C 
HETATM    4  C5  UNL     1     -34.320  14.802  -4.379  1.00 20.00    -0.003 C 
ENDROOT
BRANCH   4   5
HETATM    5  S6  UNL     1     -35.677  15.516  -3.371  1.00 20.00    -0.165 SA
HETATM    6  C4  UNL     1     -34.672  16.094  -1.988  1.00 20.00     0.090 C 
ENDBRANCH   4   5
TORSDOF 1
ENDMDL
MODEL 8
REMARK VINA RESULT:      -2.7      1.078      2.761
REMARK  1 active torsions:
REMARK  status: ('A' for Active; 'I' for Inactive)
REMARK    1  A    between atoms: C5_5  and  S6_6 
ROOT
HETATM    1  C1  UNL     1     -34.529  13.267  -4.498  1.00 20.00     0.026 C 
HETATM    2  C2  UNL     1     -34.335  15.459  -5.715  1.00 20.00     0.026 C 
HETATM    3  C3  UNL     1     -32.962  15.042  -3.651  1.00 20.00     0.026 C 
HETATM    4  C5  UNL     1     -34.300  14.773  -4.345  1.00 20.00    -0.003 C 
ENDROOT
BRANCH   4   5
HETATM    5  S6  UNL     1     -35.648  15.471  -3.315  1.00 20.00    -0.165 SA
HETATM    6  C4  UNL     1     -34.622  16.120  -1.980  1.00 20.00     0.090 C 
ENDBRANCH   4   5
TORSDOF 1
ENDMDL
MODEL 9
REMARK VINA RESULT:      -2.7     11.607     12.661
REMARK  1 active torsions:
REMARK  status: ('A' for Active; 'I' for Inactive)
REMARK    1  A    between atoms: C5_5  and  S6_6 
ROOT
HETATM    1  C1  UNL     1     -40.742   4.597  -1.071  1.00 20.00     0.026 C 
HETATM    2  C2  UNL     1     -41.050   7.084  -0.866  1.00 20.00     0.026 C 
HETATM    3  C3  UNL     1     -42.715   5.521   0.185  1.00 20.00     0.026 C 
HETATM    4  C5  UNL     1     -41.764   5.735  -0.996  1.00 20.00    -0.003 C 
ENDROOT
BRANCH   4   5
HETATM    5  S6  UNL     1     -42.745   5.749  -2.547  1.00 20.00    -0.165 SA
HETATM    6  C4  UNL     1     -42.296   7.406  -3.104  1.00 20.00     0.090 C 
ENDBRANCH   4   5
TORSDOF 1
ENDMDL
