MODEL 1
REMARK VINA RESULT:      -5.0      0.000      0.000
REMARK  2 active torsions:
REMARK  status: ('A' for Active; 'I' for Inactive)
REMARK    1  A    between atoms: C1_1  and  C6_6 
REMARK    2  A    between atoms: C5_5  and  C10_10 
ROOT
HETATM    1  C2  UNL     1     -33.695  16.938  -3.837  1.00 20.00     0.006 C 
HETATM    2  C3  UNL     1     -34.283  15.877  -4.768  1.00 20.00     0.016 C 
HETATM    3  C4  UNL     1     -35.062  15.552  -2.468  1.00 20.00     0.021 C 
HETATM    4  C5  UNL     1     -33.727  16.298  -2.453  1.00 20.00    -0.010 C 
HETATM    5  C6  UNL     1     -35.124  14.939  -3.877  1.00 20.00     0.010 C 
HETATM    6  C7  UNL     1     -36.560  14.797  -4.372  1.00 20.00     0.023 C 
ENDROOT
BRANCH   4   7
HETATM    7  C10 UNL     1     -33.621  17.309  -1.325  1.00 20.00    -0.019 C 
HETATM    8  C8  UNL     1     -33.701  18.739  -1.866  1.00 20.00     0.010 C 
HETATM    9  C9  UNL     1     -34.713  17.076  -0.280  1.00 20.00     0.010 C 
ENDBRANCH   4   7
BRANCH   5  10
HETATM   10  C1  UNL     1     -34.516  13.558  -3.865  1.00 20.00     0.240 C 
HETATM   11  O11 UNL     1     -35.047  12.583  -4.385  1.00 20.00    -0.306 OA
ENDBRANCH   5  10
TORSDOF 2
ENDMDL
MODEL 2
REMARK VINA RESULT:      -4.7      1.493      2.234
REMARK  2 active torsions:
REMARK  status: ('A' for Active; 'I' for Inactive)
REMARK    1  A    between atoms: C1_1  and  C6_6 
REMARK    2  A    between atoms: C5_5  and  C10_10 
ROOT
HETATM    1  C2  UNL     1     -34.470  14.227  -3.299  1.00 20.00     0.006 C 
HETATM    2  C3  UNL     1     -35.413  13.747  -4.404  1.00 20.00     0.016 C 
HETATM    3  C4  UNL     1     -35.542  16.179  -4.138  1.00 20.00     0.021 C 
HETATM    4  C5  UNL     1     -35.069  15.549  -2.828  1.00 20.00    -0.010 C 
HETATM    5  C6  UNL     1     -36.155  15.000  -4.912  1.00 20.00     0.010 C 
HETATM    6  C7  UNL     1     -36.025  15.182  -6.422  1.00 20.00     0.023 C 
ENDROOT
BRANCH   4   7
HETATM    7  C10 UNL     1     -34.078  16.416  -2.072  1.00 20.00    -0.019 C 
HETATM    8  C8  UNL     1     -33.798  17.714  -2.833  1.00 20.00     0.010 C 
HETATM    9  C9  UNL     1     -34.592  16.728  -0.665  1.00 20.00     0.010 C 
ENDBRANCH   4   7
BRANCH   5  10
HETATM   10  C1  UNL     1     -37.627  14.889  -4.601  1.00 20.00     0.240 C 
HETATM   11  O11 UNL     1     -38.076  14.181  -3.706  1.00 20.00    -0.306 OA
ENDBRANCH   5  10
TORSDOF 2
ENDMDL
MODEL 3
REMARK VINA RESULT:      -4.7      1.033      1.418
REMARK  2 active torsions:
REMARK  status: ('A' for Active; 'I' for Inactive)
REMARK    1  A    between atoms: C1_1  and  C6_6 
REMARK    2  A    between atoms: C5_5  and  C10_10 
ROOT
HETATM    1  C2  UNL     1     -34.029  17.634  -3.368  1.00 20.00     0.006 C 
HETATM    2  C3  UNL     1     -34.186  16.458  -4.333  1.00 20.00     0.016 C 
HETATM    3  C4  UNL     1     -34.747  15.794  -2.042  1.00 20.00     0.021 C 
HETATM    4  C5  UNL     1     -33.794  16.989  -2.006  1.00 20.00    -0.010 C 
HETATM    5  C6  UNL     1     -34.594  15.245  -3.470  1.00 20.00     0.010 C 
HETATM    6  C7  UNL     1     -35.877  14.584  -3.966  1.00 20.00     0.023 C 
ENDROOT
BRANCH   4   7
HETATM    7  C10 UNL     1     -34.062  17.931  -0.846  1.00 20.00    -0.019 C 
HETATM    8  C8  UNL     1     -34.900  17.242   0.233  1.00 20.00     0.010 C 
HETATM    9  C9  UNL     1     -32.750  18.446  -0.249  1.00 20.00     0.010 C 
ENDBRANCH   4   7
BRANCH   5  10
HETATM   10  C1  UNL     1     -33.508  14.199  -3.507  1.00 20.00     0.240 C 
HETATM   11  O11 UNL     1     -33.657  13.089  -4.008  1.00 20.00    -0.306 OA
ENDBRANCH   5  10
TORSDOF 2
ENDMDL
MODEL 4
REMARK VINA RESULT:      -4.4      1.249      1.933
REMARK  2 active torsions:
REMARK  status: ('A' for Active; 'I' for Inactive)
REMARK    1  A    between atoms: C1_1  and  C6_6 
REMARK    2  A    between atoms: C5_5  and  C10_10 
ROOT
HETATM    1  C2  UNL     1     -35.639  16.041  -2.541  1.00 20.00     0.006 C 
HETATM    2  C3  UNL     1     -35.792  15.154  -3.778  1.00 20.00     0.016 C 
HETATM    3  C4  UNL     1     -33.428  15.525  -3.251  1.00 20.00     0.021 C 
HETATM    4  C5  UNL     1     -34.261  16.677  -2.688  1.00 20.00    -0.010 C 
HETATM    5  C6  UNL     1     -34.362  14.865  -4.279  1.00 20.00     0.010 C 
HETATM    6  C7  UNL     1     -34.086  13.370  -4.420  1.00 20.00     0.023 C 
ENDROOT
BRANCH   4   7
HETATM    7  C10 UNL     1     -33.715  17.227  -1.383  1.00 20.00    -0.019 C 
HETATM    8  C8  UNL     1     -33.378  18.714  -1.516  1.00 20.00     0.010 C 
HETATM    9  C9  UNL     1     -34.710  17.010  -0.241  1.00 20.00     0.010 C 
ENDBRANCH   4   7
BRANCH   5  10
HETATM   10  C1  UNL     1     -34.155  15.487  -5.637  1.00 20.00     0.240 C 
HETATM   11  O11 UNL     1     -34.298  14.874  -6.689  1.00 20.00    -0.306 OA
ENDBRANCH   5  10
TORSDOF 2
ENDMDL
MODEL 5
REMARK VINA RESULT:      -4.4      1.781      2.520
REMARK  2 active torsions:
REMARK  status: ('A' for Active; 'I' for Inactive)
REMARK    1  A    between atoms: C1_1  and  C6_6 
REMARK    2  A    between atoms: C5_5  and  C10_10 
ROOT
HETATM    1  C2  UNL     1     -34.184  14.172  -3.484  1.00 20.00     0.006 C 
HETATM    2  C3  UNL     1     -34.740  13.678  -4.819  1.00 20.00     0.016 C 
HETATM    3  C4  UNL     1     -34.626  16.125  -4.770  1.00 20.00     0.021 C 
HETATM    4  C5  UNL     1     -34.726  15.591  -3.340  1.00 20.00    -0.010 C 
HETATM    5  C6  UNL     1     -35.085  14.941  -5.636  1.00 20.00     0.010 C 
HETATM    6  C7  UNL     1     -34.415  14.948  -7.008  1.00 20.00     0.023 C 
ENDROOT
BRANCH   4   7
HETATM    7  C10 UNL     1     -33.952  16.426  -2.335  1.00 20.00    -0.019 C 
HETATM    8  C8  UNL     1     -33.732  17.846  -2.862  1.00 20.00     0.010 C 
HETATM    9  C9  UNL     1     -34.678  16.467  -0.989  1.00 20.00     0.010 C 
ENDBRANCH   4   7
BRANCH   5  10
HETATM   10  C1  UNL     1     -36.573  15.016  -5.865  1.00 20.00     0.240 C 
HETATM   11  O11 UNL     1     -37.200  16.070  -5.893  1.00 20.00    -0.306 OA
ENDBRANCH   5  10
TORSDOF 2
ENDMDL
MODEL 6
REMARK VINA RESULT:      -4.2      1.614      3.260
REMARK  2 active torsions:
REMARK  status: ('A' for Active; 'I' for Inactive)
REMARK    1  A    between atoms: C1_1  and  C6_6 
REMARK    2  A    between atoms: C5_5  and  C10_10 
ROOT
HETATM    1  C2  UNL     1     -34.830  16.990  -3.356  1.00 20.00     0.006 C 
HETATM    2  C3  UNL     1     -34.678  15.595  -2.749  1.00 20.00     0.016 C 
HETATM    3  C4  UNL     1     -34.030  15.597  -5.112  1.00 20.00     0.021 C 
HETATM    4  C5  UNL     1     -35.007  16.744  -4.851  1.00 20.00    -0.010 C 
HETATM    5  C6  UNL     1     -34.216  14.673  -3.897  1.00 20.00     0.010 C 
HETATM    6  C7  UNL     1     -32.935  13.916  -3.557  1.00 20.00     0.023 C 
ENDROOT
BRANCH   4   7
HETATM    7  C10 UNL     1     -34.724  17.973  -5.696  1.00 20.00    -0.019 C 
HETATM    8  C8  UNL     1     -33.518  18.743  -5.151  1.00 20.00     0.010 C 
HETATM    9  C9  UNL     1     -34.489  17.588  -7.157  1.00 20.00     0.010 C 
ENDBRANCH   4   7
BRANCH   5  10
HETATM   10  C1  UNL     1     -35.279  13.644  -4.191  1.00 20.00     0.240 C 
HETATM   11  O11 UNL     1     -35.029  12.506  -4.574  1.00 20.00    -0.306 OA
ENDBRANCH   5  10
TORSDOF 2
ENDMDL
MODEL 7
REMARK VINA RESULT:      -4.2      2.245      3.102
REMARK  2 active torsions:
REMARK  status: ('A' for Active; 'I' for Inactive)
REMARK    1  A    between atoms: C1_1  and  C6_6 
REMARK    2  A    between atoms: C5_5  and  C10_10 
ROOT
HETATM    1  C2  UNL     1     -34.273  15.470  -6.662  1.00 20.00     0.006 C 
HETATM    2  C3  UNL     1     -34.826  14.232  -5.955  1.00 20.00     0.016 C 
HETATM    3  C4  UNL     1     -34.807  16.165  -4.450  1.00 20.00     0.021 C 
HETATM    4  C5  UNL     1     -33.749  16.356  -5.537  1.00 20.00    -0.010 C 
HETATM    5  C6  UNL     1     -35.119  14.661  -4.502  1.00 20.00     0.010 C 
HETATM    6  C7  UNL     1     -36.557  14.364  -4.086  1.00 20.00     0.023 C 
ENDROOT
BRANCH   4   7
HETATM    7  C10 UNL     1     -33.574  17.806  -5.952  1.00 20.00    -0.019 C 
HETATM    8  C8  UNL     1     -34.625  18.207  -6.990  1.00 20.00     0.010 C 
HETATM    9  C9  UNL     1     -33.649  18.733  -4.737  1.00 20.00     0.010 C 
ENDBRANCH   4   7
BRANCH   5  10
HETATM   10  C1  UNL     1     -34.216  13.914  -3.552  1.00 20.00     0.240 C 
HETATM   11  O11 UNL     1     -33.390  13.084  -3.917  1.00 20.00    -0.306 OA
ENDBRANCH   5  10
TORSDOF 2
ENDMDL
MODEL 8
REMARK VINA RESULT:      -4.2      2.232      4.589
REMARK  2 active torsions:
REMARK  status: ('A' for Active; 'I' for Inactive)
REMARK    1  A    between atoms: C1_1  and  C6_6 
REMARK    2  A    between atoms: C5_5  and  C10_10 
ROOT
HETATM    1  C2  UNL     1     -34.995  13.633  -5.700  1.00 20.00     0.006 C 
HETATM    2  C3  UNL     1     -34.710  13.708  -4.200  1.00 20.00     0.016 C 
HETATM    3  C4  UNL     1     -34.749  15.946  -5.197  1.00 20.00     0.021 C 
HETATM    4  C5  UNL     1     -34.400  14.916  -6.272  1.00 20.00    -0.010 C 
HETATM    5  C6  UNL     1     -34.491  15.200  -3.877  1.00 20.00     0.010 C 
HETATM    6  C7  UNL     1     -35.403  15.694  -2.757  1.00 20.00     0.023 C 
ENDROOT
BRANCH   4   7
HETATM    7  C10 UNL     1     -34.951  15.271  -7.641  1.00 20.00    -0.019 C 
HETATM    8  C8  UNL     1     -36.390  14.775  -7.795  1.00 20.00     0.010 C 
HETATM    9  C9  UNL     1     -34.883  16.781  -7.880  1.00 20.00     0.010 C 
ENDBRANCH   4   7
BRANCH   5  10
HETATM   10  C1  UNL     1     -33.069  15.427  -3.428  1.00 20.00     0.240 C 
HETATM   11  O11 UNL     1     -32.186  14.582  -3.528  1.00 20.00    -0.306 OA
ENDBRANCH   5  10
TORSDOF 2
ENDMDL
MODEL 9
REMARK VINA RESULT:      -4.2      2.103      4.245
REMARK  2 active torsions:
REMARK  status: ('A' for Active; 'I' for Inactive)
REMARK    1  A    between atoms: C1_1  and  C6_6 
REMARK    2  A    between atoms: C5_5  and  C10_10 
ROOT
HETATM    1  C2  UNL     1     -33.394  16.480  -4.184  1.00 20.00     0.006 C 
HETATM    2  C3  UNL     1     -33.732  17.428  -3.033  1.00 20.00     0.016 C 
HETATM    3  C4  UNL     1     -35.183  15.455  -2.998  1.00 20.00     0.021 C 
HETATM    4  C5  UNL     1     -34.675  15.687  -4.421  1.00 20.00    -0.010 C 
HETATM    5  C6  UNL     1     -34.931  16.798  -2.294  1.00 20.00     0.010 C 
HETATM    6  C7  UNL     1     -34.666  16.617  -0.802  1.00 20.00     0.023 C 
ENDROOT
BRANCH   4   7
HETATM    7  C10 UNL     1     -34.445  14.399  -5.192  1.00 20.00    -0.019 C 
HETATM    8  C8  UNL     1     -34.944  13.191  -4.394  1.00 20.00     0.010 C 
HETATM    9  C9  UNL     1     -35.132  14.452  -6.558  1.00 20.00     0.010 C 
ENDBRANCH   4   7
BRANCH   5  10
HETATM   10  C1  UNL     1     -36.143  17.686  -2.429  1.00 20.00     0.240 C 
HETATM   11  O11 UNL     1     -37.277  17.256  -2.612  1.00 20.00    -0.306 OA
ENDBRANCH   5  10
TORSDOF 2
ENDMDL
