MODEL 1
REMARK VINA RESULT:      -4.4      0.000      0.000
REMARK  2 active torsions:
REMARK  status: ('A' for Active; 'I' for Inactive)
REMARK    1  A    between atoms: C1_1  and  C3_3 
REMARK    2  A    between atoms: C2_2  and  C5_5 
ROOT
HETATM    1  C1  UNL     1     -33.344   6.616   3.309  1.00 20.00     0.003 C 
HETATM    2  C2  UNL     1     -32.202   7.298   3.155  1.00 20.00     0.041 C 
ENDROOT
BRANCH   1   3
HETATM    3  C3  UNL     1     -33.624   5.818   4.482  1.00 20.00    -0.004 C 
HETATM    4  C4  UNL     1     -34.777   5.157   4.662  1.00 20.00    -0.031 C 
HETATM    5  C6  UNL     1     -35.077   4.330   5.869  1.00 20.00     0.036 C 
ENDBRANCH   1   3
BRANCH   2   6
HETATM    6  C5  UNL     1     -32.000   8.088   1.924  1.00 20.00     0.258 C 
HETATM    7  O7  UNL     1     -32.396   9.242   1.823  1.00 20.00    -0.302 OA
ENDBRANCH   2   6
TORSDOF 2
ENDMDL
MODEL 2
REMARK VINA RESULT:      -4.3      2.457      4.615
REMARK  2 active torsions:
REMARK  status: ('A' for Active; 'I' for Inactive)
REMARK    1  A    between atoms: C1_1  and  C3_3 
REMARK    2  A    between atoms: C2_2  and  C5_5 
ROOT
HETATM    1  C1  UNL     1     -33.171   6.192   3.951  1.00 20.00     0.003 C 
HETATM    2  C2  UNL     1     -34.356   5.571   3.900  1.00 20.00     0.041 C 
ENDROOT
BRANCH   1   3
HETATM    3  C3  UNL     1     -32.500   6.688   2.770  1.00 20.00    -0.004 C 
HETATM    4  C4  UNL     1     -32.407   7.992   2.471  1.00 20.00    -0.031 C 
HETATM    5  C6  UNL     1     -31.716   8.516   1.254  1.00 20.00     0.036 C 
ENDBRANCH   1   3
BRANCH   2   6
HETATM    6  C5  UNL     1     -34.970   5.097   5.157  1.00 20.00     0.258 C 
HETATM    7  O7  UNL     1     -34.585   5.486   6.253  1.00 20.00    -0.302 OA
ENDBRANCH   2   6
TORSDOF 2
ENDMDL
MODEL 3
REMARK VINA RESULT:      -4.1     10.872     11.251
REMARK  2 active torsions:
REMARK  status: ('A' for Active; 'I' for Inactive)
REMARK    1  A    between atoms: C1_1  and  C3_3 
REMARK    2  A    between atoms: C2_2  and  C5_5 
ROOT
HETATM    1  C1  UNL     1     -33.675  15.618  -3.273  1.00 20.00     0.003 C 
HETATM    2  C2  UNL     1     -34.476  14.551  -3.390  1.00 20.00     0.041 C 
ENDROOT
BRANCH   1   3
HETATM    3  C3  UNL     1     -33.770  16.547  -2.168  1.00 20.00    -0.004 C 
HETATM    4  C4  UNL     1     -34.640  16.400  -1.158  1.00 20.00    -0.031 C 
HETATM    5  C6  UNL     1     -34.747  17.352  -0.013  1.00 20.00     0.036 C 
ENDBRANCH   1   3
BRANCH   2   6
HETATM    6  C5  UNL     1     -34.309  13.655  -4.551  1.00 20.00     0.258 C 
HETATM    7  O7  UNL     1     -34.882  12.575  -4.624  1.00 20.00    -0.302 OA
ENDBRANCH   2   6
TORSDOF 2
ENDMDL
MODEL 4
REMARK VINA RESULT:      -3.6     11.430     11.644
REMARK  2 active torsions:
REMARK  status: ('A' for Active; 'I' for Inactive)
REMARK    1  A    between atoms: C1_1  and  C3_3 
REMARK    2  A    between atoms: C2_2  and  C5_5 
ROOT
HETATM    1  C1  UNL     1     -33.806  16.497  -2.054  1.00 20.00     0.003 C 
HETATM    2  C2  UNL     1     -34.019  15.623  -3.045  1.00 20.00     0.041 C 
ENDROOT
BRANCH   1   3
HETATM    3  C3  UNL     1     -34.654  16.573  -0.885  1.00 20.00    -0.004 C 
HETATM    4  C4  UNL     1     -34.510  17.506   0.068  1.00 20.00    -0.031 C 
HETATM    5  C6  UNL     1     -35.379  17.593   1.279  1.00 20.00     0.036 C 
ENDBRANCH   1   3
BRANCH   2   6
HETATM    6  C5  UNL     1     -33.101  15.615  -4.202  1.00 20.00     0.258 C 
HETATM    7  O7  UNL     1     -32.943  16.602  -4.910  1.00 20.00    -0.302 OA
ENDBRANCH   2   6
TORSDOF 2
ENDMDL
MODEL 5
REMARK VINA RESULT:      -3.5     10.969     11.437
REMARK  2 active torsions:
REMARK  status: ('A' for Active; 'I' for Inactive)
REMARK    1  A    between atoms: C1_1  and  C3_3 
REMARK    2  A    between atoms: C2_2  and  C5_5 
ROOT
HETATM    1  C1  UNL     1     -33.869  16.789  -1.911  1.00 20.00     0.003 C 
HETATM    2  C2  UNL     1     -34.668  16.540  -0.866  1.00 20.00     0.041 C 
ENDROOT
BRANCH   1   3
HETATM    3  C3  UNL     1     -33.613  15.813  -2.947  1.00 20.00    -0.004 C 
HETATM    4  C4  UNL     1     -34.416  14.765  -3.183  1.00 20.00    -0.031 C 
HETATM    5  C6  UNL     1     -34.161  13.751  -4.250  1.00 20.00     0.036 C 
ENDBRANCH   1   3
BRANCH   2   6
HETATM    6  C5  UNL     1     -34.874  17.595   0.146  1.00 20.00     0.258 C 
HETATM    7  O7  UNL     1     -35.257  17.339   1.281  1.00 20.00    -0.302 OA
ENDBRANCH   2   6
TORSDOF 2
ENDMDL
MODEL 6
REMARK VINA RESULT:      -3.5     11.017     11.385
REMARK  2 active torsions:
REMARK  status: ('A' for Active; 'I' for Inactive)
REMARK    1  A    between atoms: C1_1  and  C3_3 
REMARK    2  A    between atoms: C2_2  and  C5_5 
ROOT
HETATM    1  C1  UNL     1     -34.077  16.194  -2.148  1.00 20.00     0.003 C 
HETATM    2  C2  UNL     1     -34.695  16.576  -1.023  1.00 20.00     0.041 C 
ENDROOT
BRANCH   1   3
HETATM    3  C3  UNL     1     -34.601  15.160  -3.013  1.00 20.00    -0.004 C 
HETATM    4  C4  UNL     1     -33.820  14.344  -3.738  1.00 20.00    -0.031 C 
HETATM    5  C6  UNL     1     -34.350  13.274  -4.635  1.00 20.00     0.036 C 
ENDBRANCH   1   3
BRANCH   2   6
HETATM    6  C5  UNL     1     -34.088  17.640  -0.199  1.00 20.00     0.258 C 
HETATM    7  O7  UNL     1     -32.988  18.113  -0.459  1.00 20.00    -0.302 OA
ENDBRANCH   2   6
TORSDOF 2
ENDMDL
MODEL 7
REMARK VINA RESULT:      -3.4     10.014     10.675
REMARK  2 active torsions:
REMARK  status: ('A' for Active; 'I' for Inactive)
REMARK    1  A    between atoms: C1_1  and  C3_3 
REMARK    2  A    between atoms: C2_2  and  C5_5 
ROOT
HETATM    1  C1  UNL     1     -41.894   4.269  -2.247  1.00 20.00     0.003 C 
HETATM    2  C2  UNL     1     -41.047   4.474  -1.231  1.00 20.00     0.041 C 
ENDROOT
BRANCH   1   3
HETATM    3  C3  UNL     1     -42.192   2.950  -2.760  1.00 20.00    -0.004 C 
HETATM    4  C4  UNL     1     -41.328   2.237  -3.498  1.00 20.00    -0.031 C 
HETATM    5  C6  UNL     1     -41.624   0.875  -4.034  1.00 20.00     0.036 C 
ENDBRANCH   1   3
BRANCH   2   6
HETATM    6  C5  UNL     1     -40.802   5.856  -0.771  1.00 20.00     0.258 C 
HETATM    7  O7  UNL     1     -40.811   6.807  -1.543  1.00 20.00    -0.302 OA
ENDBRANCH   2   6
TORSDOF 2
ENDMDL
MODEL 8
REMARK VINA RESULT:      -3.4     11.434     12.061
REMARK  2 active torsions:
REMARK  status: ('A' for Active; 'I' for Inactive)
REMARK    1  A    between atoms: C1_1  and  C3_3 
REMARK    2  A    between atoms: C2_2  and  C5_5 
ROOT
HETATM    1  C1  UNL     1     -34.046  17.252  -0.750  1.00 20.00     0.003 C 
HETATM    2  C2  UNL     1     -33.071  18.065  -1.178  1.00 20.00     0.041 C 
ENDROOT
BRANCH   1   3
HETATM    3  C3  UNL     1     -34.589  16.189  -1.566  1.00 20.00    -0.004 C 
HETATM    4  C4  UNL     1     -34.204  15.964  -2.831  1.00 20.00    -0.031 C 
HETATM    5  C6  UNL     1     -34.758  14.870  -3.683  1.00 20.00     0.036 C 
ENDBRANCH   1   3
BRANCH   2   6
HETATM    6  C5  UNL     1     -32.576  19.125  -0.278  1.00 20.00     0.258 C 
HETATM    7  O7  UNL     1     -31.384  19.263  -0.033  1.00 20.00    -0.302 OA
ENDBRANCH   2   6
TORSDOF 2
ENDMDL
MODEL 9
REMARK VINA RESULT:      -3.3     10.935     11.651
REMARK  2 active torsions:
REMARK  status: ('A' for Active; 'I' for Inactive)
REMARK    1  A    between atoms: C1_1  and  C3_3 
REMARK    2  A    between atoms: C2_2  and  C5_5 
ROOT
HETATM    1  C1  UNL     1     -41.981   3.181  -2.916  1.00 20.00     0.003 C 
HETATM    2  C2  UNL     1     -41.486   2.123  -3.570  1.00 20.00     0.041 C 
ENDROOT
BRANCH   1   3
HETATM    3  C3  UNL     1     -41.236   3.888  -1.898  1.00 20.00    -0.004 C 
HETATM    4  C4  UNL     1     -41.493   5.157  -1.547  1.00 20.00    -0.031 C 
HETATM    5  C6  UNL     1     -40.730   5.897  -0.498  1.00 20.00     0.036 C 
ENDBRANCH   1   3
BRANCH   2   6
HETATM    6  C5  UNL     1     -42.317   1.462  -4.595  1.00 20.00     0.258 C 
HETATM    7  O7  UNL     1     -42.709   2.054  -5.593  1.00 20.00    -0.302 OA
ENDBRANCH   2   6
TORSDOF 2
ENDMDL
