MODEL 1
REMARK VINA RESULT:      -4.8      0.000      0.000
REMARK  0 active torsions:
REMARK  status: ('A' for Active; 'I' for Inactive)
ROOT
HETATM    1  C1  UNL     1     -36.722  14.778  -3.637  1.00 20.00     0.223 A 
HETATM    2  C2  UNL     1     -34.287  13.985  -3.452  1.00 20.00     0.027 A 
HETATM    3  C3  UNL     1     -35.422  14.498  -4.287  1.00 20.00     0.089 A 
HETATM    4  C4  UNL     1     -34.409  15.476  -3.727  1.00 20.00    -0.006 A 
HETATM    5  C5  UNL     1     -35.177  16.391  -2.756  1.00 20.00     0.034 A 
HETATM    6  C6  UNL     1     -33.365  16.080  -4.621  1.00 20.00     0.018 C 
HETATM    7  C7  UNL     1     -35.275  17.840  -3.249  1.00 20.00     0.039 C 
HETATM    8  C8  UNL     1     -34.569  16.359  -1.352  1.00 20.00     0.039 C 
HETATM    9  N9  UNL     1     -36.528  15.821  -2.750  1.00 20.00    -0.351 N 
HETATM   10  O10 UNL     1     -37.742  14.154  -3.873  1.00 20.00    -0.273 OA
HETATM   11  H23 UNL     1     -37.277  16.195  -2.174  1.00 20.00     0.163 HD
ENDROOT
TORSDOF 0
ENDMDL
MODEL 2
REMARK VINA RESULT:      -4.5      2.378      3.124
REMARK  0 active torsions:
REMARK  status: ('A' for Active; 'I' for Inactive)
ROOT
HETATM    1  C1  UNL     1     -33.251  13.855  -3.760  1.00 20.00     0.223 A 
HETATM    2  C2  UNL     1     -35.300  14.239  -5.258  1.00 20.00     0.027 A 
HETATM    3  C3  UNL     1     -34.722  13.880  -3.922  1.00 20.00     0.089 A 
HETATM    4  C4  UNL     1     -35.128  15.314  -4.196  1.00 20.00    -0.006 A 
HETATM    5  C5  UNL     1     -33.839  16.152  -4.132  1.00 20.00     0.034 A 
HETATM    6  C6  UNL     1     -36.386  15.872  -3.598  1.00 20.00     0.018 C 
HETATM    7  C7  UNL     1     -33.808  17.116  -2.939  1.00 20.00     0.039 C 
HETATM    8  C8  UNL     1     -33.604  16.925  -5.431  1.00 20.00     0.039 C 
HETATM    9  N9  UNL     1     -32.790  15.147  -3.931  1.00 20.00    -0.351 N 
HETATM   10  O10 UNL     1     -32.616  12.839  -3.532  1.00 20.00    -0.273 OA
HETATM   11  H23 UNL     1     -31.805  15.387  -3.873  1.00 20.00     0.163 HD
ENDROOT
TORSDOF 0
ENDMDL
MODEL 3
REMARK VINA RESULT:      -4.4      2.271      3.270
REMARK  0 active torsions:
REMARK  status: ('A' for Active; 'I' for Inactive)
ROOT
HETATM    1  C1  UNL     1     -33.451  13.622  -3.793  1.00 20.00     0.223 A 
HETATM    2  C2  UNL     1     -34.268  15.785  -2.676  1.00 20.00     0.027 A 
HETATM    3  C3  UNL     1     -33.345  15.090  -3.632  1.00 20.00     0.089 A 
HETATM    4  C4  UNL     1     -34.630  15.702  -4.151  1.00 20.00    -0.006 A 
HETATM    5  C5  UNL     1     -35.484  14.537  -4.683  1.00 20.00     0.034 A 
HETATM    6  C6  UNL     1     -34.598  16.989  -4.922  1.00 20.00     0.018 C 
HETATM    7  C7  UNL     1     -35.662  14.571  -6.206  1.00 20.00     0.039 C 
HETATM    8  C8  UNL     1     -36.851  14.483  -4.000  1.00 20.00     0.039 C 
HETATM    9  N9  UNL     1     -34.688  13.352  -4.346  1.00 20.00    -0.351 N 
HETATM   10  O10 UNL     1     -32.573  12.843  -3.461  1.00 20.00    -0.273 OA
HETATM   11  H23 UNL     1     -35.001  12.407  -4.548  1.00 20.00     0.163 HD
ENDROOT
TORSDOF 0
ENDMDL
MODEL 4
REMARK VINA RESULT:      -4.4      1.403      2.032
REMARK  0 active torsions:
REMARK  status: ('A' for Active; 'I' for Inactive)
ROOT
HETATM    1  C1  UNL     1     -36.496  14.525  -4.084  1.00 20.00     0.223 A 
HETATM    2  C2  UNL     1     -35.063  14.043  -6.159  1.00 20.00     0.027 A 
HETATM    3  C3  UNL     1     -36.017  14.936  -5.423  1.00 20.00     0.089 A 
HETATM    4  C4  UNL     1     -34.527  15.191  -5.318  1.00 20.00    -0.006 A 
HETATM    5  C5  UNL     1     -34.149  14.971  -3.843  1.00 20.00     0.034 A 
HETATM    6  C6  UNL     1     -33.900  16.333  -6.065  1.00 20.00     0.018 C 
HETATM    7  C7  UNL     1     -33.721  16.263  -3.134  1.00 20.00     0.039 C 
HETATM    8  C8  UNL     1     -33.058  13.909  -3.692  1.00 20.00     0.039 C 
HETATM    9  N9  UNL     1     -35.404  14.515  -3.236  1.00 20.00    -0.351 N 
HETATM   10  O10 UNL     1     -37.657  14.244  -3.841  1.00 20.00    -0.273 OA
HETATM   11  H23 UNL     1     -35.477  14.258  -2.255  1.00 20.00     0.163 HD
ENDROOT
TORSDOF 0
ENDMDL
MODEL 5
REMARK VINA RESULT:      -4.4      2.267      3.319
REMARK  0 active torsions:
REMARK  status: ('A' for Active; 'I' for Inactive)
ROOT
HETATM    1  C1  UNL     1     -35.017  13.721  -4.761  1.00 20.00     0.223 A 
HETATM    2  C2  UNL     1     -36.979  15.218  -5.470  1.00 20.00     0.027 A 
HETATM    3  C3  UNL     1     -36.092  14.669  -4.392  1.00 20.00     0.089 A 
HETATM    4  C4  UNL     1     -35.759  16.007  -5.021  1.00 20.00    -0.006 A 
HETATM    5  C5  UNL     1     -34.406  15.829  -5.733  1.00 20.00     0.034 A 
HETATM    6  C6  UNL     1     -36.023  17.282  -4.274  1.00 20.00     0.018 C 
HETATM    7  C7  UNL     1     -33.274  16.633  -5.081  1.00 20.00     0.039 C 
HETATM    8  C8  UNL     1     -34.502  16.178  -7.220  1.00 20.00     0.039 C 
HETATM    9  N9  UNL     1     -34.113  14.404  -5.553  1.00 20.00    -0.351 N 
HETATM   10  O10 UNL     1     -34.999  12.553  -4.409  1.00 20.00    -0.273 OA
HETATM   11  H23 UNL     1     -33.284  13.962  -5.940  1.00 20.00     0.163 HD
ENDROOT
TORSDOF 0
ENDMDL
MODEL 6
REMARK VINA RESULT:      -4.4      1.263      2.738
REMARK  0 active torsions:
REMARK  status: ('A' for Active; 'I' for Inactive)
ROOT
HETATM    1  C1  UNL     1     -36.883  14.603  -3.842  1.00 20.00     0.223 A 
HETATM    2  C2  UNL     1     -35.927  16.985  -3.791  1.00 20.00     0.027 A 
HETATM    3  C3  UNL     1     -36.350  15.744  -3.064  1.00 20.00     0.089 A 
HETATM    4  C4  UNL     1     -34.895  15.921  -3.449  1.00 20.00    -0.006 A 
HETATM    5  C5  UNL     1     -34.569  14.797  -4.448  1.00 20.00     0.034 A 
HETATM    6  C6  UNL     1     -33.876  16.286  -2.409  1.00 20.00     0.018 C 
HETATM    7  C7  UNL     1     -33.579  13.767  -3.889  1.00 20.00     0.039 C 
HETATM    8  C8  UNL     1     -34.045  15.355  -5.773  1.00 20.00     0.039 C 
HETATM    9  N9  UNL     1     -35.859  14.129  -4.641  1.00 20.00    -0.351 N 
HETATM   10  O10 UNL     1     -38.035  14.210  -3.758  1.00 20.00    -0.273 OA
HETATM   11  H23 UNL     1     -35.981  13.346  -5.276  1.00 20.00     0.163 HD
ENDROOT
TORSDOF 0
ENDMDL
MODEL 7
REMARK VINA RESULT:      -4.4      2.723      3.658
REMARK  0 active torsions:
REMARK  status: ('A' for Active; 'I' for Inactive)
ROOT
HETATM    1  C1  UNL     1     -33.184  14.884  -4.048  1.00 20.00     0.223 A 
HETATM    2  C2  UNL     1     -35.041  13.137  -4.351  1.00 20.00     0.027 A 
HETATM    3  C3  UNL     1     -34.446  14.273  -3.574  1.00 20.00     0.089 A 
HETATM    4  C4  UNL     1     -35.512  14.559  -4.611  1.00 20.00    -0.006 A 
HETATM    5  C5  UNL     1     -34.843  15.419  -5.698  1.00 20.00     0.034 A 
HETATM    6  C6  UNL     1     -36.913  14.889  -4.186  1.00 20.00     0.018 C 
HETATM    7  C7  UNL     1     -35.387  16.853  -5.748  1.00 20.00     0.039 C 
HETATM    8  C8  UNL     1     -34.958  14.771  -7.079  1.00 20.00     0.039 C 
HETATM    9  N9  UNL     1     -33.443  15.480  -5.269  1.00 20.00    -0.351 N 
HETATM   10  O10 UNL     1     -32.133  14.824  -3.432  1.00 20.00    -0.273 OA
HETATM   11  H23 UNL     1     -32.726  15.964  -5.802  1.00 20.00     0.163 HD
ENDROOT
TORSDOF 0
ENDMDL
MODEL 8
REMARK VINA RESULT:      -4.3      2.459      3.682
REMARK  0 active torsions:
REMARK  status: ('A' for Active; 'I' for Inactive)
ROOT
HETATM    1  C1  UNL     1     -33.724  17.021  -4.533  1.00 20.00     0.223 A 
HETATM    2  C2  UNL     1     -34.711  16.096  -2.350  1.00 20.00     0.027 A 
HETATM    3  C3  UNL     1     -34.894  16.827  -3.647  1.00 20.00     0.089 A 
HETATM    4  C4  UNL     1     -35.179  15.341  -3.584  1.00 20.00    -0.006 A 
HETATM    5  C5  UNL     1     -34.164  14.661  -4.520  1.00 20.00     0.034 A 
HETATM    6  C6  UNL     1     -36.596  14.842  -3.567  1.00 20.00     0.018 C 
HETATM    7  C7  UNL     1     -34.815  14.034  -5.759  1.00 20.00     0.039 C 
HETATM    8  C8  UNL     1     -33.332  13.611  -3.781  1.00 20.00     0.039 C 
HETATM    9  N9  UNL     1     -33.317  15.773  -4.966  1.00 20.00    -0.351 N 
HETATM   10  O10 UNL     1     -33.242  18.113  -4.783  1.00 20.00    -0.273 OA
HETATM   11  H23 UNL     1     -32.522  15.642  -5.585  1.00 20.00     0.163 HD
ENDROOT
TORSDOF 0
ENDMDL
MODEL 9
REMARK VINA RESULT:      -4.2      1.365      2.229
REMARK  0 active torsions:
REMARK  status: ('A' for Active; 'I' for Inactive)
ROOT
HETATM    1  C1  UNL     1     -36.487  14.778  -3.993  1.00 20.00     0.223 A 
HETATM    2  C2  UNL     1     -34.814  15.869  -2.380  1.00 20.00     0.027 A 
HETATM    3  C3  UNL     1     -35.281  14.665  -3.141  1.00 20.00     0.089 A 
HETATM    4  C4  UNL     1     -34.212  15.555  -3.740  1.00 20.00    -0.006 A 
HETATM    5  C5  UNL     1     -34.814  16.159  -5.022  1.00 20.00     0.034 A 
HETATM    6  C6  UNL     1     -32.777  15.111  -3.752  1.00 20.00     0.018 C 
HETATM    7  C7  UNL     1     -34.135  15.652  -6.301  1.00 20.00     0.039 C 
HETATM    8  C8  UNL     1     -34.788  17.688  -4.990  1.00 20.00     0.039 C 
HETATM    9  N9  UNL     1     -36.194  15.663  -5.014  1.00 20.00    -0.351 N 
HETATM   10  O10 UNL     1     -37.527  14.182  -3.771  1.00 20.00    -0.273 OA
HETATM   11  H23 UNL     1     -36.870  15.913  -5.731  1.00 20.00     0.163 HD
ENDROOT
TORSDOF 0
ENDMDL
