MODEL 1
REMARK VINA RESULT:      -4.6      0.000      0.000
REMARK  0 active torsions:
REMARK  status: ('A' for Active; 'I' for Inactive)
ROOT
HETATM    1  C1  UNL     1     -33.123   6.582   4.058  1.00 20.00    -0.089 C 
HETATM    2  C2  UNL     1     -32.053   6.151   3.370  1.00 20.00     0.014 C 
HETATM    3  C3  UNL     1     -34.465   6.730   3.387  1.00 20.00     0.033 C 
HETATM    4  C4  UNL     1     -33.002   6.979   5.508  1.00 20.00     0.033 C 
HETATM    5  C5  UNL     1     -35.226   5.412   3.200  1.00 20.00     0.004 C 
HETATM    6  C6  UNL     1     -34.112   6.484   6.440  1.00 20.00     0.004 C 
HETATM    7  C7  UNL     1     -35.682   4.702   4.479  1.00 20.00     0.000 C 
HETATM    8  C8  UNL     1     -34.223   4.968   6.595  1.00 20.00     0.000 C 
HETATM    9  C9  UNL     1     -34.544   4.151   5.341  1.00 20.00     0.000 C 
ENDROOT
TORSDOF 0
ENDMDL
MODEL 2
REMARK VINA RESULT:      -4.5      0.780      3.530
REMARK  0 active torsions:
REMARK  status: ('A' for Active; 'I' for Inactive)
ROOT
HETATM    1  C1  UNL     1     -34.584   4.831   5.791  1.00 20.00    -0.089 C 
HETATM    2  C2  UNL     1     -33.967   3.794   6.383  1.00 20.00     0.014 C 
HETATM    3  C3  UNL     1     -34.407   6.235   6.310  1.00 20.00     0.033 C 
HETATM    4  C4  UNL     1     -35.511   4.613   4.621  1.00 20.00     0.033 C 
HETATM    5  C5  UNL     1     -33.088   6.899   5.899  1.00 20.00     0.004 C 
HETATM    6  C6  UNL     1     -35.366   5.590   3.451  1.00 20.00     0.004 C 
HETATM    7  C7  UNL     1     -32.904   7.179   4.403  1.00 20.00     0.000 C 
HETATM    8  C8  UNL     1     -34.021   5.563   2.724  1.00 20.00     0.000 C 
HETATM    9  C9  UNL     1     -32.773   5.927   3.533  1.00 20.00     0.000 C 
ENDROOT
TORSDOF 0
ENDMDL
MODEL 3
REMARK VINA RESULT:      -4.4     11.741     13.464
REMARK  0 active torsions:
REMARK  status: ('A' for Active; 'I' for Inactive)
ROOT
HETATM    1  C1  UNL     1     -33.415  16.002  -3.578  1.00 20.00    -0.089 C 
HETATM    2  C2  UNL     1     -33.892  16.458  -2.408  1.00 20.00     0.014 C 
HETATM    3  C3  UNL     1     -32.752  14.651  -3.669  1.00 20.00     0.033 C 
HETATM    4  C4  UNL     1     -33.484  16.848  -4.824  1.00 20.00     0.033 C 
HETATM    5  C5  UNL     1     -33.727  13.469  -3.706  1.00 20.00     0.004 C 
HETATM    6  C6  UNL     1     -33.924  16.134  -6.105  1.00 20.00     0.004 C 
HETATM    7  C7  UNL     1     -34.628  13.369  -4.942  1.00 20.00     0.000 C 
HETATM    8  C8  UNL     1     -35.344  15.567  -6.098  1.00 20.00     0.000 C 
HETATM    9  C9  UNL     1     -35.668  14.486  -5.064  1.00 20.00     0.000 C 
ENDROOT
TORSDOF 0
ENDMDL
MODEL 4
REMARK VINA RESULT:      -4.4      0.795      2.850
REMARK  0 active torsions:
REMARK  status: ('A' for Active; 'I' for Inactive)
ROOT
HETATM    1  C1  UNL     1     -35.224   5.314   3.643  1.00 20.00    -0.089 C 
HETATM    2  C2  UNL     1     -36.261   6.018   3.159  1.00 20.00     0.014 C 
HETATM    3  C3  UNL     1     -33.842   5.475   3.060  1.00 20.00     0.033 C 
HETATM    4  C4  UNL     1     -35.421   4.306   4.746  1.00 20.00     0.033 C 
HETATM    5  C5  UNL     1     -33.099   6.729   3.535  1.00 20.00     0.004 C 
HETATM    6  C6  UNL     1     -34.379   4.318   5.868  1.00 20.00     0.004 C 
HETATM    7  C7  UNL     1     -32.733   6.781   5.023  1.00 20.00     0.000 C 
HETATM    8  C8  UNL     1     -34.308   5.600   6.698  1.00 20.00     0.000 C 
HETATM    9  C9  UNL     1     -33.930   6.892   5.970  1.00 20.00     0.000 C 
ENDROOT
TORSDOF 0
ENDMDL
MODEL 5
REMARK VINA RESULT:      -4.3     12.269     13.762
REMARK  0 active torsions:
REMARK  status: ('A' for Active; 'I' for Inactive)
ROOT
HETATM    1  C1  UNL     1     -35.392  14.426  -4.059  1.00 20.00    -0.089 C 
HETATM    2  C2  UNL     1     -36.674  14.684  -3.749  1.00 20.00     0.014 C 
HETATM    3  C3  UNL     1     -35.043  13.545  -5.232  1.00 20.00     0.033 C 
HETATM    4  C4  UNL     1     -34.268  14.967  -3.213  1.00 20.00     0.033 C 
HETATM    5  C5  UNL     1     -35.141  14.240  -6.594  1.00 20.00     0.004 C 
HETATM    6  C6  UNL     1     -33.072  15.552  -3.969  1.00 20.00     0.004 C 
HETATM    7  C7  UNL     1     -34.145  15.376  -6.852  1.00 20.00     0.000 C 
HETATM    8  C8  UNL     1     -33.365  16.782  -4.829  1.00 20.00     0.000 C 
HETATM    9  C9  UNL     1     -34.357  16.618  -5.983  1.00 20.00     0.000 C 
ENDROOT
TORSDOF 0
ENDMDL
MODEL 6
REMARK VINA RESULT:      -4.3     11.818     12.835
REMARK  0 active torsions:
REMARK  status: ('A' for Active; 'I' for Inactive)
ROOT
HETATM    1  C1  UNL     1     -36.033  15.049  -4.470  1.00 20.00    -0.089 C 
HETATM    2  C2  UNL     1     -36.271  15.522  -5.705  1.00 20.00     0.014 C 
HETATM    3  C3  UNL     1     -35.691  13.596  -4.252  1.00 20.00     0.033 C 
HETATM    4  C4  UNL     1     -36.151  15.944  -3.262  1.00 20.00     0.033 C 
HETATM    5  C5  UNL     1     -34.237  13.235  -4.576  1.00 20.00     0.004 C 
HETATM    6  C6  UNL     1     -35.039  15.819  -2.216  1.00 20.00     0.004 C 
HETATM    7  C7  UNL     1     -33.163  13.863  -3.681  1.00 20.00     0.000 C 
HETATM    8  C8  UNL     1     -33.636  16.201  -2.686  1.00 20.00     0.000 C 
HETATM    9  C9  UNL     1     -33.024  15.381  -3.824  1.00 20.00     0.000 C 
ENDROOT
TORSDOF 0
ENDMDL
MODEL 7
REMARK VINA RESULT:      -4.3      0.826      2.865
REMARK  0 active torsions:
REMARK  status: ('A' for Active; 'I' for Inactive)
ROOT
HETATM    1  C1  UNL     1     -33.551   6.362   5.958  1.00 20.00    -0.089 C 
HETATM    2  C2  UNL     1     -34.081   7.327   6.728  1.00 20.00     0.014 C 
HETATM    3  C3  UNL     1     -33.651   4.912   6.358  1.00 20.00     0.033 C 
HETATM    4  C4  UNL     1     -32.797   6.706   4.698  1.00 20.00     0.033 C 
HETATM    5  C5  UNL     1     -35.013   4.271   6.071  1.00 20.00     0.004 C 
HETATM    6  C6  UNL     1     -33.103   5.844   3.469  1.00 20.00     0.004 C 
HETATM    7  C7  UNL     1     -35.404   4.133   4.595  1.00 20.00     0.000 C 
HETATM    8  C8  UNL     1     -34.536   5.920   2.943  1.00 20.00     0.000 C 
HETATM    9  C9  UNL     1     -35.658   5.461   3.878  1.00 20.00     0.000 C 
ENDROOT
TORSDOF 0
ENDMDL
MODEL 8
REMARK VINA RESULT:      -4.3     11.754     12.898
REMARK  0 active torsions:
REMARK  status: ('A' for Active; 'I' for Inactive)
ROOT
HETATM    1  C1  UNL     1     -33.747  16.186  -3.451  1.00 20.00    -0.089 C 
HETATM    2  C2  UNL     1     -33.545  17.340  -4.107  1.00 20.00     0.014 C 
HETATM    3  C3  UNL     1     -34.848  16.061  -2.428  1.00 20.00     0.033 C 
HETATM    4  C4  UNL     1     -32.847  14.998  -3.680  1.00 20.00     0.033 C 
HETATM    5  C5  UNL     1     -36.245  15.864  -3.026  1.00 20.00     0.004 C 
HETATM    6  C6  UNL     1     -33.541  13.640  -3.821  1.00 20.00     0.004 C 
HETATM    7  C7  UNL     1     -36.483  14.553  -3.785  1.00 20.00     0.000 C 
HETATM    8  C8  UNL     1     -34.477  13.492  -5.020  1.00 20.00     0.000 C 
HETATM    9  C9  UNL     1     -35.691  14.420  -5.088  1.00 20.00     0.000 C 
ENDROOT
TORSDOF 0
ENDMDL
MODEL 9
REMARK VINA RESULT:      -4.2     12.229     13.755
REMARK  0 active torsions:
REMARK  status: ('A' for Active; 'I' for Inactive)
ROOT
HETATM    1  C1  UNL     1     -34.243  16.063  -5.896  1.00 20.00    -0.089 C 
HETATM    2  C2  UNL     1     -34.900  17.084  -6.473  1.00 20.00     0.014 C 
HETATM    3  C3  UNL     1     -33.168  16.318  -4.870  1.00 20.00     0.033 C 
HETATM    4  C4  UNL     1     -34.526  14.637  -6.296  1.00 20.00     0.033 C 
HETATM    5  C5  UNL     1     -33.697  16.653  -3.471  1.00 20.00     0.004 C 
HETATM    6  C6  UNL     1     -34.643  13.624  -5.153  1.00 20.00     0.004 C 
HETATM    7  C7  UNL     1     -34.453  15.535  -2.744  1.00 20.00     0.000 C 
HETATM    8  C8  UNL     1     -35.795  13.854  -4.175  1.00 20.00     0.000 C 
HETATM    9  C9  UNL     1     -35.795  15.159  -3.376  1.00 20.00     0.000 C 
ENDROOT
TORSDOF 0
ENDMDL
