MODEL 1
REMARK VINA RESULT:      -4.9      0.000      0.000
REMARK  2 active torsions:
REMARK  status: ('A' for Active; 'I' for Inactive)
REMARK    1  A    between atoms: C1_1  and  C7_7 
REMARK       I    between atoms: C1_1  and  N9_9 
REMARK    2  A    between atoms: C7_7  and  C8_8 
ROOT
HETATM    1  C1  UNL     1     -33.239   6.150   3.222  1.00 20.00     0.219 C 
HETATM    2  C2  UNL     1     -34.976   4.488   6.005  1.00 20.00     0.021 C 
HETATM    3  C3  UNL     1     -34.650   5.839   6.633  1.00 20.00     0.021 C 
HETATM    4  C4  UNL     1     -34.853   4.770   4.515  1.00 20.00     0.126 C 
HETATM    5  C5  UNL     1     -33.542   6.372   5.735  1.00 20.00     0.126 C 
HETATM    6  N9  UNL     1     -33.830   5.801   4.423  1.00 20.00    -0.352 N 
HETATM    7  O10 UNL     1     -33.518   5.630   2.140  1.00 20.00    -0.273 OA
ENDROOT
BRANCH   1   8
HETATM    8  C7  UNL     1     -32.202   7.241   3.300  1.00 20.00     0.103 C 
BRANCH   8   9
HETATM    9  C8  UNL     1     -31.944   7.828   1.924  1.00 20.00     0.005 C 
HETATM   10  C6  UNL     1     -32.429   9.265   1.792  1.00 20.00     0.005 C 
ENDBRANCH   8   9
ENDBRANCH   1   8
TORSDOF 2
ENDMDL
MODEL 2
REMARK VINA RESULT:      -4.5      1.280      1.802
REMARK  2 active torsions:
REMARK  status: ('A' for Active; 'I' for Inactive)
REMARK    1  A    between atoms: C1_1  and  C7_7 
REMARK       I    between atoms: C1_1  and  N9_9 
REMARK    2  A    between atoms: C7_7  and  C8_8 
ROOT
HETATM    1  C1  UNL     1     -32.542   6.992   3.710  1.00 20.00     0.219 C 
HETATM    2  C2  UNL     1     -34.856   5.387   6.074  1.00 20.00     0.021 C 
HETATM    3  C3  UNL     1     -35.163   4.613   4.798  1.00 20.00     0.021 C 
HETATM    4  C4  UNL     1     -33.494   5.998   5.780  1.00 20.00     0.126 C 
HETATM    5  C5  UNL     1     -34.614   5.522   3.707  1.00 20.00     0.126 C 
HETATM    6  N9  UNL     1     -33.496   6.216   4.341  1.00 20.00    -0.352 N 
HETATM    7  O10 UNL     1     -31.619   7.561   4.296  1.00 20.00    -0.273 OA
ENDROOT
BRANCH   1   8
HETATM    8  C7  UNL     1     -32.684   7.111   2.214  1.00 20.00     0.103 C 
BRANCH   8   9
HETATM    9  C8  UNL     1     -31.793   8.220   1.682  1.00 20.00     0.005 C 
HETATM   10  C6  UNL     1     -32.542   9.526   1.457  1.00 20.00     0.005 C 
ENDBRANCH   8   9
ENDBRANCH   1   8
TORSDOF 2
ENDMDL
MODEL 3
REMARK VINA RESULT:      -4.3     11.499     12.841
REMARK  2 active torsions:
REMARK  status: ('A' for Active; 'I' for Inactive)
REMARK    1  A    between atoms: C1_1  and  C7_7 
REMARK       I    between atoms: C1_1  and  N9_9 
REMARK    2  A    between atoms: C7_7  and  C8_8 
ROOT
HETATM    1  C1  UNL     1     -34.140  14.501  -3.794  1.00 20.00     0.219 C 
HETATM    2  C2  UNL     1     -35.301  14.669  -7.279  1.00 20.00     0.021 C 
HETATM    3  C3  UNL     1     -34.455  15.934  -7.195  1.00 20.00     0.021 C 
HETATM    4  C4  UNL     1     -34.801  13.849  -6.100  1.00 20.00     0.126 C 
HETATM    5  C5  UNL     1     -34.349  16.174  -5.695  1.00 20.00     0.126 C 
HETATM    6  N9  UNL     1     -34.408  14.838  -5.108  1.00 20.00    -0.352 N 
HETATM    7  O10 UNL     1     -34.209  13.354  -3.350  1.00 20.00    -0.273 OA
ENDROOT
BRANCH   1   8
HETATM    8  C7  UNL     1     -33.740  15.644  -2.897  1.00 20.00     0.103 C 
BRANCH   8   9
HETATM    9  C8  UNL     1     -34.883  16.020  -1.972  1.00 20.00     0.005 C 
HETATM   10  C6  UNL     1     -34.428  16.833  -0.768  1.00 20.00     0.005 C 
ENDBRANCH   8   9
ENDBRANCH   1   8
TORSDOF 2
ENDMDL
MODEL 4
REMARK VINA RESULT:      -4.1     12.141     13.340
REMARK  2 active torsions:
REMARK  status: ('A' for Active; 'I' for Inactive)
REMARK    1  A    between atoms: C1_1  and  C7_7 
REMARK       I    between atoms: C1_1  and  N9_9 
REMARK    2  A    between atoms: C7_7  and  C8_8 
ROOT
HETATM    1  C1  UNL     1     -33.751  16.639  -4.021  1.00 20.00     0.219 C 
HETATM    2  C2  UNL     1     -34.409  15.103  -7.296  1.00 20.00     0.021 C 
HETATM    3  C3  UNL     1     -35.064  14.090  -6.365  1.00 20.00     0.021 C 
HETATM    4  C4  UNL     1     -34.308  16.346  -6.426  1.00 20.00     0.126 C 
HETATM    5  C5  UNL     1     -34.425  14.402  -5.019  1.00 20.00     0.126 C 
HETATM    6  N9  UNL     1     -34.138  15.832  -5.075  1.00 20.00    -0.352 N 
HETATM    7  O10 UNL     1     -33.517  17.845  -4.126  1.00 20.00    -0.273 OA
ENDROOT
BRANCH   1   8
HETATM    8  C7  UNL     1     -33.628  15.951  -2.686  1.00 20.00     0.103 C 
BRANCH   8   9
HETATM    9  C8  UNL     1     -34.861  16.214  -1.838  1.00 20.00     0.005 C 
HETATM   10  C6  UNL     1     -34.540  16.929  -0.533  1.00 20.00     0.005 C 
ENDBRANCH   8   9
ENDBRANCH   1   8
TORSDOF 2
ENDMDL
MODEL 5
REMARK VINA RESULT:      -4.1     11.666     12.528
REMARK  2 active torsions:
REMARK  status: ('A' for Active; 'I' for Inactive)
REMARK    1  A    between atoms: C1_1  and  C7_7 
REMARK       I    between atoms: C1_1  and  N9_9 
REMARK    2  A    between atoms: C7_7  and  C8_8 
ROOT
HETATM    1  C1  UNL     1     -34.501  16.730  -3.312  1.00 20.00     0.219 C 
HETATM    2  C2  UNL     1     -35.045  14.096  -5.819  1.00 20.00     0.021 C 
HETATM    3  C3  UNL     1     -34.891  13.262  -4.553  1.00 20.00     0.021 C 
HETATM    4  C4  UNL     1     -35.371  15.479  -5.276  1.00 20.00     0.126 C 
HETATM    5  C5  UNL     1     -34.201  14.223  -3.594  1.00 20.00     0.126 C 
HETATM    6  N9  UNL     1     -34.671  15.544  -4.001  1.00 20.00    -0.352 N 
HETATM    7  O10 UNL     1     -34.917  17.821  -3.705  1.00 20.00    -0.273 OA
ENDROOT
BRANCH   1   8
HETATM    8  C7  UNL     1     -33.759  16.622  -2.004  1.00 20.00     0.103 C 
BRANCH   8   9
HETATM    9  C8  UNL     1     -34.732  16.646  -0.838  1.00 20.00     0.005 C 
HETATM   10  C6  UNL     1     -34.404  17.725   0.184  1.00 20.00     0.005 C 
ENDBRANCH   8   9
ENDBRANCH   1   8
TORSDOF 2
ENDMDL
MODEL 6
REMARK VINA RESULT:      -4.1     11.982     12.757
REMARK  2 active torsions:
REMARK  status: ('A' for Active; 'I' for Inactive)
REMARK    1  A    between atoms: C1_1  and  C7_7 
REMARK       I    between atoms: C1_1  and  N9_9 
REMARK    2  A    between atoms: C7_7  and  C8_8 
ROOT
HETATM    1  C1  UNL     1     -32.472  19.023   0.570  1.00 20.00     0.219 C 
HETATM    2  C2  UNL     1     -32.017  18.966   4.218  1.00 20.00     0.021 C 
HETATM    3  C3  UNL     1     -33.305  18.164   4.075  1.00 20.00     0.021 C 
HETATM    4  C4  UNL     1     -31.422  18.903   2.820  1.00 20.00     0.126 C 
HETATM    5  C5  UNL     1     -33.796  18.552   2.687  1.00 20.00     0.126 C 
HETATM    6  N9  UNL     1     -32.576  18.834   1.936  1.00 20.00    -0.352 N 
HETATM    7  O10 UNL     1     -31.414  19.263  -0.014  1.00 20.00    -0.273 OA
ENDROOT
BRANCH   1   8
HETATM    8  C7  UNL     1     -33.762  18.912  -0.202  1.00 20.00     0.103 C 
BRANCH   8   9
HETATM    9  C8  UNL     1     -33.714  17.725  -1.149  1.00 20.00     0.005 C 
HETATM   10  C6  UNL     1     -34.716  16.638  -0.786  1.00 20.00     0.005 C 
ENDBRANCH   8   9
ENDBRANCH   1   8
TORSDOF 2
ENDMDL
MODEL 7
REMARK VINA RESULT:      -4.1     10.079     11.185
REMARK  2 active torsions:
REMARK  status: ('A' for Active; 'I' for Inactive)
REMARK    1  A    between atoms: C1_1  and  C7_7 
REMARK       I    between atoms: C1_1  and  N9_9 
REMARK    2  A    between atoms: C7_7  and  C8_8 
ROOT
HETATM    1  C1  UNL     1     -42.670   4.409  -2.819  1.00 20.00     0.219 C 
HETATM    2  C2  UNL     1     -41.451   7.237  -0.808  1.00 20.00     0.021 C 
HETATM    3  C3  UNL     1     -40.496   6.134  -0.365  1.00 20.00     0.021 C 
HETATM    4  C4  UNL     1     -42.001   6.700  -2.120  1.00 20.00     0.126 C 
HETATM    5  C5  UNL     1     -41.229   4.864  -0.776  1.00 20.00     0.126 C 
HETATM    6  N9  UNL     1     -42.002   5.254  -1.951  1.00 20.00    -0.352 N 
HETATM    7  O10 UNL     1     -43.313   4.794  -3.796  1.00 20.00    -0.273 OA
ENDROOT
BRANCH   1   8
HETATM    8  C7  UNL     1     -42.565   2.939  -2.504  1.00 20.00     0.103 C 
BRANCH   8   9
HETATM    9  C8  UNL     1     -41.526   2.278  -3.393  1.00 20.00     0.005 C 
HETATM   10  C6  UNL     1     -41.871   0.836  -3.737  1.00 20.00     0.005 C 
ENDBRANCH   8   9
ENDBRANCH   1   8
TORSDOF 2
ENDMDL
MODEL 8
REMARK VINA RESULT:      -3.9     11.674     12.520
REMARK  2 active torsions:
REMARK  status: ('A' for Active; 'I' for Inactive)
REMARK    1  A    between atoms: C1_1  and  C7_7 
REMARK       I    between atoms: C1_1  and  N9_9 
REMARK    2  A    between atoms: C7_7  and  C8_8 
ROOT
HETATM    1  C1  UNL     1     -33.385  15.897  -3.798  1.00 20.00     0.219 C 
HETATM    2  C2  UNL     1     -34.683  18.522  -1.575  1.00 20.00     0.021 C 
HETATM    3  C3  UNL     1     -34.607  17.342  -0.614  1.00 20.00     0.021 C 
HETATM    4  C4  UNL     1     -33.759  18.098  -2.705  1.00 20.00     0.126 C 
HETATM    5  C5  UNL     1     -34.545  16.143  -1.551  1.00 20.00     0.126 C 
HETATM    6  N9  UNL     1     -33.870  16.648  -2.743  1.00 20.00    -0.352 N 
HETATM    7  O10 UNL     1     -32.824  16.376  -4.785  1.00 20.00    -0.273 OA
ENDROOT
BRANCH   1   8
HETATM    8  C7  UNL     1     -33.575  14.406  -3.677  1.00 20.00     0.103 C 
BRANCH   8   9
HETATM    9  C8  UNL     1     -34.937  14.000  -4.210  1.00 20.00     0.005 C 
HETATM   10  C6  UNL     1     -34.956  13.835  -5.724  1.00 20.00     0.005 C 
ENDBRANCH   8   9
ENDBRANCH   1   8
TORSDOF 2
ENDMDL
MODEL 9
REMARK VINA RESULT:      -3.8     11.562     13.040
REMARK  2 active torsions:
REMARK  status: ('A' for Active; 'I' for Inactive)
REMARK    1  A    between atoms: C1_1  and  C7_7 
REMARK       I    between atoms: C1_1  and  N9_9 
REMARK    2  A    between atoms: C7_7  and  C8_8 
ROOT
HETATM    1  C1  UNL     1     -34.602  14.250  -5.512  1.00 20.00     0.219 C 
HETATM    2  C2  UNL     1     -33.775  16.149  -2.474  1.00 20.00     0.021 C 
HETATM    3  C3  UNL     1     -34.080  17.281  -3.448  1.00 20.00     0.021 C 
HETATM    4  C4  UNL     1     -34.438  14.949  -3.132  1.00 20.00     0.126 C 
HETATM    5  C5  UNL     1     -33.956  16.604  -4.806  1.00 20.00     0.126 C 
HETATM    6  N9  UNL     1     -34.346  15.219  -4.559  1.00 20.00    -0.352 N 
HETATM    7  O10 UNL     1     -34.925  13.091  -5.247  1.00 20.00    -0.273 OA
ENDROOT
BRANCH   1   8
HETATM    8  C7  UNL     1     -34.468  14.697  -6.946  1.00 20.00     0.103 C 
BRANCH   8   9
HETATM    9  C8  UNL     1     -35.761  14.448  -7.703  1.00 20.00     0.005 C 
HETATM   10  C6  UNL     1     -36.913  15.309  -7.204  1.00 20.00     0.005 C 
ENDBRANCH   8   9
ENDBRANCH   1   8
TORSDOF 2
ENDMDL
