MODEL 1
REMARK VINA RESULT:      -4.2      0.000      0.000
REMARK  1 active torsions:
REMARK  status: ('A' for Active; 'I' for Inactive)
REMARK    1  A    between atoms: C1_1  and  C8_8 
ROOT
HETATM    1  C1  UNL     1     -34.159  16.250  -2.515  1.00 20.00     0.139 C 
HETATM    2  C2  UNL     1     -35.662  15.181  -3.694  1.00 20.00     0.209 C 
HETATM    3  C3  UNL     1     -34.271  14.997  -4.291  1.00 20.00     0.070 C 
HETATM    4  C4  UNL     1     -33.734  13.581  -4.064  1.00 20.00     0.042 C 
HETATM    5  C5  UNL     1     -34.228  15.354  -5.773  1.00 20.00     0.042 C 
HETATM    6  N9  UNL     1     -33.422  15.939  -3.533  1.00 20.00    -0.258 NA
HETATM    7  O10 UNL     1     -35.419  15.771  -2.423  1.00 20.00    -0.335 OA
ENDROOT
BRANCH   1   8
HETATM    8  C8  UNL     1     -33.739  17.125  -1.391  1.00 20.00     0.054 C 
HETATM    9  C6  UNL     1     -33.559  18.569  -1.865  1.00 20.00     0.018 C 
HETATM   10  C7  UNL     1     -34.740  17.063  -0.235  1.00 20.00     0.018 C 
ENDBRANCH   1   8
TORSDOF 1
ENDMDL
MODEL 2
REMARK VINA RESULT:      -4.1      1.171      1.774
REMARK  1 active torsions:
REMARK  status: ('A' for Active; 'I' for Inactive)
REMARK    1  A    between atoms: C1_1  and  C8_8 
ROOT
HETATM    1  C1  UNL     1     -34.017  16.326  -2.659  1.00 20.00     0.139 C 
HETATM    2  C2  UNL     1     -33.674  15.702  -4.729  1.00 20.00     0.209 C 
HETATM    3  C3  UNL     1     -34.839  14.933  -4.115  1.00 20.00     0.070 C 
HETATM    4  C4  UNL     1     -36.186  15.385  -4.688  1.00 20.00     0.042 C 
HETATM    5  C5  UNL     1     -34.675  13.424  -4.262  1.00 20.00     0.042 C 
HETATM    6  N9  UNL     1     -34.801  15.296  -2.684  1.00 20.00    -0.258 NA
HETATM    7  O10 UNL     1     -33.413  16.741  -3.794  1.00 20.00    -0.335 OA
ENDROOT
BRANCH   1   8
HETATM    8  C8  UNL     1     -33.698  17.128  -1.451  1.00 20.00     0.054 C 
HETATM    9  C6  UNL     1     -33.555  18.610  -1.806  1.00 20.00     0.018 C 
HETATM   10  C7  UNL     1     -34.757  16.940  -0.362  1.00 20.00     0.018 C 
ENDBRANCH   1   8
TORSDOF 1
ENDMDL
MODEL 3
REMARK VINA RESULT:      -4.0      1.428      1.990
REMARK  1 active torsions:
REMARK  status: ('A' for Active; 'I' for Inactive)
REMARK    1  A    between atoms: C1_1  and  C8_8 
ROOT
HETATM    1  C1  UNL     1     -34.538  15.875  -2.647  1.00 20.00     0.139 C 
HETATM    2  C2  UNL     1     -32.948  14.890  -3.785  1.00 20.00     0.209 C 
HETATM    3  C3  UNL     1     -34.304  14.675  -4.448  1.00 20.00     0.070 C 
HETATM    4  C4  UNL     1     -34.445  15.491  -5.737  1.00 20.00     0.042 C 
HETATM    5  C5  UNL     1     -34.589  13.201  -4.714  1.00 20.00     0.042 C 
HETATM    6  N9  UNL     1     -35.277  15.195  -3.465  1.00 20.00    -0.258 NA
HETATM    7  O10 UNL     1     -33.195  15.888  -2.803  1.00 20.00    -0.335 OA
ENDROOT
BRANCH   1   8
HETATM    8  C8  UNL     1     -35.042  16.671  -1.500  1.00 20.00     0.054 C 
HETATM    9  C6  UNL     1     -33.891  17.385  -0.787  1.00 20.00     0.018 C 
HETATM   10  C7  UNL     1     -36.101  17.682  -1.947  1.00 20.00     0.018 C 
ENDBRANCH   1   8
TORSDOF 1
ENDMDL
MODEL 4
REMARK VINA RESULT:      -4.0      1.391      1.696
REMARK  1 active torsions:
REMARK  status: ('A' for Active; 'I' for Inactive)
REMARK    1  A    between atoms: C1_1  and  C8_8 
ROOT
HETATM    1  C1  UNL     1     -34.502  15.784  -3.301  1.00 20.00     0.139 C 
HETATM    2  C2  UNL     1     -35.292  13.913  -4.119  1.00 20.00     0.209 C 
HETATM    3  C3  UNL     1     -35.446  15.053  -5.120  1.00 20.00     0.070 C 
HETATM    4  C4  UNL     1     -34.470  14.918  -6.293  1.00 20.00     0.042 C 
HETATM    5  C5  UNL     1     -36.878  15.184  -5.628  1.00 20.00     0.042 C 
HETATM    6  N9  UNL     1     -35.083  16.263  -4.354  1.00 20.00    -0.258 NA
HETATM    7  O10 UNL     1     -34.438  14.447  -3.114  1.00 20.00    -0.335 OA
ENDROOT
BRANCH   1   8
HETATM    8  C8  UNL     1     -33.876  16.595  -2.227  1.00 20.00     0.054 C 
HETATM    9  C6  UNL     1     -33.725  18.053  -2.665  1.00 20.00     0.018 C 
HETATM   10  C7  UNL     1     -34.678  16.509  -0.926  1.00 20.00     0.018 C 
ENDBRANCH   1   8
TORSDOF 1
ENDMDL
MODEL 5
REMARK VINA RESULT:      -3.9      1.871      4.499
REMARK  1 active torsions:
REMARK  status: ('A' for Active; 'I' for Inactive)
REMARK    1  A    between atoms: C1_1  and  C8_8 
ROOT
HETATM    1  C1  UNL     1     -34.483  15.108  -5.725  1.00 20.00     0.139 C 
HETATM    2  C2  UNL     1     -34.165  13.950  -3.895  1.00 20.00     0.209 C 
HETATM    3  C3  UNL     1     -34.701  15.340  -3.573  1.00 20.00     0.070 C 
HETATM    4  C4  UNL     1     -36.160  15.295  -3.107  1.00 20.00     0.042 C 
HETATM    5  C5  UNL     1     -33.835  16.069  -2.551  1.00 20.00     0.042 C 
HETATM    6  N9  UNL     1     -34.651  16.058  -4.862  1.00 20.00    -0.258 NA
HETATM    7  O10 UNL     1     -34.325  13.834  -5.303  1.00 20.00    -0.335 OA
ENDROOT
BRANCH   1   8
HETATM    8  C8  UNL     1     -34.439  15.289  -7.198  1.00 20.00     0.054 C 
HETATM    9  C6  UNL     1     -35.519  14.447  -7.881  1.00 20.00     0.018 C 
HETATM   10  C7  UNL     1     -34.590  16.763  -7.583  1.00 20.00     0.018 C 
ENDBRANCH   1   8
TORSDOF 1
ENDMDL
MODEL 6
REMARK VINA RESULT:      -3.9      1.609      4.122
REMARK  1 active torsions:
REMARK  status: ('A' for Active; 'I' for Inactive)
REMARK    1  A    between atoms: C1_1  and  C8_8 
ROOT
HETATM    1  C1  UNL     1     -34.396  15.608  -3.842  1.00 20.00     0.139 C 
HETATM    2  C2  UNL     1     -33.972  17.633  -3.128  1.00 20.00     0.209 C 
HETATM    3  C3  UNL     1     -35.076  16.984  -2.299  1.00 20.00     0.070 C 
HETATM    4  C4  UNL     1     -34.589  16.605  -0.897  1.00 20.00     0.042 C 
HETATM    5  C5  UNL     1     -36.323  17.858  -2.215  1.00 20.00     0.042 C 
HETATM    6  N9  UNL     1     -35.395  15.740  -3.029  1.00 20.00    -0.258 NA
HETATM    7  O10 UNL     1     -33.441  16.563  -3.899  1.00 20.00    -0.335 OA
ENDROOT
BRANCH   1   8
HETATM    8  C8  UNL     1     -34.190  14.463  -4.764  1.00 20.00     0.054 C 
HETATM    9  C6  UNL     1     -35.046  13.266  -4.345  1.00 20.00     0.018 C 
HETATM   10  C7  UNL     1     -34.492  14.854  -6.213  1.00 20.00     0.018 C 
ENDBRANCH   1   8
TORSDOF 1
ENDMDL
MODEL 7
REMARK VINA RESULT:      -3.9     12.651     13.721
REMARK  1 active torsions:
REMARK  status: ('A' for Active; 'I' for Inactive)
REMARK    1  A    between atoms: C1_1  and  C8_8 
ROOT
HETATM    1  C1  UNL     1     -41.790   5.345  -1.923  1.00 20.00     0.139 C 
HETATM    2  C2  UNL     1     -43.110   4.377  -3.377  1.00 20.00     0.209 C 
HETATM    3  C3  UNL     1     -42.412   3.342  -2.502  1.00 20.00     0.070 C 
HETATM    4  C4  UNL     1     -43.376   2.698  -1.501  1.00 20.00     0.042 C 
HETATM    5  C5  UNL     1     -41.704   2.272  -3.327  1.00 20.00     0.042 C 
HETATM    6  N9  UNL     1     -41.412   4.121  -1.743  1.00 20.00    -0.258 NA
HETATM    7  O10 UNL     1     -42.837   5.615  -2.735  1.00 20.00    -0.335 OA
ENDROOT
BRANCH   1   8
HETATM    8  C8  UNL     1     -41.156   6.536  -1.304  1.00 20.00     0.054 C 
HETATM    9  C6  UNL     1     -42.145   7.701  -1.229  1.00 20.00     0.018 C 
HETATM   10  C7  UNL     1     -40.606   6.213   0.088  1.00 20.00     0.018 C 
ENDBRANCH   1   8
TORSDOF 1
ENDMDL
MODEL 8
REMARK VINA RESULT:      -3.9      1.101      4.098
REMARK  1 active torsions:
REMARK  status: ('A' for Active; 'I' for Inactive)
REMARK    1  A    between atoms: C1_1  and  C8_8 
ROOT
HETATM    1  C1  UNL     1     -34.532  15.521  -3.819  1.00 20.00     0.139 C 
HETATM    2  C2  UNL     1     -35.900  16.911  -2.823  1.00 20.00     0.209 C 
HETATM    3  C3  UNL     1     -34.517  16.954  -2.181  1.00 20.00     0.070 C 
HETATM    4  C4  UNL     1     -33.771  18.248  -2.520  1.00 20.00     0.042 C 
HETATM    5  C5  UNL     1     -34.577  16.751  -0.671  1.00 20.00     0.042 C 
HETATM    6  N9  UNL     1     -33.792  15.827  -2.801  1.00 20.00    -0.258 NA
HETATM    7  O10 UNL     1     -35.705  16.163  -4.017  1.00 20.00    -0.335 OA
ENDROOT
BRANCH   1   8
HETATM    8  C8  UNL     1     -34.209  14.483  -4.830  1.00 20.00     0.054 C 
HETATM    9  C6  UNL     1     -34.962  13.184  -4.535  1.00 20.00     0.018 C 
HETATM   10  C7  UNL     1     -34.521  14.971  -6.247  1.00 20.00     0.018 C 
ENDBRANCH   1   8
TORSDOF 1
ENDMDL
MODEL 9
REMARK VINA RESULT:      -3.8      2.319      4.554
REMARK  1 active torsions:
REMARK  status: ('A' for Active; 'I' for Inactive)
REMARK    1  A    between atoms: C1_1  and  C8_8 
ROOT
HETATM    1  C1  UNL     1     -34.245  15.529  -6.044  1.00 20.00     0.139 C 
HETATM    2  C2  UNL     1     -33.321  16.288  -4.211  1.00 20.00     0.209 C 
HETATM    3  C3  UNL     1     -34.128  15.025  -3.931  1.00 20.00     0.070 C 
HETATM    4  C4  UNL     1     -33.224  13.821  -3.648  1.00 20.00     0.042 C 
HETATM    5  C5  UNL     1     -35.129  15.221  -2.797  1.00 20.00     0.042 C 
HETATM    6  N9  UNL     1     -34.855  14.770  -5.191  1.00 20.00    -0.258 NA
HETATM    7  O10 UNL     1     -33.255  16.351  -5.629  1.00 20.00    -0.335 OA
ENDROOT
BRANCH   1   8
HETATM    8  C8  UNL     1     -34.543  15.594  -7.497  1.00 20.00     0.054 C 
HETATM    9  C6  UNL     1     -35.627  14.582  -7.875  1.00 20.00     0.018 C 
HETATM   10  C7  UNL     1     -34.961  17.005  -7.917  1.00 20.00     0.018 C 
ENDBRANCH   1   8
TORSDOF 1
ENDMDL
