MODEL 1
REMARK VINA RESULT:      -4.8      0.000      0.000
REMARK  4 active torsions:
REMARK  status: ('A' for Active; 'I' for Inactive)
REMARK    1  A    between atoms: C1_1  and  C2_2 
REMARK    2  A    between atoms: C2_2  and  C3_3 
REMARK    3  A    between atoms: C3_3  and  C4_4 
REMARK    4  A    between atoms: C4_4  and  C5_5 
ROOT
HETATM    1  C2  UNL     1     -34.848   5.355   3.836  1.00 20.00     0.096 C 
ENDROOT
BRANCH   1   2
HETATM    2  C1  UNL     1     -34.899   4.665   5.189  1.00 20.00     0.218 C 
HETATM    3  O6  UNL     1     -35.130   3.467   5.320  1.00 20.00    -0.280 OA
HETATM    4 CL7  UNL     1     -34.548   5.772   6.487  1.00 20.00    -0.044 Cl
ENDBRANCH   1   2
BRANCH   1   5
HETATM    5  C3  UNL     1     -33.951   6.595   3.818  1.00 20.00     0.010 C 
BRANCH   5   6
HETATM    6  C4  UNL     1     -32.608   6.331   3.126  1.00 20.00     0.015 C 
BRANCH   6   7
HETATM    7  C5  UNL     1     -31.729   7.574   3.027  1.00 20.00     0.114 C 
HETATM    8 CL8  UNL     1     -31.993   8.456   1.504  1.00 20.00    -0.130 Cl
ENDBRANCH   6   7
ENDBRANCH   5   6
ENDBRANCH   1   5
TORSDOF 4
ENDMDL
MODEL 2
REMARK VINA RESULT:      -4.5      2.132      4.449
REMARK  4 active torsions:
REMARK  status: ('A' for Active; 'I' for Inactive)
REMARK    1  A    between atoms: C1_1  and  C2_2 
REMARK    2  A    between atoms: C2_2  and  C3_3 
REMARK    3  A    between atoms: C3_3  and  C4_4 
REMARK    4  A    between atoms: C4_4  and  C5_5 
ROOT
HETATM    1  C2  UNL     1     -32.927   6.133   3.087  1.00 20.00     0.096 C 
ENDROOT
BRANCH   1   2
HETATM    2  C1  UNL     1     -31.999   7.336   3.133  1.00 20.00     0.218 C 
HETATM    3  O6  UNL     1     -31.270   7.582   4.089  1.00 20.00    -0.280 OA
HETATM    4 CL7  UNL     1     -32.082   8.266   1.662  1.00 20.00    -0.044 Cl
ENDBRANCH   1   2
BRANCH   1   5
HETATM    5  C3  UNL     1     -34.265   6.369   3.793  1.00 20.00     0.010 C 
BRANCH   5   6
HETATM    6  C4  UNL     1     -34.798   5.099   4.468  1.00 20.00     0.015 C 
BRANCH   6   7
HETATM    7  C5  UNL     1     -34.747   5.163   5.991  1.00 20.00     0.114 C 
HETATM    8 CL8  UNL     1     -33.981   6.661   6.569  1.00 20.00    -0.130 Cl
ENDBRANCH   6   7
ENDBRANCH   5   6
ENDBRANCH   1   5
TORSDOF 4
ENDMDL
MODEL 3
REMARK VINA RESULT:      -4.5      1.632      1.784
REMARK  4 active torsions:
REMARK  status: ('A' for Active; 'I' for Inactive)
REMARK    1  A    between atoms: C1_1  and  C2_2 
REMARK    2  A    between atoms: C2_2  and  C3_3 
REMARK    3  A    between atoms: C3_3  and  C4_4 
REMARK    4  A    between atoms: C4_4  and  C5_5 
ROOT
HETATM    1  C2  UNL     1     -34.164   6.182   3.934  1.00 20.00     0.096 C 
ENDROOT
BRANCH   1   2
HETATM    2  C1  UNL     1     -34.243   5.817   5.408  1.00 20.00     0.218 C 
HETATM    3  O6  UNL     1     -33.911   6.586   6.305  1.00 20.00    -0.280 OA
HETATM    4 CL7  UNL     1     -34.894   4.219   5.639  1.00 20.00    -0.044 Cl
ENDBRANCH   1   2
BRANCH   1   5
HETATM    5  C3  UNL     1     -32.745   6.112   3.365  1.00 20.00     0.010 C 
BRANCH   5   6
HETATM    6  C4  UNL     1     -32.080   7.493   3.290  1.00 20.00     0.015 C 
BRANCH   6   7
HETATM    7  C5  UNL     1     -31.961   8.024   1.865  1.00 20.00     0.114 C 
HETATM    8 CL8  UNL     1     -32.548   9.698   1.727  1.00 20.00    -0.130 Cl
ENDBRANCH   6   7
ENDBRANCH   5   6
ENDBRANCH   1   5
TORSDOF 4
ENDMDL
MODEL 4
REMARK VINA RESULT:      -4.4      2.399      4.645
REMARK  4 active torsions:
REMARK  status: ('A' for Active; 'I' for Inactive)
REMARK    1  A    between atoms: C1_1  and  C2_2 
REMARK    2  A    between atoms: C2_2  and  C3_3 
REMARK    3  A    between atoms: C3_3  and  C4_4 
REMARK    4  A    between atoms: C4_4  and  C5_5 
ROOT
HETATM    1  C2  UNL     1     -32.726   6.152   3.247  1.00 20.00     0.096 C 
ENDROOT
BRANCH   1   2
HETATM    2  C1  UNL     1     -31.883   7.416   3.201  1.00 20.00     0.218 C 
HETATM    3  O6  UNL     1     -31.103   7.731   4.095  1.00 20.00    -0.280 OA
HETATM    4 CL7  UNL     1     -32.138   8.304   1.725  1.00 20.00    -0.044 Cl
ENDBRANCH   1   2
BRANCH   1   5
HETATM    5  C3  UNL     1     -34.050   6.331   3.993  1.00 20.00     0.010 C 
BRANCH   5   6
HETATM    6  C4  UNL     1     -33.860   6.371   5.515  1.00 20.00     0.015 C 
BRANCH   6   7
HETATM    7  C5  UNL     1     -34.704   5.336   6.252  1.00 20.00     0.114 C 
HETATM    8 CL8  UNL     1     -34.982   3.880   5.269  1.00 20.00    -0.130 Cl
ENDBRANCH   6   7
ENDBRANCH   5   6
ENDBRANCH   1   5
TORSDOF 4
ENDMDL
MODEL 5
REMARK VINA RESULT:      -4.4      1.432      1.695
REMARK  4 active torsions:
REMARK  status: ('A' for Active; 'I' for Inactive)
REMARK    1  A    between atoms: C1_1  and  C2_2 
REMARK    2  A    between atoms: C2_2  and  C3_3 
REMARK    3  A    between atoms: C3_3  and  C4_4 
REMARK    4  A    between atoms: C4_4  and  C5_5 
ROOT
HETATM    1  C2  UNL     1     -33.643   6.305   4.592  1.00 20.00     0.096 C 
ENDROOT
BRANCH   1   2
HETATM    2  C1  UNL     1     -34.836   5.374   4.452  1.00 20.00     0.218 C 
HETATM    3  O6  UNL     1     -35.684   5.501   3.573  1.00 20.00    -0.280 OA
HETATM    4 CL7  UNL     1     -34.809   4.111   5.651  1.00 20.00    -0.044 Cl
ENDBRANCH   1   2
BRANCH   1   5
HETATM    5  C3  UNL     1     -32.692   6.260   3.393  1.00 20.00     0.010 C 
BRANCH   5   6
HETATM    6  C4  UNL     1     -31.919   7.573   3.214  1.00 20.00     0.015 C 
BRANCH   6   7
HETATM    7  C5  UNL     1     -31.985   8.118   1.791  1.00 20.00     0.114 C 
HETATM    8 CL8  UNL     1     -32.569   9.798   1.748  1.00 20.00    -0.130 Cl
ENDBRANCH   6   7
ENDBRANCH   5   6
ENDBRANCH   1   5
TORSDOF 4
ENDMDL
MODEL 6
REMARK VINA RESULT:      -4.4      1.535      1.546
REMARK  4 active torsions:
REMARK  status: ('A' for Active; 'I' for Inactive)
REMARK    1  A    between atoms: C1_1  and  C2_2 
REMARK    2  A    between atoms: C2_2  and  C3_3 
REMARK    3  A    between atoms: C3_3  and  C4_4 
REMARK    4  A    between atoms: C4_4  and  C5_5 
ROOT
HETATM    1  C2  UNL     1     -34.617   6.202   4.029  1.00 20.00     0.096 C 
ENDROOT
BRANCH   1   2
HETATM    2  C1  UNL     1     -34.398   5.653   5.429  1.00 20.00     0.218 C 
HETATM    3  O6  UNL     1     -33.975   6.337   6.356  1.00 20.00    -0.280 OA
HETATM    4 CL7  UNL     1     -34.861   3.978   5.541  1.00 20.00    -0.044 Cl
ENDBRANCH   1   2
BRANCH   1   5
HETATM    5  C3  UNL     1     -33.649   5.627   2.991  1.00 20.00     0.010 C 
BRANCH   5   6
HETATM    6  C4  UNL     1     -32.198   6.046   3.255  1.00 20.00     0.015 C 
BRANCH   6   7
HETATM    7  C5  UNL     1     -32.005   7.559   3.276  1.00 20.00     0.114 C 
HETATM    8 CL8  UNL     1     -31.986   8.251   1.636  1.00 20.00    -0.130 Cl
ENDBRANCH   6   7
ENDBRANCH   5   6
ENDBRANCH   1   5
TORSDOF 4
ENDMDL
MODEL 7
REMARK VINA RESULT:      -4.0      2.876      5.125
REMARK  4 active torsions:
REMARK  status: ('A' for Active; 'I' for Inactive)
REMARK    1  A    between atoms: C1_1  and  C2_2 
REMARK    2  A    between atoms: C2_2  and  C3_3 
REMARK    3  A    between atoms: C3_3  and  C4_4 
REMARK    4  A    between atoms: C4_4  and  C5_5 
ROOT
HETATM    1  C2  UNL     1     -31.909   7.633   2.985  1.00 20.00     0.096 C 
ENDROOT
BRANCH   1   2
HETATM    2  C1  UNL     1     -31.981   8.524   1.756  1.00 20.00     0.218 C 
HETATM    3  O6  UNL     1     -31.516   8.200   0.668  1.00 20.00    -0.280 OA
HETATM    4 CL7  UNL     1     -32.831  10.007   2.089  1.00 20.00    -0.044 Cl
ENDBRANCH   1   2
BRANCH   1   5
HETATM    5  C3  UNL     1     -32.879   6.450   2.938  1.00 20.00     0.010 C 
BRANCH   5   6
HETATM    6  C4  UNL     1     -33.785   6.391   4.173  1.00 20.00     0.015 C 
BRANCH   6   7
HETATM    7  C5  UNL     1     -34.804   5.257   4.116  1.00 20.00     0.114 C 
HETATM    8 CL8  UNL     1     -34.996   4.454   5.692  1.00 20.00    -0.130 Cl
ENDBRANCH   6   7
ENDBRANCH   5   6
ENDBRANCH   1   5
TORSDOF 4
ENDMDL
MODEL 8
REMARK VINA RESULT:      -3.9     11.402     12.128
REMARK  4 active torsions:
REMARK  status: ('A' for Active; 'I' for Inactive)
REMARK    1  A    between atoms: C1_1  and  C2_2 
REMARK    2  A    between atoms: C2_2  and  C3_3 
REMARK    3  A    between atoms: C3_3  and  C4_4 
REMARK    4  A    between atoms: C4_4  and  C5_5 
ROOT
HETATM    1  C2  UNL     1     -33.295  13.986  -3.727  1.00 20.00     0.096 C 
ENDROOT
BRANCH   1   2
HETATM    2  C1  UNL     1     -34.388  13.510  -4.670  1.00 20.00     0.218 C 
HETATM    3  O6  UNL     1     -35.115  12.553  -4.421  1.00 20.00    -0.280 OA
HETATM    4 CL7  UNL     1     -34.491  14.514  -6.090  1.00 20.00    -0.044 Cl
ENDBRANCH   1   2
BRANCH   1   5
HETATM    5  C3  UNL     1     -33.326  15.494  -3.470  1.00 20.00     0.010 C 
BRANCH   5   6
HETATM    6  C4  UNL     1     -34.372  15.884  -2.419  1.00 20.00     0.015 C 
BRANCH   6   7
HETATM    7  C5  UNL     1     -33.889  16.973  -1.466  1.00 20.00     0.114 C 
HETATM    8 CL8  UNL     1     -34.854  17.027   0.028  1.00 20.00    -0.130 Cl
ENDBRANCH   6   7
ENDBRANCH   5   6
ENDBRANCH   1   5
TORSDOF 4
ENDMDL
MODEL 9
REMARK VINA RESULT:      -3.8      2.202      3.792
REMARK  4 active torsions:
REMARK  status: ('A' for Active; 'I' for Inactive)
REMARK    1  A    between atoms: C1_1  and  C2_2 
REMARK    2  A    between atoms: C2_2  and  C3_3 
REMARK    3  A    between atoms: C3_3  and  C4_4 
REMARK    4  A    between atoms: C4_4  and  C5_5 
ROOT
HETATM    1  C2  UNL     1     -35.158   5.610   3.810  1.00 20.00     0.096 C 
ENDROOT
BRANCH   1   2
HETATM    2  C1  UNL     1     -33.979   5.601   2.851  1.00 20.00     0.218 C 
HETATM    3  O6  UNL     1     -33.921   4.864   1.871  1.00 20.00    -0.280 OA
HETATM    4 CL7  UNL     1     -32.778   6.779   3.298  1.00 20.00    -0.044 Cl
ENDBRANCH   1   2
BRANCH   1   5
HETATM    5  C3  UNL     1     -35.220   4.374   4.711  1.00 20.00     0.010 C 
BRANCH   5   6
HETATM    6  C4  UNL     1     -34.342   4.521   5.960  1.00 20.00     0.015 C 
BRANCH   6   7
HETATM    7  C5  UNL     1     -34.672   5.762   6.783  1.00 20.00     0.114 C 
HETATM    8 CL8  UNL     1     -33.421   7.017   6.627  1.00 20.00    -0.130 Cl
ENDBRANCH   6   7
ENDBRANCH   5   6
ENDBRANCH   1   5
TORSDOF 4
ENDMDL
