MODEL 1
REMARK VINA RESULT:      -5.1      0.000      0.000
REMARK  2 active torsions:
REMARK  status: ('A' for Active; 'I' for Inactive)
REMARK    1  A    between atoms: C9_9  and  C11_11 
REMARK    2  A    between atoms: C10_10  and  C11_11 
ROOT
HETATM    1  C6  UNL     1     -34.604  16.353  -1.363  1.00 20.00     0.207 A 
HETATM    2  C11 UNL     1     -34.550  15.784  -2.759  1.00 20.00     0.089 A 
HETATM    3  O12 UNL     1     -34.154  17.133  -2.483  1.00 20.00    -0.374 OA
ENDROOT
BRANCH   2   4
HETATM    4  C9  UNL     1     -35.804  15.641  -3.589  1.00 20.00     0.023 C 
HETATM    5  C2  UNL     1     -35.629  16.451  -4.887  1.00 20.00     0.012 C 
HETATM    6  C7  UNL     1     -34.385  15.959  -5.655  1.00 20.00    -0.013 C 
HETATM    7  C1  UNL     1     -34.554  14.468  -5.991  1.00 20.00     0.009 C 
HETATM    8  C3  UNL     1     -33.138  16.141  -4.765  1.00 20.00     0.012 C 
HETATM    9  C8  UNL     1     -34.720  13.648  -4.700  1.00 20.00    -0.013 C 
HETATM   10  C4  UNL     1     -35.966  14.149  -3.938  1.00 20.00     0.012 C 
HETATM   11  C5  UNL     1     -33.469  13.837  -3.815  1.00 20.00     0.012 C 
HETATM   12  C10 UNL     1     -33.295  15.328  -3.465  1.00 20.00     0.023 C 
ENDBRANCH   2   4
TORSDOF 2
ENDMDL
MODEL 2
REMARK VINA RESULT:      -5.0      1.312      2.783
REMARK  2 active torsions:
REMARK  status: ('A' for Active; 'I' for Inactive)
REMARK    1  A    between atoms: C9_9  and  C11_11 
REMARK    2  A    between atoms: C10_10  and  C11_11 
ROOT
HETATM    1  C6  UNL     1     -36.644  17.382  -5.069  1.00 20.00     0.207 A 
HETATM    2  C11 UNL     1     -35.668  16.273  -4.760  1.00 20.00     0.089 A 
HETATM    3  O12 UNL     1     -36.672  16.129  -5.772  1.00 20.00    -0.374 OA
ENDROOT
BRANCH   2   4
HETATM    4  C9  UNL     1     -35.850  15.393  -3.546  1.00 20.00     0.023 C 
HETATM    5  C2  UNL     1     -35.901  13.925  -4.007  1.00 20.00     0.012 C 
HETATM    6  C7  UNL     1     -34.613  13.566  -4.776  1.00 20.00    -0.013 C 
HETATM    7  C1  UNL     1     -33.398  13.781  -3.857  1.00 20.00     0.009 C 
HETATM    8  C3  UNL     1     -34.488  14.487  -6.008  1.00 20.00     0.012 C 
HETATM    9  C8  UNL     1     -33.332  15.248  -3.398  1.00 20.00    -0.013 C 
HETATM   10  C4  UNL     1     -34.626  15.598  -2.632  1.00 20.00     0.012 C 
HETATM   11  C5  UNL     1     -33.209  16.162  -4.638  1.00 20.00     0.012 C 
HETATM   12  C10 UNL     1     -34.426  15.960  -5.562  1.00 20.00     0.023 C 
ENDBRANCH   2   4
TORSDOF 2
ENDMDL
MODEL 3
REMARK VINA RESULT:      -5.0      0.837      2.634
REMARK  2 active torsions:
REMARK  status: ('A' for Active; 'I' for Inactive)
REMARK    1  A    between atoms: C9_9  and  C11_11 
REMARK    2  A    between atoms: C10_10  and  C11_11 
ROOT
HETATM    1  C6  UNL     1     -36.691  17.245  -5.290  1.00 20.00     0.207 A 
HETATM    2  C11 UNL     1     -35.669  16.262  -4.775  1.00 20.00     0.089 A 
HETATM    3  O12 UNL     1     -35.760  17.594  -4.252  1.00 20.00    -0.374 OA
ENDROOT
BRANCH   2   4
HETATM    4  C9  UNL     1     -34.412  15.966  -5.558  1.00 20.00     0.023 C 
HETATM    5  C2  UNL     1     -33.197  16.158  -4.631  1.00 20.00     0.012 C 
HETATM    6  C7  UNL     1     -33.324  15.241  -3.397  1.00 20.00    -0.013 C 
HETATM    7  C1  UNL     1     -33.397  13.776  -3.860  1.00 20.00     0.009 C 
HETATM    8  C3  UNL     1     -34.615  15.598  -2.632  1.00 20.00     0.012 C 
HETATM    9  C8  UNL     1     -34.613  13.571  -4.780  1.00 20.00    -0.013 C 
HETATM   10  C4  UNL     1     -34.479  14.494  -6.010  1.00 20.00     0.012 C 
HETATM   11  C5  UNL     1     -35.901  13.932  -4.008  1.00 20.00     0.012 C 
HETATM   12  C10 UNL     1     -35.840  15.401  -3.546  1.00 20.00     0.023 C 
ENDBRANCH   2   4
TORSDOF 2
ENDMDL
MODEL 4
REMARK VINA RESULT:      -4.9      1.574      3.438
REMARK  2 active torsions:
REMARK  status: ('A' for Active; 'I' for Inactive)
REMARK    1  A    between atoms: C9_9  and  C11_11 
REMARK    2  A    between atoms: C10_10  and  C11_11 
ROOT
HETATM    1  C6  UNL     1     -34.776  14.614  -7.434  1.00 20.00     0.207 A 
HETATM    2  C11 UNL     1     -34.748  14.879  -5.950  1.00 20.00     0.089 A 
HETATM    3  O12 UNL     1     -35.982  14.743  -6.664  1.00 20.00    -0.374 OA
ENDROOT
BRANCH   2   4
HETATM    4  C9  UNL     1     -34.466  16.263  -5.413  1.00 20.00     0.023 C 
HETATM    5  C2  UNL     1     -35.642  16.690  -4.515  1.00 20.00     0.012 C 
HETATM    6  C7  UNL     1     -35.836  15.670  -3.375  1.00 20.00    -0.013 C 
HETATM    7  C1  UNL     1     -34.546  15.594  -2.540  1.00 20.00     0.009 C 
HETATM    8  C3  UNL     1     -36.131  14.283  -3.982  1.00 20.00     0.012 C 
HETATM    9  C8  UNL     1     -33.365  15.158  -3.425  1.00 20.00    -0.013 C 
HETATM   10  C4  UNL     1     -33.181  16.183  -4.565  1.00 20.00     0.012 C 
HETATM   11  C5  UNL     1     -33.671  13.770  -4.031  1.00 20.00     0.012 C 
HETATM   12  C10 UNL     1     -34.958  13.838  -4.875  1.00 20.00     0.023 C 
ENDBRANCH   2   4
TORSDOF 2
ENDMDL
MODEL 5
REMARK VINA RESULT:      -4.9      1.609      3.087
REMARK  2 active torsions:
REMARK  status: ('A' for Active; 'I' for Inactive)
REMARK    1  A    between atoms: C9_9  and  C11_11 
REMARK    2  A    between atoms: C10_10  and  C11_11 
ROOT
HETATM    1  C6  UNL     1     -37.943  14.932  -4.679  1.00 20.00     0.207 A 
HETATM    2  C11 UNL     1     -36.453  15.076  -4.489  1.00 20.00     0.089 A 
HETATM    3  O12 UNL     1     -37.229  14.176  -3.687  1.00 20.00    -0.374 OA
ENDROOT
BRANCH   2   4
HETATM    4  C9  UNL     1     -35.875  16.259  -3.749  1.00 20.00     0.023 C 
HETATM    5  C2  UNL     1     -35.010  15.736  -2.586  1.00 20.00     0.012 C 
HETATM    6  C7  UNL     1     -33.901  14.810  -3.127  1.00 20.00    -0.013 C 
HETATM    7  C1  UNL     1     -33.023  15.596  -4.116  1.00 20.00     0.009 C 
HETATM    8  C3  UNL     1     -34.550  13.618  -3.860  1.00 20.00     0.012 C 
HETATM    9  C8  UNL     1     -33.876  16.115  -5.286  1.00 20.00    -0.013 C 
HETATM   10  C4  UNL     1     -34.984  17.038  -4.736  1.00 20.00     0.012 C 
HETATM   11  C5  UNL     1     -34.524  14.916  -6.013  1.00 20.00     0.012 C 
HETATM   12  C10 UNL     1     -35.412  14.126  -5.032  1.00 20.00     0.023 C 
ENDBRANCH   2   4
TORSDOF 2
ENDMDL
MODEL 6
REMARK VINA RESULT:      -4.8      1.600      3.414
REMARK  2 active torsions:
REMARK  status: ('A' for Active; 'I' for Inactive)
REMARK    1  A    between atoms: C9_9  and  C11_11 
REMARK    2  A    between atoms: C10_10  and  C11_11 
ROOT
HETATM    1  C6  UNL     1     -35.497  14.657  -7.370  1.00 20.00     0.207 A 
HETATM    2  C11 UNL     1     -35.132  14.971  -5.941  1.00 20.00     0.089 A 
HETATM    3  O12 UNL     1     -34.130  14.749  -6.940  1.00 20.00    -0.374 OA
ENDROOT
BRANCH   2   4
HETATM    4  C9  UNL     1     -35.214  13.913  -4.867  1.00 20.00     0.023 C 
HETATM    5  C2  UNL     1     -33.831  13.782  -4.200  1.00 20.00     0.012 C 
HETATM    6  C7  UNL     1     -33.393  15.143  -3.620  1.00 20.00    -0.013 C 
HETATM    7  C1  UNL     1     -34.429  15.608  -2.583  1.00 20.00     0.009 C 
HETATM    8  C3  UNL     1     -33.316  16.178  -4.762  1.00 20.00     0.012 C 
HETATM    9  C8  UNL     1     -35.812  15.751  -3.241  1.00 20.00    -0.013 C 
HETATM   10  C4  UNL     1     -36.241  14.386  -3.820  1.00 20.00     0.012 C 
HETATM   11  C5  UNL     1     -35.726  16.787  -4.384  1.00 20.00     0.012 C 
HETATM   12  C10 UNL     1     -34.695  16.325  -5.433  1.00 20.00     0.023 C 
ENDBRANCH   2   4
TORSDOF 2
ENDMDL
MODEL 7
REMARK VINA RESULT:      -4.8      1.258      2.391
REMARK  2 active torsions:
REMARK  status: ('A' for Active; 'I' for Inactive)
REMARK    1  A    between atoms: C9_9  and  C11_11 
REMARK    2  A    between atoms: C10_10  and  C11_11 
ROOT
HETATM    1  C6  UNL     1     -33.719  18.109  -4.764  1.00 20.00     0.207 A 
HETATM    2  C11 UNL     1     -34.197  16.692  -4.569  1.00 20.00     0.089 A 
HETATM    3  O12 UNL     1     -32.894  16.980  -5.091  1.00 20.00    -0.374 OA
ENDROOT
BRANCH   2   4
HETATM    4  C9  UNL     1     -35.153  16.052  -5.547  1.00 20.00     0.023 C 
HETATM    5  C2  UNL     1     -34.542  14.726  -6.037  1.00 20.00     0.012 C 
HETATM    6  C7  UNL     1     -34.257  13.799  -4.837  1.00 20.00    -0.013 C 
HETATM    7  C1  UNL     1     -35.573  13.521  -4.090  1.00 20.00     0.009 C 
HETATM    8  C3  UNL     1     -33.268  14.499  -3.882  1.00 20.00     0.012 C 
HETATM    9  C8  UNL     1     -36.188  14.839  -3.588  1.00 20.00    -0.013 C 
HETATM   10  C4  UNL     1     -36.466  15.760  -4.795  1.00 20.00     0.012 C 
HETATM   11  C5  UNL     1     -35.190  15.533  -2.634  1.00 20.00     0.012 C 
HETATM   12  C10 UNL     1     -33.871  15.823  -3.376  1.00 20.00     0.023 C 
ENDBRANCH   2   4
TORSDOF 2
ENDMDL
MODEL 8
REMARK VINA RESULT:      -4.7      0.636      2.589
REMARK  2 active torsions:
REMARK  status: ('A' for Active; 'I' for Inactive)
REMARK    1  A    between atoms: C9_9  and  C11_11 
REMARK    2  A    between atoms: C10_10  and  C11_11 
ROOT
HETATM    1  C6  UNL     1     -34.406  17.255  -1.890  1.00 20.00     0.207 A 
HETATM    2  C11 UNL     1     -34.525  16.269  -3.026  1.00 20.00     0.089 A 
HETATM    3  O12 UNL     1     -34.753  15.879  -1.665  1.00 20.00    -0.374 OA
ENDROOT
BRANCH   2   4
HETATM    4  C9  UNL     1     -33.296  15.670  -3.668  1.00 20.00     0.023 C 
HETATM    5  C2  UNL     1     -33.480  14.143  -3.752  1.00 20.00     0.012 C 
HETATM    6  C7  UNL     1     -34.756  13.808  -4.552  1.00 20.00    -0.013 C 
HETATM    7  C1  UNL     1     -34.635  14.396  -5.968  1.00 20.00     0.009 C 
HETATM    8  C3  UNL     1     -35.975  14.433  -3.844  1.00 20.00     0.012 C 
HETATM    9  C8  UNL     1     -34.460  15.923  -5.895  1.00 20.00    -0.013 C 
HETATM   10  C4  UNL     1     -33.183  16.249  -5.091  1.00 20.00     0.012 C 
HETATM   11  C5  UNL     1     -35.684  16.541  -5.183  1.00 20.00     0.012 C 
HETATM   12  C10 UNL     1     -35.809  15.962  -3.760  1.00 20.00     0.023 C 
ENDBRANCH   2   4
TORSDOF 2
ENDMDL
MODEL 9
REMARK VINA RESULT:      -4.6      1.150      2.646
REMARK  2 active torsions:
REMARK  status: ('A' for Active; 'I' for Inactive)
REMARK    1  A    between atoms: C9_9  and  C11_11 
REMARK    2  A    between atoms: C10_10  and  C11_11 
ROOT
HETATM    1  C6  UNL     1     -33.582  18.085  -4.876  1.00 20.00     0.207 A 
HETATM    2  C11 UNL     1     -34.208  16.731  -4.649  1.00 20.00     0.089 A 
HETATM    3  O12 UNL     1     -34.937  17.944  -4.420  1.00 20.00    -0.374 OA
ENDROOT
BRANCH   2   4
HETATM    4  C9  UNL     1     -33.893  15.928  -3.410  1.00 20.00     0.023 C 
HETATM    5  C2  UNL     1     -35.213  15.609  -2.682  1.00 20.00     0.012 C 
HETATM    6  C7  UNL     1     -36.165  14.844  -3.625  1.00 20.00    -0.013 C 
HETATM    7  C1  UNL     1     -35.490  13.537  -4.074  1.00 20.00     0.009 C 
HETATM    8  C3  UNL     1     -36.459  15.716  -4.863  1.00 20.00     0.012 C 
HETATM    9  C8  UNL     1     -34.175  13.845  -4.811  1.00 20.00    -0.013 C 
HETATM   10  C4  UNL     1     -33.230  14.612  -3.861  1.00 20.00     0.012 C 
HETATM   11  C5  UNL     1     -34.478  14.720  -6.047  1.00 20.00     0.012 C 
HETATM   12  C10 UNL     1     -35.148  16.036  -5.606  1.00 20.00     0.023 C 
ENDBRANCH   2   4
TORSDOF 2
ENDMDL
