MODEL 1
REMARK VINA RESULT:      -3.2      0.000      0.000
REMARK  2 active torsions:
REMARK  status: ('A' for Active; 'I' for Inactive)
REMARK    1  A    between atoms: C2_2  and  C3_3 
REMARK    2  A    between atoms: C2_2  and  S5_5 
ROOT
HETATM    1  C1  UNL     1     -32.262   7.659   2.471  1.00 20.00     0.133 C 
HETATM    2  N4  UNL     1     -32.158   8.669   1.911  1.00 20.00    -0.184 NA
HETATM    3  S5  UNL     1     -32.402   6.183   3.284  1.00 20.00    -0.050 SA
ENDROOT
BRANCH   3   4
HETATM    4  C2  UNL     1     -34.009   6.474   4.082  1.00 20.00     0.105 C 
BRANCH   4   5
HETATM    5  C3  UNL     1     -34.861   5.213   4.153  1.00 20.00     0.126 C 
HETATM    6 CL6  UNL     1     -35.057   4.629   5.824  1.00 20.00    -0.130 Cl
ENDBRANCH   4   5
ENDBRANCH   3   4
TORSDOF 2
ENDMDL
MODEL 2
REMARK VINA RESULT:      -3.2      2.141      2.377
REMARK  2 active torsions:
REMARK  status: ('A' for Active; 'I' for Inactive)
REMARK    1  A    between atoms: C2_2  and  C3_3 
REMARK    2  A    between atoms: C2_2  and  S5_5 
ROOT
HETATM    1  C1  UNL     1     -33.301   6.101   3.328  1.00 20.00     0.133 C 
HETATM    2  N4  UNL     1     -32.248   6.533   3.104  1.00 20.00    -0.184 NA
HETATM    3  S5  UNL     1     -34.839   5.476   3.643  1.00 20.00    -0.050 SA
ENDROOT
BRANCH   3   4
HETATM    4  C2  UNL     1     -34.452   4.584   5.178  1.00 20.00     0.105 C 
BRANCH   4   5
HETATM    5  C3  UNL     1     -34.846   5.368   6.422  1.00 20.00     0.126 C 
HETATM    6 CL6  UNL     1     -33.867   6.842   6.625  1.00 20.00    -0.130 Cl
ENDBRANCH   4   5
ENDBRANCH   3   4
TORSDOF 2
ENDMDL
MODEL 3
REMARK VINA RESULT:      -3.2      3.894      4.487
REMARK  2 active torsions:
REMARK  status: ('A' for Active; 'I' for Inactive)
REMARK    1  A    between atoms: C2_2  and  C3_3 
REMARK    2  A    between atoms: C2_2  and  S5_5 
ROOT
HETATM    1  C1  UNL     1     -35.036   4.717   5.184  1.00 20.00     0.133 C 
HETATM    2  N4  UNL     1     -35.199   4.209   6.214  1.00 20.00    -0.184 NA
HETATM    3  S5  UNL     1     -34.807   5.451   3.679  1.00 20.00    -0.050 SA
ENDROOT
BRANCH   3   4
HETATM    4  C2  UNL     1     -33.386   6.499   4.111  1.00 20.00     0.105 C 
BRANCH   4   5
HETATM    5  C3  UNL     1     -32.273   6.427   3.075  1.00 20.00     0.126 C 
HETATM    6 CL6  UNL     1     -32.024   7.984   2.247  1.00 20.00    -0.130 Cl
ENDBRANCH   4   5
ENDBRANCH   3   4
TORSDOF 2
ENDMDL
MODEL 4
REMARK VINA RESULT:      -3.1     11.027     11.294
REMARK  2 active torsions:
REMARK  status: ('A' for Active; 'I' for Inactive)
REMARK    1  A    between atoms: C2_2  and  C3_3 
REMARK    2  A    between atoms: C2_2  and  S5_5 
ROOT
HETATM    1  C1  UNL     1     -34.229  13.688  -4.208  1.00 20.00     0.133 C 
HETATM    2  N4  UNL     1     -34.826  12.751  -4.541  1.00 20.00    -0.184 NA
HETATM    3  S5  UNL     1     -33.349  15.050  -3.730  1.00 20.00    -0.050 SA
ENDROOT
BRANCH   3   4
HETATM    4  C2  UNL     1     -34.534  15.718  -2.524  1.00 20.00     0.105 C 
BRANCH   4   5
HETATM    5  C3  UNL     1     -33.929  16.817  -1.661  1.00 20.00     0.126 C 
HETATM    6 CL6  UNL     1     -34.769  16.981  -0.098  1.00 20.00    -0.130 Cl
ENDBRANCH   4   5
ENDBRANCH   3   4
TORSDOF 2
ENDMDL
MODEL 5
REMARK VINA RESULT:      -3.1     11.070     11.471
REMARK  2 active torsions:
REMARK  status: ('A' for Active; 'I' for Inactive)
REMARK    1  A    between atoms: C2_2  and  C3_3 
REMARK    2  A    between atoms: C2_2  and  S5_5 
ROOT
HETATM    1  C1  UNL     1     -35.096  13.729  -4.098  1.00 20.00     0.133 C 
HETATM    2  N4  UNL     1     -34.832  12.715  -4.593  1.00 20.00    -0.184 NA
HETATM    3  S5  UNL     1     -35.493  15.206  -3.377  1.00 20.00    -0.050 SA
ENDROOT
BRANCH   3   4
HETATM    4  C2  UNL     1     -33.807  15.799  -3.046  1.00 20.00     0.105 C 
BRANCH   4   5
HETATM    5  C3  UNL     1     -33.781  16.961  -2.063  1.00 20.00     0.126 C 
HETATM    6 CL6  UNL     1     -34.703  16.607  -0.581  1.00 20.00    -0.130 Cl
ENDBRANCH   4   5
ENDBRANCH   3   4
TORSDOF 2
ENDMDL
MODEL 6
REMARK VINA RESULT:      -3.0      3.481      3.894
REMARK  2 active torsions:
REMARK  status: ('A' for Active; 'I' for Inactive)
REMARK    1  A    between atoms: C2_2  and  C3_3 
REMARK    2  A    between atoms: C2_2  and  S5_5 
ROOT
HETATM    1  C1  UNL     1     -34.232   6.126   5.942  1.00 20.00     0.133 C 
HETATM    2  N4  UNL     1     -33.817   6.896   6.704  1.00 20.00    -0.184 NA
HETATM    3  S5  UNL     1     -34.841   4.997   4.841  1.00 20.00    -0.050 SA
ENDROOT
BRANCH   3   4
HETATM    4  C2  UNL     1     -34.184   5.736   3.316  1.00 20.00     0.105 C 
BRANCH   4   5
HETATM    5  C3  UNL     1     -32.704   6.077   3.425  1.00 20.00     0.126 C 
HETATM    6 CL6  UNL     1     -32.296   7.580   2.560  1.00 20.00    -0.130 Cl
ENDBRANCH   4   5
ENDBRANCH   3   4
TORSDOF 2
ENDMDL
MODEL 7
REMARK VINA RESULT:      -3.0     11.804     12.367
REMARK  2 active torsions:
REMARK  status: ('A' for Active; 'I' for Inactive)
REMARK    1  A    between atoms: C2_2  and  C3_3 
REMARK    2  A    between atoms: C2_2  and  S5_5 
ROOT
HETATM    1  C1  UNL     1     -34.829  13.599  -5.185  1.00 20.00     0.133 C 
HETATM    2  N4  UNL     1     -34.945  12.791  -4.361  1.00 20.00    -0.184 NA
HETATM    3  S5  UNL     1     -34.663  14.768  -6.395  1.00 20.00    -0.050 SA
ENDROOT
BRANCH   3   4
HETATM    4  C2  UNL     1     -34.377  16.211  -5.328  1.00 20.00     0.105 C 
BRANCH   4   5
HETATM    5  C3  UNL     1     -33.179  16.026  -4.406  1.00 20.00     0.126 C 
HETATM    6 CL6  UNL     1     -33.650  16.012  -2.689  1.00 20.00    -0.130 Cl
ENDBRANCH   4   5
ENDBRANCH   3   4
TORSDOF 2
ENDMDL
MODEL 8
REMARK VINA RESULT:      -2.9      3.578      4.123
REMARK  2 active torsions:
REMARK  status: ('A' for Active; 'I' for Inactive)
REMARK    1  A    between atoms: C2_2  and  C3_3 
REMARK    2  A    between atoms: C2_2  and  S5_5 
ROOT
HETATM    1  C1  UNL     1     -34.075   6.193   5.283  1.00 20.00     0.133 C 
HETATM    2  N4  UNL     1     -34.010   6.470   6.407  1.00 20.00    -0.184 NA
HETATM    3  S5  UNL     1     -34.181   5.789   3.645  1.00 20.00    -0.050 SA
ENDROOT
BRANCH   3   4
HETATM    4  C2  UNL     1     -32.431   6.007   3.206  1.00 20.00     0.105 C 
BRANCH   4   5
HETATM    5  C3  UNL     1     -31.976   7.455   3.327  1.00 20.00     0.126 C 
HETATM    6 CL6  UNL     1     -32.020   8.305   1.762  1.00 20.00    -0.130 Cl
ENDBRANCH   4   5
ENDBRANCH   3   4
TORSDOF 2
ENDMDL
MODEL 9
REMARK VINA RESULT:      -2.9     11.698     11.936
REMARK  2 active torsions:
REMARK  status: ('A' for Active; 'I' for Inactive)
REMARK    1  A    between atoms: C2_2  and  C3_3 
REMARK    2  A    between atoms: C2_2  and  S5_5 
ROOT
HETATM    1  C1  UNL     1     -35.324  13.652  -4.217  1.00 20.00     0.133 C 
HETATM    2  N4  UNL     1     -34.897  12.664  -4.648  1.00 20.00    -0.184 NA
HETATM    3  S5  UNL     1     -35.957  15.090  -3.593  1.00 20.00    -0.050 SA
ENDROOT
BRANCH   3   4
HETATM    4  C2  UNL     1     -34.492  15.645  -2.671  1.00 20.00     0.105 C 
BRANCH   4   5
HETATM    5  C3  UNL     1     -33.212  15.524  -3.485  1.00 20.00     0.126 C 
HETATM    6 CL6  UNL     1     -33.219  16.594  -4.910  1.00 20.00    -0.130 Cl
ENDBRANCH   4   5
ENDBRANCH   3   4
TORSDOF 2
ENDMDL
