MODEL 1
REMARK VINA RESULT:      -5.2      0.000      0.000
REMARK  0 active torsions:
REMARK  status: ('A' for Active; 'I' for Inactive)
ROOT
HETATM    1  C1  UNL     1     -33.455   5.815   2.831  1.00 20.00     0.053 A 
HETATM    2  C2  UNL     1     -34.248   5.713   3.899  1.00 20.00    -0.072 A 
HETATM    3  C3  UNL     1     -32.496   6.879   3.155  1.00 20.00     0.150 A 
HETATM    4  C4  UNL     1     -35.347   4.724   4.113  1.00 20.00     0.034 C 
HETATM    5  C5  UNL     1     -32.715   7.437   4.535  1.00 20.00     0.092 A 
HETATM    6  C6  UNL     1     -35.135   3.984   5.436  1.00 20.00     0.004 C 
HETATM    7  C7  UNL     1     -34.882   4.942   6.606  1.00 20.00     0.001 C 
HETATM    8  C8  UNL     1     -33.714   5.894   6.319  1.00 20.00     0.009 C 
HETATM    9  C9  UNL     1     -33.944   6.668   5.018  1.00 20.00     0.022 A 
HETATM   10  O10 UNL     1     -31.622   7.248   2.385  1.00 20.00    -0.293 OA
ENDROOT
TORSDOF 0
ENDMDL
MODEL 2
REMARK VINA RESULT:      -4.8     11.572     13.287
REMARK  0 active torsions:
REMARK  status: ('A' for Active; 'I' for Inactive)
ROOT
HETATM    1  C1  UNL     1     -34.350  14.752  -5.586  1.00 20.00     0.053 A 
HETATM    2  C2  UNL     1     -33.782  15.729  -4.877  1.00 20.00    -0.072 A 
HETATM    3  C3  UNL     1     -34.380  13.586  -4.692  1.00 20.00     0.150 A 
HETATM    4  C4  UNL     1     -33.581  17.148  -5.299  1.00 20.00     0.034 C 
HETATM    5  C5  UNL     1     -33.812  13.899  -3.335  1.00 20.00     0.092 A 
HETATM    6  C6  UNL     1     -34.184  18.095  -4.258  1.00 20.00     0.004 C 
HETATM    7  C7  UNL     1     -33.721  17.766  -2.833  1.00 20.00     0.001 C 
HETATM    8  C8  UNL     1     -34.001  16.302  -2.469  1.00 20.00     0.009 C 
HETATM    9  C9  UNL     1     -33.362  15.352  -3.484  1.00 20.00     0.022 A 
HETATM   10  O10 UNL     1     -34.828  12.500  -5.027  1.00 20.00    -0.293 OA
ENDROOT
TORSDOF 0
ENDMDL
MODEL 3
REMARK VINA RESULT:      -4.8     11.697     12.863
REMARK  0 active torsions:
REMARK  status: ('A' for Active; 'I' for Inactive)
ROOT
HETATM    1  C1  UNL     1     -33.867  14.247  -3.581  1.00 20.00     0.053 A 
HETATM    2  C2  UNL     1     -34.440  15.304  -3.002  1.00 20.00    -0.072 A 
HETATM    3  C3  UNL     1     -34.959  13.526  -4.248  1.00 20.00     0.150 A 
HETATM    4  C4  UNL     1     -33.756  16.402  -2.255  1.00 20.00     0.034 C 
HETATM    5  C5  UNL     1     -36.282  14.221  -4.079  1.00 20.00     0.092 A 
HETATM    6  C6  UNL     1     -34.152  17.760  -2.842  1.00 20.00     0.004 C 
HETATM    7  C7  UNL     1     -35.671  17.914  -2.983  1.00 20.00     0.001 C 
HETATM    8  C8  UNL     1     -36.285  16.767  -3.796  1.00 20.00     0.009 C 
HETATM    9  C9  UNL     1     -35.927  15.409  -3.185  1.00 20.00     0.022 A 
HETATM   10  O10 UNL     1     -34.790  12.490  -4.873  1.00 20.00    -0.293 OA
ENDROOT
TORSDOF 0
ENDMDL
MODEL 4
REMARK VINA RESULT:      -4.8      2.164      4.122
REMARK  0 active torsions:
REMARK  status: ('A' for Active; 'I' for Inactive)
ROOT
HETATM    1  C1  UNL     1     -34.041   5.803   6.225  1.00 20.00     0.053 A 
HETATM    2  C2  UNL     1     -33.750   6.433   5.085  1.00 20.00    -0.072 A 
HETATM    3  C3  UNL     1     -35.034   4.783   5.867  1.00 20.00     0.150 A 
HETATM    4  C4  UNL     1     -32.736   7.511   4.885  1.00 20.00     0.034 C 
HETATM    5  C5  UNL     1     -35.340   4.784   4.394  1.00 20.00     0.092 A 
HETATM    6  C6  UNL     1     -31.775   7.124   3.758  1.00 20.00     0.004 C 
HETATM    7  C7  UNL     1     -32.514   6.680   2.490  1.00 20.00     0.001 C 
HETATM    8  C8  UNL     1     -33.505   5.545   2.777  1.00 20.00     0.009 C 
HETATM    9  C9  UNL     1     -34.494   5.946   3.874  1.00 20.00     0.022 A 
HETATM   10  O10 UNL     1     -35.535   4.024   6.682  1.00 20.00    -0.293 OA
ENDROOT
TORSDOF 0
ENDMDL
MODEL 5
REMARK VINA RESULT:      -4.7     12.309     14.063
REMARK  0 active torsions:
REMARK  status: ('A' for Active; 'I' for Inactive)
ROOT
HETATM    1  C1  UNL     1     -34.909  14.346  -5.921  1.00 20.00     0.053 A 
HETATM    2  C2  UNL     1     -34.205  15.479  -5.924  1.00 20.00    -0.072 A 
HETATM    3  C3  UNL     1     -34.560  13.671  -4.664  1.00 20.00     0.150 A 
HETATM    4  C4  UNL     1     -34.253  16.566  -6.948  1.00 20.00     0.034 C 
HETATM    5  C5  UNL     1     -33.594  14.477  -3.839  1.00 20.00     0.092 A 
HETATM    6  C6  UNL     1     -34.536  17.910  -6.272  1.00 20.00     0.004 C 
HETATM    7  C7  UNL     1     -33.603  18.173  -5.084  1.00 20.00     0.001 C 
HETATM    8  C8  UNL     1     -33.645  17.028  -4.064  1.00 20.00     0.009 C 
HETATM    9  C9  UNL     1     -33.319  15.689  -4.729  1.00 20.00     0.022 A 
HETATM   10  O10 UNL     1     -35.019  12.587  -4.339  1.00 20.00    -0.293 OA
ENDROOT
TORSDOF 0
ENDMDL
MODEL 6
REMARK VINA RESULT:      -4.5     11.771     13.374
REMARK  0 active torsions:
REMARK  status: ('A' for Active; 'I' for Inactive)
ROOT
HETATM    1  C1  UNL     1     -33.818  16.181  -2.633  1.00 20.00     0.053 A 
HETATM    2  C2  UNL     1     -33.781  15.326  -3.657  1.00 20.00    -0.072 A 
HETATM    3  C3  UNL     1     -33.710  17.516  -3.234  1.00 20.00     0.150 A 
HETATM    4  C4  UNL     1     -33.930  13.841  -3.596  1.00 20.00     0.034 C 
HETATM    5  C5  UNL     1     -33.631  17.457  -4.735  1.00 20.00     0.092 A 
HETATM    6  C6  UNL     1     -35.040  13.385  -4.547  1.00 20.00     0.004 C 
HETATM    7  C7  UNL     1     -34.875  13.968  -5.956  1.00 20.00     0.001 C 
HETATM    8  C8  UNL     1     -34.769  15.498  -5.930  1.00 20.00     0.009 C 
HETATM    9  C9  UNL     1     -33.632  15.954  -5.014  1.00 20.00     0.022 A 
HETATM   10  O10 UNL     1     -33.698  18.545  -2.576  1.00 20.00    -0.293 OA
ENDROOT
TORSDOF 0
ENDMDL
MODEL 7
REMARK VINA RESULT:      -4.5      9.389     10.820
REMARK  0 active torsions:
REMARK  status: ('A' for Active; 'I' for Inactive)
ROOT
HETATM    1  C1  UNL     1     -40.800   3.906  -1.681  1.00 20.00     0.053 A 
HETATM    2  C2  UNL     1     -41.448   4.999  -1.273  1.00 20.00    -0.072 A 
HETATM    3  C3  UNL     1     -41.654   3.307  -2.714  1.00 20.00     0.150 A 
HETATM    4  C4  UNL     1     -40.972   6.011  -0.282  1.00 20.00     0.034 C 
HETATM    5  C5  UNL     1     -42.895   4.120  -2.964  1.00 20.00     0.092 A 
HETATM    6  C6  UNL     1     -41.032   7.413  -0.894  1.00 20.00     0.004 C 
HETATM    7  C7  UNL     1     -42.395   7.713  -1.531  1.00 20.00     0.001 C 
HETATM    8  C8  UNL     1     -42.787   6.648  -2.563  1.00 20.00     0.009 C 
HETATM    9  C9  UNL     1     -42.770   5.249  -1.941  1.00 20.00     0.022 A 
HETATM   10  O10 UNL     1     -41.368   2.274  -3.299  1.00 20.00    -0.293 OA
ENDROOT
TORSDOF 0
ENDMDL
MODEL 8
REMARK VINA RESULT:      -4.4     11.766     13.356
REMARK  0 active torsions:
REMARK  status: ('A' for Active; 'I' for Inactive)
ROOT
HETATM    1  C1  UNL     1     -34.948  14.674  -3.014  1.00 20.00     0.053 A 
HETATM    2  C2  UNL     1     -34.433  14.652  -4.244  1.00 20.00    -0.072 A 
HETATM    3  C3  UNL     1     -34.434  15.903  -2.396  1.00 20.00     0.150 A 
HETATM    4  C4  UNL     1     -34.704  13.646  -5.315  1.00 20.00     0.034 C 
HETATM    5  C5  UNL     1     -33.568  16.691  -3.341  1.00 20.00     0.092 A 
HETATM    6  C6  UNL     1     -35.162  14.353  -6.594  1.00 20.00     0.004 C 
HETATM    7  C7  UNL     1     -34.224  15.498  -6.995  1.00 20.00     0.001 C 
HETATM    8  C8  UNL     1     -34.034  16.503  -5.852  1.00 20.00     0.009 C 
HETATM    9  C9  UNL     1     -33.533  15.805  -4.585  1.00 20.00     0.022 A 
HETATM   10  O10 UNL     1     -34.699  16.236  -1.251  1.00 20.00    -0.293 OA
ENDROOT
TORSDOF 0
ENDMDL
MODEL 9
REMARK VINA RESULT:      -4.4     11.649     12.697
REMARK  0 active torsions:
REMARK  status: ('A' for Active; 'I' for Inactive)
ROOT
HETATM    1  C1  UNL     1     -34.044  16.557  -2.020  1.00 20.00     0.053 A 
HETATM    2  C2  UNL     1     -34.017  15.783  -3.107  1.00 20.00    -0.072 A 
HETATM    3  C3  UNL     1     -35.418  17.068  -1.936  1.00 20.00     0.150 A 
HETATM    4  C4  UNL     1     -32.871  14.963  -3.601  1.00 20.00     0.034 C 
HETATM    5  C5  UNL     1     -36.288  16.536  -3.043  1.00 20.00     0.092 A 
HETATM    6  C6  UNL     1     -33.310  13.509  -3.793  1.00 20.00     0.004 C 
HETATM    7  C7  UNL     1     -34.598  13.394  -4.617  1.00 20.00     0.001 C 
HETATM    8  C8  UNL     1     -35.733  14.234  -4.018  1.00 20.00     0.009 C 
HETATM    9  C9  UNL     1     -35.311  15.697  -3.866  1.00 20.00     0.022 A 
HETATM   10  O10 UNL     1     -35.795  17.828  -1.057  1.00 20.00    -0.293 OA
ENDROOT
TORSDOF 0
ENDMDL
