MODEL 1
REMARK VINA RESULT:      -4.8      0.000      0.000
REMARK  3 active torsions:
REMARK  status: ('A' for Active; 'I' for Inactive)
REMARK    1  A    between atoms: C4_4  and  C10_10 
REMARK    2  A    between atoms: C5_5  and  C11_11 
REMARK    3  A    between atoms: C6_6  and  C12_12 
ROOT
HETATM    1  C7  UNL     1     -34.310  17.972  -3.593  1.00 20.00     0.009 C 
HETATM    2  C8  UNL     1     -33.992  17.507  -5.012  1.00 20.00     0.010 C 
HETATM    3  C9  UNL     1     -33.930  15.630  -2.733  1.00 20.00     0.017 C 
HETATM    4  C10 UNL     1     -33.589  17.115  -2.548  1.00 20.00     0.008 C 
HETATM    5  C11 UNL     1     -34.318  16.020  -5.217  1.00 20.00     0.015 C 
HETATM    6  C12 UNL     1     -33.611  15.144  -4.157  1.00 20.00     0.015 C 
ENDROOT
BRANCH   4   7
HETATM    7  C4  UNL     1     -33.930  17.576  -1.165  1.00 20.00    -0.032 C 
HETATM    8  C1  UNL     1     -34.749  16.918  -0.338  1.00 20.00     0.007 C 
ENDBRANCH   4   7
BRANCH   6   9
HETATM    9  C6  UNL     1     -33.989  13.695  -4.288  1.00 20.00    -0.031 C 
HETATM   10  C3  UNL     1     -35.248  13.245  -4.270  1.00 20.00     0.007 C 
ENDBRANCH   6   9
BRANCH   5  11
HETATM   11  C5  UNL     1     -33.951  15.627  -6.619  1.00 20.00    -0.031 C 
HETATM   12  C2  UNL     1     -34.831  15.205  -7.533  1.00 20.00     0.007 C 
ENDBRANCH   5  11
TORSDOF 3
ENDMDL
MODEL 2
REMARK VINA RESULT:      -4.8      1.229      1.378
REMARK  3 active torsions:
REMARK  status: ('A' for Active; 'I' for Inactive)
REMARK    1  A    between atoms: C4_4  and  C10_10 
REMARK    2  A    between atoms: C5_5  and  C11_11 
REMARK    3  A    between atoms: C6_6  and  C12_12 
ROOT
HETATM    1  C7  UNL     1     -33.427  17.217  -3.630  1.00 20.00     0.009 C 
HETATM    2  C8  UNL     1     -33.360  16.362  -4.892  1.00 20.00     0.010 C 
HETATM    3  C9  UNL     1     -35.123  15.633  -2.639  1.00 20.00     0.017 C 
HETATM    4  C10 UNL     1     -33.802  16.378  -2.405  1.00 20.00     0.008 C 
HETATM    5  C11 UNL     1     -34.669  15.599  -5.142  1.00 20.00     0.015 C 
HETATM    6  C12 UNL     1     -35.070  14.761  -3.905  1.00 20.00     0.015 C 
ENDROOT
BRANCH   4   7
HETATM    7  C4  UNL     1     -33.882  17.241  -1.183  1.00 20.00    -0.032 C 
HETATM    8  C1  UNL     1     -34.775  17.069  -0.202  1.00 20.00     0.007 C 
ENDBRANCH   4   7
BRANCH   6   9
HETATM    9  C6  UNL     1     -36.394  14.078  -4.099  1.00 20.00    -0.031 C 
HETATM   10  C3  UNL     1     -37.572  14.710  -4.080  1.00 20.00     0.007 C 
ENDBRANCH   6   9
BRANCH   5  11
HETATM   11  C5  UNL     1     -34.517  14.757  -6.377  1.00 20.00    -0.031 C 
HETATM   12  C2  UNL     1     -35.194  14.964  -7.511  1.00 20.00     0.007 C 
ENDBRANCH   5  11
TORSDOF 3
ENDMDL
MODEL 3
REMARK VINA RESULT:      -4.6     11.170     13.226
REMARK  3 active torsions:
REMARK  status: ('A' for Active; 'I' for Inactive)
REMARK    1  A    between atoms: C4_4  and  C10_10 
REMARK    2  A    between atoms: C5_5  and  C11_11 
REMARK    3  A    between atoms: C6_6  and  C12_12 
ROOT
HETATM    1  C7  UNL     1     -33.481   6.328   2.193  1.00 20.00     0.009 C 
HETATM    2  C8  UNL     1     -34.244   5.223   2.920  1.00 20.00     0.010 C 
HETATM    3  C9  UNL     1     -32.750   7.289   4.409  1.00 20.00     0.017 C 
HETATM    4  C10 UNL     1     -32.291   6.824   3.021  1.00 20.00     0.008 C 
HETATM    5  C11 UNL     1     -34.705   5.664   4.317  1.00 20.00     0.015 C 
HETATM    6  C12 UNL     1     -33.516   6.184   5.157  1.00 20.00     0.015 C 
ENDROOT
BRANCH   4   7
HETATM    7  C4  UNL     1     -31.571   7.920   2.298  1.00 20.00    -0.032 C 
HETATM    8  C1  UNL     1     -32.150   8.739   1.414  1.00 20.00     0.007 C 
ENDBRANCH   4   7
BRANCH   6   9
HETATM    9  C6  UNL     1     -33.963   6.703   6.495  1.00 20.00    -0.031 C 
HETATM   10  C3  UNL     1     -33.335   7.671   7.170  1.00 20.00     0.007 C 
ENDBRANCH   6   9
BRANCH   5  11
HETATM   11  C5  UNL     1     -35.416   4.520   4.982  1.00 20.00    -0.031 C 
HETATM   12  C2  UNL     1     -34.818   3.628   5.778  1.00 20.00     0.007 C 
ENDBRANCH   5  11
TORSDOF 3
ENDMDL
MODEL 4
REMARK VINA RESULT:      -4.6      1.180      1.638
REMARK  3 active torsions:
REMARK  status: ('A' for Active; 'I' for Inactive)
REMARK    1  A    between atoms: C4_4  and  C10_10 
REMARK    2  A    between atoms: C5_5  and  C11_11 
REMARK    3  A    between atoms: C6_6  and  C12_12 
ROOT
HETATM    1  C7  UNL     1     -34.031  18.852  -2.126  1.00 20.00     0.009 C 
HETATM    2  C8  UNL     1     -33.548  18.499  -3.531  1.00 20.00     0.010 C 
HETATM    3  C9  UNL     1     -34.226  16.398  -1.570  1.00 20.00     0.017 C 
HETATM    4  C10 UNL     1     -33.671  17.756  -1.119  1.00 20.00     0.008 C 
HETATM    5  C11 UNL     1     -34.085  17.139  -4.000  1.00 20.00     0.015 C 
HETATM    6  C12 UNL     1     -33.744  16.025  -2.982  1.00 20.00     0.015 C 
ENDROOT
BRANCH   4   7
HETATM    7  C4  UNL     1     -34.172  18.114   0.246  1.00 20.00    -0.032 C 
HETATM    8  C1  UNL     1     -35.169  17.476   0.869  1.00 20.00     0.007 C 
ENDBRANCH   4   7
BRANCH   6   9
HETATM    9  C6  UNL     1     -34.338  14.704  -3.381  1.00 20.00    -0.031 C 
HETATM   10  C3  UNL     1     -33.620  13.649  -3.780  1.00 20.00     0.007 C 
ENDBRANCH   6   9
BRANCH   5  11
HETATM   11  C5  UNL     1     -33.544  16.845  -5.370  1.00 20.00    -0.031 C 
HETATM   12  C2  UNL     1     -34.297  16.770  -6.472  1.00 20.00     0.007 C 
ENDBRANCH   5  11
TORSDOF 3
ENDMDL
MODEL 5
REMARK VINA RESULT:      -4.6      1.061      2.879
REMARK  3 active torsions:
REMARK  status: ('A' for Active; 'I' for Inactive)
REMARK    1  A    between atoms: C4_4  and  C10_10 
REMARK    2  A    between atoms: C5_5  and  C11_11 
REMARK    3  A    between atoms: C6_6  and  C12_12 
ROOT
HETATM    1  C7  UNL     1     -34.306  14.596  -3.325  1.00 20.00     0.009 C 
HETATM    2  C8  UNL     1     -34.565  14.268  -4.793  1.00 20.00     0.010 C 
HETATM    3  C9  UNL     1     -34.447  17.061  -3.844  1.00 20.00     0.017 C 
HETATM    4  C10 UNL     1     -34.941  15.932  -2.930  1.00 20.00     0.008 C 
HETATM    5  C11 UNL     1     -34.086  15.388  -5.727  1.00 20.00     0.015 C 
HETATM    6  C12 UNL     1     -34.706  16.748  -5.328  1.00 20.00     0.015 C 
ENDROOT
BRANCH   4   7
HETATM    7  C4  UNL     1     -34.657  16.242  -1.493  1.00 20.00    -0.032 C 
HETATM    8  C1  UNL     1     -33.882  17.252  -1.084  1.00 20.00     0.007 C 
ENDBRANCH   4   7
BRANCH   6   9
HETATM    9  C6  UNL     1     -34.179  17.872  -6.176  1.00 20.00    -0.031 C 
HETATM   10  C3  UNL     1     -33.610  18.977  -5.684  1.00 20.00     0.007 C 
ENDBRANCH   6   9
BRANCH   5  11
HETATM   11  C5  UNL     1     -34.402  15.012  -7.147  1.00 20.00    -0.031 C 
HETATM   12  C2  UNL     1     -35.553  14.451  -7.534  1.00 20.00     0.007 C 
ENDBRANCH   5  11
TORSDOF 3
ENDMDL
MODEL 6
REMARK VINA RESULT:      -4.5      1.107      5.011
REMARK  3 active torsions:
REMARK  status: ('A' for Active; 'I' for Inactive)
REMARK    1  A    between atoms: C4_4  and  C10_10 
REMARK    2  A    between atoms: C5_5  and  C11_11 
REMARK    3  A    between atoms: C6_6  and  C12_12 
ROOT
HETATM    1  C7  UNL     1     -35.305  14.167  -4.982  1.00 20.00     0.009 C 
HETATM    2  C8  UNL     1     -34.700  14.512  -3.623  1.00 20.00     0.010 C 
HETATM    3  C9  UNL     1     -34.356  16.294  -5.951  1.00 20.00     0.017 C 
HETATM    4  C10 UNL     1     -34.491  14.776  -6.127  1.00 20.00     0.008 C 
HETATM    5  C11 UNL     1     -34.547  16.027  -3.428  1.00 20.00     0.015 C 
HETATM    6  C12 UNL     1     -33.742  16.659  -4.588  1.00 20.00     0.015 C 
ENDROOT
BRANCH   4   7
HETATM    7  C4  UNL     1     -35.114  14.441  -7.447  1.00 20.00    -0.032 C 
HETATM    8  C1  UNL     1     -36.309  14.890  -7.846  1.00 20.00     0.007 C 
ENDBRANCH   4   7
BRANCH   6   9
HETATM    9  C6  UNL     1     -33.659  18.154  -4.461  1.00 20.00    -0.031 C 
HETATM   10  C3  UNL     1     -33.584  18.991  -5.500  1.00 20.00     0.007 C 
ENDBRANCH   6   9
BRANCH   5  11
HETATM   11  C5  UNL     1     -33.918  16.288  -2.090  1.00 20.00    -0.031 C 
HETATM   12  C2  UNL     1     -34.604  16.632  -0.995  1.00 20.00     0.007 C 
ENDBRANCH   5  11
TORSDOF 3
ENDMDL
MODEL 7
REMARK VINA RESULT:      -4.3      1.704      4.724
REMARK  3 active torsions:
REMARK  status: ('A' for Active; 'I' for Inactive)
REMARK    1  A    between atoms: C4_4  and  C10_10 
REMARK    2  A    between atoms: C5_5  and  C11_11 
REMARK    3  A    between atoms: C6_6  and  C12_12 
ROOT
HETATM    1  C7  UNL     1     -33.588  14.775  -4.403  1.00 20.00     0.009 C 
HETATM    2  C8  UNL     1     -33.500  15.439  -3.031  1.00 20.00     0.010 C 
HETATM    3  C9  UNL     1     -35.694  16.072  -4.902  1.00 20.00     0.017 C 
HETATM    4  C10 UNL     1     -34.303  15.675  -5.415  1.00 20.00     0.008 C 
HETATM    5  C11 UNL     1     -34.880  15.854  -2.502  1.00 20.00     0.015 C 
HETATM    6  C12 UNL     1     -35.622  16.748  -3.522  1.00 20.00     0.015 C 
ENDROOT
BRANCH   4   7
HETATM    7  C4  UNL     1     -34.394  14.996  -6.746  1.00 20.00    -0.032 C 
HETATM    8  C1  UNL     1     -35.511  14.436  -7.225  1.00 20.00     0.007 C 
ENDBRANCH   4   7
BRANCH   6   9
HETATM    9  C6  UNL     1     -37.010  17.090  -3.060  1.00 20.00    -0.031 C 
HETATM   10  C3  UNL     1     -38.105  16.404  -3.405  1.00 20.00     0.007 C 
ENDBRANCH   6   9
BRANCH   5  11
HETATM   11  C5  UNL     1     -34.713  16.527  -1.169  1.00 20.00    -0.031 C 
HETATM   12  C2  UNL     1     -33.776  17.443  -0.906  1.00 20.00     0.007 C 
ENDBRANCH   5  11
TORSDOF 3
ENDMDL
MODEL 8
REMARK VINA RESULT:      -4.3      1.212      4.183
REMARK  3 active torsions:
REMARK  status: ('A' for Active; 'I' for Inactive)
REMARK    1  A    between atoms: C4_4  and  C10_10 
REMARK    2  A    between atoms: C5_5  and  C11_11 
REMARK    3  A    between atoms: C6_6  and  C12_12 
ROOT
HETATM    1  C7  UNL     1     -33.710  18.539  -4.279  1.00 20.00     0.009 C 
HETATM    2  C8  UNL     1     -34.128  18.171  -2.857  1.00 20.00     0.010 C 
HETATM    3  C9  UNL     1     -34.444  16.264  -5.089  1.00 20.00     0.017 C 
HETATM    4  C10 UNL     1     -34.538  17.779  -5.319  1.00 20.00     0.008 C 
HETATM    5  C11 UNL     1     -34.050  16.658  -2.606  1.00 20.00     0.015 C 
HETATM    6  C12 UNL     1     -34.867  15.877  -3.661  1.00 20.00     0.015 C 
ENDROOT
BRANCH   4   7
HETATM    7  C4  UNL     1     -34.098  18.140  -6.704  1.00 20.00    -0.032 C 
HETATM    8  C1  UNL     1     -34.529  17.524  -7.810  1.00 20.00     0.007 C 
ENDBRANCH   4   7
BRANCH   6   9
HETATM    9  C6  UNL     1     -34.730  14.391  -3.485  1.00 20.00    -0.031 C 
HETATM   10  C3  UNL     1     -33.657  13.688  -3.863  1.00 20.00     0.007 C 
ENDBRANCH   6   9
BRANCH   5  11
HETATM   11  C5  UNL     1     -34.504  16.369  -1.204  1.00 20.00    -0.031 C 
HETATM   12  C2  UNL     1     -34.780  17.313  -0.298  1.00 20.00     0.007 C 
ENDBRANCH   5  11
TORSDOF 3
ENDMDL
MODEL 9
REMARK VINA RESULT:      -4.1      1.742      2.078
REMARK  3 active torsions:
REMARK  status: ('A' for Active; 'I' for Inactive)
REMARK    1  A    between atoms: C4_4  and  C10_10 
REMARK    2  A    between atoms: C5_5  and  C11_11 
REMARK    3  A    between atoms: C6_6  and  C12_12 
ROOT
HETATM    1  C7  UNL     1     -36.116  17.812  -1.819  1.00 20.00     0.009 C 
HETATM    2  C8  UNL     1     -36.546  17.537  -3.258  1.00 20.00     0.010 C 
HETATM    3  C9  UNL     1     -34.455  15.917  -1.945  1.00 20.00     0.017 C 
HETATM    4  C10 UNL     1     -34.663  17.393  -1.579  1.00 20.00     0.008 C 
HETATM    5  C11 UNL     1     -36.338  16.067  -3.650  1.00 20.00     0.015 C 
HETATM    6  C12 UNL     1     -34.879  15.623  -3.395  1.00 20.00     0.015 C 
ENDROOT
BRANCH   4   7
HETATM    7  C4  UNL     1     -34.271  17.654  -0.158  1.00 20.00    -0.032 C 
HETATM    8  C1  UNL     1     -35.100  17.522   0.884  1.00 20.00     0.007 C 
ENDBRANCH   4   7
BRANCH   6   9
HETATM    9  C6  UNL     1     -34.679  14.163  -3.689  1.00 20.00    -0.031 C 
HETATM   10  C3  UNL     1     -33.482  13.583  -3.825  1.00 20.00     0.007 C 
ENDBRANCH   6   9
BRANCH   5  11
HETATM   11  C5  UNL     1     -36.750  15.878  -5.082  1.00 20.00    -0.031 C 
HETATM   12  C2  UNL     1     -36.229  16.562  -6.107  1.00 20.00     0.007 C 
ENDBRANCH   5  11
TORSDOF 3
ENDMDL
