MODEL 1
REMARK VINA RESULT:      -4.3      0.000      0.000
REMARK  0 active torsions:
REMARK  status: ('A' for Active; 'I' for Inactive)
ROOT
HETATM    1  C1  UNL     1     -40.788   4.638  -1.162  1.00 20.00     0.005 C 
HETATM    2  C2  UNL     1     -42.182   4.595  -1.803  1.00 20.00     0.008 C 
HETATM    3  C3  UNL     1     -42.392   5.513   0.362  1.00 20.00     0.012 C 
HETATM    4  C4  UNL     1     -40.992   7.103  -0.757  1.00 20.00     0.047 C 
HETATM    5  C5  UNL     1     -40.942   5.717  -0.077  1.00 20.00    -0.011 C 
HETATM    6  C6  UNL     1     -42.943   5.711  -1.058  1.00 20.00     0.025 C 
HETATM    7  C7  UNL     1     -42.392   7.118  -1.412  1.00 20.00     0.117 C 
HETATM    8 CL8  UNL     1     -42.315   7.441  -3.161  1.00 20.00    -0.101 Cl
HETATM    9 CL9  UNL     1     -43.417   8.395  -0.670  1.00 20.00    -0.101 Cl
ENDROOT
TORSDOF 0
ENDMDL
MODEL 2
REMARK VINA RESULT:      -4.2     11.416     12.299
REMARK  0 active torsions:
REMARK  status: ('A' for Active; 'I' for Inactive)
ROOT
HETATM    1  C1  UNL     1     -33.323  13.712  -3.720  1.00 20.00     0.005 C 
HETATM    2  C2  UNL     1     -34.619  13.363  -4.464  1.00 20.00     0.008 C 
HETATM    3  C3  UNL     1     -35.015  15.284  -3.151  1.00 20.00     0.012 C 
HETATM    4  C4  UNL     1     -33.329  16.025  -4.685  1.00 20.00     0.047 C 
HETATM    5  C5  UNL     1     -33.507  15.202  -3.389  1.00 20.00    -0.011 C 
HETATM    6  C6  UNL     1     -35.355  14.717  -4.537  1.00 20.00     0.025 C 
HETATM    7  C7  UNL     1     -34.625  15.718  -5.471  1.00 20.00     0.117 C 
HETATM    8 CL8  UNL     1     -34.290  15.072  -7.096  1.00 20.00    -0.101 Cl
HETATM    9 CL9  UNL     1     -35.605  17.212  -5.672  1.00 20.00    -0.101 Cl
ENDROOT
TORSDOF 0
ENDMDL
MODEL 3
REMARK VINA RESULT:      -4.2     11.406     12.400
REMARK  0 active torsions:
REMARK  status: ('A' for Active; 'I' for Inactive)
ROOT
HETATM    1  C1  UNL     1     -33.501  13.588  -3.882  1.00 20.00     0.005 C 
HETATM    2  C2  UNL     1     -32.726  14.875  -3.572  1.00 20.00     0.008 C 
HETATM    3  C3  UNL     1     -34.221  15.322  -5.342  1.00 20.00     0.012 C 
HETATM    4  C4  UNL     1     -35.690  14.758  -3.534  1.00 20.00     0.047 C 
HETATM    5  C5  UNL     1     -34.765  14.109  -4.587  1.00 20.00    -0.011 C 
HETATM    6  C6  UNL     1     -33.677  15.984  -4.068  1.00 20.00     0.025 C 
HETATM    7  C7  UNL     1     -34.956  16.076  -3.194  1.00 20.00     0.117 C 
HETATM    8 CL8  UNL     1     -34.627  16.235  -1.451  1.00 20.00    -0.101 Cl
HETATM    9 CL9  UNL     1     -35.948  17.491  -3.689  1.00 20.00    -0.101 Cl
ENDROOT
TORSDOF 0
ENDMDL
MODEL 4
REMARK VINA RESULT:      -4.1     11.142     12.254
REMARK  0 active torsions:
REMARK  status: ('A' for Active; 'I' for Inactive)
ROOT
HETATM    1  C1  UNL     1     -34.203  14.837  -5.784  1.00 20.00     0.005 C 
HETATM    2  C2  UNL     1     -34.623  13.758  -4.776  1.00 20.00     0.008 C 
HETATM    3  C3  UNL     1     -32.917  15.061  -3.796  1.00 20.00     0.012 C 
HETATM    4  C4  UNL     1     -34.680  16.650  -4.121  1.00 20.00     0.047 C 
HETATM    5  C5  UNL     1     -33.562  15.911  -4.890  1.00 20.00    -0.011 C 
HETATM    6  C6  UNL     1     -34.241  14.381  -3.418  1.00 20.00     0.025 C 
HETATM    7  C7  UNL     1     -35.132  15.605  -3.076  1.00 20.00     0.117 C 
HETATM    8 CL8  UNL     1     -36.878  15.270  -3.168  1.00 20.00    -0.101 Cl
HETATM    9 CL9  UNL     1     -34.779  16.188  -1.413  1.00 20.00    -0.101 Cl
ENDROOT
TORSDOF 0
ENDMDL
MODEL 5
REMARK VINA RESULT:      -4.1     11.474     12.611
REMARK  0 active torsions:
REMARK  status: ('A' for Active; 'I' for Inactive)
ROOT
HETATM    1  C1  UNL     1     -34.992  15.891  -2.398  1.00 20.00     0.005 C 
HETATM    2  C2  UNL     1     -33.538  15.763  -2.872  1.00 20.00     0.008 C 
HETATM    3  C3  UNL     1     -34.769  13.962  -3.772  1.00 20.00     0.012 C 
HETATM    4  C4  UNL     1     -35.821  15.874  -4.763  1.00 20.00     0.047 C 
HETATM    5  C5  UNL     1     -35.767  15.073  -3.443  1.00 20.00    -0.011 C 
HETATM    6  C6  UNL     1     -33.667  14.951  -4.177  1.00 20.00     0.025 C 
HETATM    7  C7  UNL     1     -34.373  15.765  -5.293  1.00 20.00     0.117 C 
HETATM    8 CL8  UNL     1     -33.642  17.361  -5.592  1.00 20.00    -0.101 Cl
HETATM    9 CL9  UNL     1     -34.340  14.856  -6.844  1.00 20.00    -0.101 Cl
ENDROOT
TORSDOF 0
ENDMDL
MODEL 6
REMARK VINA RESULT:      -4.1     11.071     12.110
REMARK  0 active torsions:
REMARK  status: ('A' for Active; 'I' for Inactive)
ROOT
HETATM    1  C1  UNL     1     -36.400  15.155  -5.281  1.00 20.00     0.005 C 
HETATM    2  C2  UNL     1     -36.373  14.440  -3.923  1.00 20.00     0.008 C 
HETATM    3  C3  UNL     1     -34.729  13.462  -5.306  1.00 20.00     0.012 C 
HETATM    4  C4  UNL     1     -33.966  15.723  -5.091  1.00 20.00     0.047 C 
HETATM    5  C5  UNL     1     -35.001  14.864  -5.850  1.00 20.00    -0.011 C 
HETATM    6  C6  UNL     1     -34.932  13.892  -3.846  1.00 20.00     0.025 C 
HETATM    7  C7  UNL     1     -33.890  15.033  -3.710  1.00 20.00     0.117 C 
HETATM    8 CL8  UNL     1     -34.227  16.160  -2.373  1.00 20.00    -0.101 Cl
HETATM    9 CL9  UNL     1     -32.249  14.349  -3.441  1.00 20.00    -0.101 Cl
ENDROOT
TORSDOF 0
ENDMDL
MODEL 7
REMARK VINA RESULT:      -4.1     10.873     11.972
REMARK  0 active torsions:
REMARK  status: ('A' for Active; 'I' for Inactive)
ROOT
HETATM    1  C1  UNL     1     -34.938  13.929  -6.007  1.00 20.00     0.005 C 
HETATM    2  C2  UNL     1     -35.567  15.324  -5.892  1.00 20.00     0.008 C 
HETATM    3  C3  UNL     1     -36.156  14.088  -3.970  1.00 20.00     0.012 C 
HETATM    4  C4  UNL     1     -33.769  14.217  -3.809  1.00 20.00     0.047 C 
HETATM    5  C5  UNL     1     -34.891  13.452  -4.546  1.00 20.00    -0.011 C 
HETATM    6  C6  UNL     1     -35.732  15.509  -4.369  1.00 20.00     0.025 C 
HETATM    7  C7  UNL     1     -34.361  15.637  -3.655  1.00 20.00     0.117 C 
HETATM    8 CL8  UNL     1     -33.301  16.888  -4.349  1.00 20.00    -0.101 Cl
HETATM    9 CL9  UNL     1     -34.598  16.031  -1.917  1.00 20.00    -0.101 Cl
ENDROOT
TORSDOF 0
ENDMDL
MODEL 8
REMARK VINA RESULT:      -4.0     11.952     12.945
REMARK  0 active torsions:
REMARK  status: ('A' for Active; 'I' for Inactive)
ROOT
HETATM    1  C1  UNL     1     -33.814  17.087  -2.364  1.00 20.00     0.005 C 
HETATM    2  C2  UNL     1     -34.703  15.862  -2.109  1.00 20.00     0.008 C 
HETATM    3  C3  UNL     1     -35.418  16.891  -4.109  1.00 20.00     0.012 C 
HETATM    4  C4  UNL     1     -33.176  16.222  -4.627  1.00 20.00     0.047 C 
HETATM    5  C5  UNL     1     -33.969  17.315  -3.877  1.00 20.00    -0.011 C 
HETATM    6  C6  UNL     1     -35.196  15.489  -3.523  1.00 20.00     0.025 C 
HETATM    7  C7  UNL     1     -34.041  14.959  -4.413  1.00 20.00     0.117 C 
HETATM    8 CL8  UNL     1     -33.118  13.626  -3.676  1.00 20.00    -0.101 Cl
HETATM    9 CL9  UNL     1     -34.686  14.367  -5.984  1.00 20.00    -0.101 Cl
ENDROOT
TORSDOF 0
ENDMDL
MODEL 9
REMARK VINA RESULT:      -4.0     11.244     12.357
REMARK  0 active torsions:
REMARK  status: ('A' for Active; 'I' for Inactive)
ROOT
HETATM    1  C1  UNL     1     -34.954  14.409  -6.342  1.00 20.00     0.005 C 
HETATM    2  C2  UNL     1     -34.112  15.672  -6.114  1.00 20.00     0.008 C 
HETATM    3  C3  UNL     1     -36.089  15.863  -4.840  1.00 20.00     0.012 C 
HETATM    4  C4  UNL     1     -35.021  13.945  -3.880  1.00 20.00     0.047 C 
HETATM    5  C5  UNL     1     -35.863  14.375  -5.102  1.00 20.00    -0.011 C 
HETATM    6  C6  UNL     1     -34.587  16.164  -4.731  1.00 20.00     0.025 C 
HETATM    7  C7  UNL     1     -34.157  15.195  -3.598  1.00 20.00     0.117 C 
HETATM    8 CL8  UNL     1     -32.415  14.824  -3.591  1.00 20.00    -0.101 Cl
HETATM    9 CL9  UNL     1     -34.568  15.892  -1.993  1.00 20.00    -0.101 Cl
ENDROOT
TORSDOF 0
ENDMDL
