MODEL 1
REMARK VINA RESULT:      -4.3      0.000      0.000
REMARK  1 active torsions:
REMARK  status: ('A' for Active; 'I' for Inactive)
REMARK    1  A    between atoms: C1_1  and  C3_3 
ROOT
HETATM    1  C2  UNL     1     -34.074   4.078   5.649  1.00 20.00     0.018 A 
HETATM    2  C3  UNL     1     -35.311   4.683   5.036  1.00 20.00     0.076 A 
HETATM    3  C4  UNL     1     -34.761   5.224   6.335  1.00 20.00    -0.005 A 
HETATM    4  C5  UNL     1     -34.090   6.552   6.419  1.00 20.00     0.011 C 
ENDROOT
BRANCH   2   5
HETATM    5  C1  UNL     1     -35.196   5.449   3.791  1.00 20.00     0.223 C 
HETATM    6  O6  UNL     1     -36.172   5.974   3.263  1.00 20.00    -0.279 OA
HETATM    7 CL7  UNL     1     -33.561   5.501   3.203  1.00 20.00    -0.043 Cl
ENDBRANCH   2   5
TORSDOF 1
ENDMDL
MODEL 2
REMARK VINA RESULT:      -4.2      2.250      2.851
REMARK  1 active torsions:
REMARK  status: ('A' for Active; 'I' for Inactive)
REMARK    1  A    between atoms: C1_1  and  C3_3 
ROOT
HETATM    1  C2  UNL     1     -34.711   5.104   3.189  1.00 20.00     0.018 A 
HETATM    2  C3  UNL     1     -34.714   6.230   4.192  1.00 20.00     0.076 A 
HETATM    3  C4  UNL     1     -35.362   4.908   4.528  1.00 20.00    -0.005 A 
HETATM    4  C5  UNL     1     -34.767   3.961   5.514  1.00 20.00     0.011 C 
ENDROOT
BRANCH   2   5
HETATM    5  C1  UNL     1     -33.454   6.634   4.824  1.00 20.00     0.223 C 
HETATM    6  O6  UNL     1     -32.410   6.724   4.185  1.00 20.00    -0.279 OA
HETATM    7 CL7  UNL     1     -33.646   6.950   6.522  1.00 20.00    -0.043 Cl
ENDBRANCH   2   5
TORSDOF 1
ENDMDL
MODEL 3
REMARK VINA RESULT:      -4.0      2.323      3.066
REMARK  1 active torsions:
REMARK  status: ('A' for Active; 'I' for Inactive)
REMARK    1  A    between atoms: C1_1  and  C3_3 
ROOT
HETATM    1  C2  UNL     1     -35.565   6.048   3.780  1.00 20.00     0.018 A 
HETATM    2  C3  UNL     1     -35.082   4.745   4.366  1.00 20.00     0.076 A 
HETATM    3  C4  UNL     1     -34.366   5.363   3.189  1.00 20.00    -0.005 A 
HETATM    4  C5  UNL     1     -33.015   5.982   3.319  1.00 20.00     0.011 C 
ENDROOT
BRANCH   2   5
HETATM    5  C1  UNL     1     -34.474   4.737   5.700  1.00 20.00     0.223 C 
HETATM    6  O6  UNL     1     -34.085   3.699   6.226  1.00 20.00    -0.279 OA
HETATM    7 CL7  UNL     1     -34.391   6.330   6.391  1.00 20.00    -0.043 Cl
ENDBRANCH   2   5
TORSDOF 1
ENDMDL
MODEL 4
REMARK VINA RESULT:      -3.9     12.722     12.991
REMARK  1 active torsions:
REMARK  status: ('A' for Active; 'I' for Inactive)
REMARK    1  A    between atoms: C1_1  and  C3_3 
ROOT
HETATM    1  C2  UNL     1     -33.204  15.760  -3.994  1.00 20.00     0.018 A 
HETATM    2  C3  UNL     1     -33.553  14.308  -3.791  1.00 20.00     0.076 A 
HETATM    3  C4  UNL     1     -34.092  15.359  -2.851  1.00 20.00    -0.005 A 
HETATM    4  C5  UNL     1     -35.528  15.758  -2.847  1.00 20.00     0.011 C 
ENDROOT
BRANCH   2   5
HETATM    5  C1  UNL     1     -34.431  13.636  -4.755  1.00 20.00     0.223 C 
HETATM    6  O6  UNL     1     -35.009  12.589  -4.483  1.00 20.00    -0.279 OA
HETATM    7 CL7  UNL     1     -34.528  14.499  -6.262  1.00 20.00    -0.043 Cl
ENDBRANCH   2   5
TORSDOF 1
ENDMDL
MODEL 5
REMARK VINA RESULT:      -3.9      2.287      3.034
REMARK  1 active torsions:
REMARK  status: ('A' for Active; 'I' for Inactive)
REMARK    1  A    between atoms: C1_1  and  C3_3 
ROOT
HETATM    1  C2  UNL     1     -34.340   6.932   3.745  1.00 20.00     0.018 A 
HETATM    2  C3  UNL     1     -34.868   5.521   3.741  1.00 20.00     0.076 A 
HETATM    3  C4  UNL     1     -33.616   5.868   2.971  1.00 20.00    -0.005 A 
HETATM    4  C5  UNL     1     -32.265   5.416   3.410  1.00 20.00     0.011 C 
ENDROOT
BRANCH   2   5
HETATM    5  C1  UNL     1     -34.801   4.723   4.970  1.00 20.00     0.223 C 
HETATM    6  O6  UNL     1     -34.978   3.509   4.963  1.00 20.00    -0.279 OA
HETATM    7 CL7  UNL     1     -34.453   5.700   6.366  1.00 20.00    -0.043 Cl
ENDBRANCH   2   5
TORSDOF 1
ENDMDL
MODEL 6
REMARK VINA RESULT:      -3.8      2.158      2.767
REMARK  1 active torsions:
REMARK  status: ('A' for Active; 'I' for Inactive)
REMARK    1  A    between atoms: C1_1  and  C3_3 
ROOT
HETATM    1  C2  UNL     1     -35.184   4.669   6.009  1.00 20.00     0.018 A 
HETATM    2  C3  UNL     1     -33.916   4.958   5.247  1.00 20.00     0.076 A 
HETATM    3  C4  UNL     1     -35.185   4.600   4.509  1.00 20.00    -0.005 A 
HETATM    4  C5  UNL     1     -35.951   5.604   3.717  1.00 20.00     0.011 C 
ENDROOT
BRANCH   2   5
HETATM    5  C1  UNL     1     -33.388   6.326   5.219  1.00 20.00     0.223 C 
HETATM    6  O6  UNL     1     -32.768   6.760   4.252  1.00 20.00    -0.279 OA
HETATM    7 CL7  UNL     1     -33.750   7.196   6.680  1.00 20.00    -0.043 Cl
ENDBRANCH   2   5
TORSDOF 1
ENDMDL
MODEL 7
REMARK VINA RESULT:      -3.8      1.336      2.056
REMARK  1 active torsions:
REMARK  status: ('A' for Active; 'I' for Inactive)
REMARK    1  A    between atoms: C1_1  and  C3_3 
ROOT
HETATM    1  C2  UNL     1     -34.524   6.136   6.473  1.00 20.00     0.018 A 
HETATM    2  C3  UNL     1     -33.409   5.901   5.487  1.00 20.00     0.076 A 
HETATM    3  C4  UNL     1     -34.203   4.737   6.030  1.00 20.00    -0.005 A 
HETATM    4  C5  UNL     1     -35.175   3.980   5.191  1.00 20.00     0.011 C 
ENDROOT
BRANCH   2   5
HETATM    5  C1  UNL     1     -33.572   6.342   4.097  1.00 20.00     0.223 C 
HETATM    6  O6  UNL     1     -34.590   6.911   3.715  1.00 20.00    -0.279 OA
HETATM    7 CL7  UNL     1     -32.183   5.960   3.123  1.00 20.00    -0.043 Cl
ENDBRANCH   2   5
TORSDOF 1
ENDMDL
MODEL 8
REMARK VINA RESULT:      -3.7     12.640     13.134
REMARK  1 active torsions:
REMARK  status: ('A' for Active; 'I' for Inactive)
REMARK    1  A    between atoms: C1_1  and  C3_3 
ROOT
HETATM    1  C2  UNL     1     -33.444  16.578  -4.128  1.00 20.00     0.018 A 
HETATM    2  C3  UNL     1     -33.072  15.190  -3.673  1.00 20.00     0.076 A 
HETATM    3  C4  UNL     1     -33.648  16.184  -2.693  1.00 20.00    -0.005 A 
HETATM    4  C5  UNL     1     -35.029  16.050  -2.147  1.00 20.00     0.011 C 
ENDROOT
BRANCH   2   5
HETATM    5  C1  UNL     1     -33.862  14.044  -4.138  1.00 20.00     0.223 C 
HETATM    6  O6  UNL     1     -33.965  13.019  -3.472  1.00 20.00    -0.279 OA
HETATM    7 CL7  UNL     1     -34.591  14.339  -5.688  1.00 20.00    -0.043 Cl
ENDBRANCH   2   5
TORSDOF 1
ENDMDL
MODEL 9
REMARK VINA RESULT:      -3.7      2.320      2.487
REMARK  1 active torsions:
REMARK  status: ('A' for Active; 'I' for Inactive)
REMARK    1  A    between atoms: C1_1  and  C3_3 
ROOT
HETATM    1  C2  UNL     1     -34.524   4.917   4.480  1.00 20.00     0.018 A 
HETATM    2  C3  UNL     1     -34.153   6.136   3.676  1.00 20.00     0.076 A 
HETATM    3  C4  UNL     1     -34.580   6.275   5.118  1.00 20.00    -0.005 A 
HETATM    4  C5  UNL     1     -33.616   6.632   6.199  1.00 20.00     0.011 C 
ENDROOT
BRANCH   2   5
HETATM    5  C1  UNL     1     -32.756   6.340   3.280  1.00 20.00     0.223 C 
HETATM    6  O6  UNL     1     -31.922   5.444   3.369  1.00 20.00    -0.279 OA
HETATM    7 CL7  UNL     1     -32.470   7.953   2.696  1.00 20.00    -0.043 Cl
ENDBRANCH   2   5
TORSDOF 1
ENDMDL
