MODEL 1
REMARK VINA RESULT:      -4.8      0.000      0.000
REMARK  1 active torsions:
REMARK  status: ('A' for Active; 'I' for Inactive)
REMARK    1  A    between atoms: C2_2  and  C3_3 
ROOT
HETATM    1  C3  UNL     1     -34.903   5.169   3.816  1.00 20.00     0.423 C 
HETATM    2  F4  UNL     1     -34.453   4.852   2.573  1.00 20.00    -0.166 F 
HETATM    3  F5  UNL     1     -36.113   5.762   3.644  1.00 20.00    -0.166 F 
HETATM    4  F6  UNL     1     -35.138   3.996   4.459  1.00 20.00    -0.166 F 
ENDROOT
BRANCH   1   5
HETATM    5  C2  UNL     1     -33.933   6.027   4.557  1.00 20.00     0.085 C 
HETATM    6  C1  UNL     1     -34.043   6.320   5.859  1.00 20.00     0.036 C 
HETATM    7 BR7  UNL     1     -32.516   6.686   3.527  1.00 20.00    -0.047 Br
ENDBRANCH   1   5
TORSDOF 1
ENDMDL
MODEL 2
REMARK VINA RESULT:      -4.7      1.337      2.191
REMARK  1 active torsions:
REMARK  status: ('A' for Active; 'I' for Inactive)
REMARK    1  A    between atoms: C2_2  and  C3_3 
ROOT
HETATM    1  C3  UNL     1     -35.013   4.844   5.397  1.00 20.00     0.423 C 
HETATM    2  F4  UNL     1     -35.691   4.784   6.573  1.00 20.00    -0.166 F 
HETATM    3  F5  UNL     1     -34.411   3.637   5.240  1.00 20.00    -0.166 F 
HETATM    4  F6  UNL     1     -35.943   4.940   4.412  1.00 20.00    -0.166 F 
ENDROOT
BRANCH   1   5
HETATM    5  C2  UNL     1     -34.050   5.984   5.367  1.00 20.00     0.085 C 
HETATM    6  C1  UNL     1     -33.776   6.755   6.428  1.00 20.00     0.036 C 
HETATM    7 BR7  UNL     1     -33.226   6.276   3.713  1.00 20.00    -0.047 Br
ENDBRANCH   1   5
TORSDOF 1
ENDMDL
MODEL 3
REMARK VINA RESULT:      -4.7      1.763      2.333
REMARK  1 active torsions:
REMARK  status: ('A' for Active; 'I' for Inactive)
REMARK    1  A    between atoms: C2_2  and  C3_3 
ROOT
HETATM    1  C3  UNL     1     -34.818   5.688   3.808  1.00 20.00     0.423 C 
HETATM    2  F4  UNL     1     -36.128   5.726   3.447  1.00 20.00    -0.166 F 
HETATM    3  F5  UNL     1     -34.191   4.907   2.890  1.00 20.00    -0.166 F 
HETATM    4  F6  UNL     1     -34.328   6.944   3.642  1.00 20.00    -0.166 F 
ENDROOT
BRANCH   1   5
HETATM    5  C2  UNL     1     -34.640   5.200   5.207  1.00 20.00     0.085 C 
HETATM    6  C1  UNL     1     -34.936   3.955   5.604  1.00 20.00     0.036 C 
HETATM    7 BR7  UNL     1     -33.960   6.468   6.403  1.00 20.00    -0.047 Br
ENDBRANCH   1   5
TORSDOF 1
ENDMDL
MODEL 4
REMARK VINA RESULT:      -4.7      1.337      1.522
REMARK  1 active torsions:
REMARK  status: ('A' for Active; 'I' for Inactive)
REMARK    1  A    between atoms: C2_2  and  C3_3 
ROOT
HETATM    1  C3  UNL     1     -34.820   5.240   3.662  1.00 20.00     0.423 C 
HETATM    2  F4  UNL     1     -34.413   4.923   2.405  1.00 20.00    -0.166 F 
HETATM    3  F5  UNL     1     -36.024   5.855   3.530  1.00 20.00    -0.166 F 
HETATM    4  F6  UNL     1     -35.057   4.067   4.306  1.00 20.00    -0.166 F 
ENDROOT
BRANCH   1   5
HETATM    5  C2  UNL     1     -33.814   6.076   4.380  1.00 20.00     0.085 C 
HETATM    6  C1  UNL     1     -32.767   6.658   3.781  1.00 20.00     0.036 C 
HETATM    7 BR7  UNL     1     -34.115   6.266   6.217  1.00 20.00    -0.047 Br
ENDBRANCH   1   5
TORSDOF 1
ENDMDL
MODEL 5
REMARK VINA RESULT:      -4.7      1.759      2.018
REMARK  1 active torsions:
REMARK  status: ('A' for Active; 'I' for Inactive)
REMARK    1  A    between atoms: C2_2  and  C3_3 
ROOT
HETATM    1  C3  UNL     1     -34.833   5.700   3.809  1.00 20.00     0.423 C 
HETATM    2  F4  UNL     1     -34.354   6.960   3.647  1.00 20.00    -0.166 F 
HETATM    3  F5  UNL     1     -36.138   5.736   3.432  1.00 20.00    -0.166 F 
HETATM    4  F6  UNL     1     -34.194   4.916   2.902  1.00 20.00    -0.166 F 
ENDROOT
BRANCH   1   5
HETATM    5  C2  UNL     1     -34.644   5.207   5.204  1.00 20.00     0.085 C 
HETATM    6  C1  UNL     1     -34.936   3.961   5.600  1.00 20.00     0.036 C 
HETATM    7 BR7  UNL     1     -33.953   6.470   6.399  1.00 20.00    -0.047 Br
ENDBRANCH   1   5
TORSDOF 1
ENDMDL
MODEL 6
REMARK VINA RESULT:      -4.7      1.333      2.088
REMARK  1 active torsions:
REMARK  status: ('A' for Active; 'I' for Inactive)
REMARK    1  A    between atoms: C2_2  and  C3_3 
ROOT
HETATM    1  C3  UNL     1     -34.822   5.221   3.680  1.00 20.00     0.423 C 
HETATM    2  F4  UNL     1     -36.021   5.850   3.570  1.00 20.00    -0.166 F 
HETATM    3  F5  UNL     1     -35.064   4.045   4.314  1.00 20.00    -0.166 F 
HETATM    4  F6  UNL     1     -34.428   4.903   2.420  1.00 20.00    -0.166 F 
ENDROOT
BRANCH   1   5
HETATM    5  C2  UNL     1     -33.813   6.066   4.384  1.00 20.00     0.085 C 
HETATM    6  C1  UNL     1     -32.767   6.638   3.775  1.00 20.00     0.036 C 
HETATM    7 BR7  UNL     1     -34.109   6.281   6.219  1.00 20.00    -0.047 Br
ENDBRANCH   1   5
TORSDOF 1
ENDMDL
MODEL 7
REMARK VINA RESULT:      -4.7      1.759      2.017
REMARK  1 active torsions:
REMARK  status: ('A' for Active; 'I' for Inactive)
REMARK    1  A    between atoms: C2_2  and  C3_3 
ROOT
HETATM    1  C3  UNL     1     -34.824   5.703   3.806  1.00 20.00     0.423 C 
HETATM    2  F4  UNL     1     -34.182   4.918   2.901  1.00 20.00    -0.166 F 
HETATM    3  F5  UNL     1     -34.349   6.962   3.625  1.00 20.00    -0.166 F 
HETATM    4  F6  UNL     1     -36.133   5.730   3.443  1.00 20.00    -0.166 F 
ENDROOT
BRANCH   1   5
HETATM    5  C2  UNL     1     -34.643   5.206   5.201  1.00 20.00     0.085 C 
HETATM    6  C1  UNL     1     -34.940   3.961   5.593  1.00 20.00     0.036 C 
HETATM    7 BR7  UNL     1     -33.956   6.467   6.402  1.00 20.00    -0.047 Br
ENDBRANCH   1   5
TORSDOF 1
ENDMDL
MODEL 8
REMARK VINA RESULT:      -4.6      2.126      2.591
REMARK  1 active torsions:
REMARK  status: ('A' for Active; 'I' for Inactive)
REMARK    1  A    between atoms: C2_2  and  C3_3 
ROOT
HETATM    1  C3  UNL     1     -33.793   6.042   3.923  1.00 20.00     0.423 C 
HETATM    2  F4  UNL     1     -34.515   5.260   3.078  1.00 20.00    -0.166 F 
HETATM    3  F5  UNL     1     -32.486   5.796   3.649  1.00 20.00    -0.166 F 
HETATM    4  F6  UNL     1     -34.025   7.330   3.562  1.00 20.00    -0.166 F 
ENDROOT
BRANCH   1   5
HETATM    5  C2  UNL     1     -34.146   5.790   5.351  1.00 20.00     0.085 C 
HETATM    6  C1  UNL     1     -33.898   6.656   6.343  1.00 20.00     0.036 C 
HETATM    7 BR7  UNL     1     -34.979   4.147   5.680  1.00 20.00    -0.047 Br
ENDBRANCH   1   5
TORSDOF 1
ENDMDL
MODEL 9
REMARK VINA RESULT:      -4.6      2.122      2.288
REMARK  1 active torsions:
REMARK  status: ('A' for Active; 'I' for Inactive)
REMARK    1  A    between atoms: C2_2  and  C3_3 
ROOT
HETATM    1  C3  UNL     1     -33.815   6.030   3.913  1.00 20.00     0.423 C 
HETATM    2  F4  UNL     1     -32.508   5.767   3.648  1.00 20.00    -0.166 F 
HETATM    3  F5  UNL     1     -34.029   7.318   3.539  1.00 20.00    -0.166 F 
HETATM    4  F6  UNL     1     -34.550   5.259   3.070  1.00 20.00    -0.166 F 
ENDROOT
BRANCH   1   5
HETATM    5  C2  UNL     1     -34.155   5.774   5.343  1.00 20.00     0.085 C 
HETATM    6  C1  UNL     1     -33.907   6.641   6.334  1.00 20.00     0.036 C 
HETATM    7 BR7  UNL     1     -34.971   4.123   5.675  1.00 20.00    -0.047 Br
ENDBRANCH   1   5
TORSDOF 1
ENDMDL
