MODEL 1
REMARK VINA RESULT:      -4.0      0.000      0.000
REMARK  1 active torsions:
REMARK  status: ('A' for Active; 'I' for Inactive)
REMARK    1  A    between atoms: C1_1  and  O7_7 
ROOT
HETATM    1  C1  UNL     1     -33.446   5.839   3.882  1.00 20.00     0.294 A 
HETATM    2  C2  UNL     1     -34.256   5.639   5.146  1.00 20.00     0.106 A 
HETATM    3  C3  UNL     1     -34.924   4.321   5.378  1.00 20.00     0.051 C 
HETATM    4  C4  UNL     1     -34.020   6.495   6.351  1.00 20.00     0.051 C 
HETATM    5  O6  UNL     1     -34.777   6.361   4.021  1.00 20.00    -0.343 OA
ENDROOT
BRANCH   1   6
HETATM    6  O7  UNL     1     -32.386   6.805   3.922  1.00 20.00    -0.363 OA
HETATM    7  C5  UNL     1     -32.240   7.450   2.670  1.00 20.00     0.204 C 
ENDBRANCH   1   6
TORSDOF 1
ENDMDL
MODEL 2
REMARK VINA RESULT:      -3.3     11.248     12.447
REMARK  1 active torsions:
REMARK  status: ('A' for Active; 'I' for Inactive)
REMARK    1  A    between atoms: C1_1  and  O7_7 
ROOT
HETATM    1  C1  UNL     1     -34.693  13.619  -5.473  1.00 20.00     0.294 A 
HETATM    2  C2  UNL     1     -34.384  13.973  -4.033  1.00 20.00     0.106 A 
HETATM    3  C3  UNL     1     -32.996  13.763  -3.517  1.00 20.00     0.051 C 
HETATM    4  C4  UNL     1     -35.242  14.940  -3.280  1.00 20.00     0.051 C 
HETATM    5  O6  UNL     1     -35.060  12.757  -4.385  1.00 20.00    -0.343 OA
ENDROOT
BRANCH   1   6
HETATM    6  O7  UNL     1     -35.771  14.321  -6.109  1.00 20.00    -0.363 OA
HETATM    7  C5  UNL     1     -35.536  14.460  -7.499  1.00 20.00     0.204 C 
ENDBRANCH   1   6
TORSDOF 1
ENDMDL
MODEL 3
REMARK VINA RESULT:      -3.2     11.776     12.615
REMARK  1 active torsions:
REMARK  status: ('A' for Active; 'I' for Inactive)
REMARK    1  A    between atoms: C1_1  and  O7_7 
ROOT
HETATM    1  C1  UNL     1     -36.859  15.113  -3.499  1.00 20.00     0.294 A 
HETATM    2  C2  UNL     1     -35.411  14.699  -3.660  1.00 20.00     0.106 A 
HETATM    3  C3  UNL     1     -34.365  15.386  -2.841  1.00 20.00     0.051 C 
HETATM    4  C4  UNL     1     -35.055  13.355  -4.215  1.00 20.00     0.051 C 
HETATM    5  O6  UNL     1     -36.061  15.558  -4.607  1.00 20.00    -0.343 OA
ENDROOT
BRANCH   1   6
HETATM    6  O7  UNL     1     -37.864  14.135  -3.802  1.00 20.00    -0.363 OA
HETATM    7  C5  UNL     1     -39.092  14.756  -4.135  1.00 20.00     0.204 C 
ENDBRANCH   1   6
TORSDOF 1
ENDMDL
MODEL 4
REMARK VINA RESULT:      -3.1      1.209      3.544
REMARK  1 active torsions:
REMARK  status: ('A' for Active; 'I' for Inactive)
REMARK    1  A    between atoms: C1_1  and  O7_7 
ROOT
HETATM    1  C1  UNL     1     -33.334   6.461   3.419  1.00 20.00     0.294 A 
HETATM    2  C2  UNL     1     -32.126   7.328   3.129  1.00 20.00     0.106 A 
HETATM    3  C3  UNL     1     -32.084   8.109   1.854  1.00 20.00     0.051 C 
HETATM    4  C4  UNL     1     -31.238   7.801   4.237  1.00 20.00     0.051 C 
HETATM    5  O6  UNL     1     -32.100   5.906   2.938  1.00 20.00    -0.343 OA
ENDROOT
BRANCH   1   6
HETATM    6  O7  UNL     1     -33.645   6.200   4.796  1.00 20.00    -0.363 OA
HETATM    7  C5  UNL     1     -34.682   5.242   4.908  1.00 20.00     0.204 C 
ENDBRANCH   1   6
TORSDOF 1
ENDMDL
MODEL 5
REMARK VINA RESULT:      -3.1      1.243      1.649
REMARK  1 active torsions:
REMARK  status: ('A' for Active; 'I' for Inactive)
REMARK    1  A    between atoms: C1_1  and  O7_7 
ROOT
HETATM    1  C1  UNL     1     -33.178   6.554   4.293  1.00 20.00     0.294 A 
HETATM    2  C2  UNL     1     -34.330   5.685   4.750  1.00 20.00     0.106 A 
HETATM    3  C3  UNL     1     -34.555   5.492   6.217  1.00 20.00     0.051 C 
HETATM    4  C4  UNL     1     -35.498   5.423   3.851  1.00 20.00     0.051 C 
HETATM    5  O6  UNL     1     -33.100   5.120   4.275  1.00 20.00    -0.343 OA
ENDROOT
BRANCH   1   6
HETATM    6  O7  UNL     1     -33.298   7.191   3.013  1.00 20.00    -0.363 OA
HETATM    7  C5  UNL     1     -32.046   7.683   2.571  1.00 20.00     0.204 C 
ENDBRANCH   1   6
TORSDOF 1
ENDMDL
MODEL 6
REMARK VINA RESULT:      -3.0     12.115     13.228
REMARK  1 active torsions:
REMARK  status: ('A' for Active; 'I' for Inactive)
REMARK    1  A    between atoms: C1_1  and  O7_7 
ROOT
HETATM    1  C1  UNL     1     -34.188  15.761  -5.013  1.00 20.00     0.294 A 
HETATM    2  C2  UNL     1     -33.429  15.492  -3.730  1.00 20.00     0.106 A 
HETATM    3  C3  UNL     1     -33.743  16.310  -2.518  1.00 20.00     0.051 C 
HETATM    4  C4  UNL     1     -32.759  14.174  -3.498  1.00 20.00     0.051 C 
HETATM    5  O6  UNL     1     -32.853  16.248  -4.805  1.00 20.00    -0.343 OA
ENDROOT
BRANCH   1   6
HETATM    6  O7  UNL     1     -34.321  14.675  -5.942  1.00 20.00    -0.363 OA
HETATM    7  C5  UNL     1     -34.392  15.153  -7.273  1.00 20.00     0.204 C 
ENDBRANCH   1   6
TORSDOF 1
ENDMDL
MODEL 7
REMARK VINA RESULT:      -3.0      9.491     10.265
REMARK  1 active torsions:
REMARK  status: ('A' for Active; 'I' for Inactive)
REMARK    1  A    between atoms: C1_1  and  O7_7 
ROOT
HETATM    1  C1  UNL     1     -41.573   4.686  -2.045  1.00 20.00     0.294 A 
HETATM    2  C2  UNL     1     -41.486   5.480  -0.758  1.00 20.00     0.106 A 
HETATM    3  C3  UNL     1     -41.143   6.934  -0.825  1.00 20.00     0.051 C 
HETATM    4  C4  UNL     1     -42.182   5.009   0.481  1.00 20.00     0.051 C 
HETATM    5  O6  UNL     1     -40.425   4.615  -1.185  1.00 20.00    -0.343 OA
ENDROOT
BRANCH   1   6
HETATM    6  O7  UNL     1     -42.423   3.530  -2.053  1.00 20.00    -0.363 OA
HETATM    7  C5  UNL     1     -42.007   2.602  -3.038  1.00 20.00     0.204 C 
ENDBRANCH   1   6
TORSDOF 1
ENDMDL
MODEL 8
REMARK VINA RESULT:      -3.0      1.180      3.472
REMARK  1 active torsions:
REMARK  status: ('A' for Active; 'I' for Inactive)
REMARK    1  A    between atoms: C1_1  and  O7_7 
ROOT
HETATM    1  C1  UNL     1     -33.986   5.825   4.806  1.00 20.00     0.294 A 
HETATM    2  C2  UNL     1     -33.390   6.082   3.438  1.00 20.00     0.106 A 
HETATM    3  C3  UNL     1     -32.062   6.762   3.342  1.00 20.00     0.051 C 
HETATM    4  C4  UNL     1     -33.822   5.280   2.251  1.00 20.00     0.051 C 
HETATM    5  O6  UNL     1     -34.428   6.913   3.979  1.00 20.00    -0.343 OA
ENDROOT
BRANCH   1   6
HETATM    6  O7  UNL     1     -34.898   4.725   4.934  1.00 20.00    -0.363 OA
HETATM    7  C5  UNL     1     -35.079   4.372   6.294  1.00 20.00     0.204 C 
ENDBRANCH   1   6
TORSDOF 1
ENDMDL
MODEL 9
REMARK VINA RESULT:      -2.9     10.077     10.647
REMARK  1 active torsions:
REMARK  status: ('A' for Active; 'I' for Inactive)
REMARK    1  A    between atoms: C1_1  and  O7_7 
ROOT
HETATM    1  C1  UNL     1     -42.218   6.711  -1.970  1.00 20.00     0.294 A 
HETATM    2  C2  UNL     1     -41.654   5.518  -1.227  1.00 20.00     0.106 A 
HETATM    3  C3  UNL     1     -41.751   5.482   0.265  1.00 20.00     0.051 C 
HETATM    4  C4  UNL     1     -41.456   4.207  -1.920  1.00 20.00     0.051 C 
HETATM    5  O6  UNL     1     -40.810   6.566  -1.726  1.00 20.00    -0.343 OA
ENDROOT
BRANCH   1   6
HETATM    6  O7  UNL     1     -42.644   6.505  -3.325  1.00 20.00    -0.363 OA
HETATM    7  C5  UNL     1     -42.786   7.739  -4.005  1.00 20.00     0.204 C 
ENDBRANCH   1   6
TORSDOF 1
ENDMDL
