MODEL 1
REMARK VINA RESULT:      -4.2      0.000      0.000
REMARK  2 active torsions:
REMARK  status: ('A' for Active; 'I' for Inactive)
REMARK    1  A    between atoms: C1_1  and  C2_2 
REMARK    2  A    between atoms: C3_3  and  C4_4 
ROOT
HETATM    1  C1  UNL     1     -33.517   6.244   3.183  1.00 20.00     0.051 C 
HETATM    2  C3  UNL     1     -34.536   5.884   3.983  1.00 20.00    -0.014 C 
HETATM    3  C5  UNL     1     -35.968   5.672   3.573  1.00 20.00     0.052 C 
ENDROOT
BRANCH   2   4
HETATM    4  C4  UNL     1     -34.275   5.656   5.453  1.00 20.00     0.151 C 
HETATM    5  C6  UNL     1     -34.428   4.276   6.045  1.00 20.00     0.096 C 
HETATM    6  O8  UNL     1     -33.937   6.598   6.172  1.00 20.00    -0.293 OA
ENDBRANCH   2   4
BRANCH   1   7
HETATM    7  C2  UNL     1     -32.121   6.442   3.635  1.00 20.00     0.259 C 
HETATM    8  O7  UNL     1     -31.566   7.532   3.547  1.00 20.00    -0.302 OA
ENDBRANCH   1   7
TORSDOF 2
ENDMDL
MODEL 2
REMARK VINA RESULT:      -4.2     11.767     12.537
REMARK  2 active torsions:
REMARK  status: ('A' for Active; 'I' for Inactive)
REMARK    1  A    between atoms: C1_1  and  C2_2 
REMARK    2  A    between atoms: C3_3  and  C4_4 
ROOT
HETATM    1  C1  UNL     1     -35.460  14.686  -3.257  1.00 20.00     0.051 C 
HETATM    2  C3  UNL     1     -34.438  15.499  -2.935  1.00 20.00    -0.014 C 
HETATM    3  C5  UNL     1     -34.363  16.420  -1.748  1.00 20.00     0.052 C 
ENDROOT
BRANCH   2   4
HETATM    4  C4  UNL     1     -33.215  15.532  -3.820  1.00 20.00     0.151 C 
HETATM    5  C6  UNL     1     -33.148  16.488  -4.987  1.00 20.00     0.096 C 
HETATM    6  O8  UNL     1     -32.267  14.778  -3.590  1.00 20.00    -0.293 OA
ENDBRANCH   2   4
BRANCH   1   7
HETATM    7  C2  UNL     1     -35.487  13.795  -4.440  1.00 20.00     0.259 C 
HETATM    8  O7  UNL     1     -35.040  12.654  -4.395  1.00 20.00    -0.302 OA
ENDBRANCH   1   7
TORSDOF 2
ENDMDL
MODEL 3
REMARK VINA RESULT:      -4.2      1.562      2.041
REMARK  2 active torsions:
REMARK  status: ('A' for Active; 'I' for Inactive)
REMARK    1  A    between atoms: C1_1  and  C2_2 
REMARK    2  A    between atoms: C3_3  and  C4_4 
ROOT
HETATM    1  C1  UNL     1     -32.926   6.761   4.413  1.00 20.00     0.051 C 
HETATM    2  C3  UNL     1     -33.896   6.233   5.178  1.00 20.00    -0.014 C 
HETATM    3  C5  UNL     1     -34.160   6.533   6.628  1.00 20.00     0.052 C 
ENDROOT
BRANCH   2   4
HETATM    4  C4  UNL     1     -34.849   5.229   4.573  1.00 20.00     0.151 C 
HETATM    5  C6  UNL     1     -34.955   3.838   5.152  1.00 20.00     0.096 C 
HETATM    6  O8  UNL     1     -35.543   5.544   3.604  1.00 20.00    -0.293 OA
ENDBRANCH   2   4
BRANCH   1   7
HETATM    7  C2  UNL     1     -32.705   6.432   2.985  1.00 20.00     0.259 C 
HETATM    8  O7  UNL     1     -32.211   7.242   2.209  1.00 20.00    -0.302 OA
ENDBRANCH   1   7
TORSDOF 2
ENDMDL
MODEL 4
REMARK VINA RESULT:      -4.2     11.666     12.871
REMARK  2 active torsions:
REMARK  status: ('A' for Active; 'I' for Inactive)
REMARK    1  A    between atoms: C1_1  and  C2_2 
REMARK    2  A    between atoms: C3_3  and  C4_4 
ROOT
HETATM    1  C1  UNL     1     -36.273  15.254  -5.096  1.00 20.00     0.051 C 
HETATM    2  C3  UNL     1     -35.145  14.679  -5.549  1.00 20.00    -0.014 C 
HETATM    3  C5  UNL     1     -34.442  14.978  -6.845  1.00 20.00     0.052 C 
ENDROOT
BRANCH   2   4
HETATM    4  C4  UNL     1     -34.470  13.617  -4.713  1.00 20.00     0.151 C 
HETATM    5  C6  UNL     1     -33.352  13.991  -3.769  1.00 20.00     0.096 C 
HETATM    6  O8  UNL     1     -34.832  12.442  -4.799  1.00 20.00    -0.293 OA
ENDBRANCH   2   4
BRANCH   1   7
HETATM    7  C2  UNL     1     -36.929  14.924  -3.810  1.00 20.00     0.259 C 
HETATM    8  O7  UNL     1     -37.893  14.169  -3.756  1.00 20.00    -0.302 OA
ENDBRANCH   1   7
TORSDOF 2
ENDMDL
MODEL 5
REMARK VINA RESULT:      -4.0     11.685     12.426
REMARK  2 active torsions:
REMARK  status: ('A' for Active; 'I' for Inactive)
REMARK    1  A    between atoms: C1_1  and  C2_2 
REMARK    2  A    between atoms: C3_3  and  C4_4 
ROOT
HETATM    1  C1  UNL     1     -34.056  14.457  -3.433  1.00 20.00     0.051 C 
HETATM    2  C3  UNL     1     -34.919  15.340  -2.900  1.00 20.00    -0.014 C 
HETATM    3  C5  UNL     1     -34.695  16.190  -1.680  1.00 20.00     0.052 C 
ENDROOT
BRANCH   2   4
HETATM    4  C4  UNL     1     -36.266  15.540  -3.553  1.00 20.00     0.151 C 
HETATM    5  C6  UNL     1     -36.478  16.678  -4.523  1.00 20.00     0.096 C 
HETATM    6  O8  UNL     1     -37.197  14.774  -3.293  1.00 20.00    -0.293 OA
ENDBRANCH   2   4
BRANCH   1   7
HETATM    7  C2  UNL     1     -34.324  13.640  -4.639  1.00 20.00     0.259 C 
HETATM    8  O7  UNL     1     -34.906  12.563  -4.569  1.00 20.00    -0.302 OA
ENDBRANCH   1   7
TORSDOF 2
ENDMDL
MODEL 6
REMARK VINA RESULT:      -4.0     11.993     12.756
REMARK  2 active torsions:
REMARK  status: ('A' for Active; 'I' for Inactive)
REMARK    1  A    between atoms: C1_1  and  C2_2 
REMARK    2  A    between atoms: C3_3  and  C4_4 
ROOT
HETATM    1  C1  UNL     1     -36.145  15.354  -3.436  1.00 20.00     0.051 C 
HETATM    2  C3  UNL     1     -34.944  14.855  -3.778  1.00 20.00    -0.014 C 
HETATM    3  C5  UNL     1     -33.622  15.179  -3.138  1.00 20.00     0.052 C 
ENDROOT
BRANCH   2   4
HETATM    4  C4  UNL     1     -34.853  13.864  -4.914  1.00 20.00     0.151 C 
HETATM    5  C6  UNL     1     -34.716  14.351  -6.336  1.00 20.00     0.096 C 
HETATM    6  O8  UNL     1     -34.890  12.654  -4.681  1.00 20.00    -0.293 OA
ENDBRANCH   2   4
BRANCH   1   7
HETATM    7  C2  UNL     1     -37.422  15.003  -4.099  1.00 20.00     0.259 C 
HETATM    8  O7  UNL     1     -38.202  14.197  -3.604  1.00 20.00    -0.302 OA
ENDBRANCH   1   7
TORSDOF 2
ENDMDL
MODEL 7
REMARK VINA RESULT:      -3.9      1.937      3.649
REMARK  2 active torsions:
REMARK  status: ('A' for Active; 'I' for Inactive)
REMARK    1  A    between atoms: C1_1  and  C2_2 
REMARK    2  A    between atoms: C3_3  and  C4_4 
ROOT
HETATM    1  C1  UNL     1     -34.686   5.211   6.212  1.00 20.00     0.051 C 
HETATM    2  C3  UNL     1     -33.969   6.265   5.785  1.00 20.00    -0.014 C 
HETATM    3  C5  UNL     1     -33.290   7.296   6.645  1.00 20.00     0.052 C 
ENDROOT
BRANCH   2   4
HETATM    4  C4  UNL     1     -33.795   6.487   4.302  1.00 20.00     0.151 C 
HETATM    5  C6  UNL     1     -32.459   6.230   3.647  1.00 20.00     0.096 C 
HETATM    6  O8  UNL     1     -34.745   6.880   3.621  1.00 20.00    -0.293 OA
ENDBRANCH   2   4
BRANCH   1   7
HETATM    7  C2  UNL     1     -35.338   4.221   5.324  1.00 20.00     0.259 C 
HETATM    8  O7  UNL     1     -34.755   3.207   4.956  1.00 20.00    -0.302 OA
ENDBRANCH   1   7
TORSDOF 2
ENDMDL
MODEL 8
REMARK VINA RESULT:      -3.9      1.701      3.040
REMARK  2 active torsions:
REMARK  status: ('A' for Active; 'I' for Inactive)
REMARK    1  A    between atoms: C1_1  and  C2_2 
REMARK    2  A    between atoms: C3_3  and  C4_4 
ROOT
HETATM    1  C1  UNL     1     -34.303   5.763   6.453  1.00 20.00     0.051 C 
HETATM    2  C3  UNL     1     -34.554   5.039   5.348  1.00 20.00    -0.014 C 
HETATM    3  C5  UNL     1     -34.967   3.594   5.295  1.00 20.00     0.052 C 
ENDROOT
BRANCH   2   4
HETATM    4  C4  UNL     1     -34.422   5.693   3.993  1.00 20.00     0.151 C 
HETATM    5  C6  UNL     1     -33.071   6.151   3.499  1.00 20.00     0.096 C 
HETATM    6  O8  UNL     1     -35.420   5.853   3.286  1.00 20.00    -0.293 OA
ENDBRANCH   2   4
BRANCH   1   7
HETATM    7  C2  UNL     1     -33.896   7.187   6.453  1.00 20.00     0.259 C 
HETATM    8  O7  UNL     1     -32.956   7.586   7.132  1.00 20.00    -0.302 OA
ENDBRANCH   1   7
TORSDOF 2
ENDMDL
MODEL 9
REMARK VINA RESULT:      -3.9      1.556      2.331
REMARK  2 active torsions:
REMARK  status: ('A' for Active; 'I' for Inactive)
REMARK    1  A    between atoms: C1_1  and  C2_2 
REMARK    2  A    between atoms: C3_3  and  C4_4 
ROOT
HETATM    1  C1  UNL     1     -33.058   6.477   4.528  1.00 20.00     0.051 C 
HETATM    2  C3  UNL     1     -34.083   5.902   5.180  1.00 20.00    -0.014 C 
HETATM    3  C5  UNL     1     -34.382   6.002   6.651  1.00 20.00     0.052 C 
ENDROOT
BRANCH   2   4
HETATM    4  C4  UNL     1     -35.068   5.057   4.407  1.00 20.00     0.151 C 
HETATM    5  C6  UNL     1     -36.017   5.703   3.427  1.00 20.00     0.096 C 
HETATM    6  O8  UNL     1     -35.099   3.836   4.576  1.00 20.00    -0.293 OA
ENDBRANCH   2   4
BRANCH   1   7
HETATM    7  C2  UNL     1     -32.805   6.347   3.074  1.00 20.00     0.259 C 
HETATM    8  O7  UNL     1     -32.277   7.248   2.432  1.00 20.00    -0.302 OA
ENDBRANCH   1   7
TORSDOF 2
ENDMDL
