MODEL 1
REMARK VINA RESULT:      -4.1      0.000      0.000
REMARK  1 active torsions:
REMARK  status: ('A' for Active; 'I' for Inactive)
REMARK    1  A    between atoms: C5_5  and  C6_6 
ROOT
HETATM    1  C1  UNL     1     -36.768  15.293  -6.477  1.00 20.00     0.086 C 
HETATM    2  C2  UNL     1     -37.189  16.108  -5.274  1.00 20.00     0.086 C 
HETATM    3  C5  UNL     1     -34.992  14.690  -4.494  1.00 20.00     0.078 C 
HETATM    4  C7  UNL     1     -34.813  13.202  -4.201  1.00 20.00     0.041 C 
HETATM    5  S9  UNL     1     -34.998  14.950  -6.310  1.00 20.00    -0.145 SA
HETATM    6  S10 UNL     1     -36.594  15.246  -3.797  1.00 20.00    -0.145 SA
ENDROOT
BRANCH   3   7
HETATM    7  C6  UNL     1     -33.863  15.517  -3.880  1.00 20.00     0.078 C 
HETATM    8  C8  UNL     1     -32.621  14.661  -3.632  1.00 20.00     0.041 C 
HETATM    9  S11 UNL     1     -34.438  16.223  -2.289  1.00 20.00    -0.145 SA
HETATM   10  C3  UNL     1     -33.910  17.925  -2.597  1.00 20.00     0.086 C 
HETATM   11  C4  UNL     1     -34.164  18.223  -4.060  1.00 20.00     0.086 C 
HETATM   12  S12 UNL     1     -33.425  16.882  -5.024  1.00 20.00    -0.145 SA
ENDBRANCH   3   7
TORSDOF 1
ENDMDL
MODEL 2
REMARK VINA RESULT:      -4.1      0.167      3.811
REMARK  1 active torsions:
REMARK  status: ('A' for Active; 'I' for Inactive)
REMARK    1  A    between atoms: C5_5  and  C6_6 
ROOT
HETATM    1  C1  UNL     1     -33.871  17.940  -2.528  1.00 20.00     0.086 C 
HETATM    2  C2  UNL     1     -34.159  18.263  -3.979  1.00 20.00     0.086 C 
HETATM    3  C5  UNL     1     -33.909  15.549  -3.844  1.00 20.00     0.078 C 
HETATM    4  C7  UNL     1     -32.679  14.665  -3.639  1.00 20.00     0.041 C 
HETATM    5  S9  UNL     1     -34.427  16.244  -2.227  1.00 20.00    -0.145 SA
HETATM    6  S10 UNL     1     -33.474  16.920  -4.981  1.00 20.00    -0.145 SA
ENDROOT
BRANCH   3   7
HETATM    7  C6  UNL     1     -35.072  14.754  -4.436  1.00 20.00     0.078 C 
HETATM    8  C8  UNL     1     -34.880  13.252  -4.226  1.00 20.00     0.041 C 
HETATM    9  S11 UNL     1     -35.179  15.104  -6.232  1.00 20.00    -0.145 SA
HETATM   10  C3  UNL     1     -36.953  15.454  -6.285  1.00 20.00     0.086 C 
HETATM   11  C4  UNL     1     -37.306  16.208  -5.020  1.00 20.00     0.086 C 
HETATM   12  S12 UNL     1     -36.632  15.274  -3.625  1.00 20.00    -0.145 SA
ENDBRANCH   3   7
TORSDOF 1
ENDMDL
MODEL 3
REMARK VINA RESULT:      -3.9      1.717      3.626
REMARK  1 active torsions:
REMARK  status: ('A' for Active; 'I' for Inactive)
REMARK    1  A    between atoms: C5_5  and  C6_6 
ROOT
HETATM    1  C1  UNL     1     -36.024  18.316  -5.959  1.00 20.00     0.086 C 
HETATM    2  C2  UNL     1     -35.016  17.314  -6.479  1.00 20.00     0.086 C 
HETATM    3  C5  UNL     1     -34.612  17.465  -3.784  1.00 20.00     0.078 C 
HETATM    4  C7  UNL     1     -33.998  18.568  -2.924  1.00 20.00     0.041 C 
HETATM    5  S9  UNL     1     -36.333  17.925  -4.219  1.00 20.00    -0.145 SA
HETATM    6  S10 UNL     1     -33.625  17.290  -5.320  1.00 20.00    -0.145 SA
ENDROOT
BRANCH   3   7
HETATM    7  C6  UNL     1     -34.629  16.129  -3.043  1.00 20.00     0.078 C 
HETATM    8  C8  UNL     1     -34.511  16.330  -1.533  1.00 20.00     0.041 C 
HETATM    9  S11 UNL     1     -33.225  15.105  -3.627  1.00 20.00    -0.145 SA
HETATM   10  C3  UNL     1     -34.165  13.590  -3.931  1.00 20.00     0.086 C 
HETATM   11  C4  UNL     1     -35.509  13.995  -4.499  1.00 20.00     0.086 C 
HETATM   12  S12 UNL     1     -36.203  15.259  -3.406  1.00 20.00    -0.145 SA
ENDBRANCH   3   7
TORSDOF 1
ENDMDL
MODEL 4
REMARK VINA RESULT:      -3.9      1.732      3.081
REMARK  1 active torsions:
REMARK  status: ('A' for Active; 'I' for Inactive)
REMARK    1  A    between atoms: C5_5  and  C6_6 
ROOT
HETATM    1  C1  UNL     1     -34.068  13.602  -4.001  1.00 20.00     0.086 C 
HETATM    2  C2  UNL     1     -35.422  13.948  -4.582  1.00 20.00     0.086 C 
HETATM    3  C5  UNL     1     -34.669  16.103  -3.088  1.00 20.00     0.078 C 
HETATM    4  C7  UNL     1     -34.580  16.290  -1.574  1.00 20.00     0.041 C 
HETATM    5  S9  UNL     1     -33.206  15.158  -3.664  1.00 20.00    -0.145 SA
HETATM    6  S10 UNL     1     -36.192  15.162  -3.482  1.00 20.00    -0.145 SA
ENDROOT
BRANCH   3   7
HETATM    7  C6  UNL     1     -34.706  17.448  -3.812  1.00 20.00     0.078 C 
HETATM    8  C8  UNL     1     -34.266  18.586  -2.892  1.00 20.00     0.041 C 
HETATM    9  S11 UNL     1     -36.417  17.766  -4.389  1.00 20.00    -0.145 SA
HETATM   10  C3  UNL     1     -35.998  18.210  -6.092  1.00 20.00     0.086 C 
HETATM   11  C4  UNL     1     -34.865  17.307  -6.533  1.00 20.00     0.086 C 
HETATM   12  S12 UNL     1     -33.582  17.384  -5.259  1.00 20.00    -0.145 SA
ENDBRANCH   3   7
TORSDOF 1
ENDMDL
MODEL 5
REMARK VINA RESULT:      -3.9      1.773      3.714
REMARK  1 active torsions:
REMARK  status: ('A' for Active; 'I' for Inactive)
REMARK    1  A    between atoms: C5_5  and  C6_6 
ROOT
HETATM    1  C1  UNL     1     -33.325  13.885  -3.817  1.00 20.00     0.086 C 
HETATM    2  C2  UNL     1     -33.328  15.363  -3.491  1.00 20.00     0.086 C 
HETATM    3  C5  UNL     1     -34.874  15.078  -5.722  1.00 20.00     0.078 C 
HETATM    4  C7  UNL     1     -34.496  14.765  -7.169  1.00 20.00     0.041 C 
HETATM    5  S9  UNL     1     -34.840  13.529  -4.742  1.00 20.00    -0.145 SA
HETATM    6  S10 UNL     1     -33.653  16.259  -5.030  1.00 20.00    -0.145 SA
ENDROOT
BRANCH   3   7
HETATM    7  C6  UNL     1     -36.271  15.690  -5.633  1.00 20.00     0.078 C 
HETATM    8  C8  UNL     1     -37.120  15.312  -6.846  1.00 20.00     0.041 C 
HETATM    9  S11 UNL     1     -36.119  17.515  -5.548  1.00 20.00    -0.145 SA
HETATM   10  C3  UNL     1     -37.218  17.764  -4.133  1.00 20.00     0.086 C 
HETATM   11  C4  UNL     1     -36.986  16.620  -3.169  1.00 20.00     0.086 C 
HETATM   12  S12 UNL     1     -37.100  15.081  -4.114  1.00 20.00    -0.145 SA
ENDBRANCH   3   7
TORSDOF 1
ENDMDL
MODEL 6
REMARK VINA RESULT:      -3.9      1.774      3.009
REMARK  1 active torsions:
REMARK  status: ('A' for Active; 'I' for Inactive)
REMARK    1  A    between atoms: C5_5  and  C6_6 
ROOT
HETATM    1  C1  UNL     1     -37.246  17.719  -4.091  1.00 20.00     0.086 C 
HETATM    2  C2  UNL     1     -37.019  16.555  -3.151  1.00 20.00     0.086 C 
HETATM    3  C5  UNL     1     -36.280  15.682  -5.629  1.00 20.00     0.078 C 
HETATM    4  C7  UNL     1     -37.118  15.330  -6.858  1.00 20.00     0.041 C 
HETATM    5  S9  UNL     1     -36.133  17.505  -5.503  1.00 20.00    -0.145 SA
HETATM    6  S10 UNL     1     -37.120  15.037  -4.132  1.00 20.00    -0.145 SA
ENDROOT
BRANCH   3   7
HETATM    7  C6  UNL     1     -34.880  15.077  -5.720  1.00 20.00     0.078 C 
HETATM    8  C8  UNL     1     -34.494  14.787  -7.170  1.00 20.00     0.041 C 
HETATM    9  S11 UNL     1     -34.841  13.515  -4.761  1.00 20.00    -0.145 SA
HETATM   10  C3  UNL     1     -33.333  13.866  -3.825  1.00 20.00     0.086 C 
HETATM   11  C4  UNL     1     -33.345  15.340  -3.479  1.00 20.00     0.086 C 
HETATM   12  S12 UNL     1     -33.668  16.254  -5.006  1.00 20.00    -0.145 SA
ENDBRANCH   3   7
TORSDOF 1
ENDMDL
MODEL 7
REMARK VINA RESULT:      -3.9      1.660      2.600
REMARK  1 active torsions:
REMARK  status: ('A' for Active; 'I' for Inactive)
REMARK    1  A    between atoms: C5_5  and  C6_6 
ROOT
HETATM    1  C1  UNL     1     -34.195  15.263  -7.174  1.00 20.00     0.086 C 
HETATM    2  C2  UNL     1     -35.292  14.301  -6.772  1.00 20.00     0.086 C 
HETATM    3  C5  UNL     1     -34.335  15.370  -4.450  1.00 20.00     0.078 C 
HETATM    4  C7  UNL     1     -33.016  15.145  -3.714  1.00 20.00     0.041 C 
HETATM    5  S9  UNL     1     -34.051  16.504  -5.864  1.00 20.00    -0.145 SA
HETATM    6  S10 UNL     1     -34.947  13.760  -5.079  1.00 20.00    -0.145 SA
ENDROOT
BRANCH   3   7
HETATM    7  C6  UNL     1     -35.388  15.983  -3.528  1.00 20.00     0.078 C 
HETATM    8  C8  UNL     1     -36.603  15.066  -3.387  1.00 20.00     0.041 C 
HETATM    9  S11 UNL     1     -35.925  17.592  -4.223  1.00 20.00    -0.145 SA
HETATM   10  C3  UNL     1     -35.755  18.558  -2.703  1.00 20.00     0.086 C 
HETATM   11  C4  UNL     1     -34.522  18.057  -1.980  1.00 20.00     0.086 C 
HETATM   12  S12 UNL     1     -34.652  16.256  -1.870  1.00 20.00    -0.145 SA
ENDBRANCH   3   7
TORSDOF 1
ENDMDL
MODEL 8
REMARK VINA RESULT:      -3.9      1.646      3.643
REMARK  1 active torsions:
REMARK  status: ('A' for Active; 'I' for Inactive)
REMARK    1  A    between atoms: C5_5  and  C6_6 
ROOT
HETATM    1  C1  UNL     1     -35.593  18.608  -2.669  1.00 20.00     0.086 C 
HETATM    2  C2  UNL     1     -34.375  18.063  -1.956  1.00 20.00     0.086 C 
HETATM    3  C5  UNL     1     -35.329  16.019  -3.491  1.00 20.00     0.078 C 
HETATM    4  C7  UNL     1     -36.576  15.149  -3.339  1.00 20.00     0.041 C 
HETATM    5  S9  UNL     1     -35.811  17.646  -4.187  1.00 20.00    -0.145 SA
HETATM    6  S10 UNL     1     -34.571  16.267  -1.840  1.00 20.00    -0.145 SA
ENDROOT
BRANCH   3   7
HETATM    7  C6  UNL     1     -34.308  15.366  -4.421  1.00 20.00     0.078 C 
HETATM    8  C8  UNL     1     -32.987  15.105  -3.698  1.00 20.00     0.041 C 
HETATM    9  S11 UNL     1     -34.006  16.475  -5.849  1.00 20.00    -0.145 SA
HETATM   10  C3  UNL     1     -34.206  15.229  -7.145  1.00 20.00     0.086 C 
HETATM   11  C4  UNL     1     -35.328  14.306  -6.719  1.00 20.00     0.086 C 
HETATM   12  S12 UNL     1     -34.979  13.770  -5.027  1.00 20.00    -0.145 SA
ENDBRANCH   3   7
TORSDOF 1
ENDMDL
MODEL 9
REMARK VINA RESULT:      -3.8      1.668      3.208
REMARK  1 active torsions:
REMARK  status: ('A' for Active; 'I' for Inactive)
REMARK    1  A    between atoms: C5_5  and  C6_6 
ROOT
HETATM    1  C1  UNL     1     -37.919  16.506  -3.721  1.00 20.00     0.086 C 
HETATM    2  C2  UNL     1     -37.221  17.465  -4.661  1.00 20.00     0.086 C 
HETATM    3  C5  UNL     1     -35.247  16.017  -3.456  1.00 20.00     0.078 C 
HETATM    4  C7  UNL     1     -34.710  16.053  -2.026  1.00 20.00     0.041 C 
HETATM    5  S9  UNL     1     -36.825  15.083  -3.483  1.00 20.00    -0.145 SA
HETATM    6  S10 UNL     1     -35.550  17.735  -4.020  1.00 20.00    -0.145 SA
ENDROOT
BRANCH   3   7
HETATM    7  C6  UNL     1     -34.256  15.343  -4.404  1.00 20.00     0.078 C 
HETATM    8  C8  UNL     1     -32.944  15.015  -3.693  1.00 20.00     0.041 C 
HETATM    9  S11 UNL     1     -33.917  16.470  -5.810  1.00 20.00    -0.145 SA
HETATM   10  C3  UNL     1     -34.172  15.260  -7.130  1.00 20.00     0.086 C 
HETATM   11  C4  UNL     1     -35.328  14.374  -6.719  1.00 20.00     0.086 C 
HETATM   12  S12 UNL     1     -34.993  13.788  -5.040  1.00 20.00    -0.145 SA
ENDBRANCH   3   7
TORSDOF 1
ENDMDL
