MODEL 1
REMARK VINA RESULT:      -5.1      0.000      0.000
REMARK  0 active torsions:
REMARK  status: ('A' for Active; 'I' for Inactive)
ROOT
HETATM    1  C1  UNL     1     -35.141   4.528   6.035  1.00 20.00     0.000 C 
HETATM    2  C2  UNL     1     -35.119   4.170   4.551  1.00 20.00     0.003 C 
HETATM    3  C3  UNL     1     -33.958   5.411   6.425  1.00 20.00     0.003 C 
HETATM    4  C4  UNL     1     -31.671   6.887   3.229  1.00 20.00     0.029 C 
HETATM    5  C5  UNL     1     -35.039   5.421   3.680  1.00 20.00     0.038 C 
HETATM    6  C6  UNL     1     -33.851   6.644   5.531  1.00 20.00     0.038 C 
HETATM    7  C7  UNL     1     -32.504   5.677   3.578  1.00 20.00     0.040 C 
HETATM    8  C8  UNL     1     -32.703   7.813   2.633  1.00 20.00     0.168 C 
HETATM    9  C9  UNL     1     -33.831   6.300   4.029  1.00 20.00     0.061 C 
HETATM   10  O10 UNL     1     -33.944   7.541   3.298  1.00 20.00    -0.380 OA
ENDROOT
TORSDOF 0
ENDMDL
MODEL 2
REMARK VINA RESULT:      -4.5     11.494     12.672
REMARK  0 active torsions:
REMARK  status: ('A' for Active; 'I' for Inactive)
ROOT
HETATM    1  C1  UNL     1     -34.556  13.396  -4.596  1.00 20.00     0.000 C 
HETATM    2  C2  UNL     1     -33.359  13.664  -3.688  1.00 20.00     0.003 C 
HETATM    3  C3  UNL     1     -35.728  14.322  -4.282  1.00 20.00     0.003 C 
HETATM    4  C4  UNL     1     -34.894  17.451  -1.610  1.00 20.00     0.029 C 
HETATM    5  C5  UNL     1     -32.945  15.131  -3.735  1.00 20.00     0.038 C 
HETATM    6  C6  UNL     1     -35.309  15.791  -4.289  1.00 20.00     0.038 C 
HETATM    7  C7  UNL     1     -34.452  16.035  -1.888  1.00 20.00     0.040 C 
HETATM    8  C8  UNL     1     -33.959  18.246  -2.490  1.00 20.00     0.168 C 
HETATM    9  C9  UNL     1     -34.099  16.078  -3.379  1.00 20.00     0.061 C 
HETATM   10  O10 UNL     1     -33.674  17.434  -3.637  1.00 20.00    -0.380 OA
ENDROOT
TORSDOF 0
ENDMDL
MODEL 3
REMARK VINA RESULT:      -4.4      9.150     10.748
REMARK  0 active torsions:
REMARK  status: ('A' for Active; 'I' for Inactive)
ROOT
HETATM    1  C1  UNL     1     -41.233   7.256  -0.857  1.00 20.00     0.000 C 
HETATM    2  C2  UNL     1     -40.763   6.034  -0.072  1.00 20.00     0.003 C 
HETATM    3  C3  UNL     1     -41.693   6.886  -2.265  1.00 20.00     0.003 C 
HETATM    4  C4  UNL     1     -42.029   2.773  -3.035  1.00 20.00     0.029 C 
HETATM    5  C5  UNL     1     -41.833   4.947  -0.046  1.00 20.00     0.038 C 
HETATM    6  C6  UNL     1     -42.736   5.771  -2.246  1.00 20.00     0.038 C 
HETATM    7  C7  UNL     1     -41.207   3.716  -2.190  1.00 20.00     0.040 C 
HETATM    8  C8  UNL     1     -43.195   2.476  -2.124  1.00 20.00     0.168 C 
HETATM    9  C9  UNL     1     -42.278   4.530  -1.455  1.00 20.00     0.061 C 
HETATM   10  O10 UNL     1     -43.417   3.650  -1.332  1.00 20.00    -0.380 OA
ENDROOT
TORSDOF 0
ENDMDL
MODEL 4
REMARK VINA RESULT:      -4.4     11.575     12.697
REMARK  0 active torsions:
REMARK  status: ('A' for Active; 'I' for Inactive)
ROOT
HETATM    1  C1  UNL     1     -33.358  14.554  -3.499  1.00 20.00     0.000 C 
HETATM    2  C2  UNL     1     -33.971  13.667  -4.580  1.00 20.00     0.003 C 
HETATM    3  C3  UNL     1     -34.180  15.818  -3.264  1.00 20.00     0.003 C 
HETATM    4  C4  UNL     1     -37.916  15.926  -5.175  1.00 20.00     0.029 C 
HETATM    5  C5  UNL     1     -35.428  13.341  -4.267  1.00 20.00     0.038 C 
HETATM    6  C6  UNL     1     -35.648  15.498  -2.989  1.00 20.00     0.038 C 
HETATM    7  C7  UNL     1     -36.539  15.345  -5.386  1.00 20.00     0.040 C 
HETATM    8  C8  UNL     1     -38.596  14.834  -4.385  1.00 20.00     0.168 C 
HETATM    9  C9  UNL     1     -36.282  14.601  -4.070  1.00 20.00     0.061 C 
HETATM   10  O10 UNL     1     -37.584  14.200  -3.592  1.00 20.00    -0.380 OA
ENDROOT
TORSDOF 0
ENDMDL
MODEL 5
REMARK VINA RESULT:      -4.3     11.637     13.634
REMARK  0 active torsions:
REMARK  status: ('A' for Active; 'I' for Inactive)
ROOT
HETATM    1  C1  UNL     1     -34.496  13.153  -4.824  1.00 20.00     0.000 C 
HETATM    2  C2  UNL     1     -34.210  13.921  -3.536  1.00 20.00     0.003 C 
HETATM    3  C3  UNL     1     -35.090  14.053  -5.904  1.00 20.00     0.003 C 
HETATM    4  C4  UNL     1     -35.050  18.164  -5.055  1.00 20.00     0.029 C 
HETATM    5  C5  UNL     1     -33.328  15.138  -3.801  1.00 20.00     0.038 C 
HETATM    6  C6  UNL     1     -34.231  15.293  -6.145  1.00 20.00     0.038 C 
HETATM    7  C7  UNL     1     -35.147  16.846  -4.326  1.00 20.00     0.040 C 
HETATM    8  C8  UNL     1     -33.557  18.382  -5.104  1.00 20.00     0.168 C 
HETATM    9  C9  UNL     1     -33.930  16.078  -4.854  1.00 20.00     0.061 C 
HETATM   10  O10 UNL     1     -32.948  17.087  -5.179  1.00 20.00    -0.380 OA
ENDROOT
TORSDOF 0
ENDMDL
MODEL 6
REMARK VINA RESULT:      -4.3     11.645     12.866
REMARK  0 active torsions:
REMARK  status: ('A' for Active; 'I' for Inactive)
ROOT
HETATM    1  C1  UNL     1     -33.781  18.303  -2.465  1.00 20.00     0.000 C 
HETATM    2  C2  UNL     1     -33.697  17.107  -1.519  1.00 20.00     0.003 C 
HETATM    3  C3  UNL     1     -33.759  17.873  -3.929  1.00 20.00     0.003 C 
HETATM    4  C4  UNL     1     -34.109  13.745  -4.608  1.00 20.00     0.029 C 
HETATM    5  C5  UNL     1     -34.787  16.084  -1.821  1.00 20.00     0.038 C 
HETATM    6  C6  UNL     1     -34.824  16.819  -4.227  1.00 20.00     0.038 C 
HETATM    7  C7  UNL     1     -33.559  14.692  -3.569  1.00 20.00     0.040 C 
HETATM    8  C8  UNL     1     -35.535  13.568  -4.143  1.00 20.00     0.168 C 
HETATM    9  C9  UNL     1     -34.754  15.607  -3.279  1.00 20.00     0.061 C 
HETATM   10  O10 UNL     1     -35.927  14.799  -3.521  1.00 20.00    -0.380 OA
ENDROOT
TORSDOF 0
ENDMDL
MODEL 7
REMARK VINA RESULT:      -4.3     11.447     13.612
REMARK  0 active torsions:
REMARK  status: ('A' for Active; 'I' for Inactive)
ROOT
HETATM    1  C1  UNL     1     -36.828  15.190  -7.420  1.00 20.00     0.000 C 
HETATM    2  C2  UNL     1     -35.534  14.457  -7.767  1.00 20.00     0.003 C 
HETATM    3  C3  UNL     1     -37.086  15.209  -5.916  1.00 20.00     0.003 C 
HETATM    4  C4  UNL     1     -33.919  13.850  -3.520  1.00 20.00     0.029 C 
HETATM    5  C5  UNL     1     -34.348  15.034  -7.000  1.00 20.00     0.038 C 
HETATM    6  C6  UNL     1     -35.887  15.749  -5.141  1.00 20.00     0.038 C 
HETATM    7  C7  UNL     1     -34.502  13.609  -4.891  1.00 20.00     0.040 C 
HETATM    8  C8  UNL     1     -32.945  14.973  -3.790  1.00 20.00     0.168 C 
HETATM    9  C9  UNL     1     -34.571  15.022  -5.481  1.00 20.00     0.061 C 
HETATM   10  O10 UNL     1     -33.496  15.756  -4.856  1.00 20.00    -0.380 OA
ENDROOT
TORSDOF 0
ENDMDL
MODEL 8
REMARK VINA RESULT:      -4.3     11.872     12.929
REMARK  0 active torsions:
REMARK  status: ('A' for Active; 'I' for Inactive)
ROOT
HETATM    1  C1  UNL     1     -34.839  14.072  -5.671  1.00 20.00     0.000 C 
HETATM    2  C2  UNL     1     -34.035  15.370  -5.643  1.00 20.00     0.003 C 
HETATM    3  C3  UNL     1     -35.281  13.645  -4.274  1.00 20.00     0.003 C 
HETATM    4  C4  UNL     1     -34.644  16.469  -1.234  1.00 20.00     0.029 C 
HETATM    5  C5  UNL     1     -34.802  16.481  -4.931  1.00 20.00     0.038 C 
HETATM    6  C6  UNL     1     -36.015  14.768  -3.543  1.00 20.00     0.038 C 
HETATM    7  C7  UNL     1     -34.028  16.037  -2.543  1.00 20.00     0.040 C 
HETATM    8  C8  UNL     1     -35.642  17.507  -1.688  1.00 20.00     0.168 C 
HETATM    9  C9  UNL     1     -35.218  16.086  -3.508  1.00 20.00     0.061 C 
HETATM   10  O10 UNL     1     -36.095  17.110  -2.989  1.00 20.00    -0.380 OA
ENDROOT
TORSDOF 0
ENDMDL
MODEL 9
REMARK VINA RESULT:      -4.2     11.579     12.795
REMARK  0 active torsions:
REMARK  status: ('A' for Active; 'I' for Inactive)
ROOT
HETATM    1  C1  UNL     1     -34.798  14.022  -6.152  1.00 20.00     0.000 C 
HETATM    2  C2  UNL     1     -34.813  13.276  -4.819  1.00 20.00     0.003 C 
HETATM    3  C3  UNL     1     -35.156  15.496  -5.983  1.00 20.00     0.003 C 
HETATM    4  C4  UNL     1     -35.369  16.864  -2.020  1.00 20.00     0.029 C 
HETATM    5  C5  UNL     1     -33.915  13.959  -3.792  1.00 20.00     0.038 C 
HETATM    6  C6  UNL     1     -34.285  16.175  -4.928  1.00 20.00     0.038 C 
HETATM    7  C7  UNL     1     -35.602  15.598  -2.808  1.00 20.00     0.040 C 
HETATM    8  C8  UNL     1     -33.905  16.748  -1.670  1.00 20.00     0.168 C 
HETATM    9  C9  UNL     1     -34.286  15.433  -3.577  1.00 20.00     0.061 C 
HETATM   10  O10 UNL     1     -33.273  16.042  -2.747  1.00 20.00    -0.380 OA
ENDROOT
TORSDOF 0
ENDMDL
