MODEL 1
REMARK VINA RESULT:      -5.0      0.000      0.000
REMARK  0 active torsions:
REMARK  status: ('A' for Active; 'I' for Inactive)
ROOT
HETATM    1  C1  UNL     1     -36.251  14.465  -3.810  1.00 20.00     0.131 C 
HETATM    2  C2  UNL     1     -35.191  13.558  -4.407  1.00 20.00     0.079 C 
HETATM    3  C3  UNL     1     -33.804  13.739  -3.795  1.00 20.00     0.012 C 
HETATM    4  C4  UNL     1     -34.411  16.498  -5.379  1.00 20.00     0.001 C 
HETATM    5  C5  UNL     1     -35.640  16.808  -4.520  1.00 20.00     0.012 C 
HETATM    6  C6  UNL     1     -33.175  16.117  -4.567  1.00 20.00     0.005 C 
HETATM    7  C7  UNL     1     -34.563  15.738  -2.511  1.00 20.00     0.016 C 
HETATM    8  C8  UNL     1     -35.833  15.850  -3.340  1.00 20.00     0.056 C 
HETATM    9  C9  UNL     1     -33.444  15.175  -3.383  1.00 20.00    -0.013 C 
HETATM   10  O10 UNL     1     -37.435  14.124  -3.799  1.00 20.00    -0.298 OA
ENDROOT
TORSDOF 0
ENDMDL
MODEL 2
REMARK VINA RESULT:      -5.0      1.522      2.554
REMARK  0 active torsions:
REMARK  status: ('A' for Active; 'I' for Inactive)
ROOT
HETATM    1  C1  UNL     1     -34.662  15.552  -2.638  1.00 20.00     0.131 C 
HETATM    2  C2  UNL     1     -36.009  15.250  -3.268  1.00 20.00     0.079 C 
HETATM    3  C3  UNL     1     -36.026  13.980  -4.114  1.00 20.00     0.012 C 
HETATM    4  C4  UNL     1     -34.112  16.049  -5.709  1.00 20.00     0.001 C 
HETATM    5  C5  UNL     1     -33.121  16.144  -4.547  1.00 20.00     0.012 C 
HETATM    6  C6  UNL     1     -34.485  14.615  -6.082  1.00 20.00     0.005 C 
HETATM    7  C7  UNL     1     -33.550  13.742  -3.922  1.00 20.00     0.016 C 
HETATM    8  C8  UNL     1     -33.405  15.165  -3.403  1.00 20.00     0.056 C 
HETATM    9  C9  UNL     1     -34.731  13.680  -4.887  1.00 20.00    -0.013 C 
HETATM   10  O10 UNL     1     -34.590  16.184  -1.582  1.00 20.00    -0.298 OA
ENDROOT
TORSDOF 0
ENDMDL
MODEL 3
REMARK VINA RESULT:      -4.9      1.494      2.781
REMARK  0 active torsions:
REMARK  status: ('A' for Active; 'I' for Inactive)
ROOT
HETATM    1  C1  UNL     1     -34.629  14.601  -6.000  1.00 20.00     0.131 C 
HETATM    2  C2  UNL     1     -34.111  16.010  -5.780  1.00 20.00     0.079 C 
HETATM    3  C3  UNL     1     -33.121  16.133  -4.625  1.00 20.00     0.012 C 
HETATM    4  C4  UNL     1     -35.959  15.401  -3.248  1.00 20.00     0.001 C 
HETATM    5  C5  UNL     1     -36.059  14.066  -3.991  1.00 20.00     0.012 C 
HETATM    6  C6  UNL     1     -34.605  15.630  -2.578  1.00 20.00     0.005 C 
HETATM    7  C7  UNL     1     -33.559  13.782  -3.916  1.00 20.00     0.016 C 
HETATM    8  C8  UNL     1     -34.803  13.699  -4.787  1.00 20.00     0.056 C 
HETATM    9  C9  UNL     1     -33.389  15.216  -3.421  1.00 20.00    -0.013 C 
HETATM   10  O10 UNL     1     -34.992  14.233  -7.119  1.00 20.00    -0.298 OA
ENDROOT
TORSDOF 0
ENDMDL
MODEL 4
REMARK VINA RESULT:      -4.9      1.362      2.267
REMARK  0 active torsions:
REMARK  status: ('A' for Active; 'I' for Inactive)
ROOT
HETATM    1  C1  UNL     1     -34.685  13.795  -4.607  1.00 20.00     0.131 C 
HETATM    2  C2  UNL     1     -34.966  14.470  -5.936  1.00 20.00     0.079 C 
HETATM    3  C3  UNL     1     -34.004  15.608  -6.269  1.00 20.00     0.012 C 
HETATM    4  C4  UNL     1     -35.717  16.647  -3.725  1.00 20.00     0.001 C 
HETATM    5  C5  UNL     1     -35.224  15.506  -2.832  1.00 20.00     0.012 C 
HETATM    6  C6  UNL     1     -34.598  17.364  -4.478  1.00 20.00     0.005 C 
HETATM    7  C7  UNL     1     -32.990  15.500  -3.993  1.00 20.00     0.016 C 
HETATM    8  C8  UNL     1     -34.132  14.642  -3.470  1.00 20.00     0.056 C 
HETATM    9  C9  UNL     1     -33.522  16.441  -5.070  1.00 20.00    -0.013 C 
HETATM   10  O10 UNL     1     -34.991  12.615  -4.425  1.00 20.00    -0.298 OA
ENDROOT
TORSDOF 0
ENDMDL
MODEL 5
REMARK VINA RESULT:      -4.6      0.825      2.597
REMARK  0 active torsions:
REMARK  status: ('A' for Active; 'I' for Inactive)
ROOT
HETATM    1  C1  UNL     1     -36.529  14.637  -4.254  1.00 20.00     0.131 C 
HETATM    2  C2  UNL     1     -36.486  16.149  -4.370  1.00 20.00     0.079 C 
HETATM    3  C3  UNL     1     -35.600  16.658  -5.504  1.00 20.00     0.012 C 
HETATM    4  C4  UNL     1     -33.573  15.311  -3.367  1.00 20.00     0.001 C 
HETATM    5  C5  UNL     1     -34.225  13.933  -3.506  1.00 20.00     0.012 C 
HETATM    6  C6  UNL     1     -33.246  15.973  -4.705  1.00 20.00     0.005 C 
HETATM    7  C7  UNL     1     -34.726  14.362  -5.936  1.00 20.00     0.016 C 
HETATM    8  C8  UNL     1     -35.278  13.850  -4.614  1.00 20.00     0.056 C 
HETATM    9  C9  UNL     1     -34.335  15.829  -5.780  1.00 20.00    -0.013 C 
HETATM   10  O10 UNL     1     -37.519  14.071  -3.784  1.00 20.00    -0.298 OA
ENDROOT
TORSDOF 0
ENDMDL
MODEL 6
REMARK VINA RESULT:      -4.6      1.399      2.021
REMARK  0 active torsions:
REMARK  status: ('A' for Active; 'I' for Inactive)
ROOT
HETATM    1  C1  UNL     1     -34.805  13.706  -4.358  1.00 20.00     0.131 C 
HETATM    2  C2  UNL     1     -33.425  14.135  -3.899  1.00 20.00     0.079 C 
HETATM    3  C3  UNL     1     -33.358  15.575  -3.398  1.00 20.00     0.012 C 
HETATM    4  C4  UNL     1     -33.964  15.797  -6.572  1.00 20.00     0.001 C 
HETATM    5  C5  UNL     1     -35.286  15.036  -6.448  1.00 20.00     0.012 C 
HETATM    6  C6  UNL     1     -33.805  16.922  -5.550  1.00 20.00     0.005 C 
HETATM    7  C7  UNL     1     -35.691  16.016  -4.164  1.00 20.00     0.016 C 
HETATM    8  C8  UNL     1     -35.707  14.747  -5.004  1.00 20.00     0.056 C 
HETATM    9  C9  UNL     1     -34.271  16.574  -4.128  1.00 20.00    -0.013 C 
HETATM   10  O10 UNL     1     -35.147  12.523  -4.300  1.00 20.00    -0.298 OA
ENDROOT
TORSDOF 0
ENDMDL
MODEL 7
REMARK VINA RESULT:      -4.6      1.178      2.518
REMARK  0 active torsions:
REMARK  status: ('A' for Active; 'I' for Inactive)
ROOT
HETATM    1  C1  UNL     1     -35.817  16.202  -4.574  1.00 20.00     0.131 C 
HETATM    2  C2  UNL     1     -35.820  15.776  -3.118  1.00 20.00     0.079 C 
HETATM    3  C3  UNL     1     -34.432  15.727  -2.484  1.00 20.00     0.012 C 
HETATM    4  C4  UNL     1     -34.453  13.355  -4.688  1.00 20.00     0.001 C 
HETATM    5  C5  UNL     1     -34.700  14.329  -5.843  1.00 20.00     0.012 C 
HETATM    6  C6  UNL     1     -33.319  13.781  -3.757  1.00 20.00     0.005 C 
HETATM    7  C7  UNL     1     -33.340  16.109  -4.694  1.00 20.00     0.016 C 
HETATM    8  C8  UNL     1     -34.630  15.804  -5.440  1.00 20.00     0.056 C 
HETATM    9  C9  UNL     1     -33.293  15.279  -3.414  1.00 20.00    -0.013 C 
HETATM   10  O10 UNL     1     -36.796  16.767  -5.064  1.00 20.00    -0.298 OA
ENDROOT
TORSDOF 0
ENDMDL
MODEL 8
REMARK VINA RESULT:      -4.6     11.137     12.763
REMARK  0 active torsions:
REMARK  status: ('A' for Active; 'I' for Inactive)
ROOT
HETATM    1  C1  UNL     1     -42.584   5.946  -2.715  1.00 20.00     0.131 C 
HETATM    2  C2  UNL     1     -42.232   7.085  -1.777  1.00 20.00     0.079 C 
HETATM    3  C3  UNL     1     -41.027   6.802  -0.884  1.00 20.00     0.012 C 
HETATM    4  C4  UNL     1     -43.335   4.762   0.115  1.00 20.00     0.001 C 
HETATM    5  C5  UNL     1     -43.417   4.070  -1.248  1.00 20.00     0.012 C 
HETATM    6  C6  UNL     1     -41.908   4.918   0.639  1.00 20.00     0.005 C 
HETATM    7  C7  UNL     1     -40.953   4.423  -1.628  1.00 20.00     0.016 C 
HETATM    8  C8  UNL     1     -42.342   4.520  -2.241  1.00 20.00     0.056 C 
HETATM    9  C9  UNL     1     -40.875   5.346  -0.416  1.00 20.00    -0.013 C 
HETATM   10  O10 UNL     1     -43.142   6.168  -3.791  1.00 20.00    -0.298 OA
ENDROOT
TORSDOF 0
ENDMDL
MODEL 9
REMARK VINA RESULT:      -4.5      1.698      2.121
REMARK  0 active torsions:
REMARK  status: ('A' for Active; 'I' for Inactive)
ROOT
HETATM    1  C1  UNL     1     -36.573  14.450  -4.334  1.00 20.00     0.131 C 
HETATM    2  C2  UNL     1     -35.332  13.580  -4.281  1.00 20.00     0.079 C 
HETATM    3  C3  UNL     1     -34.030  14.344  -4.510  1.00 20.00     0.012 C 
HETATM    4  C4  UNL     1     -35.602  14.455  -7.340  1.00 20.00     0.001 C 
HETATM    5  C5  UNL     1     -36.793  15.200  -6.734  1.00 20.00     0.012 C 
HETATM    6  C6  UNL     1     -34.248  15.063  -6.976  1.00 20.00     0.005 C 
HETATM    7  C7  UNL     1     -35.279  16.413  -5.129  1.00 20.00     0.016 C 
HETATM    8  C8  UNL     1     -36.581  15.640  -5.282  1.00 20.00     0.056 C 
HETATM    9  C9  UNL     1     -34.111  15.508  -5.512  1.00 20.00    -0.013 C 
HETATM   10  O10 UNL     1     -37.584  14.141  -3.700  1.00 20.00    -0.298 OA
ENDROOT
TORSDOF 0
ENDMDL
