MODEL 1
REMARK VINA RESULT:      -4.6      0.000      0.000
REMARK  2 active torsions:
REMARK  status: ('A' for Active; 'I' for Inactive)
REMARK    1  A    between atoms: C5_5  and  C9_9 
REMARK    2  A    between atoms: C9_9  and  O10_10 
ROOT
HETATM    1  C1  UNL     1     -34.014  18.078  -2.179  1.00 20.00    -0.024 C 
HETATM    2  C2  UNL     1     -34.463  17.081  -1.406  1.00 20.00    -0.087 C 
HETATM    3  C3  UNL     1     -33.709  17.611  -3.564  1.00 20.00     0.035 C 
HETATM    4  C4  UNL     1     -34.532  15.788  -2.159  1.00 20.00     0.041 C 
HETATM    5  C5  UNL     1     -34.416  16.250  -3.619  1.00 20.00     0.026 C 
HETATM    6  C6  UNL     1     -34.827  17.158   0.031  1.00 20.00     0.043 C 
ENDROOT
BRANCH   5   7
HETATM    7  C9  UNL     1     -33.706  15.244  -4.509  1.00 20.00     0.055 C 
HETATM    8  C7  UNL     1     -34.438  15.082  -5.842  1.00 20.00     0.045 C 
HETATM    9  C8  UNL     1     -33.569  13.889  -3.810  1.00 20.00     0.045 C 
BRANCH   7  10
HETATM   10  O10 UNL     1     -32.393  15.732  -4.802  1.00 20.00    -0.390 OA
HETATM   11  H26 UNL     1     -32.515  16.560  -5.290  1.00 20.00     0.210 HD
ENDBRANCH   7  10
ENDBRANCH   5   7
TORSDOF 2
ENDMDL
MODEL 2
REMARK VINA RESULT:      -4.5     12.077     13.541
REMARK  2 active torsions:
REMARK  status: ('A' for Active; 'I' for Inactive)
REMARK    1  A    between atoms: C5_5  and  C9_9 
REMARK    2  A    between atoms: C9_9  and  O10_10 
ROOT
HETATM    1  C1  UNL     1     -40.642   4.163  -1.233  1.00 20.00    -0.024 C 
HETATM    2  C2  UNL     1     -41.539   3.940  -2.202  1.00 20.00    -0.087 C 
HETATM    3  C3  UNL     1     -40.756   5.544  -0.679  1.00 20.00     0.035 C 
HETATM    4  C4  UNL     1     -42.397   5.142  -2.445  1.00 20.00     0.041 C 
HETATM    5  C5  UNL     1     -42.127   5.997  -1.199  1.00 20.00     0.026 C 
HETATM    6  C6  UNL     1     -41.697   2.702  -3.007  1.00 20.00     0.043 C 
ENDROOT
BRANCH   5   7
HETATM    7  C9  UNL     1     -42.197   7.491  -1.474  1.00 20.00     0.055 C 
HETATM    8  C7  UNL     1     -43.347   8.135  -0.697  1.00 20.00     0.045 C 
HETATM    9  C8  UNL     1     -42.345   7.770  -2.971  1.00 20.00     0.045 C 
BRANCH   7  10
HETATM   10  O10 UNL     1     -40.985   8.101  -1.021  1.00 20.00    -0.390 OA
HETATM   11  H26 UNL     1     -41.206   8.568  -0.201  1.00 20.00     0.210 HD
ENDBRANCH   7  10
ENDBRANCH   5   7
TORSDOF 2
ENDMDL
MODEL 3
REMARK VINA RESULT:      -4.5      1.858      2.339
REMARK  2 active torsions:
REMARK  status: ('A' for Active; 'I' for Inactive)
REMARK    1  A    between atoms: C5_5  and  C9_9 
REMARK    2  A    between atoms: C9_9  and  O10_10 
ROOT
HETATM    1  C1  UNL     1     -35.953  17.165  -3.229  1.00 20.00    -0.024 C 
HETATM    2  C2  UNL     1     -35.181  16.846  -2.182  1.00 20.00    -0.087 C 
HETATM    3  C3  UNL     1     -36.023  16.054  -4.224  1.00 20.00     0.035 C 
HETATM    4  C4  UNL     1     -34.616  15.466  -2.314  1.00 20.00     0.041 C 
HETATM    5  C5  UNL     1     -35.484  14.860  -3.427  1.00 20.00     0.026 C 
HETATM    6  C6  UNL     1     -34.847  17.709  -1.021  1.00 20.00     0.043 C 
ENDROOT
BRANCH   5   7
HETATM    7  C9  UNL     1     -34.734  13.856  -4.288  1.00 20.00     0.055 C 
HETATM    8  C7  UNL     1     -33.292  13.692  -3.805  1.00 20.00     0.045 C 
HETATM    9  C8  UNL     1     -34.757  14.269  -5.762  1.00 20.00     0.045 C 
BRANCH   7  10
HETATM   10  O10 UNL     1     -35.370  12.580  -4.169  1.00 20.00    -0.390 OA
HETATM   11  H26 UNL     1     -36.033  12.671  -3.469  1.00 20.00     0.210 HD
ENDBRANCH   7  10
ENDBRANCH   5   7
TORSDOF 2
ENDMDL
MODEL 4
REMARK VINA RESULT:      -4.4      1.356      2.162
REMARK  2 active torsions:
REMARK  status: ('A' for Active; 'I' for Inactive)
REMARK    1  A    between atoms: C5_5  and  C9_9 
REMARK    2  A    between atoms: C9_9  and  O10_10 
ROOT
HETATM    1  C1  UNL     1     -34.819  16.566  -0.668  1.00 20.00    -0.024 C 
HETATM    2  C2  UNL     1     -34.019  17.638  -0.611  1.00 20.00    -0.087 C 
HETATM    3  C3  UNL     1     -34.818  15.944  -2.025  1.00 20.00     0.035 C 
HETATM    4  C4  UNL     1     -33.354  17.900  -1.927  1.00 20.00     0.041 C 
HETATM    5  C5  UNL     1     -33.586  16.582  -2.681  1.00 20.00     0.026 C 
HETATM    6  C6  UNL     1     -33.799  18.529   0.556  1.00 20.00     0.043 C 
ENDROOT
BRANCH   5   7
HETATM    7  C9  UNL     1     -33.738  16.771  -4.181  1.00 20.00     0.055 C 
HETATM    8  C7  UNL     1     -33.645  18.251  -4.557  1.00 20.00     0.045 C 
HETATM    9  C8  UNL     1     -35.059  16.179  -4.681  1.00 20.00     0.045 C 
BRANCH   7  10
HETATM   10  O10 UNL     1     -32.665  16.097  -4.843  1.00 20.00    -0.390 OA
HETATM   11  H26 UNL     1     -32.880  15.152  -4.816  1.00 20.00     0.210 HD
ENDBRANCH   7  10
ENDBRANCH   5   7
TORSDOF 2
ENDMDL
MODEL 5
REMARK VINA RESULT:      -4.3     11.574     12.765
REMARK  2 active torsions:
REMARK  status: ('A' for Active; 'I' for Inactive)
REMARK    1  A    between atoms: C5_5  and  C9_9 
REMARK    2  A    between atoms: C9_9  and  O10_10 
ROOT
HETATM    1  C1  UNL     1     -34.170   6.189   6.383  1.00 20.00    -0.024 C 
HETATM    2  C2  UNL     1     -34.548   5.200   5.564  1.00 20.00    -0.087 C 
HETATM    3  C3  UNL     1     -33.296   7.181   5.689  1.00 20.00     0.035 C 
HETATM    4  C4  UNL     1     -33.984   5.379   4.188  1.00 20.00     0.041 C 
HETATM    5  C5  UNL     1     -33.521   6.843   4.209  1.00 20.00     0.026 C 
HETATM    6  C6  UNL     1     -35.381   4.020   5.910  1.00 20.00     0.043 C 
ENDROOT
BRANCH   5   7
HETATM    7  C9  UNL     1     -32.295   7.093   3.347  1.00 20.00     0.055 C 
HETATM    8  C7  UNL     1     -31.153   7.680   4.179  1.00 20.00     0.045 C 
HETATM    9  C8  UNL     1     -32.626   8.018   2.173  1.00 20.00     0.045 C 
BRANCH   7  10
HETATM   10  O10 UNL     1     -31.838   5.844   2.819  1.00 20.00    -0.390 OA
HETATM   11  H26 UNL     1     -31.256   6.061   2.076  1.00 20.00     0.210 HD
ENDBRANCH   7  10
ENDBRANCH   5   7
TORSDOF 2
ENDMDL
MODEL 6
REMARK VINA RESULT:      -4.3      1.699      4.192
REMARK  2 active torsions:
REMARK  status: ('A' for Active; 'I' for Inactive)
REMARK    1  A    between atoms: C5_5  and  C9_9 
REMARK    2  A    between atoms: C9_9  and  O10_10 
ROOT
HETATM    1  C1  UNL     1     -34.662  15.706  -7.444  1.00 20.00    -0.024 C 
HETATM    2  C2  UNL     1     -34.404  16.964  -7.068  1.00 20.00    -0.087 C 
HETATM    3  C3  UNL     1     -34.460  14.740  -6.323  1.00 20.00     0.035 C 
HETATM    4  C4  UNL     1     -33.990  17.036  -5.631  1.00 20.00     0.041 C 
HETATM    5  C5  UNL     1     -34.414  15.661  -5.096  1.00 20.00     0.026 C 
HETATM    6  C6  UNL     1     -34.457  18.181  -7.918  1.00 20.00     0.043 C 
ENDROOT
BRANCH   5   7
HETATM    7  C9  UNL     1     -33.504  15.142  -3.995  1.00 20.00     0.055 C 
HETATM    8  C7  UNL     1     -33.659  13.629  -3.825  1.00 20.00     0.045 C 
HETATM    9  C8  UNL     1     -33.780  15.856  -2.669  1.00 20.00     0.045 C 
BRANCH   7  10
HETATM   10  O10 UNL     1     -32.144  15.390  -4.364  1.00 20.00    -0.390 OA
HETATM   11  H26 UNL     1     -31.644  14.602  -4.103  1.00 20.00     0.210 HD
ENDBRANCH   7  10
ENDBRANCH   5   7
TORSDOF 2
ENDMDL
MODEL 7
REMARK VINA RESULT:      -4.2     12.649     14.183
REMARK  2 active torsions:
REMARK  status: ('A' for Active; 'I' for Inactive)
REMARK    1  A    between atoms: C5_5  and  C9_9 
REMARK    2  A    between atoms: C9_9  and  O10_10 
ROOT
HETATM    1  C1  UNL     1     -43.262   4.160  -3.244  1.00 20.00    -0.024 C 
HETATM    2  C2  UNL     1     -42.187   3.470  -2.845  1.00 20.00    -0.087 C 
HETATM    3  C3  UNL     1     -43.273   5.543  -2.681  1.00 20.00     0.035 C 
HETATM    4  C4  UNL     1     -41.307   4.287  -1.951  1.00 20.00     0.041 C 
HETATM    5  C5  UNL     1     -41.829   5.712  -2.188  1.00 20.00     0.026 C 
HETATM    6  C6  UNL     1     -41.859   2.058  -3.168  1.00 20.00     0.043 C 
ENDROOT
BRANCH   5   7
HETATM    7  C9  UNL     1     -41.718   6.601  -0.961  1.00 20.00     0.055 C 
HETATM    8  C7  UNL     1     -40.814   5.962   0.095  1.00 20.00     0.045 C 
HETATM    9  C8  UNL     1     -43.098   6.899  -0.368  1.00 20.00     0.045 C 
BRANCH   7  10
HETATM   10  O10 UNL     1     -41.115   7.841  -1.341  1.00 20.00    -0.390 OA
HETATM   11  H26 UNL     1     -41.240   8.444  -0.593  1.00 20.00     0.210 HD
ENDBRANCH   7  10
ENDBRANCH   5   7
TORSDOF 2
ENDMDL
MODEL 8
REMARK VINA RESULT:      -4.2      1.619      4.039
REMARK  2 active torsions:
REMARK  status: ('A' for Active; 'I' for Inactive)
REMARK    1  A    between atoms: C5_5  and  C9_9 
REMARK    2  A    between atoms: C9_9  and  O10_10 
ROOT
HETATM    1  C1  UNL     1     -36.019  16.501  -6.047  1.00 20.00    -0.024 C 
HETATM    2  C2  UNL     1     -35.753  15.360  -6.695  1.00 20.00    -0.087 C 
HETATM    3  C3  UNL     1     -35.091  16.714  -4.897  1.00 20.00     0.035 C 
HETATM    4  C4  UNL     1     -34.601  14.631  -6.078  1.00 20.00     0.041 C 
HETATM    5  C5  UNL     1     -33.968  15.710  -5.186  1.00 20.00     0.026 C 
HETATM    6  C6  UNL     1     -36.488  14.800  -7.858  1.00 20.00     0.043 C 
ENDROOT
BRANCH   5   7
HETATM    7  C9  UNL     1     -33.332  15.145  -3.927  1.00 20.00     0.055 C 
HETATM    8  C7  UNL     1     -33.796  13.709  -3.677  1.00 20.00     0.045 C 
HETATM    9  C8  UNL     1     -33.643  16.022  -2.711  1.00 20.00     0.045 C 
BRANCH   7  10
HETATM   10  O10 UNL     1     -31.913  15.108  -4.102  1.00 20.00    -0.390 OA
HETATM   11  H26 UNL     1     -31.735  14.383  -4.721  1.00 20.00     0.210 HD
ENDBRANCH   7  10
ENDBRANCH   5   7
TORSDOF 2
ENDMDL
MODEL 9
REMARK VINA RESULT:      -4.2      1.841      2.637
REMARK  2 active torsions:
REMARK  status: ('A' for Active; 'I' for Inactive)
REMARK    1  A    between atoms: C5_5  and  C9_9 
REMARK    2  A    between atoms: C9_9  and  O10_10 
ROOT
HETATM    1  C1  UNL     1     -34.316  16.865  -2.171  1.00 20.00    -0.024 C 
HETATM    2  C2  UNL     1     -33.997  17.397  -3.358  1.00 20.00    -0.087 C 
HETATM    3  C3  UNL     1     -34.793  15.457  -2.305  1.00 20.00     0.035 C 
HETATM    4  C4  UNL     1     -34.210  16.422  -4.474  1.00 20.00     0.041 C 
HETATM    5  C5  UNL     1     -34.343  15.088  -3.725  1.00 20.00     0.026 C 
HETATM    6  C6  UNL     1     -33.526  18.781  -3.621  1.00 20.00     0.043 C 
ENDROOT
BRANCH   5   7
HETATM    7  C9  UNL     1     -35.279  14.108  -4.412  1.00 20.00     0.055 C 
HETATM    8  C7  UNL     1     -35.071  14.126  -5.928  1.00 20.00     0.045 C 
HETATM    9  C8  UNL     1     -36.741  14.412  -4.074  1.00 20.00     0.045 C 
BRANCH   7  10
HETATM   10  O10 UNL     1     -34.978  12.785  -3.958  1.00 20.00    -0.390 OA
HETATM   11  H26 UNL     1     -34.203  12.866  -3.382  1.00 20.00     0.210 HD
ENDBRANCH   7  10
ENDBRANCH   5   7
TORSDOF 2
ENDMDL
