MODEL 1
REMARK VINA RESULT:      -4.2      0.000      0.000
REMARK  0 active torsions:
REMARK  status: ('A' for Active; 'I' for Inactive)
ROOT
HETATM    1  C1  UNL     1     -35.106  14.183  -6.149  1.00 20.00     0.005 C 
HETATM    2  C2  UNL     1     -34.606  13.226  -5.057  1.00 20.00     0.008 C 
HETATM    3  C3  UNL     1     -36.406  14.475  -4.177  1.00 20.00     0.012 C 
HETATM    4  C4  UNL     1     -34.767  16.160  -4.646  1.00 20.00     0.047 C 
HETATM    5  C5  UNL     1     -35.826  15.277  -5.343  1.00 20.00    -0.011 C 
HETATM    6  C6  UNL     1     -35.034  13.930  -3.753  1.00 20.00     0.025 C 
HETATM    7  C7  UNL     1     -34.238  15.242  -3.520  1.00 20.00     0.117 C 
HETATM    8 CL8  UNL     1     -34.632  15.934  -1.909  1.00 20.00    -0.101 Cl
HETATM    9 CL9  UNL     1     -32.471  15.034  -3.597  1.00 20.00    -0.101 Cl
ENDROOT
TORSDOF 0
ENDMDL
MODEL 2
REMARK VINA RESULT:      -4.2      2.229      3.087
REMARK  0 active torsions:
REMARK  status: ('A' for Active; 'I' for Inactive)
ROOT
HETATM    1  C1  UNL     1     -32.857  14.448  -3.685  1.00 20.00     0.005 C 
HETATM    2  C2  UNL     1     -33.122  15.840  -4.278  1.00 20.00     0.008 C 
HETATM    3  C3  UNL     1     -35.097  15.102  -3.216  1.00 20.00     0.012 C 
HETATM    4  C4  UNL     1     -34.790  13.481  -4.956  1.00 20.00     0.047 C 
HETATM    5  C5  UNL     1     -34.271  13.859  -3.549  1.00 20.00    -0.011 C 
HETATM    6  C6  UNL     1     -34.651  15.847  -4.483  1.00 20.00     0.025 C 
HETATM    7  C7  UNL     1     -35.087  14.857  -5.595  1.00 20.00     0.117 C 
HETATM    8 CL8  UNL     1     -36.845  15.026  -5.929  1.00 20.00    -0.101 Cl
HETATM    9 CL9  UNL     1     -34.224  15.082  -7.136  1.00 20.00    -0.101 Cl
ENDROOT
TORSDOF 0
ENDMDL
MODEL 3
REMARK VINA RESULT:      -4.2      1.356      2.143
REMARK  0 active torsions:
REMARK  status: ('A' for Active; 'I' for Inactive)
ROOT
HETATM    1  C1  UNL     1     -35.086  14.101  -5.787  1.00 20.00     0.005 C 
HETATM    2  C2  UNL     1     -34.030  15.209  -5.660  1.00 20.00     0.008 C 
HETATM    3  C3  UNL     1     -33.857  13.803  -3.771  1.00 20.00     0.012 C 
HETATM    4  C4  UNL     1     -36.066  14.707  -3.561  1.00 20.00     0.047 C 
HETATM    5  C5  UNL     1     -35.268  13.633  -4.334  1.00 20.00    -0.011 C 
HETATM    6  C6  UNL     1     -33.794  15.293  -4.138  1.00 20.00     0.025 C 
HETATM    7  C7  UNL     1     -35.037  15.848  -3.393  1.00 20.00     0.117 C 
HETATM    8 CL8  UNL     1     -34.662  16.102  -1.654  1.00 20.00    -0.101 Cl
HETATM    9 CL9  UNL     1     -35.635  17.394  -4.045  1.00 20.00    -0.101 Cl
ENDROOT
TORSDOF 0
ENDMDL
MODEL 4
REMARK VINA RESULT:      -4.2      2.215      3.305
REMARK  0 active torsions:
REMARK  status: ('A' for Active; 'I' for Inactive)
ROOT
HETATM    1  C1  UNL     1     -34.067  15.905  -2.506  1.00 20.00     0.005 C 
HETATM    2  C2  UNL     1     -35.417  15.367  -3.001  1.00 20.00     0.008 C 
HETATM    3  C3  UNL     1     -33.704  14.040  -3.938  1.00 20.00     0.012 C 
HETATM    4  C4  UNL     1     -33.265  16.208  -4.862  1.00 20.00     0.047 C 
HETATM    5  C5  UNL     1     -33.081  15.386  -3.566  1.00 20.00    -0.011 C 
HETATM    6  C6  UNL     1     -35.050  14.669  -4.328  1.00 20.00     0.025 C 
HETATM    7  C7  UNL     1     -34.613  15.690  -5.411  1.00 20.00     0.117 C 
HETATM    8 CL8  UNL     1     -34.370  14.862  -6.988  1.00 20.00    -0.101 Cl
HETATM    9 CL9  UNL     1     -35.783  17.007  -5.672  1.00 20.00    -0.101 Cl
ENDROOT
TORSDOF 0
ENDMDL
MODEL 5
REMARK VINA RESULT:      -4.1      1.321      2.001
REMARK  0 active torsions:
REMARK  status: ('A' for Active; 'I' for Inactive)
ROOT
HETATM    1  C1  UNL     1     -36.629  15.015  -5.113  1.00 20.00     0.005 C 
HETATM    2  C2  UNL     1     -35.538  14.714  -6.151  1.00 20.00     0.008 C 
HETATM    3  C3  UNL     1     -35.188  13.311  -4.285  1.00 20.00     0.012 C 
HETATM    4  C4  UNL     1     -34.902  15.505  -3.363  1.00 20.00     0.047 C 
HETATM    5  C5  UNL     1     -36.002  14.512  -3.802  1.00 20.00    -0.011 C 
HETATM    6  C6  UNL     1     -34.387  14.147  -5.294  1.00 20.00     0.025 C 
HETATM    7  C7  UNL     1     -33.766  15.232  -4.375  1.00 20.00     0.117 C 
HETATM    8 CL8  UNL     1     -32.318  14.582  -3.532  1.00 20.00    -0.101 Cl
HETATM    9 CL9  UNL     1     -33.267  16.706  -5.240  1.00 20.00    -0.101 Cl
ENDROOT
TORSDOF 0
ENDMDL
MODEL 6
REMARK VINA RESULT:      -4.1      1.870      2.361
REMARK  0 active torsions:
REMARK  status: ('A' for Active; 'I' for Inactive)
ROOT
HETATM    1  C1  UNL     1     -35.583  13.597  -4.080  1.00 20.00     0.005 C 
HETATM    2  C2  UNL     1     -34.106  13.517  -4.491  1.00 20.00     0.008 C 
HETATM    3  C3  UNL     1     -34.344  15.268  -2.925  1.00 20.00     0.012 C 
HETATM    4  C4  UNL     1     -35.698  16.007  -4.760  1.00 20.00     0.047 C 
HETATM    5  C5  UNL     1     -35.717  15.037  -3.557  1.00 20.00    -0.011 C 
HETATM    6  C6  UNL     1     -33.592  14.948  -4.225  1.00 20.00     0.025 C 
HETATM    7  C7  UNL     1     -34.218  15.974  -5.206  1.00 20.00     0.117 C 
HETATM    8 CL8  UNL     1     -33.462  17.590  -4.986  1.00 20.00    -0.101 Cl
HETATM    9 CL9  UNL     1     -34.043  15.529  -6.921  1.00 20.00    -0.101 Cl
ENDROOT
TORSDOF 0
ENDMDL
MODEL 7
REMARK VINA RESULT:      -4.0      1.781      3.131
REMARK  0 active torsions:
REMARK  status: ('A' for Active; 'I' for Inactive)
ROOT
HETATM    1  C1  UNL     1     -34.968  16.220  -1.814  1.00 20.00     0.005 C 
HETATM    2  C2  UNL     1     -33.586  16.410  -2.457  1.00 20.00     0.008 C 
HETATM    3  C3  UNL     1     -35.229  16.982  -4.054  1.00 20.00     0.012 C 
HETATM    4  C4  UNL     1     -35.665  14.660  -3.649  1.00 20.00     0.047 C 
HETATM    5  C5  UNL     1     -35.893  16.059  -3.032  1.00 20.00    -0.011 C 
HETATM    6  C6  UNL     1     -33.878  16.256  -3.965  1.00 20.00     0.025 C 
HETATM    7  C7  UNL     1     -34.283  14.802  -4.326  1.00 20.00     0.117 C 
HETATM    8 CL8  UNL     1     -34.437  14.622  -6.108  1.00 20.00    -0.101 Cl
HETATM    9 CL9  UNL     1     -33.127  13.572  -3.759  1.00 20.00    -0.101 Cl
ENDROOT
TORSDOF 0
ENDMDL
MODEL 8
REMARK VINA RESULT:      -4.0     11.276     12.262
REMARK  0 active torsions:
REMARK  status: ('A' for Active; 'I' for Inactive)
ROOT
HETATM    1  C1  UNL     1     -41.750   4.667   0.365  1.00 20.00     0.005 C 
HETATM    2  C2  UNL     1     -43.166   4.821  -0.209  1.00 20.00     0.008 C 
HETATM    3  C3  UNL     1     -41.657   4.601  -2.012  1.00 20.00     0.012 C 
HETATM    4  C4  UNL     1     -40.940   6.633  -0.963  1.00 20.00     0.047 C 
HETATM    5  C5  UNL     1     -40.855   5.098  -0.809  1.00 20.00    -0.011 C 
HETATM    6  C6  UNL     1     -42.911   5.397  -1.618  1.00 20.00     0.025 C 
HETATM    7  C7  UNL     1     -42.352   6.843  -1.555  1.00 20.00     0.117 C 
HETATM    8 CL8  UNL     1     -42.241   7.542  -3.208  1.00 20.00    -0.101 Cl
HETATM    9 CL9  UNL     1     -43.337   7.952  -0.570  1.00 20.00    -0.101 Cl
ENDROOT
TORSDOF 0
ENDMDL
MODEL 9
REMARK VINA RESULT:      -4.0      1.897      3.283
REMARK  0 active torsions:
REMARK  status: ('A' for Active; 'I' for Inactive)
ROOT
HETATM    1  C1  UNL     1     -33.715  17.323  -3.498  1.00 20.00     0.005 C 
HETATM    2  C2  UNL     1     -34.186  16.472  -2.309  1.00 20.00     0.008 C 
HETATM    3  C3  UNL     1     -32.824  15.124  -3.689  1.00 20.00     0.012 C 
HETATM    4  C4  UNL     1     -34.664  15.668  -5.125  1.00 20.00     0.047 C 
HETATM    5  C5  UNL     1     -33.357  16.265  -4.556  1.00 20.00    -0.011 C 
HETATM    6  C6  UNL     1     -34.114  15.032  -2.860  1.00 20.00     0.025 C 
HETATM    7  C7  UNL     1     -35.176  14.786  -3.964  1.00 20.00     0.117 C 
HETATM    8 CL8  UNL     1     -35.182  13.055  -4.448  1.00 20.00    -0.101 Cl
HETATM    9 CL9  UNL     1     -36.834  15.213  -3.475  1.00 20.00    -0.101 Cl
ENDROOT
TORSDOF 0
ENDMDL
