MODEL 1
REMARK VINA RESULT:      -4.4      0.000      0.000
REMARK  3 active torsions:
REMARK  status: ('A' for Active; 'I' for Inactive)
REMARK    1  A    between atoms: C1_1  and  C3_3 
REMARK    2  A    between atoms: C1_1  and  C4_4 
REMARK    3  A    between atoms: C4_4  and  C5_5 
ROOT
HETATM    1  C1  UNL     1     -34.952   4.684   5.053  1.00 20.00     0.127 C 
HETATM    2  O6  UNL     1     -35.117   3.476   4.891  1.00 20.00    -0.298 OA
ENDROOT
BRANCH   1   3
HETATM    3  C3  UNL     1     -34.748   5.295   6.430  1.00 20.00     0.074 C 
HETATM    4  C2  UNL     1     -33.954   6.588   6.386  1.00 20.00     0.013 C 
ENDBRANCH   1   3
BRANCH   1   5
HETATM    5  C4  UNL     1     -34.967   5.671   3.894  1.00 20.00     0.093 C 
BRANCH   5   6
HETATM    6  C5  UNL     1     -33.931   5.377   2.819  1.00 20.00     0.122 C 
HETATM    7 CL7  UNL     1     -32.436   6.307   3.090  1.00 20.00    -0.130 Cl
ENDBRANCH   5   6
ENDBRANCH   1   5
TORSDOF 3
ENDMDL
MODEL 2
REMARK VINA RESULT:      -4.2      2.011      2.461
REMARK  3 active torsions:
REMARK  status: ('A' for Active; 'I' for Inactive)
REMARK    1  A    between atoms: C1_1  and  C3_3 
REMARK    2  A    between atoms: C1_1  and  C4_4 
REMARK    3  A    between atoms: C4_4  and  C5_5 
ROOT
HETATM    1  C1  UNL     1     -33.971   5.983   4.529  1.00 20.00     0.127 C 
HETATM    2  O6  UNL     1     -33.677   6.653   5.518  1.00 20.00    -0.298 OA
ENDROOT
BRANCH   1   3
HETATM    3  C3  UNL     1     -35.077   4.941   4.558  1.00 20.00     0.074 C 
HETATM    4  C2  UNL     1     -35.064   4.107   5.826  1.00 20.00     0.013 C 
ENDBRANCH   1   3
BRANCH   1   5
HETATM    5  C4  UNL     1     -33.233   6.119   3.204  1.00 20.00     0.093 C 
BRANCH   5   6
HETATM    6  C5  UNL     1     -32.026   7.044   3.261  1.00 20.00     0.122 C 
HETATM    7 CL7  UNL     1     -32.060   8.233   1.936  1.00 20.00    -0.130 Cl
ENDBRANCH   5   6
ENDBRANCH   1   5
TORSDOF 3
ENDMDL
MODEL 3
REMARK VINA RESULT:      -4.2      1.911      2.318
REMARK  3 active torsions:
REMARK  status: ('A' for Active; 'I' for Inactive)
REMARK    1  A    between atoms: C1_1  and  C3_3 
REMARK    2  A    between atoms: C1_1  and  C4_4 
REMARK    3  A    between atoms: C4_4  and  C5_5 
ROOT
HETATM    1  C1  UNL     1     -34.020   6.218   5.651  1.00 20.00     0.127 C 
HETATM    2  O6  UNL     1     -33.427   6.994   6.399  1.00 20.00    -0.298 OA
ENDROOT
BRANCH   1   3
HETATM    3  C3  UNL     1     -34.801   5.026   6.178  1.00 20.00     0.074 C 
HETATM    4  C2  UNL     1     -35.093   3.994   5.103  1.00 20.00     0.013 C 
ENDBRANCH   1   3
BRANCH   1   5
HETATM    5  C4  UNL     1     -33.998   6.369   4.136  1.00 20.00     0.093 C 
BRANCH   5   6
HETATM    6  C5  UNL     1     -32.612   6.243   3.523  1.00 20.00     0.122 C 
HETATM    7 CL7  UNL     1     -32.176   7.706   2.604  1.00 20.00    -0.130 Cl
ENDBRANCH   5   6
ENDBRANCH   1   5
TORSDOF 3
ENDMDL
MODEL 4
REMARK VINA RESULT:      -4.1      1.636      1.996
REMARK  3 active torsions:
REMARK  status: ('A' for Active; 'I' for Inactive)
REMARK    1  A    between atoms: C1_1  and  C3_3 
REMARK    2  A    between atoms: C1_1  and  C4_4 
REMARK    3  A    between atoms: C4_4  and  C5_5 
ROOT
HETATM    1  C1  UNL     1     -34.383   5.809   3.946  1.00 20.00     0.127 C 
HETATM    2  O6  UNL     1     -35.515   5.473   3.600  1.00 20.00    -0.298 OA
ENDROOT
BRANCH   1   3
HETATM    3  C3  UNL     1     -34.054   6.182   5.382  1.00 20.00     0.074 C 
HETATM    4  C2  UNL     1     -34.652   5.217   6.390  1.00 20.00     0.013 C 
ENDBRANCH   1   3
BRANCH   1   5
HETATM    5  C4  UNL     1     -33.226   5.909   2.960  1.00 20.00     0.093 C 
BRANCH   5   6
HETATM    6  C5  UNL     1     -32.194   6.965   3.325  1.00 20.00     0.122 C 
HETATM    7 CL7  UNL     1     -32.001   8.159   2.017  1.00 20.00    -0.130 Cl
ENDBRANCH   5   6
ENDBRANCH   1   5
TORSDOF 3
ENDMDL
MODEL 5
REMARK VINA RESULT:      -4.1      1.765      2.069
REMARK  3 active torsions:
REMARK  status: ('A' for Active; 'I' for Inactive)
REMARK    1  A    between atoms: C1_1  and  C3_3 
REMARK    2  A    between atoms: C1_1  and  C4_4 
REMARK    3  A    between atoms: C4_4  and  C5_5 
ROOT
HETATM    1  C1  UNL     1     -34.390   5.477   3.665  1.00 20.00     0.127 C 
HETATM    2  O6  UNL     1     -34.497   5.159   2.482  1.00 20.00    -0.298 OA
ENDROOT
BRANCH   1   3
HETATM    3  C3  UNL     1     -35.237   4.839   4.754  1.00 20.00     0.074 C 
HETATM    4  C2  UNL     1     -34.709   5.122   6.149  1.00 20.00     0.013 C 
ENDBRANCH   1   3
BRANCH   1   5
HETATM    5  C4  UNL     1     -33.423   6.555   4.135  1.00 20.00     0.093 C 
BRANCH   5   6
HETATM    6  C5  UNL     1     -32.130   6.616   3.335  1.00 20.00     0.122 C 
HETATM    7 CL7  UNL     1     -32.105   8.033   2.255  1.00 20.00    -0.130 Cl
ENDBRANCH   5   6
ENDBRANCH   1   5
TORSDOF 3
ENDMDL
MODEL 6
REMARK VINA RESULT:      -4.0      1.899      3.048
REMARK  3 active torsions:
REMARK  status: ('A' for Active; 'I' for Inactive)
REMARK    1  A    between atoms: C1_1  and  C3_3 
REMARK    2  A    between atoms: C1_1  and  C4_4 
REMARK    3  A    between atoms: C4_4  and  C5_5 
ROOT
HETATM    1  C1  UNL     1     -34.865   5.280   3.867  1.00 20.00     0.127 C 
HETATM    2  O6  UNL     1     -36.011   5.666   3.641  1.00 20.00    -0.298 OA
ENDROOT
BRANCH   1   3
HETATM    3  C3  UNL     1     -33.736   5.470   2.868  1.00 20.00     0.074 C 
HETATM    4  C2  UNL     1     -32.689   6.460   3.347  1.00 20.00     0.013 C 
ENDBRANCH   1   3
BRANCH   1   5
HETATM    5  C4  UNL     1     -34.489   4.555   5.152  1.00 20.00     0.093 C 
BRANCH   5   6
HETATM    6  C5  UNL     1     -34.860   5.312   6.419  1.00 20.00     0.122 C 
HETATM    7 CL7  UNL     1     -33.897   6.802   6.587  1.00 20.00    -0.130 Cl
ENDBRANCH   5   6
ENDBRANCH   1   5
TORSDOF 3
ENDMDL
MODEL 7
REMARK VINA RESULT:      -3.9      2.674      3.467
REMARK  3 active torsions:
REMARK  status: ('A' for Active; 'I' for Inactive)
REMARK    1  A    between atoms: C1_1  and  C3_3 
REMARK    2  A    between atoms: C1_1  and  C4_4 
REMARK    3  A    between atoms: C4_4  and  C5_5 
ROOT
HETATM    1  C1  UNL     1     -33.325   6.248   4.002  1.00 20.00     0.127 C 
HETATM    2  O6  UNL     1     -33.369   6.744   5.127  1.00 20.00    -0.298 OA
ENDROOT
BRANCH   1   3
HETATM    3  C3  UNL     1     -32.144   6.461   3.070  1.00 20.00     0.074 C 
HETATM    4  C2  UNL     1     -32.121   7.851   2.460  1.00 20.00     0.013 C 
ENDBRANCH   1   3
BRANCH   1   5
HETATM    5  C4  UNL     1     -34.461   5.406   3.438  1.00 20.00     0.093 C 
BRANCH   5   6
HETATM    6  C5  UNL     1     -35.517   5.026   4.465  1.00 20.00     0.122 C 
HETATM    7 CL7  UNL     1     -34.870   3.874   5.661  1.00 20.00    -0.130 Cl
ENDBRANCH   5   6
ENDBRANCH   1   5
TORSDOF 3
ENDMDL
MODEL 8
REMARK VINA RESULT:      -3.6      3.591      4.569
REMARK  3 active torsions:
REMARK  status: ('A' for Active; 'I' for Inactive)
REMARK    1  A    between atoms: C1_1  and  C3_3 
REMARK    2  A    between atoms: C1_1  and  C4_4 
REMARK    3  A    between atoms: C4_4  and  C5_5 
ROOT
HETATM    1  C1  UNL     1     -32.008   7.445   2.919  1.00 20.00     0.127 C 
HETATM    2  O6  UNL     1     -31.313   7.789   3.873  1.00 20.00    -0.298 OA
ENDROOT
BRANCH   1   3
HETATM    3  C3  UNL     1     -31.958   8.165   1.581  1.00 20.00     0.074 C 
HETATM    4  C2  UNL     1     -32.472   9.591   1.663  1.00 20.00     0.013 C 
ENDBRANCH   1   3
BRANCH   1   5
HETATM    5  C4  UNL     1     -32.997   6.290   3.005  1.00 20.00     0.093 C 
BRANCH   5   6
HETATM    6  C5  UNL     1     -33.746   6.216   4.327  1.00 20.00     0.122 C 
HETATM    7 CL7  UNL     1     -35.180   5.167   4.199  1.00 20.00    -0.130 Cl
ENDBRANCH   5   6
ENDBRANCH   1   5
TORSDOF 3
ENDMDL
MODEL 9
REMARK VINA RESULT:      -3.5      2.943      3.526
REMARK  3 active torsions:
REMARK  status: ('A' for Active; 'I' for Inactive)
REMARK    1  A    between atoms: C1_1  and  C3_3 
REMARK    2  A    between atoms: C1_1  and  C4_4 
REMARK    3  A    between atoms: C4_4  and  C5_5 
ROOT
HETATM    1  C1  UNL     1     -32.606   6.424   3.373  1.00 20.00     0.127 C 
HETATM    2  O6  UNL     1     -32.165   5.412   2.830  1.00 20.00    -0.298 OA
ENDROOT
BRANCH   1   3
HETATM    3  C3  UNL     1     -33.844   6.393   4.255  1.00 20.00     0.074 C 
HETATM    4  C2  UNL     1     -34.911   5.445   3.736  1.00 20.00     0.013 C 
ENDBRANCH   1   3
BRANCH   1   5
HETATM    5  C4  UNL     1     -31.969   7.794   3.186  1.00 20.00     0.093 C 
BRANCH   5   6
HETATM    6  C5  UNL     1     -31.964   8.280   1.744  1.00 20.00     0.122 C 
HETATM    7 CL7  UNL     1     -32.543   9.961   1.627  1.00 20.00    -0.130 Cl
ENDBRANCH   5   6
ENDBRANCH   1   5
TORSDOF 3
ENDMDL
