MODEL 1
REMARK VINA RESULT:      -5.0      0.000      0.000
REMARK  0 active torsions:
REMARK  status: ('A' for Active; 'I' for Inactive)
ROOT
HETATM    1  C1  UNL     1     -33.871  18.860  -3.165  1.00 20.00     0.000 C 
HETATM    2  C2  UNL     1     -34.364  18.333  -4.506  1.00 20.00     0.000 C 
HETATM    3  C3  UNL     1     -33.692  17.847  -2.036  1.00 20.00     0.000 C 
HETATM    4  C4  UNL     1     -33.441  17.368  -5.237  1.00 20.00     0.001 C 
HETATM    5  C5  UNL     1     -34.772  16.770  -1.943  1.00 20.00     0.001 C 
HETATM    6  C6  UNL     1     -33.043  16.050  -4.567  1.00 20.00     0.012 C 
HETATM    7  C7  UNL     1     -34.325  15.388  -2.430  1.00 20.00     0.012 C 
HETATM    8  C8  UNL     1     -35.474  15.137  -4.712  1.00 20.00     0.038 C 
HETATM    9  C9  UNL     1     -36.059  13.769  -4.403  1.00 20.00     0.168 C 
HETATM   10  C10 UNL     1     -33.754  13.667  -4.147  1.00 20.00     0.177 C 
HETATM   11  C11 UNL     1     -34.145  15.151  -3.959  1.00 20.00    -0.017 C 
HETATM   12  O12 UNL     1     -34.966  12.902  -4.084  1.00 20.00    -0.390 OA
ENDROOT
TORSDOF 0
ENDMDL
MODEL 2
REMARK VINA RESULT:      -4.9      2.160      4.214
REMARK  0 active torsions:
REMARK  status: ('A' for Active; 'I' for Inactive)
ROOT
HETATM    1  C1  UNL     1     -34.759  13.454  -4.636  1.00 20.00     0.000 C 
HETATM    2  C2  UNL     1     -33.767  13.780  -3.527  1.00 20.00     0.000 C 
HETATM    3  C3  UNL     1     -35.892  14.447  -4.879  1.00 20.00     0.000 C 
HETATM    4  C4  UNL     1     -32.913  15.025  -3.725  1.00 20.00     0.001 C 
HETATM    5  C5  UNL     1     -36.515  15.054  -3.622  1.00 20.00     0.001 C 
HETATM    6  C6  UNL     1     -33.591  16.388  -3.881  1.00 20.00     0.012 C 
HETATM    7  C7  UNL     1     -36.114  16.510  -3.362  1.00 20.00     0.012 C 
HETATM    8  C8  UNL     1     -34.439  16.352  -1.423  1.00 20.00     0.038 C 
HETATM    9  C9  UNL     1     -35.132  17.407  -0.578  1.00 20.00     0.168 C 
HETATM   10  C10 UNL     1     -34.582  18.341  -2.630  1.00 20.00     0.177 C 
HETATM   11  C11 UNL     1     -34.671  16.814  -2.859  1.00 20.00    -0.017 C 
HETATM   12  O12 UNL     1     -35.176  18.609  -1.352  1.00 20.00    -0.390 OA
ENDROOT
TORSDOF 0
ENDMDL
MODEL 3
REMARK VINA RESULT:      -4.9      0.862      2.516
REMARK  0 active torsions:
REMARK  status: ('A' for Active; 'I' for Inactive)
ROOT
HETATM    1  C1  UNL     1     -33.717  18.516  -2.550  1.00 20.00     0.000 C 
HETATM    2  C2  UNL     1     -33.537  17.230  -1.753  1.00 20.00     0.000 C 
HETATM    3  C3  UNL     1     -34.237  18.389  -3.980  1.00 20.00     0.000 C 
HETATM    4  C4  UNL     1     -34.801  16.440  -1.445  1.00 20.00     0.001 C 
HETATM    5  C5  UNL     1     -33.677  17.213  -4.780  1.00 20.00     0.001 C 
HETATM    6  C6  UNL     1     -35.664  15.917  -2.596  1.00 20.00     0.012 C 
HETATM    7  C7  UNL     1     -34.663  16.055  -4.969  1.00 20.00     0.012 C 
HETATM    8  C8  UNL     1     -33.814  14.252  -3.350  1.00 20.00     0.038 C 
HETATM    9  C9  UNL     1     -33.814  13.145  -4.390  1.00 20.00     0.168 C 
HETATM   10  C10 UNL     1     -35.952  14.038  -4.254  1.00 20.00     0.177 C 
HETATM   11  C11 UNL     1     -34.990  15.140  -3.751  1.00 20.00    -0.017 C 
HETATM   12  O12 UNL     1     -35.148  13.040  -4.898  1.00 20.00    -0.390 OA
ENDROOT
TORSDOF 0
ENDMDL
MODEL 4
REMARK VINA RESULT:      -4.8     12.047     14.035
REMARK  0 active torsions:
REMARK  status: ('A' for Active; 'I' for Inactive)
ROOT
HETATM    1  C1  UNL     1     -41.718   7.625  -0.988  1.00 20.00     0.000 C 
HETATM    2  C2  UNL     1     -40.823   6.442  -0.642  1.00 20.00     0.000 C 
HETATM    3  C3  UNL     1     -42.916   7.356  -1.895  1.00 20.00     0.000 C 
HETATM    4  C4  UNL     1     -41.458   5.327   0.178  1.00 20.00     0.001 C 
HETATM    5  C5  UNL     1     -42.663   6.386  -3.049  1.00 20.00     0.001 C 
HETATM    6  C6  UNL     1     -42.675   4.583  -0.376  1.00 20.00     0.012 C 
HETATM    7  C7  UNL     1     -43.278   4.998  -2.849  1.00 20.00     0.012 C 
HETATM    8  C8  UNL     1     -41.267   3.507  -2.280  1.00 20.00     0.038 C 
HETATM    9  C9  UNL     1     -41.607   2.445  -3.311  1.00 20.00     0.168 C 
HETATM   10  C10 UNL     1     -43.417   2.699  -1.881  1.00 20.00     0.177 C 
HETATM   11  C11 UNL     1     -42.627   4.027  -1.819  1.00 20.00    -0.017 C 
HETATM   12  O12 UNL     1     -42.923   1.968  -3.012  1.00 20.00    -0.390 OA
ENDROOT
TORSDOF 0
ENDMDL
MODEL 5
REMARK VINA RESULT:      -4.8      2.175      3.343
REMARK  0 active torsions:
REMARK  status: ('A' for Active; 'I' for Inactive)
ROOT
HETATM    1  C1  UNL     1     -32.956  15.151  -3.402  1.00 20.00     0.000 C 
HETATM    2  C2  UNL     1     -33.640  16.391  -3.963  1.00 20.00     0.000 C 
HETATM    3  C3  UNL     1     -33.429  13.795  -3.918  1.00 20.00     0.000 C 
HETATM    4  C4  UNL     1     -33.449  16.658  -5.450  1.00 20.00     0.001 C 
HETATM    5  C5  UNL     1     -34.939  13.659  -4.119  1.00 20.00     0.001 C 
HETATM    6  C6  UNL     1     -33.918  15.616  -6.469  1.00 20.00     0.012 C 
HETATM    7  C7  UNL     1     -35.383  13.687  -5.584  1.00 20.00     0.012 C 
HETATM    8  C8  UNL     1     -36.417  16.019  -5.871  1.00 20.00     0.038 C 
HETATM    9  C9  UNL     1     -37.701  15.506  -6.500  1.00 20.00     0.168 C 
HETATM   10  C10 UNL     1     -35.905  14.771  -7.773  1.00 20.00     0.177 C 
HETATM   11  C11 UNL     1     -35.349  15.040  -6.355  1.00 20.00    -0.017 C 
HETATM   12  O12 UNL     1     -37.336  14.768  -7.670  1.00 20.00    -0.390 OA
ENDROOT
TORSDOF 0
ENDMDL
MODEL 6
REMARK VINA RESULT:      -4.7      2.158      4.179
REMARK  0 active torsions:
REMARK  status: ('A' for Active; 'I' for Inactive)
ROOT
HETATM    1  C1  UNL     1     -34.377  13.317  -4.900  1.00 20.00     0.000 C 
HETATM    2  C2  UNL     1     -35.373  14.343  -5.424  1.00 20.00     0.000 C 
HETATM    3  C3  UNL     1     -33.525  13.716  -3.697  1.00 20.00     0.000 C 
HETATM    4  C4  UNL     1     -36.507  14.730  -4.486  1.00 20.00     0.001 C 
HETATM    5  C5  UNL     1     -33.016  15.158  -3.703  1.00 20.00     0.001 C 
HETATM    6  C6  UNL     1     -36.182  15.351  -3.125  1.00 20.00     0.012 C 
HETATM    7  C7  UNL     1     -33.742  16.085  -2.724  1.00 20.00     0.012 C 
HETATM    8  C8  UNL     1     -35.252  17.513  -4.231  1.00 20.00     0.038 C 
HETATM    9  C9  UNL     1     -34.798  18.837  -3.638  1.00 20.00     0.168 C 
HETATM   10  C10 UNL     1     -35.638  17.506  -1.932  1.00 20.00     0.177 C 
HETATM   11  C11 UNL     1     -35.195  16.540  -3.056  1.00 20.00    -0.017 C 
HETATM   12  O12 UNL     1     -35.075  18.790  -2.235  1.00 20.00    -0.390 OA
ENDROOT
TORSDOF 0
ENDMDL
MODEL 7
REMARK VINA RESULT:      -4.6      1.341      3.017
REMARK  0 active torsions:
REMARK  status: ('A' for Active; 'I' for Inactive)
ROOT
HETATM    1  C1  UNL     1     -34.057  18.434  -6.395  1.00 20.00     0.000 C 
HETATM    2  C2  UNL     1     -33.609  18.046  -4.992  1.00 20.00     0.000 C 
HETATM    3  C3  UNL     1     -34.739  17.358  -7.236  1.00 20.00     0.000 C 
HETATM    4  C4  UNL     1     -34.709  17.677  -4.005  1.00 20.00     0.001 C 
HETATM    5  C5  UNL     1     -34.141  15.957  -7.120  1.00 20.00     0.001 C 
HETATM    6  C6  UNL     1     -35.639  16.502  -4.318  1.00 20.00     0.012 C 
HETATM    7  C7  UNL     1     -34.983  14.980  -6.294  1.00 20.00     0.012 C 
HETATM    8  C8  UNL     1     -33.703  14.783  -4.077  1.00 20.00     0.038 C 
HETATM    9  C9  UNL     1     -33.695  13.264  -4.076  1.00 20.00     0.168 C 
HETATM   10  C10 UNL     1     -35.895  13.996  -4.187  1.00 20.00     0.177 C 
HETATM   11  C11 UNL     1     -35.027  15.148  -4.746  1.00 20.00    -0.017 C 
HETATM   12  O12 UNL     1     -35.059  12.832  -4.123  1.00 20.00    -0.390 OA
ENDROOT
TORSDOF 0
ENDMDL
MODEL 8
REMARK VINA RESULT:      -4.5      2.084      4.010
REMARK  0 active torsions:
REMARK  status: ('A' for Active; 'I' for Inactive)
ROOT
HETATM    1  C1  UNL     1     -34.783  14.391  -6.430  1.00 20.00     0.000 C 
HETATM    2  C2  UNL     1     -35.490  13.994  -5.141  1.00 20.00     0.000 C 
HETATM    3  C3  UNL     1     -34.035  15.722  -6.438  1.00 20.00     0.000 C 
HETATM    4  C4  UNL     1     -34.604  13.740  -3.930  1.00 20.00     0.001 C 
HETATM    5  C5  UNL     1     -34.731  16.871  -5.710  1.00 20.00     0.001 C 
HETATM    6  C6  UNL     1     -33.709  14.865  -3.402  1.00 20.00     0.012 C 
HETATM    7  C7  UNL     1     -34.108  17.227  -4.357  1.00 20.00     0.012 C 
HETATM    8  C8  UNL     1     -35.762  16.269  -2.643  1.00 20.00     0.038 C 
HETATM    9  C9  UNL     1     -35.865  17.556  -1.842  1.00 20.00     0.168 C 
HETATM   10  C10 UNL     1     -33.638  16.908  -1.924  1.00 20.00     0.177 C 
HETATM   11  C11 UNL     1     -34.322  16.263  -3.152  1.00 20.00    -0.017 C 
HETATM   12  O12 UNL     1     -34.544  17.893  -1.408  1.00 20.00    -0.390 OA
ENDROOT
TORSDOF 0
ENDMDL
MODEL 9
REMARK VINA RESULT:      -4.5      2.040      3.048
REMARK  0 active torsions:
REMARK  status: ('A' for Active; 'I' for Inactive)
ROOT
HETATM    1  C1  UNL     1     -34.527  16.227  -1.952  1.00 20.00     0.000 C 
HETATM    2  C2  UNL     1     -33.366  16.232  -2.938  1.00 20.00     0.000 C 
HETATM    3  C3  UNL     1     -35.922  15.964  -2.512  1.00 20.00     0.000 C 
HETATM    4  C4  UNL     1     -33.064  14.913  -3.637  1.00 20.00     0.001 C 
HETATM    5  C5  UNL     1     -36.227  16.627  -3.855  1.00 20.00     0.001 C 
HETATM    6  C6  UNL     1     -34.142  14.254  -4.503  1.00 20.00     0.012 C 
HETATM    7  C7  UNL     1     -36.234  15.661  -5.045  1.00 20.00     0.012 C 
HETATM    8  C8  UNL     1     -34.031  16.166  -6.262  1.00 20.00     0.038 C 
HETATM    9  C9  UNL     1     -34.679  16.321  -7.627  1.00 20.00     0.168 C 
HETATM   10  C10 UNL     1     -35.192  14.216  -6.795  1.00 20.00     0.177 C 
HETATM   11  C11 UNL     1     -34.877  15.102  -5.567  1.00 20.00    -0.017 C 
HETATM   12  O12 UNL     1     -35.359  15.096  -7.916  1.00 20.00    -0.390 OA
ENDROOT
TORSDOF 0
ENDMDL
