MODEL 1
REMARK VINA RESULT:      -4.5      0.000      0.000
REMARK  2 active torsions:
REMARK  status: ('A' for Active; 'I' for Inactive)
REMARK    1  A    between atoms: C1_1  and  C2_2 
REMARK    2  A    between atoms: C1_1  and  C3_3 
ROOT
HETATM    1  C3  UNL     1     -34.577   5.039   5.888  1.00 20.00     0.321 C 
HETATM    2  F4  UNL     1     -35.730   4.694   6.523  1.00 20.00    -0.188 F 
HETATM    3  F5  UNL     1     -33.684   4.052   6.153  1.00 20.00    -0.188 F 
HETATM    4 CL7  UNL     1     -33.988   6.570   6.554  1.00 20.00    -0.048 Cl
ENDROOT
BRANCH   1   5
HETATM    5  C1  UNL     1     -34.843   5.101   4.390  1.00 20.00     0.112 C 
BRANCH   5   6
HETATM    6  C2  UNL     1     -34.232   6.323   3.714  1.00 20.00     0.122 C 
HETATM    7 CL6  UNL     1     -32.521   6.021   3.326  1.00 20.00    -0.130 Cl
ENDBRANCH   5   6
ENDBRANCH   1   5
TORSDOF 2
ENDMDL
MODEL 2
REMARK VINA RESULT:      -4.4      1.584      1.712
REMARK  2 active torsions:
REMARK  status: ('A' for Active; 'I' for Inactive)
REMARK    1  A    between atoms: C1_1  and  C2_2 
REMARK    2  A    between atoms: C1_1  and  C3_3 
ROOT
HETATM    1  C3  UNL     1     -35.048   4.968   4.485  1.00 20.00     0.321 C 
HETATM    2  F4  UNL     1     -36.308   5.341   4.134  1.00 20.00    -0.188 F 
HETATM    3  F5  UNL     1     -35.037   3.611   4.491  1.00 20.00    -0.188 F 
HETATM    4 CL7  UNL     1     -34.699   5.574   6.112  1.00 20.00    -0.048 Cl
ENDROOT
BRANCH   1   5
HETATM    5  C1  UNL     1     -34.074   5.485   3.434  1.00 20.00     0.112 C 
BRANCH   5   6
HETATM    6  C2  UNL     1     -33.048   6.467   3.986  1.00 20.00     0.122 C 
HETATM    7 CL6  UNL     1     -32.232   7.320   2.653  1.00 20.00    -0.130 Cl
ENDBRANCH   5   6
ENDBRANCH   1   5
TORSDOF 2
ENDMDL
MODEL 3
REMARK VINA RESULT:      -4.4      2.519      2.656
REMARK  2 active torsions:
REMARK  status: ('A' for Active; 'I' for Inactive)
REMARK    1  A    between atoms: C1_1  and  C2_2 
REMARK    2  A    between atoms: C1_1  and  C3_3 
ROOT
HETATM    1  C3  UNL     1     -34.855   5.337   3.695  1.00 20.00     0.321 C 
HETATM    2  F4  UNL     1     -36.082   5.841   3.394  1.00 20.00    -0.188 F 
HETATM    3  F5  UNL     1     -34.397   4.745   2.563  1.00 20.00    -0.188 F 
HETATM    4 CL7  UNL     1     -35.029   4.124   4.973  1.00 20.00    -0.048 Cl
ENDROOT
BRANCH   1   5
HETATM    5  C1  UNL     1     -33.934   6.486   4.082  1.00 20.00     0.112 C 
BRANCH   5   6
HETATM    6  C2  UNL     1     -32.538   6.376   3.481  1.00 20.00     0.122 C 
HETATM    7 CL6  UNL     1     -32.205   7.778   2.435  1.00 20.00    -0.130 Cl
ENDBRANCH   5   6
ENDBRANCH   1   5
TORSDOF 2
ENDMDL
MODEL 4
REMARK VINA RESULT:      -4.2      1.482      1.907
REMARK  2 active torsions:
REMARK  status: ('A' for Active; 'I' for Inactive)
REMARK    1  A    between atoms: C1_1  and  C2_2 
REMARK    2  A    between atoms: C1_1  and  C3_3 
ROOT
HETATM    1  C3  UNL     1     -34.552   5.042   6.024  1.00 20.00     0.321 C 
HETATM    2  F4  UNL     1     -33.643   4.298   6.708  1.00 20.00    -0.188 F 
HETATM    3  F5  UNL     1     -35.515   5.386   6.916  1.00 20.00    -0.188 F 
HETATM    4 CL7  UNL     1     -35.258   4.049   4.738  1.00 20.00    -0.048 Cl
ENDROOT
BRANCH   1   5
HETATM    5  C1  UNL     1     -33.865   6.297   5.501  1.00 20.00     0.112 C 
BRANCH   5   6
HETATM    6  C2  UNL     1     -33.898   6.420   3.983  1.00 20.00     0.122 C 
HETATM    7 CL6  UNL     1     -32.267   6.182   3.310  1.00 20.00    -0.130 Cl
ENDBRANCH   5   6
ENDBRANCH   1   5
TORSDOF 2
ENDMDL
MODEL 5
REMARK VINA RESULT:      -4.2      2.428      3.002
REMARK  2 active torsions:
REMARK  status: ('A' for Active; 'I' for Inactive)
REMARK    1  A    between atoms: C1_1  and  C2_2 
REMARK    2  A    between atoms: C1_1  and  C3_3 
ROOT
HETATM    1  C3  UNL     1     -34.908   5.260   3.897  1.00 20.00     0.321 C 
HETATM    2  F4  UNL     1     -36.126   5.748   3.540  1.00 20.00    -0.188 F 
HETATM    3  F5  UNL     1     -34.260   4.966   2.741  1.00 20.00    -0.188 F 
HETATM    4 CL7  UNL     1     -35.134   3.781   4.845  1.00 20.00    -0.048 Cl
ENDROOT
BRANCH   1   5
HETATM    5  C1  UNL     1     -34.148   6.343   4.650  1.00 20.00     0.112 C 
BRANCH   5   6
HETATM    6  C2  UNL     1     -34.168   6.160   6.163  1.00 20.00     0.122 C 
HETATM    7 CL6  UNL     1     -33.267   7.475   6.956  1.00 20.00    -0.130 Cl
ENDBRANCH   5   6
ENDBRANCH   1   5
TORSDOF 2
ENDMDL
MODEL 6
REMARK VINA RESULT:      -4.1      2.672      3.683
REMARK  2 active torsions:
REMARK  status: ('A' for Active; 'I' for Inactive)
REMARK    1  A    between atoms: C1_1  and  C2_2 
REMARK    2  A    between atoms: C1_1  and  C3_3 
ROOT
HETATM    1  C3  UNL     1     -32.883   6.187   3.181  1.00 20.00     0.321 C 
HETATM    2  F4  UNL     1     -31.741   5.493   3.432  1.00 20.00    -0.188 F 
HETATM    3  F5  UNL     1     -33.561   5.483   2.240  1.00 20.00    -0.188 F 
HETATM    4 CL7  UNL     1     -32.459   7.783   2.541  1.00 20.00    -0.048 Cl
ENDROOT
BRANCH   1   5
HETATM    5  C1  UNL     1     -33.706   6.256   4.461  1.00 20.00     0.112 C 
BRANCH   5   6
HETATM    6  C2  UNL     1     -34.898   5.307   4.470  1.00 20.00     0.122 C 
HETATM    7 CL6  UNL     1     -34.883   4.312   5.946  1.00 20.00    -0.130 Cl
ENDBRANCH   5   6
ENDBRANCH   1   5
TORSDOF 2
ENDMDL
MODEL 7
REMARK VINA RESULT:      -4.1      2.205      2.510
REMARK  2 active torsions:
REMARK  status: ('A' for Active; 'I' for Inactive)
REMARK    1  A    between atoms: C1_1  and  C2_2 
REMARK    2  A    between atoms: C1_1  and  C3_3 
ROOT
HETATM    1  C3  UNL     1     -34.861   5.428   4.180  1.00 20.00     0.321 C 
HETATM    2  F4  UNL     1     -34.661   6.382   5.129  1.00 20.00    -0.188 F 
HETATM    3  F5  UNL     1     -36.072   5.688   3.625  1.00 20.00    -0.188 F 
HETATM    4 CL7  UNL     1     -34.891   3.838   4.958  1.00 20.00    -0.048 Cl
ENDROOT
BRANCH   1   5
HETATM    5  C1  UNL     1     -33.774   5.555   3.122  1.00 20.00     0.112 C 
BRANCH   5   6
HETATM    6  C2  UNL     1     -32.587   6.401   3.567  1.00 20.00     0.122 C 
HETATM    7 CL6  UNL     1     -32.256   7.678   2.371  1.00 20.00    -0.130 Cl
ENDBRANCH   5   6
ENDBRANCH   1   5
TORSDOF 2
ENDMDL
MODEL 8
REMARK VINA RESULT:      -4.0      2.066      3.167
REMARK  2 active torsions:
REMARK  status: ('A' for Active; 'I' for Inactive)
REMARK    1  A    between atoms: C1_1  and  C2_2 
REMARK    2  A    between atoms: C1_1  and  C3_3 
ROOT
HETATM    1  C3  UNL     1     -33.971   5.866   3.775  1.00 20.00     0.321 C 
HETATM    2  F4  UNL     1     -34.535   5.223   2.718  1.00 20.00    -0.188 F 
HETATM    3  F5  UNL     1     -34.648   7.034   3.919  1.00 20.00    -0.188 F 
HETATM    4 CL7  UNL     1     -32.272   6.205   3.405  1.00 20.00    -0.048 Cl
ENDROOT
BRANCH   1   5
HETATM    5  C1  UNL     1     -34.152   5.011   5.022  1.00 20.00     0.112 C 
BRANCH   5   6
HETATM    6  C2  UNL     1     -34.613   5.802   6.240  1.00 20.00     0.122 C 
HETATM    7 CL6  UNL     1     -33.397   7.026   6.678  1.00 20.00    -0.130 Cl
ENDBRANCH   5   6
ENDBRANCH   1   5
TORSDOF 2
ENDMDL
MODEL 9
REMARK VINA RESULT:      -3.8      2.791      3.656
REMARK  2 active torsions:
REMARK  status: ('A' for Active; 'I' for Inactive)
REMARK    1  A    between atoms: C1_1  and  C2_2 
REMARK    2  A    between atoms: C1_1  and  C3_3 
ROOT
HETATM    1  C3  UNL     1     -33.112   6.203   3.384  1.00 20.00     0.321 C 
HETATM    2  F4  UNL     1     -33.076   7.487   2.935  1.00 20.00    -0.188 F 
HETATM    3  F5  UNL     1     -31.823   5.783   3.447  1.00 20.00    -0.188 F 
HETATM    4 CL7  UNL     1     -34.006   5.211   2.221  1.00 20.00    -0.048 Cl
ENDROOT
BRANCH   1   5
HETATM    5  C1  UNL     1     -33.725   6.189   4.778  1.00 20.00     0.112 C 
BRANCH   5   6
HETATM    6  C2  UNL     1     -35.025   5.398   4.862  1.00 20.00     0.122 C 
HETATM    7 CL6  UNL     1     -34.831   4.006   5.954  1.00 20.00    -0.130 Cl
ENDBRANCH   5   6
ENDBRANCH   1   5
TORSDOF 2
ENDMDL
