MODEL 1
REMARK VINA RESULT:      -3.5      0.000      0.000
REMARK  1 active torsions:
REMARK  status: ('A' for Active; 'I' for Inactive)
REMARK    1  A    between atoms: C4_4  and  O5_5 
ROOT
HETATM    1  C1  UNL     1     -35.034   4.293   5.986  1.00 20.00     0.014 C 
HETATM    2  C2  UNL     1     -34.878   4.842   4.929  1.00 20.00    -0.091 C 
HETATM    3  C4  UNL     1     -34.691   5.509   3.641  1.00 20.00     0.259 C 
ENDROOT
BRANCH   3   4
HETATM    4  O5  UNL     1     -33.831   6.633   3.783  1.00 20.00    -0.384 OA
HETATM    5  C3  UNL     1     -32.526   6.356   3.293  1.00 20.00     0.202 C 
ENDBRANCH   3   4
TORSDOF 1
ENDMDL
MODEL 2
REMARK VINA RESULT:      -3.4      1.899      2.406
REMARK  1 active torsions:
REMARK  status: ('A' for Active; 'I' for Inactive)
REMARK    1  A    between atoms: C4_4  and  O5_5 
ROOT
HETATM    1  C1  UNL     1     -33.800   6.870   6.629  1.00 20.00     0.014 C 
HETATM    2  C2  UNL     1     -34.318   5.872   6.207  1.00 20.00    -0.091 C 
HETATM    3  C4  UNL     1     -34.947   4.654   5.697  1.00 20.00     0.259 C 
ENDROOT
BRANCH   3   4
HETATM    4  O5  UNL     1     -35.610   4.916   4.466  1.00 20.00    -0.384 OA
HETATM    5  C3  UNL     1     -34.702   5.366   3.470  1.00 20.00     0.202 C 
ENDBRANCH   3   4
TORSDOF 1
ENDMDL
MODEL 3
REMARK VINA RESULT:      -3.3      1.352      2.970
REMARK  1 active torsions:
REMARK  status: ('A' for Active; 'I' for Inactive)
REMARK    1  A    between atoms: C4_4  and  O5_5 
ROOT
HETATM    1  C1  UNL     1     -32.606   6.327   3.373  1.00 20.00     0.014 C 
HETATM    2  C2  UNL     1     -33.727   5.927   3.532  1.00 20.00    -0.091 C 
HETATM    3  C4  UNL     1     -35.094   5.442   3.722  1.00 20.00     0.259 C 
ENDROOT
BRANCH   3   4
HETATM    4  O5  UNL     1     -35.116   4.372   4.659  1.00 20.00    -0.384 OA
HETATM    5  C3  UNL     1     -34.878   4.832   5.983  1.00 20.00     0.202 C 
ENDBRANCH   3   4
TORSDOF 1
ENDMDL
MODEL 4
REMARK VINA RESULT:      -3.2      1.403      1.403
REMARK  1 active torsions:
REMARK  status: ('A' for Active; 'I' for Inactive)
REMARK    1  A    between atoms: C4_4  and  O5_5 
ROOT
HETATM    1  C1  UNL     1     -34.465   5.758   6.340  1.00 20.00     0.014 C 
HETATM    2  C2  UNL     1     -34.121   5.936   5.204  1.00 20.00    -0.091 C 
HETATM    3  C4  UNL     1     -33.704   6.151   3.818  1.00 20.00     0.259 C 
ENDROOT
BRANCH   3   4
HETATM    4  O5  UNL     1     -32.386   6.682   3.772  1.00 20.00    -0.384 OA
HETATM    5  C3  UNL     1     -32.203   7.527   2.644  1.00 20.00     0.202 C 
ENDBRANCH   3   4
TORSDOF 1
ENDMDL
MODEL 5
REMARK VINA RESULT:      -3.2      1.866      2.704
REMARK  1 active torsions:
REMARK  status: ('A' for Active; 'I' for Inactive)
REMARK    1  A    between atoms: C4_4  and  O5_5 
ROOT
HETATM    1  C1  UNL     1     -34.813   5.390   3.300  1.00 20.00     0.014 C 
HETATM    2  C2  UNL     1     -34.860   5.016   4.441  1.00 20.00    -0.091 C 
HETATM    3  C4  UNL     1     -34.917   4.557   5.828  1.00 20.00     0.259 C 
ENDROOT
BRANCH   3   4
HETATM    4  O5  UNL     1     -34.888   5.665   6.720  1.00 20.00    -0.384 OA
HETATM    5  C3  UNL     1     -33.840   6.568   6.396  1.00 20.00     0.202 C 
ENDBRANCH   3   4
TORSDOF 1
ENDMDL
MODEL 6
REMARK VINA RESULT:      -3.0      1.243      1.608
REMARK  1 active torsions:
REMARK  status: ('A' for Active; 'I' for Inactive)
REMARK    1  A    between atoms: C4_4  and  O5_5 
ROOT
HETATM    1  C1  UNL     1     -35.333   4.929   4.359  1.00 20.00     0.014 C 
HETATM    2  C2  UNL     1     -34.358   5.625   4.282  1.00 20.00    -0.091 C 
HETATM    3  C4  UNL     1     -33.171   6.475   4.193  1.00 20.00     0.259 C 
ENDROOT
BRANCH   3   4
HETATM    4  O5  UNL     1     -32.643   6.454   2.872  1.00 20.00    -0.384 OA
HETATM    5  C3  UNL     1     -32.131   7.724   2.495  1.00 20.00     0.202 C 
ENDBRANCH   3   4
TORSDOF 1
ENDMDL
MODEL 7
REMARK VINA RESULT:      -3.0      1.871      4.255
REMARK  1 active torsions:
REMARK  status: ('A' for Active; 'I' for Inactive)
REMARK    1  A    between atoms: C4_4  and  O5_5 
ROOT
HETATM    1  C1  UNL     1     -32.058   8.859   1.305  1.00 20.00     0.014 C 
HETATM    2  C2  UNL     1     -32.091   8.033   2.177  1.00 20.00    -0.091 C 
HETATM    3  C4  UNL     1     -32.128   7.029   3.239  1.00 20.00     0.259 C 
ENDROOT
BRANCH   3   4
HETATM    4  O5  UNL     1     -33.238   6.159   3.063  1.00 20.00    -0.384 OA
HETATM    5  C3  UNL     1     -34.035   6.083   4.237  1.00 20.00     0.202 C 
ENDBRANCH   3   4
TORSDOF 1
ENDMDL
MODEL 8
REMARK VINA RESULT:      -2.7     11.678     12.116
REMARK  1 active torsions:
REMARK  status: ('A' for Active; 'I' for Inactive)
REMARK    1  A    between atoms: C4_4  and  O5_5 
ROOT
HETATM    1  C1  UNL     1     -34.499  16.264  -1.950  1.00 20.00     0.014 C 
HETATM    2  C2  UNL     1     -33.970  15.539  -2.748  1.00 20.00    -0.091 C 
HETATM    3  C4  UNL     1     -33.324  14.659  -3.721  1.00 20.00     0.259 C 
ENDROOT
BRANCH   3   4
HETATM    4  O5  UNL     1     -33.884  13.354  -3.660  1.00 20.00    -0.384 OA
HETATM    5  C3  UNL     1     -35.142  13.294  -4.318  1.00 20.00     0.202 C 
ENDBRANCH   3   4
TORSDOF 1
ENDMDL
MODEL 9
REMARK VINA RESULT:      -2.7      2.444      3.534
REMARK  1 active torsions:
REMARK  status: ('A' for Active; 'I' for Inactive)
REMARK    1  A    between atoms: C4_4  and  O5_5 
ROOT
HETATM    1  C1  UNL     1     -33.585   5.905   3.393  1.00 20.00     0.014 C 
HETATM    2  C2  UNL     1     -32.786   6.760   3.124  1.00 20.00    -0.091 C 
HETATM    3  C4  UNL     1     -31.810   7.801   2.800  1.00 20.00     0.259 C 
ENDROOT
BRANCH   3   4
HETATM    4  O5  UNL     1     -32.028   8.294   1.485  1.00 20.00    -0.384 OA
HETATM    5  C3  UNL     1     -32.423   9.659   1.498  1.00 20.00     0.202 C 
ENDBRANCH   3   4
TORSDOF 1
ENDMDL
