MODEL 1
REMARK VINA RESULT:      -4.3      0.000      0.000
REMARK  2 active torsions:
REMARK  status: ('A' for Active; 'I' for Inactive)
REMARK    1  A    between atoms: C3_3  and  C8_8 
REMARK    2  A    between atoms: C4_4  and  C7_7 
ROOT
HETATM    1  C5  UNL     1     -34.779  13.485  -5.038  1.00 20.00     0.040 C 
HETATM    2  C6  UNL     1     -34.272  13.827  -3.655  1.00 20.00     0.045 C 
HETATM    3  C7  UNL     1     -35.926  14.471  -5.197  1.00 20.00     0.151 C 
HETATM    4  C8  UNL     1     -34.426  15.347  -3.616  1.00 20.00     0.075 C 
HETATM    5  C10 UNL     1     -34.714  15.861  -2.209  1.00 20.00     0.050 C 
HETATM    6  O11 UNL     1     -35.557  15.649  -4.459  1.00 20.00    -0.367 OA
ENDROOT
BRANCH   3   7
HETATM    7  C4  UNL     1     -36.204  14.830  -6.615  1.00 20.00    -0.065 C 
HETATM    8  C2  UNL     1     -37.413  15.252  -7.015  1.00 20.00     0.016 C 
HETATM    9  C9  UNL     1     -35.055  14.695  -7.570  1.00 20.00     0.045 C 
ENDBRANCH   3   7
BRANCH   4  10
HETATM   10  C3  UNL     1     -33.228  16.056  -4.181  1.00 20.00     0.000 C 
HETATM   11  C1  UNL     1     -33.295  17.010  -5.115  1.00 20.00     0.010 C 
ENDBRANCH   4  10
TORSDOF 2
ENDMDL
MODEL 2
REMARK VINA RESULT:      -4.2      1.246      3.902
REMARK  2 active torsions:
REMARK  status: ('A' for Active; 'I' for Inactive)
REMARK    1  A    between atoms: C3_3  and  C8_8 
REMARK    2  A    between atoms: C4_4  and  C7_7 
ROOT
HETATM    1  C5  UNL     1     -34.318  14.213  -3.495  1.00 20.00     0.040 C 
HETATM    2  C6  UNL     1     -34.470  13.665  -4.896  1.00 20.00     0.045 C 
HETATM    3  C7  UNL     1     -33.753  15.599  -3.767  1.00 20.00     0.151 C 
HETATM    4  C8  UNL     1     -34.915  14.897  -5.683  1.00 20.00     0.075 C 
HETATM    5  C10 UNL     1     -34.435  14.860  -7.131  1.00 20.00     0.050 C 
HETATM    6  O11 UNL     1     -34.306  16.026  -5.025  1.00 20.00    -0.367 OA
ENDROOT
BRANCH   3   7
HETATM    7  C4  UNL     1     -34.083  16.591  -2.707  1.00 20.00    -0.065 C 
HETATM    8  C2  UNL     1     -34.597  16.221  -1.525  1.00 20.00     0.016 C 
HETATM    9  C9  UNL     1     -33.806  18.028  -3.037  1.00 20.00     0.045 C 
ENDBRANCH   3   7
BRANCH   4  10
HETATM   10  C3  UNL     1     -36.404  15.090  -5.647  1.00 20.00     0.000 C 
HETATM   11  C1  UNL     1     -37.002  16.244  -5.329  1.00 20.00     0.010 C 
ENDBRANCH   4  10
TORSDOF 2
ENDMDL
MODEL 3
REMARK VINA RESULT:      -4.2      1.616      4.098
REMARK  2 active torsions:
REMARK  status: ('A' for Active; 'I' for Inactive)
REMARK    1  A    between atoms: C3_3  and  C8_8 
REMARK    2  A    between atoms: C4_4  and  C7_7 
ROOT
HETATM    1  C5  UNL     1     -36.288  15.990  -3.329  1.00 20.00     0.040 C 
HETATM    2  C6  UNL     1     -36.264  14.844  -4.315  1.00 20.00     0.045 C 
HETATM    3  C7  UNL     1     -35.119  15.640  -2.422  1.00 20.00     0.151 C 
HETATM    4  C8  UNL     1     -34.767  14.601  -4.499  1.00 20.00     0.075 C 
HETATM    5  C10 UNL     1     -34.453  13.137  -4.793  1.00 20.00     0.050 C 
HETATM    6  O11 UNL     1     -34.153  14.961  -3.244  1.00 20.00    -0.367 OA
ENDROOT
BRANCH   3   7
HETATM    7  C4  UNL     1     -34.490  16.828  -1.781  1.00 20.00    -0.065 C 
HETATM    8  C2  UNL     1     -33.790  17.727  -2.487  1.00 20.00     0.016 C 
HETATM    9  C9  UNL     1     -34.687  16.961  -0.299  1.00 20.00     0.045 C 
ENDBRANCH   3   7
BRANCH   4  10
HETATM   10  C3  UNL     1     -34.175  15.473  -5.569  1.00 20.00     0.000 C 
HETATM   11  C1  UNL     1     -34.371  15.286  -6.879  1.00 20.00     0.010 C 
ENDBRANCH   4  10
TORSDOF 2
ENDMDL
MODEL 4
REMARK VINA RESULT:      -4.1      1.448      2.247
REMARK  2 active torsions:
REMARK  status: ('A' for Active; 'I' for Inactive)
REMARK    1  A    between atoms: C3_3  and  C8_8 
REMARK    2  A    between atoms: C4_4  and  C7_7 
ROOT
HETATM    1  C5  UNL     1     -36.625  15.379  -5.194  1.00 20.00     0.040 C 
HETATM    2  C6  UNL     1     -36.598  15.247  -3.688  1.00 20.00     0.045 C 
HETATM    3  C7  UNL     1     -35.509  16.384  -5.435  1.00 20.00     0.151 C 
HETATM    4  C8  UNL     1     -35.103  15.322  -3.379  1.00 20.00     0.075 C 
HETATM    5  C10 UNL     1     -34.827  15.951  -2.017  1.00 20.00     0.050 C 
HETATM    6  O11 UNL     1     -34.532  16.164  -4.401  1.00 20.00    -0.367 OA
ENDROOT
BRANCH   3   7
HETATM    7  C4  UNL     1     -34.868  16.248  -6.772  1.00 20.00    -0.065 C 
HETATM    8  C2  UNL     1     -34.565  17.316  -7.525  1.00 20.00     0.016 C 
HETATM    9  C9  UNL     1     -34.578  14.848  -7.227  1.00 20.00     0.045 C 
ENDBRANCH   3   7
BRANCH   4  10
HETATM   10  C3  UNL     1     -34.436  13.979  -3.462  1.00 20.00     0.000 C 
HETATM   11  C1  UNL     1     -33.142  13.802  -3.750  1.00 20.00     0.010 C 
ENDBRANCH   4  10
TORSDOF 2
ENDMDL
MODEL 5
REMARK VINA RESULT:      -4.1      2.167      3.428
REMARK  2 active torsions:
REMARK  status: ('A' for Active; 'I' for Inactive)
REMARK    1  A    between atoms: C3_3  and  C8_8 
REMARK    2  A    between atoms: C4_4  and  C7_7 
ROOT
HETATM    1  C5  UNL     1     -35.973  15.674  -3.345  1.00 20.00     0.040 C 
HETATM    2  C6  UNL     1     -35.891  17.118  -2.907  1.00 20.00     0.045 C 
HETATM    3  C7  UNL     1     -34.714  15.534  -4.185  1.00 20.00     0.151 C 
HETATM    4  C8  UNL     1     -34.392  17.306  -2.677  1.00 20.00     0.075 C 
HETATM    5  C10 UNL     1     -33.939  18.734  -2.964  1.00 20.00     0.050 C 
HETATM    6  O11 UNL     1     -33.737  16.419  -3.607  1.00 20.00    -0.367 OA
ENDROOT
BRANCH   3   7
HETATM    7  C4  UNL     1     -34.178  14.146  -4.223  1.00 20.00    -0.065 C 
HETATM    8  C2  UNL     1     -34.821  13.155  -4.857  1.00 20.00     0.016 C 
HETATM    9  C9  UNL     1     -32.876  13.920  -3.513  1.00 20.00     0.045 C 
ENDBRANCH   3   7
BRANCH   4  10
HETATM   10  C3  UNL     1     -33.974  16.910  -1.290  1.00 20.00     0.000 C 
HETATM   11  C1  UNL     1     -34.731  17.088  -0.201  1.00 20.00     0.010 C 
ENDBRANCH   4  10
TORSDOF 2
ENDMDL
MODEL 6
REMARK VINA RESULT:      -4.0      1.264      4.159
REMARK  2 active torsions:
REMARK  status: ('A' for Active; 'I' for Inactive)
REMARK    1  A    between atoms: C3_3  and  C8_8 
REMARK    2  A    between atoms: C4_4  and  C7_7 
ROOT
HETATM    1  C5  UNL     1     -33.364  16.861  -5.056  1.00 20.00     0.040 C 
HETATM    2  C6  UNL     1     -33.962  16.198  -6.276  1.00 20.00     0.045 C 
HETATM    3  C7  UNL     1     -34.595  17.081  -4.191  1.00 20.00     0.151 C 
HETATM    4  C8  UNL     1     -35.049  15.312  -5.668  1.00 20.00     0.075 C 
HETATM    5  C10 UNL     1     -36.238  15.132  -6.606  1.00 20.00     0.050 C 
HETATM    6  O11 UNL     1     -35.498  15.998  -4.481  1.00 20.00    -0.367 OA
ENDROOT
BRANCH   3   7
HETATM    7  C4  UNL     1     -34.297  17.112  -2.732  1.00 20.00    -0.065 C 
HETATM    8  C2  UNL     1     -34.595  16.084  -1.926  1.00 20.00     0.016 C 
HETATM    9  C9  UNL     1     -33.642  18.360  -2.218  1.00 20.00     0.045 C 
ENDBRANCH   3   7
BRANCH   4  10
HETATM   10  C3  UNL     1     -34.522  13.968  -5.252  1.00 20.00     0.000 C 
HETATM   11  C1  UNL     1     -35.044  13.233  -4.264  1.00 20.00     0.010 C 
ENDBRANCH   4  10
TORSDOF 2
ENDMDL
MODEL 7
REMARK VINA RESULT:      -4.0      1.534      2.981
REMARK  2 active torsions:
REMARK  status: ('A' for Active; 'I' for Inactive)
REMARK    1  A    between atoms: C3_3  and  C8_8 
REMARK    2  A    between atoms: C4_4  and  C7_7 
ROOT
HETATM    1  C5  UNL     1     -33.576  16.741  -4.351  1.00 20.00     0.040 C 
HETATM    2  C6  UNL     1     -33.725  17.450  -3.024  1.00 20.00     0.045 C 
HETATM    3  C7  UNL     1     -33.769  15.288  -3.947  1.00 20.00     0.151 C 
HETATM    4  C8  UNL     1     -34.824  16.638  -2.340  1.00 20.00     0.075 C 
HETATM    5  C10 UNL     1     -34.666  16.618  -0.823  1.00 20.00     0.050 C 
HETATM    6  O11 UNL     1     -34.685  15.291  -2.837  1.00 20.00    -0.367 OA
ENDROOT
BRANCH   3   7
HETATM    7  C4  UNL     1     -34.307  14.435  -5.043  1.00 20.00    -0.065 C 
HETATM    8  C2  UNL     1     -34.693  13.168  -4.831  1.00 20.00     0.016 C 
HETATM    9  C9  UNL     1     -34.395  15.075  -6.397  1.00 20.00     0.045 C 
ENDBRANCH   3   7
BRANCH   4  10
HETATM   10  C3  UNL     1     -36.199  17.124  -2.701  1.00 20.00     0.000 C 
HETATM   11  C1  UNL     1     -37.117  16.376  -3.324  1.00 20.00     0.010 C 
ENDBRANCH   4  10
TORSDOF 2
ENDMDL
MODEL 8
REMARK VINA RESULT:      -3.9     11.554     12.790
REMARK  2 active torsions:
REMARK  status: ('A' for Active; 'I' for Inactive)
REMARK    1  A    between atoms: C3_3  and  C8_8 
REMARK    2  A    between atoms: C4_4  and  C7_7 
ROOT
HETATM    1  C5  UNL     1     -41.148   6.323  -0.958  1.00 20.00     0.040 C 
HETATM    2  C6  UNL     1     -40.836   4.846  -1.045  1.00 20.00     0.045 C 
HETATM    3  C7  UNL     1     -41.717   6.599  -2.341  1.00 20.00     0.151 C 
HETATM    4  C8  UNL     1     -42.001   4.314  -1.879  1.00 20.00     0.075 C 
HETATM    5  C10 UNL     1     -41.601   3.111  -2.727  1.00 20.00     0.050 C 
HETATM    6  O11 UNL     1     -42.381   5.392  -2.758  1.00 20.00    -0.367 OA
ENDROOT
BRANCH   3   7
HETATM    7  C4  UNL     1     -42.676   7.738  -2.371  1.00 20.00    -0.065 C 
HETATM    8  C2  UNL     1     -42.987   8.373  -3.510  1.00 20.00     0.016 C 
HETATM    9  C9  UNL     1     -43.274   8.133  -1.053  1.00 20.00     0.045 C 
ENDBRANCH   3   7
BRANCH   4  10
HETATM   10  C3  UNL     1     -43.194   3.965  -1.034  1.00 20.00     0.000 C 
HETATM   11  C1  UNL     1     -43.155   3.828   0.295  1.00 20.00     0.010 C 
ENDBRANCH   4  10
TORSDOF 2
ENDMDL
MODEL 9
REMARK VINA RESULT:      -3.9      1.848      2.819
REMARK  2 active torsions:
REMARK  status: ('A' for Active; 'I' for Inactive)
REMARK    1  A    between atoms: C3_3  and  C8_8 
REMARK    2  A    between atoms: C4_4  and  C7_7 
ROOT
HETATM    1  C5  UNL     1     -35.705  15.886  -5.495  1.00 20.00     0.040 C 
HETATM    2  C6  UNL     1     -34.295  15.363  -5.345  1.00 20.00     0.045 C 
HETATM    3  C7  UNL     1     -36.497  14.877  -4.677  1.00 20.00     0.151 C 
HETATM    4  C8  UNL     1     -34.280  14.869  -3.898  1.00 20.00     0.075 C 
HETATM    5  C10 UNL     1     -33.341  13.683  -3.703  1.00 20.00     0.050 C 
HETATM    6  O11 UNL     1     -35.628  14.442  -3.615  1.00 20.00    -0.367 OA
ENDROOT
BRANCH   3   7
HETATM    7  C4  UNL     1     -37.753  15.434  -4.105  1.00 20.00    -0.065 C 
HETATM    8  C2  UNL     1     -38.876  14.707  -4.018  1.00 20.00     0.016 C 
HETATM    9  C9  UNL     1     -37.691  16.856  -3.629  1.00 20.00     0.045 C 
ENDBRANCH   3   7
BRANCH   4  10
HETATM   10  C3  UNL     1     -33.929  15.960  -2.928  1.00 20.00     0.000 C 
HETATM   11  C1  UNL     1     -34.560  16.160  -1.766  1.00 20.00     0.010 C 
ENDBRANCH   4  10
TORSDOF 2
ENDMDL
