MODEL 1
REMARK VINA RESULT:      -4.9      0.000      0.000
REMARK  2 active torsions:
REMARK  status: ('A' for Active; 'I' for Inactive)
REMARK    1  A    between atoms: C1_1  and  C2_2 
REMARK    2  A    between atoms: C2_2  and  C3_3 
ROOT
HETATM    1  C2  UNL     1     -34.904   4.925   4.633  1.00 20.00     0.391 C 
HETATM    2  F5  UNL     1     -36.141   5.373   4.294  1.00 20.00    -0.188 F 
HETATM    3  F6  UNL     1     -34.819   3.648   4.179  1.00 20.00    -0.188 F 
ENDROOT
BRANCH   1   4
HETATM    4  C1  UNL     1     -33.831   5.775   4.012  1.00 20.00     0.319 C 
HETATM    5  O4  UNL     1     -33.560   5.753   2.816  1.00 20.00    -0.300 OA
ENDBRANCH   1   4
BRANCH   1   6
HETATM    6  C3  UNL     1     -34.782   4.916   6.135  1.00 20.00     0.461 C 
HETATM    7  F7  UNL     1     -35.845   4.314   6.710  1.00 20.00    -0.165 F 
HETATM    8  F8  UNL     1     -33.673   4.245   6.518  1.00 20.00    -0.165 F 
HETATM    9  F9  UNL     1     -34.695   6.168   6.631  1.00 20.00    -0.165 F 
ENDBRANCH   1   6
TORSDOF 2
ENDMDL
MODEL 2
REMARK VINA RESULT:      -4.9      0.103      1.286
REMARK  2 active torsions:
REMARK  status: ('A' for Active; 'I' for Inactive)
REMARK    1  A    between atoms: C1_1  and  C2_2 
REMARK    2  A    between atoms: C2_2  and  C3_3 
ROOT
HETATM    1  C2  UNL     1     -34.910   4.927   4.659  1.00 20.00     0.391 C 
HETATM    2  F5  UNL     1     -36.161   5.342   4.328  1.00 20.00    -0.188 F 
HETATM    3  F6  UNL     1     -34.818   3.631   4.265  1.00 20.00    -0.188 F 
ENDROOT
BRANCH   1   4
HETATM    4  C1  UNL     1     -33.864   5.759   3.972  1.00 20.00     0.319 C 
HETATM    5  O4  UNL     1     -33.605   5.668   2.776  1.00 20.00    -0.300 OA
ENDBRANCH   1   4
BRANCH   1   6
HETATM    6  C3  UNL     1     -34.753   4.993   6.156  1.00 20.00     0.461 C 
HETATM    7  F7  UNL     1     -34.590   6.265   6.577  1.00 20.00    -0.165 F 
HETATM    8  F8  UNL     1     -35.849   4.494   6.771  1.00 20.00    -0.165 F 
HETATM    9  F9  UNL     1     -33.688   4.277   6.573  1.00 20.00    -0.165 F 
ENDBRANCH   1   6
TORSDOF 2
ENDMDL
MODEL 3
REMARK VINA RESULT:      -4.8      1.714      2.941
REMARK  2 active torsions:
REMARK  status: ('A' for Active; 'I' for Inactive)
REMARK    1  A    between atoms: C1_1  and  C2_2 
REMARK    2  A    between atoms: C2_2  and  C3_3 
ROOT
HETATM    1  C2  UNL     1     -34.569   5.142   5.865  1.00 20.00     0.391 C 
HETATM    2  F5  UNL     1     -33.783   4.145   6.350  1.00 20.00    -0.188 F 
HETATM    3  F6  UNL     1     -35.661   5.197   6.670  1.00 20.00    -0.188 F 
ENDROOT
BRANCH   1   4
HETATM    4  C1  UNL     1     -33.843   6.458   5.876  1.00 20.00     0.319 C 
HETATM    5  O4  UNL     1     -33.753   7.172   6.870  1.00 20.00    -0.300 OA
ENDBRANCH   1   4
BRANCH   1   6
HETATM    6  C3  UNL     1     -35.010   4.782   4.471  1.00 20.00     0.461 C 
HETATM    7  F7  UNL     1     -34.126   5.217   3.548  1.00 20.00    -0.165 F 
HETATM    8  F8  UNL     1     -35.117   3.441   4.337  1.00 20.00    -0.165 F 
HETATM    9  F9  UNL     1     -36.213   5.320   4.179  1.00 20.00    -0.165 F 
ENDBRANCH   1   6
TORSDOF 2
ENDMDL
MODEL 4
REMARK VINA RESULT:      -4.8      2.170      3.091
REMARK  2 active torsions:
REMARK  status: ('A' for Active; 'I' for Inactive)
REMARK    1  A    between atoms: C1_1  and  C2_2 
REMARK    2  A    between atoms: C2_2  and  C3_3 
ROOT
HETATM    1  C2  UNL     1     -34.002   6.158   4.373  1.00 20.00     0.391 C 
HETATM    2  F5  UNL     1     -34.277   7.424   3.964  1.00 20.00    -0.188 F 
HETATM    3  F6  UNL     1     -32.719   5.906   4.007  1.00 20.00    -0.188 F 
ENDROOT
BRANCH   1   4
HETATM    4  C1  UNL     1     -34.159   6.023   5.862  1.00 20.00     0.319 C 
HETATM    5  O4  UNL     1     -33.830   6.898   6.657  1.00 20.00    -0.300 OA
ENDBRANCH   1   4
BRANCH   1   6
HETATM    6  C3  UNL     1     -34.912   5.202   3.647  1.00 20.00     0.461 C 
HETATM    7  F7  UNL     1     -36.133   5.742   3.447  1.00 20.00    -0.165 F 
HETATM    8  F8  UNL     1     -34.400   4.884   2.438  1.00 20.00    -0.165 F 
HETATM    9  F9  UNL     1     -35.075   4.053   4.338  1.00 20.00    -0.165 F 
ENDBRANCH   1   6
TORSDOF 2
ENDMDL
MODEL 5
REMARK VINA RESULT:      -4.8      2.027      3.085
REMARK  2 active torsions:
REMARK  status: ('A' for Active; 'I' for Inactive)
REMARK    1  A    between atoms: C1_1  and  C2_2 
REMARK    2  A    between atoms: C2_2  and  C3_3 
ROOT
HETATM    1  C2  UNL     1     -34.966   4.922   4.583  1.00 20.00     0.391 C 
HETATM    2  F5  UNL     1     -34.895   3.603   4.265  1.00 20.00    -0.188 F 
HETATM    3  F6  UNL     1     -36.247   5.307   4.346  1.00 20.00    -0.188 F 
ENDROOT
BRANCH   1   4
HETATM    4  C1  UNL     1     -34.607   5.152   6.024  1.00 20.00     0.319 C 
HETATM    5  O4  UNL     1     -34.417   6.266   6.503  1.00 20.00    -0.300 OA
ENDBRANCH   1   4
BRANCH   1   6
HETATM    6  C3  UNL     1     -34.050   5.695   3.670  1.00 20.00     0.461 C 
HETATM    7  F7  UNL     1     -34.128   5.244   2.400  1.00 20.00    -0.165 F 
HETATM    8  F8  UNL     1     -34.380   7.005   3.663  1.00 20.00    -0.165 F 
HETATM    9  F9  UNL     1     -32.763   5.599   4.065  1.00 20.00    -0.165 F 
ENDBRANCH   1   6
TORSDOF 2
ENDMDL
MODEL 6
REMARK VINA RESULT:      -4.6      1.711      2.946
REMARK  2 active torsions:
REMARK  status: ('A' for Active; 'I' for Inactive)
REMARK    1  A    between atoms: C1_1  and  C2_2 
REMARK    2  A    between atoms: C2_2  and  C3_3 
ROOT
HETATM    1  C2  UNL     1     -33.922   6.339   4.154  1.00 20.00     0.391 C 
HETATM    2  F5  UNL     1     -33.813   6.176   5.499  1.00 20.00    -0.188 F 
HETATM    3  F6  UNL     1     -34.501   7.552   3.959  1.00 20.00    -0.188 F 
ENDROOT
BRANCH   1   4
HETATM    4  C1  UNL     1     -32.575   6.288   3.491  1.00 20.00     0.319 C 
HETATM    5  O4  UNL     1     -32.136   7.189   2.783  1.00 20.00    -0.300 OA
ENDBRANCH   1   4
BRANCH   1   6
HETATM    6  C3  UNL     1     -34.834   5.272   3.606  1.00 20.00     0.461 C 
HETATM    7  F7  UNL     1     -36.084   5.744   3.416  1.00 20.00    -0.165 F 
HETATM    8  F8  UNL     1     -34.378   4.825   2.415  1.00 20.00    -0.165 F 
HETATM    9  F9  UNL     1     -34.911   4.213   4.439  1.00 20.00    -0.165 F 
ENDBRANCH   1   6
TORSDOF 2
ENDMDL
MODEL 7
REMARK VINA RESULT:      -4.6      0.917      2.058
REMARK  2 active torsions:
REMARK  status: ('A' for Active; 'I' for Inactive)
REMARK    1  A    between atoms: C1_1  and  C2_2 
REMARK    2  A    between atoms: C2_2  and  C3_3 
ROOT
HETATM    1  C2  UNL     1     -34.500   5.718   4.701  1.00 20.00     0.391 C 
HETATM    2  F5  UNL     1     -34.395   6.748   5.580  1.00 20.00    -0.188 F 
HETATM    3  F6  UNL     1     -35.599   5.969   3.943  1.00 20.00    -0.188 F 
ENDROOT
BRANCH   1   4
HETATM    4  C1  UNL     1     -33.277   5.617   3.834  1.00 20.00     0.319 C 
HETATM    5  O4  UNL     1     -32.478   6.536   3.684  1.00 20.00    -0.300 OA
ENDBRANCH   1   4
BRANCH   1   6
HETATM    6  C3  UNL     1     -34.722   4.441   5.470  1.00 20.00     0.461 C 
HETATM    7  F7  UNL     1     -33.581   4.014   6.051  1.00 20.00    -0.165 F 
HETATM    8  F8  UNL     1     -35.636   4.628   6.448  1.00 20.00    -0.165 F 
HETATM    9  F9  UNL     1     -35.175   3.454   4.669  1.00 20.00    -0.165 F 
ENDBRANCH   1   6
TORSDOF 2
ENDMDL
MODEL 8
REMARK VINA RESULT:      -4.5      2.220      3.102
REMARK  2 active torsions:
REMARK  status: ('A' for Active; 'I' for Inactive)
REMARK    1  A    between atoms: C1_1  and  C2_2 
REMARK    2  A    between atoms: C2_2  and  C3_3 
ROOT
HETATM    1  C2  UNL     1     -34.725   5.406   3.831  1.00 20.00     0.391 C 
HETATM    2  F5  UNL     1     -34.409   4.549   2.826  1.00 20.00    -0.188 F 
HETATM    3  F6  UNL     1     -35.806   6.112   3.409  1.00 20.00    -0.188 F 
ENDROOT
BRANCH   1   4
HETATM    4  C1  UNL     1     -35.046   4.662   5.097  1.00 20.00     0.319 C 
HETATM    5  O4  UNL     1     -35.014   3.439   5.188  1.00 20.00    -0.300 OA
ENDBRANCH   1   4
BRANCH   1   6
HETATM    6  C3  UNL     1     -33.575   6.357   4.042  1.00 20.00     0.461 C 
HETATM    7  F7  UNL     1     -33.769   7.517   3.378  1.00 20.00    -0.165 F 
HETATM    8  F8  UNL     1     -33.437   6.652   5.353  1.00 20.00    -0.165 F 
HETATM    9  F9  UNL     1     -32.410   5.825   3.617  1.00 20.00    -0.165 F 
ENDBRANCH   1   6
TORSDOF 2
ENDMDL
MODEL 9
REMARK VINA RESULT:      -4.5      1.788      2.375
REMARK  2 active torsions:
REMARK  status: ('A' for Active; 'I' for Inactive)
REMARK    1  A    between atoms: C1_1  and  C2_2 
REMARK    2  A    between atoms: C2_2  and  C3_3 
ROOT
HETATM    1  C2  UNL     1     -34.360   5.574   4.951  1.00 20.00     0.391 C 
HETATM    2  F5  UNL     1     -35.310   5.848   4.019  1.00 20.00    -0.188 F 
HETATM    3  F6  UNL     1     -33.186   5.454   4.280  1.00 20.00    -0.188 F 
ENDROOT
BRANCH   1   4
HETATM    4  C1  UNL     1     -34.271   6.672   5.973  1.00 20.00     0.319 C 
HETATM    5  O4  UNL     1     -33.269   6.887   6.648  1.00 20.00    -0.300 OA
ENDBRANCH   1   4
BRANCH   1   6
HETATM    6  C3  UNL     1     -34.684   4.255   5.604  1.00 20.00     0.461 C 
HETATM    7  F7  UNL     1     -33.603   3.736   6.224  1.00 20.00    -0.165 F 
HETATM    8  F8  UNL     1     -35.655   4.410   6.531  1.00 20.00    -0.165 F 
HETATM    9  F9  UNL     1     -35.119   3.351   4.702  1.00 20.00    -0.165 F 
ENDBRANCH   1   6
TORSDOF 2
ENDMDL
