MODEL 1
REMARK VINA RESULT:      -4.0      0.000      0.000
REMARK  3 active torsions:
REMARK  status: ('A' for Active; 'I' for Inactive)
REMARK    1  A    between atoms: C5_5  and  C7_7 
REMARK    2  A    between atoms: C5_5  and  C8_8 
REMARK    3  A    between atoms: C6_6  and  C8_8 
ROOT
HETATM    1  C3  UNL     1     -32.559  14.656  -3.542  1.00 20.00     0.016 C 
HETATM    2  C4  UNL     1     -34.693  13.458  -4.057  1.00 20.00     0.016 C 
HETATM    3  C8  UNL     1     -34.028  14.852  -3.969  1.00 20.00    -0.035 C 
ENDROOT
BRANCH   3   4
HETATM    4  C5  UNL     1     -34.796  15.652  -2.867  1.00 20.00     0.013 C 
BRANCH   4   5
HETATM    5  C7  UNL     1     -33.958  16.607  -1.983  1.00 20.00    -0.022 C 
HETATM    6  C1  UNL     1     -33.838  18.000  -2.611  1.00 20.00     0.009 C 
HETATM    7  C2  UNL     1     -34.600  16.745  -0.598  1.00 20.00     0.009 C 
ENDBRANCH   4   5
ENDBRANCH   3   4
BRANCH   3   8
HETATM    8  C6  UNL     1     -34.114  15.577  -5.331  1.00 20.00     0.123 C 
HETATM    9 CL9  UNL     1     -34.677  14.548  -6.677  1.00 20.00    -0.130 Cl
ENDBRANCH   3   8
TORSDOF 3
ENDMDL
MODEL 2
REMARK VINA RESULT:      -4.0     10.788     11.675
REMARK  3 active torsions:
REMARK  status: ('A' for Active; 'I' for Inactive)
REMARK    1  A    between atoms: C5_5  and  C7_7 
REMARK    2  A    between atoms: C5_5  and  C8_8 
REMARK    3  A    between atoms: C6_6  and  C8_8 
ROOT
HETATM    1  C3  UNL     1     -31.423   7.742   4.124  1.00 20.00     0.016 C 
HETATM    2  C4  UNL     1     -31.911   5.587   2.951  1.00 20.00     0.016 C 
HETATM    3  C8  UNL     1     -32.409   7.035   3.170  1.00 20.00    -0.035 C 
ENDROOT
BRANCH   3   4
HETATM    4  C5  UNL     1     -33.816   6.935   3.843  1.00 20.00     0.013 C 
BRANCH   4   5
HETATM    5  C7  UNL     1     -34.029   5.780   4.852  1.00 20.00    -0.022 C 
HETATM    6  C1  UNL     1     -34.154   6.299   6.288  1.00 20.00     0.009 C 
HETATM    7  C2  UNL     1     -35.298   4.997   4.498  1.00 20.00     0.009 C 
ENDBRANCH   4   5
ENDBRANCH   3   4
BRANCH   3   8
HETATM    8  C6  UNL     1     -32.501   7.783   1.820  1.00 20.00     0.123 C 
HETATM    9 CL9  UNL     1     -32.500   9.563   1.965  1.00 20.00    -0.130 Cl
ENDBRANCH   3   8
TORSDOF 3
ENDMDL
MODEL 3
REMARK VINA RESULT:      -3.7      0.816      1.558
REMARK  3 active torsions:
REMARK  status: ('A' for Active; 'I' for Inactive)
REMARK    1  A    between atoms: C5_5  and  C7_7 
REMARK    2  A    between atoms: C5_5  and  C8_8 
REMARK    3  A    between atoms: C6_6  and  C8_8 
ROOT
HETATM    1  C3  UNL     1     -33.882  13.623  -3.852  1.00 20.00     0.016 C 
HETATM    2  C4  UNL     1     -35.911  15.044  -3.512  1.00 20.00     0.016 C 
HETATM    3  C8  UNL     1     -34.397  15.077  -3.828  1.00 20.00    -0.035 C 
ENDROOT
BRANCH   3   4
HETATM    4  C5  UNL     1     -33.707  15.863  -2.667  1.00 20.00     0.013 C 
BRANCH   4   5
HETATM    5  C7  UNL     1     -34.520  17.008  -2.016  1.00 20.00    -0.022 C 
HETATM    6  C1  UNL     1     -34.638  16.827  -0.499  1.00 20.00     0.009 C 
HETATM    7  C2  UNL     1     -33.853  18.358  -2.301  1.00 20.00     0.009 C 
ENDBRANCH   4   5
ENDBRANCH   3   4
BRANCH   3   8
HETATM    8  C6  UNL     1     -34.145  15.773  -5.185  1.00 20.00     0.123 C 
HETATM    9 CL9  UNL     1     -34.461  14.744  -6.609  1.00 20.00    -0.130 Cl
ENDBRANCH   3   8
TORSDOF 3
ENDMDL
MODEL 4
REMARK VINA RESULT:      -3.7      2.400      4.356
REMARK  3 active torsions:
REMARK  status: ('A' for Active; 'I' for Inactive)
REMARK    1  A    between atoms: C5_5  and  C7_7 
REMARK    2  A    between atoms: C5_5  and  C8_8 
REMARK    3  A    between atoms: C6_6  and  C8_8 
ROOT
HETATM    1  C3  UNL     1     -34.756  13.330  -4.139  1.00 20.00     0.016 C 
HETATM    2  C4  UNL     1     -33.017  15.062  -3.654  1.00 20.00     0.016 C 
HETATM    3  C8  UNL     1     -34.496  14.849  -4.054  1.00 20.00    -0.035 C 
ENDROOT
BRANCH   3   4
HETATM    4  C5  UNL     1     -34.684  15.496  -5.464  1.00 20.00     0.013 C 
BRANCH   4   5
HETATM    5  C7  UNL     1     -35.578  14.733  -6.471  1.00 20.00    -0.022 C 
HETATM    6  C1  UNL     1     -37.006  15.288  -6.495  1.00 20.00     0.009 C 
HETATM    7  C2  UNL     1     -34.986  14.832  -7.882  1.00 20.00     0.009 C 
ENDBRANCH   4   5
ENDBRANCH   3   4
BRANCH   3   8
HETATM    8  C6  UNL     1     -35.435  15.511  -3.019  1.00 20.00     0.123 C 
HETATM    9 CL9  UNL     1     -34.600  16.155  -1.577  1.00 20.00    -0.130 Cl
ENDBRANCH   3   8
TORSDOF 3
ENDMDL
MODEL 5
REMARK VINA RESULT:      -3.6      1.593      3.224
REMARK  3 active torsions:
REMARK  status: ('A' for Active; 'I' for Inactive)
REMARK    1  A    between atoms: C5_5  and  C7_7 
REMARK    2  A    between atoms: C5_5  and  C8_8 
REMARK    3  A    between atoms: C6_6  and  C8_8 
ROOT
HETATM    1  C3  UNL     1     -32.843  15.126  -3.631  1.00 20.00     0.016 C 
HETATM    2  C4  UNL     1     -34.555  16.009  -2.037  1.00 20.00     0.016 C 
HETATM    3  C8  UNL     1     -34.341  15.453  -3.464  1.00 20.00    -0.035 C 
ENDROOT
BRANCH   3   4
HETATM    4  C5  UNL     1     -34.749  16.587  -4.460  1.00 20.00     0.013 C 
BRANCH   4   5
HETATM    5  C7  UNL     1     -33.813  16.827  -5.670  1.00 20.00    -0.022 C 
HETATM    6  C1  UNL     1     -34.375  16.201  -6.951  1.00 20.00     0.009 C 
HETATM    7  C2  UNL     1     -33.620  18.329  -5.898  1.00 20.00     0.009 C 
ENDBRANCH   4   5
ENDBRANCH   3   4
BRANCH   3   8
HETATM    8  C6  UNL     1     -35.208  14.192  -3.688  1.00 20.00     0.123 C 
HETATM    9 CL9  UNL     1     -34.591  13.091  -4.952  1.00 20.00    -0.130 Cl
ENDBRANCH   3   8
TORSDOF 3
ENDMDL
MODEL 6
REMARK VINA RESULT:      -3.6     11.151     12.113
REMARK  3 active torsions:
REMARK  status: ('A' for Active; 'I' for Inactive)
REMARK    1  A    between atoms: C5_5  and  C7_7 
REMARK    2  A    between atoms: C5_5  and  C8_8 
REMARK    3  A    between atoms: C6_6  and  C8_8 
ROOT
HETATM    1  C3  UNL     1     -35.866   5.847   3.510  1.00 20.00     0.016 C 
HETATM    2  C4  UNL     1     -33.704   4.845   2.751  1.00 20.00     0.016 C 
HETATM    3  C8  UNL     1     -34.352   5.782   3.797  1.00 20.00    -0.035 C 
ENDROOT
BRANCH   3   4
HETATM    4  C5  UNL     1     -33.715   7.196   3.597  1.00 20.00     0.013 C 
BRANCH   4   5
HETATM    5  C7  UNL     1     -32.308   7.245   2.953  1.00 20.00    -0.022 C 
HETATM    6  C1  UNL     1     -32.228   8.307   1.851  1.00 20.00     0.009 C 
HETATM    7  C2  UNL     1     -31.251   7.558   4.017  1.00 20.00     0.009 C 
ENDBRANCH   4   5
ENDBRANCH   3   4
BRANCH   3   8
HETATM    8  C6  UNL     1     -34.084   5.260   5.228  1.00 20.00     0.123 C 
HETATM    9 CL9  UNL     1     -34.016   6.537   6.475  1.00 20.00    -0.130 Cl
ENDBRANCH   3   8
TORSDOF 3
ENDMDL
MODEL 7
REMARK VINA RESULT:      -3.6      1.428      1.956
REMARK  3 active torsions:
REMARK  status: ('A' for Active; 'I' for Inactive)
REMARK    1  A    between atoms: C5_5  and  C7_7 
REMARK    2  A    between atoms: C5_5  and  C8_8 
REMARK    3  A    between atoms: C6_6  and  C8_8 
ROOT
HETATM    1  C3  UNL     1     -33.587  16.532  -5.519  1.00 20.00     0.016 C 
HETATM    2  C4  UNL     1     -32.786  15.218  -3.548  1.00 20.00     0.016 C 
HETATM    3  C8  UNL     1     -33.976  16.027  -4.115  1.00 20.00    -0.035 C 
ENDROOT
BRANCH   3   4
HETATM    4  C5  UNL     1     -34.196  17.244  -3.158  1.00 20.00     0.013 C 
BRANCH   4   5
HETATM    5  C7  UNL     1     -33.676  17.096  -1.707  1.00 20.00    -0.022 C 
HETATM    6  C1  UNL     1     -33.193  18.436  -1.140  1.00 20.00     0.009 C 
HETATM    7  C2  UNL     1     -34.785  16.549  -0.802  1.00 20.00     0.009 C 
ENDBRANCH   4   5
ENDBRANCH   3   4
BRANCH   3   8
HETATM    8  C6  UNL     1     -35.245  15.147  -4.178  1.00 20.00     0.123 C 
HETATM    9 CL9  UNL     1     -34.933  13.396  -4.012  1.00 20.00    -0.130 Cl
ENDBRANCH   3   8
TORSDOF 3
ENDMDL
MODEL 8
REMARK VINA RESULT:      -3.6      1.837      2.893
REMARK  3 active torsions:
REMARK  status: ('A' for Active; 'I' for Inactive)
REMARK    1  A    between atoms: C5_5  and  C7_7 
REMARK    2  A    between atoms: C5_5  and  C8_8 
REMARK    3  A    between atoms: C6_6  and  C8_8 
ROOT
HETATM    1  C3  UNL     1     -36.003  17.353  -3.130  1.00 20.00     0.016 C 
HETATM    2  C4  UNL     1     -33.642  16.772  -3.712  1.00 20.00     0.016 C 
HETATM    3  C8  UNL     1     -34.884  16.315  -2.911  1.00 20.00    -0.035 C 
ENDROOT
BRANCH   3   4
HETATM    4  C5  UNL     1     -34.470  16.294  -1.404  1.00 20.00     0.013 C 
BRANCH   4   5
HETATM    5  C7  UNL     1     -34.524  17.641  -0.644  1.00 20.00    -0.022 C 
HETATM    6  C1  UNL     1     -35.209  17.494   0.720  1.00 20.00     0.009 C 
HETATM    7  C2  UNL     1     -33.107  18.183  -0.428  1.00 20.00     0.009 C 
ENDBRANCH   4   5
ENDBRANCH   3   4
BRANCH   3   8
HETATM    8  C6  UNL     1     -35.336  14.911  -3.373  1.00 20.00     0.123 C 
HETATM    9 CL9  UNL     1     -34.003  13.743  -3.587  1.00 20.00    -0.130 Cl
ENDBRANCH   3   8
TORSDOF 3
ENDMDL
MODEL 9
REMARK VINA RESULT:      -3.5      1.649      2.146
REMARK  3 active torsions:
REMARK  status: ('A' for Active; 'I' for Inactive)
REMARK    1  A    between atoms: C5_5  and  C7_7 
REMARK    2  A    between atoms: C5_5  and  C8_8 
REMARK    3  A    between atoms: C6_6  and  C8_8 
ROOT
HETATM    1  C3  UNL     1     -35.500  13.437  -4.238  1.00 20.00     0.016 C 
HETATM    2  C4  UNL     1     -37.672  14.673  -4.152  1.00 20.00     0.016 C 
HETATM    3  C8  UNL     1     -36.191  14.770  -4.589  1.00 20.00    -0.035 C 
ENDROOT
BRANCH   3   4
HETATM    4  C5  UNL     1     -35.549  15.932  -3.764  1.00 20.00     0.013 C 
BRANCH   4   5
HETATM    5  C7  UNL     1     -34.463  15.541  -2.732  1.00 20.00    -0.022 C 
HETATM    6  C1  UNL     1     -33.051  15.785  -3.276  1.00 20.00     0.009 C 
HETATM    7  C2  UNL     1     -34.642  16.351  -1.444  1.00 20.00     0.009 C 
ENDBRANCH   4   5
ENDBRANCH   3   4
BRANCH   3   8
HETATM    8  C6  UNL     1     -36.094  15.058  -6.105  1.00 20.00     0.123 C 
HETATM    9 CL9  UNL     1     -34.425  15.103  -6.739  1.00 20.00    -0.130 Cl
ENDBRANCH   3   8
TORSDOF 3
ENDMDL
