MODEL 1
REMARK VINA RESULT:      -2.9      0.000      0.000
REMARK  0 active torsions:
REMARK  status: ('A' for Active; 'I' for Inactive)
ROOT
HETATM    1  C1  UNL     1     -34.297   6.352   5.975  1.00 20.00     0.044 C 
HETATM    2  C2  UNL     1     -35.694   5.669   3.987  1.00 20.00     0.044 C 
HETATM    3  C3  UNL     1     -34.397   5.451   4.752  1.00 20.00     0.087 C 
HETATM    4 CL4  UNL     1     -34.265   3.741   5.246  1.00 20.00    -0.107 Cl
HETATM    5 BR5  UNL     1     -32.894   5.854   3.557  1.00 20.00    -0.069 Br
ENDROOT
TORSDOF 0
ENDMDL
MODEL 2
REMARK VINA RESULT:      -2.9      1.481      2.057
REMARK  0 active torsions:
REMARK  status: ('A' for Active; 'I' for Inactive)
ROOT
HETATM    1  C1  UNL     1     -35.726   5.686   4.037  1.00 20.00     0.044 C 
HETATM    2  C2  UNL     1     -34.291   3.981   5.221  1.00 20.00     0.044 C 
HETATM    3  C3  UNL     1     -34.422   5.432   4.781  1.00 20.00     0.087 C 
HETATM    4 CL4  UNL     1     -34.314   6.508   6.200  1.00 20.00    -0.107 Cl
HETATM    5 BR5  UNL     1     -32.928   5.857   3.583  1.00 20.00    -0.069 Br
ENDROOT
TORSDOF 0
ENDMDL
MODEL 3
REMARK VINA RESULT:      -2.8      1.490      2.069
REMARK  0 active torsions:
REMARK  status: ('A' for Active; 'I' for Inactive)
ROOT
HETATM    1  C1  UNL     1     -34.332   3.958   5.123  1.00 20.00     0.044 C 
HETATM    2  C2  UNL     1     -34.350   6.330   5.983  1.00 20.00     0.044 C 
HETATM    3  C3  UNL     1     -34.424   5.433   4.756  1.00 20.00     0.087 C 
HETATM    4 CL4  UNL     1     -35.940   5.744   3.869  1.00 20.00    -0.107 Cl
HETATM    5 BR5  UNL     1     -32.925   5.875   3.570  1.00 20.00    -0.069 Br
ENDROOT
TORSDOF 0
ENDMDL
MODEL 4
REMARK VINA RESULT:      -2.8      1.987      2.196
REMARK  0 active torsions:
REMARK  status: ('A' for Active; 'I' for Inactive)
ROOT
HETATM    1  C1  UNL     1     -34.490   3.812   5.103  1.00 20.00     0.044 C 
HETATM    2  C2  UNL     1     -35.724   5.705   3.979  1.00 20.00     0.044 C 
HETATM    3  C3  UNL     1     -34.442   5.273   4.675  1.00 20.00     0.087 C 
HETATM    4 CL4  UNL     1     -33.046   5.543   3.597  1.00 20.00    -0.107 Cl
HETATM    5 BR5  UNL     1     -34.197   6.383   6.274  1.00 20.00    -0.069 Br
ENDROOT
TORSDOF 0
ENDMDL
MODEL 5
REMARK VINA RESULT:      -2.8      2.179      2.498
REMARK  0 active torsions:
REMARK  status: ('A' for Active; 'I' for Inactive)
ROOT
HETATM    1  C1  UNL     1     -33.323   5.485   3.698  1.00 20.00     0.044 C 
HETATM    2  C2  UNL     1     -34.655   3.834   5.064  1.00 20.00     0.044 C 
HETATM    3  C3  UNL     1     -34.508   5.286   4.632  1.00 20.00     0.087 C 
HETATM    4 CL4  UNL     1     -36.008   5.836   3.836  1.00 20.00    -0.107 Cl
HETATM    5 BR5  UNL     1     -34.233   6.387   6.232  1.00 20.00    -0.069 Br
ENDROOT
TORSDOF 0
ENDMDL
MODEL 6
REMARK VINA RESULT:      -2.7      1.561      2.088
REMARK  0 active torsions:
REMARK  status: ('A' for Active; 'I' for Inactive)
ROOT
HETATM    1  C1  UNL     1     -35.774   5.771   3.938  1.00 20.00     0.044 C 
HETATM    2  C2  UNL     1     -33.279   5.502   3.669  1.00 20.00     0.044 C 
HETATM    3  C3  UNL     1     -34.474   5.326   4.594  1.00 20.00     0.087 C 
HETATM    4 CL4  UNL     1     -34.603   3.619   5.099  1.00 20.00    -0.107 Cl
HETATM    5 BR5  UNL     1     -34.183   6.413   6.201  1.00 20.00    -0.069 Br
ENDROOT
TORSDOF 0
ENDMDL
MODEL 7
REMARK VINA RESULT:      -2.6      1.927      2.502
REMARK  0 active torsions:
REMARK  status: ('A' for Active; 'I' for Inactive)
ROOT
HETATM    1  C1  UNL     1     -35.605   5.858   3.882  1.00 20.00     0.044 C 
HETATM    2  C2  UNL     1     -34.196   6.553   5.857  1.00 20.00     0.044 C 
HETATM    3  C3  UNL     1     -34.345   5.584   4.693  1.00 20.00     0.087 C 
HETATM    4 CL4  UNL     1     -32.911   5.681   3.635  1.00 20.00    -0.107 Cl
HETATM    5 BR5  UNL     1     -34.448   3.760   5.409  1.00 20.00    -0.069 Br
ENDROOT
TORSDOF 0
ENDMDL
MODEL 8
REMARK VINA RESULT:      -2.6      2.109      2.288
REMARK  0 active torsions:
REMARK  status: ('A' for Active; 'I' for Inactive)
ROOT
HETATM    1  C1  UNL     1     -33.140   5.724   3.781  1.00 20.00     0.044 C 
HETATM    2  C2  UNL     1     -35.653   5.909   3.922  1.00 20.00     0.044 C 
HETATM    3  C3  UNL     1     -34.366   5.606   4.676  1.00 20.00     0.087 C 
HETATM    4 CL4  UNL     1     -34.208   6.707   6.071  1.00 20.00    -0.107 Cl
HETATM    5 BR5  UNL     1     -34.464   3.770   5.361  1.00 20.00    -0.069 Br
ENDROOT
TORSDOF 0
ENDMDL
MODEL 9
REMARK VINA RESULT:      -2.6      9.613      9.741
REMARK  0 active torsions:
REMARK  status: ('A' for Active; 'I' for Inactive)
ROOT
HETATM    1  C1  UNL     1     -41.008   7.073  -0.861  1.00 20.00     0.044 C 
HETATM    2  C2  UNL     1     -40.700   4.576  -1.053  1.00 20.00     0.044 C 
HETATM    3  C3  UNL     1     -41.698   5.724  -1.008  1.00 20.00     0.087 C 
HETATM    4 CL4  UNL     1     -42.701   5.713  -2.484  1.00 20.00    -0.107 Cl
HETATM    5 BR5  UNL     1     -42.883   5.459   0.533  1.00 20.00    -0.069 Br
ENDROOT
TORSDOF 0
ENDMDL
