MODEL 1
REMARK VINA RESULT:      -5.3      0.000      0.000
REMARK  1 active torsions:
REMARK  status: ('A' for Active; 'I' for Inactive)
REMARK    1  A    between atoms: C2_2  and  C3_3 
ROOT
HETATM    1  C1  UNL     1     -33.865   5.719   3.893  1.00 20.00     0.147 C 
HETATM    2  C2  UNL     1     -34.880   4.980   4.637  1.00 20.00     0.425 C 
HETATM    3  N4  UNL     1     -33.059   6.307   3.301  1.00 20.00    -0.191 NA
HETATM    4  F5  UNL     1     -34.822   3.672   4.280  1.00 20.00    -0.179 F 
HETATM    5  F6  UNL     1     -36.107   5.431   4.276  1.00 20.00    -0.179 F 
ENDROOT
BRANCH   2   6
HETATM    6  C3  UNL     1     -34.727   5.095   6.131  1.00 20.00     0.469 C 
HETATM    7  F7  UNL     1     -33.693   4.340   6.562  1.00 20.00    -0.164 F 
HETATM    8  F8  UNL     1     -34.489   6.369   6.508  1.00 20.00    -0.164 F 
HETATM    9  F9  UNL     1     -35.837   4.673   6.775  1.00 20.00    -0.164 F 
ENDBRANCH   2   6
TORSDOF 1
ENDMDL
MODEL 2
REMARK VINA RESULT:      -5.0      1.482      2.855
REMARK  1 active torsions:
REMARK  status: ('A' for Active; 'I' for Inactive)
REMARK    1  A    between atoms: C2_2  and  C3_3 
ROOT
HETATM    1  C1  UNL     1     -34.086   6.206   6.358  1.00 20.00     0.147 C 
HETATM    2  C2  UNL     1     -34.655   4.911   6.001  1.00 20.00     0.425 C 
HETATM    3  N4  UNL     1     -33.634   7.235   6.644  1.00 20.00    -0.191 NA
HETATM    4  F5  UNL     1     -35.794   4.717   6.714  1.00 20.00    -0.179 F 
HETATM    5  F6  UNL     1     -33.790   3.932   6.370  1.00 20.00    -0.179 F 
ENDROOT
BRANCH   2   6
HETATM    6  C3  UNL     1     -34.959   4.777   4.532  1.00 20.00     0.469 C 
HETATM    7  F7  UNL     1     -35.012   3.474   4.175  1.00 20.00    -0.164 F 
HETATM    8  F8  UNL     1     -36.147   5.336   4.220  1.00 20.00    -0.164 F 
HETATM    9  F9  UNL     1     -34.010   5.370   3.775  1.00 20.00    -0.164 F 
ENDBRANCH   2   6
TORSDOF 1
ENDMDL
MODEL 3
REMARK VINA RESULT:      -4.8      0.736      2.053
REMARK  1 active torsions:
REMARK  status: ('A' for Active; 'I' for Inactive)
REMARK    1  A    between atoms: C2_2  and  C3_3 
ROOT
HETATM    1  C1  UNL     1     -33.320   5.884   3.984  1.00 20.00     0.147 C 
HETATM    2  C2  UNL     1     -34.522   5.792   4.806  1.00 20.00     0.425 C 
HETATM    3  N4  UNL     1     -32.364   5.959   3.330  1.00 20.00    -0.191 NA
HETATM    4  F5  UNL     1     -35.605   6.061   4.033  1.00 20.00    -0.179 F 
HETATM    5  F6  UNL     1     -34.476   6.752   5.763  1.00 20.00    -0.179 F 
ENDROOT
BRANCH   2   6
HETATM    6  C3  UNL     1     -34.697   4.447   5.459  1.00 20.00     0.469 C 
HETATM    7  F7  UNL     1     -35.606   4.519   6.456  1.00 20.00    -0.164 F 
HETATM    8  F8  UNL     1     -35.129   3.521   4.577  1.00 20.00    -0.164 F 
HETATM    9  F9  UNL     1     -33.539   4.002   5.993  1.00 20.00    -0.164 F 
ENDBRANCH   2   6
TORSDOF 1
ENDMDL
MODEL 4
REMARK VINA RESULT:      -4.8      2.188      3.125
REMARK  1 active torsions:
REMARK  status: ('A' for Active; 'I' for Inactive)
REMARK    1  A    between atoms: C2_2  and  C3_3 
ROOT
HETATM    1  C1  UNL     1     -33.957   6.364   5.516  1.00 20.00     0.147 C 
HETATM    2  C2  UNL     1     -33.812   6.224   4.071  1.00 20.00     0.425 C 
HETATM    3  N4  UNL     1     -34.072   6.476   6.666  1.00 20.00    -0.191 NA
HETATM    4  F5  UNL     1     -32.548   5.814   3.793  1.00 20.00    -0.179 F 
HETATM    5  F6  UNL     1     -33.965   7.441   3.493  1.00 20.00    -0.179 F 
ENDROOT
BRANCH   2   6
HETATM    6  C3  UNL     1     -34.793   5.258   3.463  1.00 20.00     0.469 C 
HETATM    7  F7  UNL     1     -34.382   4.873   2.235  1.00 20.00    -0.164 F 
HETATM    8  F8  UNL     1     -34.926   4.146   4.217  1.00 20.00    -0.164 F 
HETATM    9  F9  UNL     1     -36.017   5.815   3.329  1.00 20.00    -0.164 F 
ENDBRANCH   2   6
TORSDOF 1
ENDMDL
MODEL 5
REMARK VINA RESULT:      -4.7      2.335      2.979
REMARK  1 active torsions:
REMARK  status: ('A' for Active; 'I' for Inactive)
REMARK    1  A    between atoms: C2_2  and  C3_3 
ROOT
HETATM    1  C1  UNL     1     -34.903   4.452   4.695  1.00 20.00     0.147 C 
HETATM    2  C2  UNL     1     -34.640   5.418   3.634  1.00 20.00     0.425 C 
HETATM    3  N4  UNL     1     -35.113   3.682   5.538  1.00 20.00    -0.191 NA
HETATM    4  F5  UNL     1     -35.774   6.121   3.386  1.00 20.00    -0.179 F 
HETATM    5  F6  UNL     1     -34.337   4.749   2.493  1.00 20.00    -0.179 F 
ENDROOT
BRANCH   2   6
HETATM    6  C3  UNL     1     -33.523   6.374   3.960  1.00 20.00     0.469 C 
HETATM    7  F7  UNL     1     -32.332   5.861   3.579  1.00 20.00    -0.164 F 
HETATM    8  F8  UNL     1     -33.682   7.555   3.327  1.00 20.00    -0.164 F 
HETATM    9  F9  UNL     1     -33.456   6.620   5.287  1.00 20.00    -0.164 F 
ENDBRANCH   2   6
TORSDOF 1
ENDMDL
MODEL 6
REMARK VINA RESULT:      -4.7      2.334      3.130
REMARK  1 active torsions:
REMARK  status: ('A' for Active; 'I' for Inactive)
REMARK    1  A    between atoms: C2_2  and  C3_3 
ROOT
HETATM    1  C1  UNL     1     -34.907   4.454   4.702  1.00 20.00     0.147 C 
HETATM    2  C2  UNL     1     -34.643   5.415   3.636  1.00 20.00     0.425 C 
HETATM    3  N4  UNL     1     -35.117   3.690   5.549  1.00 20.00    -0.191 NA
HETATM    4  F5  UNL     1     -35.775   6.123   3.391  1.00 20.00    -0.179 F 
HETATM    5  F6  UNL     1     -34.349   4.739   2.497  1.00 20.00    -0.179 F 
ENDROOT
BRANCH   2   6
HETATM    6  C3  UNL     1     -33.520   6.366   3.954  1.00 20.00     0.469 C 
HETATM    7  F7  UNL     1     -33.469   6.614   5.281  1.00 20.00    -0.164 F 
HETATM    8  F8  UNL     1     -32.323   5.860   3.586  1.00 20.00    -0.164 F 
HETATM    9  F9  UNL     1     -33.681   7.549   3.322  1.00 20.00    -0.164 F 
ENDBRANCH   2   6
TORSDOF 1
ENDMDL
MODEL 7
REMARK VINA RESULT:      -4.6      1.361      2.781
REMARK  1 active torsions:
REMARK  status: ('A' for Active; 'I' for Inactive)
REMARK    1  A    between atoms: C2_2  and  C3_3 
ROOT
HETATM    1  C1  UNL     1     -32.892   6.451   3.951  1.00 20.00     0.147 C 
HETATM    2  C2  UNL     1     -34.005   5.855   4.682  1.00 20.00     0.425 C 
HETATM    3  N4  UNL     1     -32.006   6.926   3.371  1.00 20.00    -0.191 NA
HETATM    4  F5  UNL     1     -34.658   6.832   5.363  1.00 20.00    -0.179 F 
HETATM    5  F6  UNL     1     -33.514   4.994   5.608  1.00 20.00    -0.179 F 
ENDROOT
BRANCH   2   6
HETATM    6  C3  UNL     1     -34.981   5.129   3.795  1.00 20.00     0.469 C 
HETATM    7  F7  UNL     1     -34.463   4.960   2.558  1.00 20.00    -0.164 F 
HETATM    8  F8  UNL     1     -35.280   3.907   4.284  1.00 20.00    -0.164 F 
HETATM    9  F9  UNL     1     -36.136   5.817   3.664  1.00 20.00    -0.164 F 
ENDBRANCH   2   6
TORSDOF 1
ENDMDL
MODEL 8
REMARK VINA RESULT:      -4.6      1.829      2.514
REMARK  1 active torsions:
REMARK  status: ('A' for Active; 'I' for Inactive)
REMARK    1  A    between atoms: C2_2  and  C3_3 
ROOT
HETATM    1  C1  UNL     1     -33.744   6.618   5.838  1.00 20.00     0.147 C 
HETATM    2  C2  UNL     1     -34.096   5.996   4.566  1.00 20.00     0.425 C 
HETATM    3  N4  UNL     1     -33.463   7.114   6.849  1.00 20.00    -0.191 NA
HETATM    4  F5  UNL     1     -32.987   5.423   4.034  1.00 20.00    -0.179 F 
HETATM    5  F6  UNL     1     -34.492   6.961   3.698  1.00 20.00    -0.179 F 
ENDROOT
BRANCH   2   6
HETATM    6  C3  UNL     1     -35.182   4.961   4.687  1.00 20.00     0.469 C 
HETATM    7  F7  UNL     1     -35.553   4.811   5.978  1.00 20.00    -0.164 F 
HETATM    8  F8  UNL     1     -36.280   5.310   3.984  1.00 20.00    -0.164 F 
HETATM    9  F9  UNL     1     -34.769   3.756   4.238  1.00 20.00    -0.164 F 
ENDBRANCH   2   6
TORSDOF 1
ENDMDL
MODEL 9
REMARK VINA RESULT:      -4.5      2.593      3.542
REMARK  1 active torsions:
REMARK  status: ('A' for Active; 'I' for Inactive)
REMARK    1  A    between atoms: C2_2  and  C3_3 
ROOT
HETATM    1  C1  UNL     1     -34.626   4.981   4.701  1.00 20.00     0.147 C 
HETATM    2  C2  UNL     1     -33.956   6.230   4.355  1.00 20.00     0.425 C 
HETATM    3  N4  UNL     1     -35.159   3.988   4.978  1.00 20.00    -0.191 NA
HETATM    4  F5  UNL     1     -33.245   6.661   5.428  1.00 20.00    -0.179 F 
HETATM    5  F6  UNL     1     -34.894   7.177   4.101  1.00 20.00    -0.179 F 
ENDROOT
BRANCH   2   6
HETATM    6  C3  UNL     1     -33.039   6.106   3.167  1.00 20.00     0.469 C 
HETATM    7  F7  UNL     1     -33.564   5.266   2.248  1.00 20.00    -0.164 F 
HETATM    8  F8  UNL     1     -32.843   7.300   2.567  1.00 20.00    -0.164 F 
HETATM    9  F9  UNL     1     -31.831   5.619   3.525  1.00 20.00    -0.164 F 
ENDBRANCH   2   6
TORSDOF 1
ENDMDL
