MODEL 1
REMARK VINA RESULT:      -5.3      0.000      0.000
REMARK  2 active torsions:
REMARK  status: ('A' for Active; 'I' for Inactive)
REMARK    1  A    between atoms: C1_1  and  C2_2 
REMARK    2  A    between atoms: C1_1  and  C3_3 
ROOT
HETATM    1  C1  UNL     1     -34.042   6.016   4.745  1.00 20.00     0.188 C 
ENDROOT
BRANCH   1   2
HETATM    2  C2  UNL     1     -34.503   5.935   6.186  1.00 20.00     0.361 C 
HETATM    3  F4  UNL     1     -34.024   7.005   6.870  1.00 20.00    -0.214 F 
HETATM    4  F5  UNL     1     -33.980   4.832   6.778  1.00 20.00    -0.214 F 
ENDBRANCH   1   2
BRANCH   1   5
HETATM    5  C3  UNL     1     -34.905   5.188   3.819  1.00 20.00     0.392 C 
HETATM    6  F6  UNL     1     -35.128   3.956   4.322  1.00 20.00    -0.171 F 
HETATM    7  F7  UNL     1     -36.101   5.776   3.605  1.00 20.00    -0.171 F 
HETATM    8  F8  UNL     1     -34.302   5.037   2.619  1.00 20.00    -0.171 F 
ENDBRANCH   1   5
TORSDOF 2
ENDMDL
MODEL 2
REMARK VINA RESULT:      -5.1      1.423      3.111
REMARK  2 active torsions:
REMARK  status: ('A' for Active; 'I' for Inactive)
REMARK    1  A    between atoms: C1_1  and  C2_2 
REMARK    2  A    between atoms: C1_1  and  C3_3 
ROOT
HETATM    1  C1  UNL     1     -35.235   4.969   4.560  1.00 20.00     0.188 C 
ENDROOT
BRANCH   1   2
HETATM    2  C2  UNL     1     -34.132   5.623   3.753  1.00 20.00     0.361 C 
HETATM    3  F4  UNL     1     -34.285   6.971   3.797  1.00 20.00    -0.214 F 
HETATM    4  F5  UNL     1     -34.238   5.264   2.449  1.00 20.00    -0.214 F 
ENDBRANCH   1   2
BRANCH   1   5
HETATM    5  C3  UNL     1     -34.840   4.753   6.003  1.00 20.00     0.392 C 
HETATM    6  F6  UNL     1     -34.642   5.925   6.642  1.00 20.00    -0.171 F 
HETATM    7  F7  UNL     1     -35.787   4.066   6.675  1.00 20.00    -0.171 F 
HETATM    8  F8  UNL     1     -33.690   4.046   6.078  1.00 20.00    -0.171 F 
ENDBRANCH   1   5
TORSDOF 2
ENDMDL
MODEL 3
REMARK VINA RESULT:      -5.1      1.425      3.126
REMARK  2 active torsions:
REMARK  status: ('A' for Active; 'I' for Inactive)
REMARK    1  A    between atoms: C1_1  and  C2_2 
REMARK    2  A    between atoms: C1_1  and  C3_3 
ROOT
HETATM    1  C1  UNL     1     -35.226   4.995   4.562  1.00 20.00     0.188 C 
ENDROOT
BRANCH   1   2
HETATM    2  C2  UNL     1     -34.114   5.636   3.757  1.00 20.00     0.361 C 
HETATM    3  F4  UNL     1     -34.260   6.985   3.788  1.00 20.00    -0.214 F 
HETATM    4  F5  UNL     1     -34.212   5.266   2.456  1.00 20.00    -0.214 F 
ENDBRANCH   1   2
BRANCH   1   5
HETATM    5  C3  UNL     1     -34.832   4.766   6.004  1.00 20.00     0.392 C 
HETATM    6  F6  UNL     1     -33.696   4.044   6.097  1.00 20.00    -0.171 F 
HETATM    7  F7  UNL     1     -34.639   5.934   6.652  1.00 20.00    -0.171 F 
HETATM    8  F8  UNL     1     -35.802   4.090   6.658  1.00 20.00    -0.171 F 
ENDBRANCH   1   5
TORSDOF 2
ENDMDL
MODEL 4
REMARK VINA RESULT:      -5.0      1.433      3.163
REMARK  2 active torsions:
REMARK  status: ('A' for Active; 'I' for Inactive)
REMARK    1  A    between atoms: C1_1  and  C2_2 
REMARK    2  A    between atoms: C1_1  and  C3_3 
ROOT
HETATM    1  C1  UNL     1     -35.224   4.968   4.561  1.00 20.00     0.188 C 
ENDROOT
BRANCH   1   2
HETATM    2  C2  UNL     1     -34.114   5.617   3.760  1.00 20.00     0.361 C 
HETATM    3  F4  UNL     1     -34.259   6.966   3.808  1.00 20.00    -0.214 F 
HETATM    4  F5  UNL     1     -34.216   5.263   2.455  1.00 20.00    -0.214 F 
ENDBRANCH   1   2
BRANCH   1   5
HETATM    5  C3  UNL     1     -34.826   4.722   5.999  1.00 20.00     0.392 C 
HETATM    6  F6  UNL     1     -35.794   4.068   6.675  1.00 20.00    -0.171 F 
HETATM    7  F7  UNL     1     -33.694   3.992   6.078  1.00 20.00    -0.171 F 
HETATM    8  F8  UNL     1     -34.602   5.894   6.635  1.00 20.00    -0.171 F 
ENDBRANCH   1   5
TORSDOF 2
ENDMDL
MODEL 5
REMARK VINA RESULT:      -5.0      1.446      2.133
REMARK  2 active torsions:
REMARK  status: ('A' for Active; 'I' for Inactive)
REMARK    1  A    between atoms: C1_1  and  C2_2 
REMARK    2  A    between atoms: C1_1  and  C3_3 
ROOT
HETATM    1  C1  UNL     1     -35.160   4.998   4.521  1.00 20.00     0.188 C 
ENDROOT
BRANCH   1   2
HETATM    2  C2  UNL     1     -34.679   4.813   5.946  1.00 20.00     0.361 C 
HETATM    3  F4  UNL     1     -35.518   3.965   6.594  1.00 20.00    -0.214 F 
HETATM    4  F5  UNL     1     -34.734   5.994   6.610  1.00 20.00    -0.214 F 
ENDBRANCH   1   2
BRANCH   1   5
HETATM    5  C3  UNL     1     -34.162   5.752   3.672  1.00 20.00     0.392 C 
HETATM    6  F6  UNL     1     -32.905   5.608   4.141  1.00 20.00    -0.171 F 
HETATM    7  F7  UNL     1     -34.182   5.323   2.392  1.00 20.00    -0.171 F 
HETATM    8  F8  UNL     1     -34.448   7.073   3.666  1.00 20.00    -0.171 F 
ENDBRANCH   1   5
TORSDOF 2
ENDMDL
MODEL 6
REMARK VINA RESULT:      -5.0      0.852      3.284
REMARK  2 active torsions:
REMARK  status: ('A' for Active; 'I' for Inactive)
REMARK    1  A    between atoms: C1_1  and  C2_2 
REMARK    2  A    between atoms: C1_1  and  C3_3 
ROOT
HETATM    1  C1  UNL     1     -34.118   5.770   4.814  1.00 20.00     0.188 C 
ENDROOT
BRANCH   1   2
HETATM    2  C2  UNL     1     -34.856   5.128   3.656  1.00 20.00     0.361 C 
HETATM    3  F4  UNL     1     -34.129   5.287   2.521  1.00 20.00    -0.214 F 
HETATM    4  F5  UNL     1     -36.037   5.761   3.452  1.00 20.00    -0.214 F 
ENDBRANCH   1   2
BRANCH   1   5
HETATM    5  C3  UNL     1     -34.557   5.217   6.151  1.00 20.00     0.392 C 
HETATM    6  F6  UNL     1     -33.613   4.417   6.689  1.00 20.00    -0.171 F 
HETATM    7  F7  UNL     1     -34.817   6.207   7.031  1.00 20.00    -0.171 F 
HETATM    8  F8  UNL     1     -35.685   4.485   6.014  1.00 20.00    -0.171 F 
ENDBRANCH   1   5
TORSDOF 2
ENDMDL
MODEL 7
REMARK VINA RESULT:      -4.9      1.603      2.544
REMARK  2 active torsions:
REMARK  status: ('A' for Active; 'I' for Inactive)
REMARK    1  A    between atoms: C1_1  and  C2_2 
REMARK    2  A    between atoms: C1_1  and  C3_3 
ROOT
HETATM    1  C1  UNL     1     -33.931   6.104   4.703  1.00 20.00     0.188 C 
ENDROOT
BRANCH   1   2
HETATM    2  C2  UNL     1     -34.914   4.953   4.779  1.00 20.00     0.361 C 
HETATM    3  F4  UNL     1     -36.039   5.282   4.095  1.00 20.00    -0.214 F 
HETATM    4  F5  UNL     1     -35.288   4.748   6.066  1.00 20.00    -0.214 F 
ENDBRANCH   1   2
BRANCH   1   5
HETATM    5  C3  UNL     1     -33.209   6.156   3.375  1.00 20.00     0.392 C 
HETATM    6  F6  UNL     1     -31.939   5.715   3.486  1.00 20.00    -0.171 F 
HETATM    7  F7  UNL     1     -33.834   5.402   2.447  1.00 20.00    -0.171 F 
HETATM    8  F8  UNL     1     -33.164   7.424   2.910  1.00 20.00    -0.171 F 
ENDBRANCH   1   5
TORSDOF 2
ENDMDL
MODEL 8
REMARK VINA RESULT:      -4.9      1.604      2.499
REMARK  2 active torsions:
REMARK  status: ('A' for Active; 'I' for Inactive)
REMARK    1  A    between atoms: C1_1  and  C2_2 
REMARK    2  A    between atoms: C1_1  and  C3_3 
ROOT
HETATM    1  C1  UNL     1     -33.926   6.104   4.708  1.00 20.00     0.188 C 
ENDROOT
BRANCH   1   2
HETATM    2  C2  UNL     1     -34.913   4.956   4.780  1.00 20.00     0.361 C 
HETATM    3  F4  UNL     1     -36.036   5.290   4.095  1.00 20.00    -0.214 F 
HETATM    4  F5  UNL     1     -35.290   4.750   6.066  1.00 20.00    -0.214 F 
ENDBRANCH   1   2
BRANCH   1   5
HETATM    5  C3  UNL     1     -33.215   6.167   3.375  1.00 20.00     0.392 C 
HETATM    6  F6  UNL     1     -33.829   5.399   2.451  1.00 20.00    -0.171 F 
HETATM    7  F7  UNL     1     -33.168   7.431   2.903  1.00 20.00    -0.171 F 
HETATM    8  F8  UNL     1     -31.943   5.727   3.495  1.00 20.00    -0.171 F 
ENDBRANCH   1   5
TORSDOF 2
ENDMDL
MODEL 9
REMARK VINA RESULT:      -4.9      1.374      3.101
REMARK  2 active torsions:
REMARK  status: ('A' for Active; 'I' for Inactive)
REMARK    1  A    between atoms: C1_1  and  C2_2 
REMARK    2  A    between atoms: C1_1  and  C3_3 
ROOT
HETATM    1  C1  UNL     1     -33.829   5.580   4.755  1.00 20.00     0.188 C 
ENDROOT
BRANCH   1   2
HETATM    2  C2  UNL     1     -33.649   6.075   3.333  1.00 20.00     0.361 C 
HETATM    3  F4  UNL     1     -34.006   5.091   2.470  1.00 20.00    -0.214 F 
HETATM    4  F5  UNL     1     -32.340   6.341   3.098  1.00 20.00    -0.214 F 
ENDBRANCH   1   2
BRANCH   1   5
HETATM    5  C3  UNL     1     -35.128   4.829   4.940  1.00 20.00     0.392 C 
HETATM    6  F6  UNL     1     -36.107   5.333   4.161  1.00 20.00    -0.171 F 
HETATM    7  F7  UNL     1     -34.986   3.521   4.639  1.00 20.00    -0.171 F 
HETATM    8  F8  UNL     1     -35.543   4.910   6.224  1.00 20.00    -0.171 F 
ENDBRANCH   1   5
TORSDOF 2
ENDMDL
