MODEL 1
REMARK VINA RESULT:      -5.7      0.000      0.000
REMARK  2 active torsions:
REMARK  status: ('A' for Active; 'I' for Inactive)
REMARK    1  A    between atoms: C1_1  and  C3_3 
REMARK    2  A    between atoms: C2_2  and  C4_4 
ROOT
HETATM    1  C1  UNL     1     -33.087   6.455   3.986  1.00 20.00     0.017 C 
HETATM    2  C2  UNL     1     -33.815   5.845   4.720  1.00 20.00     0.017 C 
ENDROOT
BRANCH   1   3
HETATM    3  C3  UNL     1     -32.206   7.191   3.098  1.00 20.00     0.459 C 
HETATM    4  F5  UNL     1     -31.707   6.383   2.136  1.00 20.00    -0.159 F 
HETATM    5  F6  UNL     1     -32.865   8.203   2.494  1.00 20.00    -0.159 F 
HETATM    6  F7  UNL     1     -31.165   7.718   3.781  1.00 20.00    -0.159 F 
ENDBRANCH   1   3
BRANCH   2   7
HETATM    7  C4  UNL     1     -34.694   5.107   5.609  1.00 20.00     0.459 C 
HETATM    8  F8  UNL     1     -35.861   4.811   4.993  1.00 20.00    -0.159 F 
HETATM    9  F9  UNL     1     -34.977   5.829   6.716  1.00 20.00    -0.159 F 
HETATM   10  F10 UNL     1     -34.123   3.947   6.000  1.00 20.00    -0.159 F 
ENDBRANCH   2   7
TORSDOF 2
ENDMDL
MODEL 2
REMARK VINA RESULT:      -5.7      0.002      1.199
REMARK  2 active torsions:
REMARK  status: ('A' for Active; 'I' for Inactive)
REMARK    1  A    between atoms: C1_1  and  C3_3 
REMARK    2  A    between atoms: C2_2  and  C4_4 
ROOT
HETATM    1  C1  UNL     1     -33.087   6.454   3.987  1.00 20.00     0.017 C 
HETATM    2  C2  UNL     1     -33.815   5.844   4.721  1.00 20.00     0.017 C 
ENDROOT
BRANCH   1   3
HETATM    3  C3  UNL     1     -32.206   7.189   3.099  1.00 20.00     0.459 C 
HETATM    4  F5  UNL     1     -31.707   6.382   2.137  1.00 20.00    -0.159 F 
HETATM    5  F6  UNL     1     -32.866   8.202   2.493  1.00 20.00    -0.159 F 
HETATM    6  F7  UNL     1     -31.166   7.718   3.782  1.00 20.00    -0.159 F 
ENDBRANCH   1   3
BRANCH   2   7
HETATM    7  C4  UNL     1     -34.695   5.107   5.610  1.00 20.00     0.459 C 
HETATM    8  F8  UNL     1     -34.120   3.949   6.003  1.00 20.00    -0.159 F 
HETATM    9  F9  UNL     1     -35.861   4.809   4.996  1.00 20.00    -0.159 F 
HETATM   10  F10 UNL     1     -34.978   5.830   6.717  1.00 20.00    -0.159 F 
ENDBRANCH   2   7
TORSDOF 2
ENDMDL
MODEL 3
REMARK VINA RESULT:      -5.7      0.028      4.580
REMARK  2 active torsions:
REMARK  status: ('A' for Active; 'I' for Inactive)
REMARK    1  A    between atoms: C1_1  and  C3_3 
REMARK    2  A    between atoms: C2_2  and  C4_4 
ROOT
HETATM    1  C1  UNL     1     -33.820   5.840   4.701  1.00 20.00     0.017 C 
HETATM    2  C2  UNL     1     -33.088   6.457   3.977  1.00 20.00     0.017 C 
ENDROOT
BRANCH   1   3
HETATM    3  C3  UNL     1     -34.704   5.095   5.578  1.00 20.00     0.459 C 
HETATM    4  F5  UNL     1     -35.872   4.813   4.959  1.00 20.00    -0.159 F 
HETATM    5  F6  UNL     1     -34.138   3.927   5.955  1.00 20.00    -0.159 F 
HETATM    6  F7  UNL     1     -34.984   5.804   6.695  1.00 20.00    -0.159 F 
ENDBRANCH   1   3
BRANCH   2   7
HETATM    7  C4  UNL     1     -32.202   7.202   3.101  1.00 20.00     0.459 C 
HETATM    8  F8  UNL     1     -31.697   6.402   2.134  1.00 20.00    -0.159 F 
HETATM    9  F9  UNL     1     -31.166   7.725   3.794  1.00 20.00    -0.159 F 
HETATM   10  F10 UNL     1     -32.860   8.218   2.500  1.00 20.00    -0.159 F 
ENDBRANCH   2   7
TORSDOF 2
ENDMDL
MODEL 4
REMARK VINA RESULT:      -5.7      0.029      4.580
REMARK  2 active torsions:
REMARK  status: ('A' for Active; 'I' for Inactive)
REMARK    1  A    between atoms: C1_1  and  C3_3 
REMARK    2  A    between atoms: C2_2  and  C4_4 
ROOT
HETATM    1  C1  UNL     1     -33.819   5.842   4.700  1.00 20.00     0.017 C 
HETATM    2  C2  UNL     1     -33.087   6.459   3.976  1.00 20.00     0.017 C 
ENDROOT
BRANCH   1   3
HETATM    3  C3  UNL     1     -34.704   5.099   5.577  1.00 20.00     0.459 C 
HETATM    4  F5  UNL     1     -35.873   4.820   4.959  1.00 20.00    -0.159 F 
HETATM    5  F6  UNL     1     -34.141   3.929   5.953  1.00 20.00    -0.159 F 
HETATM    6  F7  UNL     1     -34.981   5.807   6.695  1.00 20.00    -0.159 F 
ENDBRANCH   1   3
BRANCH   2   7
HETATM    7  C4  UNL     1     -32.200   7.203   3.100  1.00 20.00     0.459 C 
HETATM    8  F8  UNL     1     -31.166   7.727   3.795  1.00 20.00    -0.159 F 
HETATM    9  F9  UNL     1     -32.858   8.220   2.499  1.00 20.00    -0.159 F 
HETATM   10  F10 UNL     1     -31.693   6.405   2.134  1.00 20.00    -0.159 F 
ENDBRANCH   2   7
TORSDOF 2
ENDMDL
MODEL 5
REMARK VINA RESULT:      -5.7      0.006      1.693
REMARK  2 active torsions:
REMARK  status: ('A' for Active; 'I' for Inactive)
REMARK    1  A    between atoms: C1_1  and  C3_3 
REMARK    2  A    between atoms: C2_2  and  C4_4 
ROOT
HETATM    1  C1  UNL     1     -33.085   6.451   3.984  1.00 20.00     0.017 C 
HETATM    2  C2  UNL     1     -33.814   5.842   4.717  1.00 20.00     0.017 C 
ENDROOT
BRANCH   1   3
HETATM    3  C3  UNL     1     -32.204   7.187   3.096  1.00 20.00     0.459 C 
HETATM    4  F5  UNL     1     -32.867   8.196   2.488  1.00 20.00    -0.159 F 
HETATM    5  F6  UNL     1     -31.166   7.719   3.777  1.00 20.00    -0.159 F 
HETATM    6  F7  UNL     1     -31.704   6.379   2.134  1.00 20.00    -0.159 F 
ENDBRANCH   1   3
BRANCH   2   7
HETATM    7  C4  UNL     1     -34.695   5.104   5.604  1.00 20.00     0.459 C 
HETATM    8  F8  UNL     1     -34.981   5.828   6.709  1.00 20.00    -0.159 F 
HETATM    9  F9  UNL     1     -34.121   3.945   6.000  1.00 20.00    -0.159 F 
HETATM   10  F10 UNL     1     -35.860   4.805   4.988  1.00 20.00    -0.159 F 
ENDBRANCH   2   7
TORSDOF 2
ENDMDL
MODEL 6
REMARK VINA RESULT:      -5.7      0.028      4.580
REMARK  2 active torsions:
REMARK  status: ('A' for Active; 'I' for Inactive)
REMARK    1  A    between atoms: C1_1  and  C3_3 
REMARK    2  A    between atoms: C2_2  and  C4_4 
ROOT
HETATM    1  C1  UNL     1     -33.820   5.843   4.702  1.00 20.00     0.017 C 
HETATM    2  C2  UNL     1     -33.086   6.458   3.978  1.00 20.00     0.017 C 
ENDROOT
BRANCH   1   3
HETATM    3  C3  UNL     1     -34.704   5.098   5.579  1.00 20.00     0.459 C 
HETATM    4  F5  UNL     1     -34.139   3.929   5.954  1.00 20.00    -0.159 F 
HETATM    5  F6  UNL     1     -34.984   5.805   6.697  1.00 20.00    -0.159 F 
HETATM    6  F7  UNL     1     -35.872   4.817   4.959  1.00 20.00    -0.159 F 
ENDBRANCH   1   3
BRANCH   2   7
HETATM    7  C4  UNL     1     -32.200   7.202   3.101  1.00 20.00     0.459 C 
HETATM    8  F8  UNL     1     -32.859   8.217   2.500  1.00 20.00    -0.159 F 
HETATM    9  F9  UNL     1     -31.694   6.402   2.136  1.00 20.00    -0.159 F 
HETATM   10  F10 UNL     1     -31.165   7.728   3.794  1.00 20.00    -0.159 F 
ENDBRANCH   2   7
TORSDOF 2
ENDMDL
MODEL 7
REMARK VINA RESULT:      -5.7      0.027      4.580
REMARK  2 active torsions:
REMARK  status: ('A' for Active; 'I' for Inactive)
REMARK    1  A    between atoms: C1_1  and  C3_3 
REMARK    2  A    between atoms: C2_2  and  C4_4 
ROOT
HETATM    1  C1  UNL     1     -33.819   5.843   4.704  1.00 20.00     0.017 C 
HETATM    2  C2  UNL     1     -33.086   6.458   3.979  1.00 20.00     0.017 C 
ENDROOT
BRANCH   1   3
HETATM    3  C3  UNL     1     -34.704   5.098   5.580  1.00 20.00     0.459 C 
HETATM    4  F5  UNL     1     -34.139   3.929   5.955  1.00 20.00    -0.159 F 
HETATM    5  F6  UNL     1     -34.984   5.805   6.698  1.00 20.00    -0.159 F 
HETATM    6  F7  UNL     1     -35.872   4.817   4.960  1.00 20.00    -0.159 F 
ENDBRANCH   1   3
BRANCH   2   7
HETATM    7  C4  UNL     1     -32.200   7.201   3.102  1.00 20.00     0.459 C 
HETATM    8  F8  UNL     1     -31.695   6.400   2.138  1.00 20.00    -0.159 F 
HETATM    9  F9  UNL     1     -31.165   7.727   3.794  1.00 20.00    -0.159 F 
HETATM   10  F10 UNL     1     -32.858   8.217   2.499  1.00 20.00    -0.159 F 
ENDBRANCH   2   7
TORSDOF 2
ENDMDL
MODEL 8
REMARK VINA RESULT:      -4.8      2.306      3.344
REMARK  2 active torsions:
REMARK  status: ('A' for Active; 'I' for Inactive)
REMARK    1  A    between atoms: C1_1  and  C3_3 
REMARK    2  A    between atoms: C2_2  and  C4_4 
ROOT
HETATM    1  C1  UNL     1     -32.373   8.264   1.936  1.00 20.00     0.017 C 
HETATM    2  C2  UNL     1     -32.577   7.321   2.649  1.00 20.00     0.017 C 
ENDROOT
BRANCH   1   3
HETATM    3  C3  UNL     1     -32.126   9.404   1.072  1.00 20.00     0.459 C 
HETATM    4  F5  UNL     1     -32.936   9.373  -0.009  1.00 20.00    -0.159 F 
HETATM    5  F6  UNL     1     -32.348  10.564   1.728  1.00 20.00    -0.159 F 
HETATM    6  F7  UNL     1     -30.847   9.409   0.635  1.00 20.00    -0.159 F 
ENDBRANCH   1   3
BRANCH   2   7
HETATM    7  C4  UNL     1     -32.823   6.180   3.512  1.00 20.00     0.459 C 
HETATM    8  F8  UNL     1     -31.745   5.365   3.551  1.00 20.00    -0.159 F 
HETATM    9  F9  UNL     1     -33.877   5.459   3.070  1.00 20.00    -0.159 F 
HETATM   10  F10 UNL     1     -33.089   6.579   4.776  1.00 20.00    -0.159 F 
ENDBRANCH   2   7
TORSDOF 2
ENDMDL
MODEL 9
REMARK VINA RESULT:      -4.8      2.305      5.265
REMARK  2 active torsions:
REMARK  status: ('A' for Active; 'I' for Inactive)
REMARK    1  A    between atoms: C1_1  and  C3_3 
REMARK    2  A    between atoms: C2_2  and  C4_4 
ROOT
HETATM    1  C1  UNL     1     -32.573   7.303   2.641  1.00 20.00     0.017 C 
HETATM    2  C2  UNL     1     -32.366   8.239   1.919  1.00 20.00     0.017 C 
ENDROOT
BRANCH   1   3
HETATM    3  C3  UNL     1     -32.822   6.173   3.517  1.00 20.00     0.459 C 
HETATM    4  F5  UNL     1     -31.750   5.351   3.559  1.00 20.00    -0.159 F 
HETATM    5  F6  UNL     1     -33.082   6.586   4.777  1.00 20.00    -0.159 F 
HETATM    6  F7  UNL     1     -33.883   5.454   3.085  1.00 20.00    -0.159 F 
ENDBRANCH   1   3
BRANCH   2   7
HETATM    7  C4  UNL     1     -32.115   9.369   1.043  1.00 20.00     0.459 C 
HETATM    8  F8  UNL     1     -32.334  10.536   1.690  1.00 20.00    -0.159 F 
HETATM    9  F9  UNL     1     -32.926   9.332  -0.038  1.00 20.00    -0.159 F 
HETATM   10  F10 UNL     1     -30.836   9.367   0.607  1.00 20.00    -0.159 F 
ENDBRANCH   2   7
TORSDOF 2
ENDMDL
