MODEL 1
REMARK VINA RESULT:      -5.0      0.000      0.000
REMARK  1 active torsions:
REMARK  status: ('A' for Active; 'I' for Inactive)
REMARK    1  A    between atoms: C3_3  and  C7_7 
ROOT
HETATM    1  C1  UNL     1     -33.784  15.703  -5.099  1.00 20.00     0.001 C 
HETATM    2  C2  UNL     1     -34.283  14.687  -4.377  1.00 20.00    -0.083 C 
HETATM    3  C5  UNL     1     -33.638  17.087  -4.540  1.00 20.00     0.196 C 
HETATM    4  C6  UNL     1     -34.687  14.903  -2.941  1.00 20.00     0.069 C 
HETATM    5  C7  UNL     1     -34.109  16.211  -2.385  1.00 20.00     0.148 C 
HETATM    6  C8  UNL     1     -34.469  13.310  -4.936  1.00 20.00     0.043 C 
HETATM    7  O11 UNL     1     -34.365  17.265  -3.319  1.00 20.00    -0.378 OA
ENDROOT
BRANCH   5   8
HETATM    8  C3  UNL     1     -34.738  16.579  -1.081  1.00 20.00     0.007 C 
HETATM    9  C4  UNL     1     -34.298  17.475  -0.178  1.00 20.00    -0.089 C 
HETATM   10  C9  UNL     1     -35.054  17.730   1.097  1.00 20.00     0.042 C 
HETATM   11  C10 UNL     1     -33.046  18.287  -0.349  1.00 20.00     0.042 C 
ENDBRANCH   5   8
TORSDOF 1
ENDMDL
MODEL 2
REMARK VINA RESULT:      -4.9      1.619      2.399
REMARK  1 active torsions:
REMARK  status: ('A' for Active; 'I' for Inactive)
REMARK    1  A    between atoms: C3_3  and  C7_7 
ROOT
HETATM    1  C1  UNL     1     -35.549  13.673  -4.139  1.00 20.00     0.001 C 
HETATM    2  C2  UNL     1     -36.338  14.710  -3.812  1.00 20.00    -0.083 C 
HETATM    3  C5  UNL     1     -34.076  13.669  -3.858  1.00 20.00     0.196 C 
HETATM    4  C6  UNL     1     -35.760  15.911  -3.107  1.00 20.00     0.069 C 
HETATM    5  C7  UNL     1     -34.376  15.605  -2.520  1.00 20.00     0.148 C 
HETATM    6  C8  UNL     1     -37.803  14.742  -4.121  1.00 20.00     0.043 C 
HETATM    7  O11 UNL     1     -33.577  14.969  -3.522  1.00 20.00    -0.378 OA
ENDROOT
BRANCH   5   8
HETATM    8  C3  UNL     1     -33.676  16.852  -2.087  1.00 20.00     0.007 C 
HETATM    9  C4  UNL     1     -33.854  17.542  -0.944  1.00 20.00    -0.089 C 
HETATM   10  C9  UNL     1     -33.064  18.789  -0.657  1.00 20.00     0.042 C 
HETATM   11  C10 UNL     1     -34.829  17.146   0.127  1.00 20.00     0.042 C 
ENDBRANCH   5   8
TORSDOF 1
ENDMDL
MODEL 3
REMARK VINA RESULT:      -4.8      1.425      2.455
REMARK  1 active torsions:
REMARK  status: ('A' for Active; 'I' for Inactive)
REMARK    1  A    between atoms: C3_3  and  C7_7 
ROOT
HETATM    1  C1  UNL     1     -34.659  13.735  -5.272  1.00 20.00     0.001 C 
HETATM    2  C2  UNL     1     -34.455  14.888  -5.928  1.00 20.00    -0.083 C 
HETATM    3  C5  UNL     1     -34.473  13.615  -3.788  1.00 20.00     0.196 C 
HETATM    4  C6  UNL     1     -34.060  16.132  -5.174  1.00 20.00     0.069 C 
HETATM    5  C7  UNL     1     -34.312  15.979  -3.668  1.00 20.00     0.148 C 
HETATM    6  C8  UNL     1     -34.600  15.011  -7.414  1.00 20.00     0.043 C 
HETATM    7  O11 UNL     1     -33.768  14.730  -3.231  1.00 20.00    -0.378 OA
ENDROOT
BRANCH   5   8
HETATM    8  C3  UNL     1     -33.657  17.073  -2.889  1.00 20.00     0.007 C 
HETATM    9  C4  UNL     1     -33.844  17.387  -1.593  1.00 20.00    -0.089 C 
HETATM   10  C9  UNL     1     -33.102  18.527  -0.953  1.00 20.00     0.042 C 
HETATM   11  C10 UNL     1     -34.785  16.650  -0.682  1.00 20.00     0.042 C 
ENDBRANCH   5   8
TORSDOF 1
ENDMDL
MODEL 4
REMARK VINA RESULT:      -4.7     11.069     12.088
REMARK  1 active torsions:
REMARK  status: ('A' for Active; 'I' for Inactive)
REMARK    1  A    between atoms: C3_3  and  C7_7 
ROOT
HETATM    1  C1  UNL     1     -34.178   6.039   6.225  1.00 20.00     0.001 C 
HETATM    2  C2  UNL     1     -34.427   5.266   5.155  1.00 20.00    -0.083 C 
HETATM    3  C5  UNL     1     -33.268   7.229   6.157  1.00 20.00     0.196 C 
HETATM    4  C6  UNL     1     -33.816   5.599   3.818  1.00 20.00     0.069 C 
HETATM    5  C7  UNL     1     -33.269   7.032   3.792  1.00 20.00     0.148 C 
HETATM    6  C8  UNL     1     -35.303   4.053   5.219  1.00 20.00     0.043 C 
HETATM    7  O11 UNL     1     -32.477   7.248   4.963  1.00 20.00    -0.378 OA
ENDROOT
BRANCH   5   8
HETATM    8  C3  UNL     1     -32.409   7.269   2.594  1.00 20.00     0.007 C 
HETATM    9  C4  UNL     1     -32.248   8.417   1.909  1.00 20.00    -0.089 C 
HETATM   10  C9  UNL     1     -31.338   8.490   0.715  1.00 20.00     0.042 C 
HETATM   11  C10 UNL     1     -32.941   9.703   2.261  1.00 20.00     0.042 C 
ENDBRANCH   5   8
TORSDOF 1
ENDMDL
MODEL 5
REMARK VINA RESULT:      -4.7      1.488      2.543
REMARK  1 active torsions:
REMARK  status: ('A' for Active; 'I' for Inactive)
REMARK    1  A    between atoms: C3_3  and  C7_7 
ROOT
HETATM    1  C1  UNL     1     -34.822  14.048  -5.805  1.00 20.00     0.001 C 
HETATM    2  C2  UNL     1     -34.522  15.357  -5.816  1.00 20.00    -0.083 C 
HETATM    3  C5  UNL     1     -34.959  13.270  -4.530  1.00 20.00     0.196 C 
HETATM    4  C6  UNL     1     -34.347  16.107  -4.521  1.00 20.00     0.069 C 
HETATM    5  C7  UNL     1     -34.914  15.318  -3.333  1.00 20.00     0.148 C 
HETATM    6  C8  UNL     1     -34.345  16.136  -7.083  1.00 20.00     0.043 C 
HETATM    7  O11 UNL     1     -34.433  13.972  -3.398  1.00 20.00    -0.378 OA
ENDROOT
BRANCH   5   8
HETATM    8  C3  UNL     1     -34.485  15.906  -2.029  1.00 20.00     0.007 C 
HETATM    9  C4  UNL     1     -35.021  16.959  -1.383  1.00 20.00    -0.089 C 
HETATM   10  C9  UNL     1     -34.467  17.429  -0.067  1.00 20.00     0.042 C 
HETATM   11  C10 UNL     1     -36.193  17.745  -1.897  1.00 20.00     0.042 C 
ENDBRANCH   5   8
TORSDOF 1
ENDMDL
MODEL 6
REMARK VINA RESULT:      -4.6      1.211      4.723
REMARK  1 active torsions:
REMARK  status: ('A' for Active; 'I' for Inactive)
REMARK    1  A    between atoms: C3_3  and  C7_7 
ROOT
HETATM    1  C1  UNL     1     -34.166  18.827  -0.886  1.00 20.00     0.001 C 
HETATM    2  C2  UNL     1     -34.588  17.740  -0.219  1.00 20.00    -0.083 C 
HETATM    3  C5  UNL     1     -33.751  18.771  -2.326  1.00 20.00     0.196 C 
HETATM    4  C6  UNL     1     -34.694  16.412  -0.923  1.00 20.00     0.069 C 
HETATM    5  C7  UNL     1     -34.648  16.578  -2.448  1.00 20.00     0.148 C 
HETATM    6  C8  UNL     1     -34.969  17.776   1.229  1.00 20.00     0.043 C 
HETATM    7  O11 UNL     1     -33.551  17.431  -2.788  1.00 20.00    -0.378 OA
ENDROOT
BRANCH   5   8
HETATM    8  C3  UNL     1     -34.453  15.267  -3.137  1.00 20.00     0.007 C 
HETATM    9  C4  UNL     1     -35.388  14.504  -3.735  1.00 20.00    -0.089 C 
HETATM   10  C9  UNL     1     -35.025  13.199  -4.388  1.00 20.00     0.042 C 
HETATM   11  C10 UNL     1     -36.843  14.869  -3.807  1.00 20.00     0.042 C 
ENDBRANCH   5   8
TORSDOF 1
ENDMDL
MODEL 7
REMARK VINA RESULT:      -4.6     12.494     14.889
REMARK  1 active torsions:
REMARK  status: ('A' for Active; 'I' for Inactive)
REMARK    1  A    between atoms: C3_3  and  C7_7 
ROOT
HETATM    1  C1  UNL     1     -41.189   6.824  -1.378  1.00 20.00     0.001 C 
HETATM    2  C2  UNL     1     -42.031   6.734  -2.420  1.00 20.00    -0.083 C 
HETATM    3  C5  UNL     1     -40.840   5.640  -0.526  1.00 20.00     0.196 C 
HETATM    4  C6  UNL     1     -42.635   5.405  -2.795  1.00 20.00     0.069 C 
HETATM    5  C7  UNL     1     -41.889   4.241  -2.129  1.00 20.00     0.148 C 
HETATM    6  C8  UNL     1     -42.417   7.916  -3.254  1.00 20.00     0.043 C 
HETATM    7  O11 UNL     1     -41.721   4.532  -0.739  1.00 20.00    -0.378 OA
ENDROOT
BRANCH   5   8
HETATM    8  C3  UNL     1     -42.650   2.961  -2.251  1.00 20.00     0.007 C 
HETATM    9  C4  UNL     1     -42.370   1.908  -3.042  1.00 20.00    -0.089 C 
HETATM   10  C9  UNL     1     -43.244   0.685  -3.048  1.00 20.00     0.042 C 
HETATM   11  C10 UNL     1     -41.191   1.852  -3.971  1.00 20.00     0.042 C 
ENDBRANCH   5   8
TORSDOF 1
ENDMDL
MODEL 8
REMARK VINA RESULT:      -4.2      3.400      5.213
REMARK  1 active torsions:
REMARK  status: ('A' for Active; 'I' for Inactive)
REMARK    1  A    between atoms: C3_3  and  C7_7 
ROOT
HETATM    1  C1  UNL     1     -33.966  14.405  -3.708  1.00 20.00     0.001 C 
HETATM    2  C2  UNL     1     -34.550  15.402  -3.025  1.00 20.00    -0.083 C 
HETATM    3  C5  UNL     1     -34.758  13.395  -4.484  1.00 20.00     0.196 C 
HETATM    4  C6  UNL     1     -36.049  15.561  -3.046  1.00 20.00     0.069 C 
HETATM    5  C7  UNL     1     -36.684  14.748  -4.182  1.00 20.00     0.148 C 
HETATM    6  C8  UNL     1     -33.773  16.394  -2.215  1.00 20.00     0.043 C 
HETATM    7  O11 UNL     1     -36.151  13.420  -4.156  1.00 20.00    -0.378 OA
ENDROOT
BRANCH   5   8
HETATM    8  C3  UNL     1     -38.167  14.660  -4.031  1.00 20.00     0.007 C 
HETATM    9  C4  UNL     1     -39.106  14.892  -4.969  1.00 20.00    -0.089 C 
HETATM   10  C9  UNL     1     -40.570  14.760  -4.653  1.00 20.00     0.042 C 
HETATM   11  C10 UNL     1     -38.793  15.292  -6.382  1.00 20.00     0.042 C 
ENDBRANCH   5   8
TORSDOF 1
ENDMDL
MODEL 9
REMARK VINA RESULT:      -4.1      1.697      2.320
REMARK  1 active torsions:
REMARK  status: ('A' for Active; 'I' for Inactive)
REMARK    1  A    between atoms: C3_3  and  C7_7 
ROOT
HETATM    1  C1  UNL     1     -35.868  16.711  -3.379  1.00 20.00     0.001 C 
HETATM    2  C2  UNL     1     -35.028  15.871  -2.753  1.00 20.00    -0.083 C 
HETATM    3  C5  UNL     1     -36.341  17.987  -2.749  1.00 20.00     0.196 C 
HETATM    4  C6  UNL     1     -34.495  16.211  -1.384  1.00 20.00     0.069 C 
HETATM    5  C7  UNL     1     -34.714  17.692  -1.048  1.00 20.00     0.148 C 
HETATM    6  C8  UNL     1     -34.578  14.576  -3.356  1.00 20.00     0.043 C 
HETATM    7  O11 UNL     1     -36.069  18.039  -1.344  1.00 20.00    -0.378 OA
ENDROOT
BRANCH   5   8
HETATM    8  C3  UNL     1     -34.465  17.968   0.399  1.00 20.00     0.007 C 
HETATM    9  C4  UNL     1     -33.380  18.540   0.954  1.00 20.00    -0.089 C 
HETATM   10  C9  UNL     1     -33.284  18.748   2.440  1.00 20.00     0.042 C 
HETATM   11  C10 UNL     1     -32.192  19.015   0.167  1.00 20.00     0.042 C 
ENDBRANCH   5   8
TORSDOF 1
ENDMDL
