MODEL 1
REMARK VINA RESULT:      -4.3      0.000      0.000
REMARK  2 active torsions:
REMARK  status: ('A' for Active; 'I' for Inactive)
REMARK    1  A    between atoms: C1_1  and  C2_2 
REMARK    2  A    between atoms: C2_2  and  C3_3 
ROOT
HETATM    1  C3  UNL     1     -34.743   4.729   5.974  1.00 20.00     0.393 C 
HETATM    2  F5  UNL     1     -33.680   3.903   6.069  1.00 20.00    -0.171 F 
HETATM    3  F6  UNL     1     -34.431   5.871   6.627  1.00 20.00    -0.171 F 
HETATM    4  F7  UNL     1     -35.780   4.159   6.625  1.00 20.00    -0.171 F 
ENDROOT
BRANCH   1   5
HETATM    5  C2  UNL     1     -35.088   5.023   4.535  1.00 20.00     0.186 C 
BRANCH   5   6
HETATM    6  C1  UNL     1     -34.218   6.094   3.925  1.00 20.00     0.239 C 
HETATM    7  O4  UNL     1     -33.005   6.008   3.771  1.00 20.00    -0.307 OA
ENDBRANCH   5   6
ENDBRANCH   1   5
TORSDOF 2
ENDMDL
MODEL 2
REMARK VINA RESULT:      -4.3      0.017      1.424
REMARK  2 active torsions:
REMARK  status: ('A' for Active; 'I' for Inactive)
REMARK    1  A    between atoms: C1_1  and  C2_2 
REMARK    2  A    between atoms: C2_2  and  C3_3 
ROOT
HETATM    1  C3  UNL     1     -34.750   4.745   5.983  1.00 20.00     0.393 C 
HETATM    2  F5  UNL     1     -35.777   4.149   6.626  1.00 20.00    -0.171 F 
HETATM    3  F6  UNL     1     -33.683   3.921   6.070  1.00 20.00    -0.171 F 
HETATM    4  F7  UNL     1     -34.442   5.882   6.643  1.00 20.00    -0.171 F 
ENDROOT
BRANCH   1   5
HETATM    5  C2  UNL     1     -35.087   5.019   4.538  1.00 20.00     0.186 C 
BRANCH   5   6
HETATM    6  C1  UNL     1     -34.223   6.092   3.922  1.00 20.00     0.239 C 
HETATM    7  O4  UNL     1     -33.006   6.022   3.794  1.00 20.00    -0.307 OA
ENDBRANCH   5   6
ENDBRANCH   1   5
TORSDOF 2
ENDMDL
MODEL 3
REMARK VINA RESULT:      -4.3      0.058      1.443
REMARK  2 active torsions:
REMARK  status: ('A' for Active; 'I' for Inactive)
REMARK    1  A    between atoms: C1_1  and  C2_2 
REMARK    2  A    between atoms: C2_2  and  C3_3 
ROOT
HETATM    1  C3  UNL     1     -34.750   4.772   5.994  1.00 20.00     0.393 C 
HETATM    2  F5  UNL     1     -34.499   5.934   6.633  1.00 20.00    -0.171 F 
HETATM    3  F6  UNL     1     -35.776   4.168   6.634  1.00 20.00    -0.171 F 
HETATM    4  F7  UNL     1     -33.666   3.977   6.123  1.00 20.00    -0.171 F 
ENDROOT
BRANCH   1   5
HETATM    5  C2  UNL     1     -35.098   5.002   4.544  1.00 20.00     0.186 C 
BRANCH   5   6
HETATM    6  C1  UNL     1     -34.239   6.056   3.889  1.00 20.00     0.239 C 
HETATM    7  O4  UNL     1     -33.019   5.996   3.780  1.00 20.00    -0.307 OA
ENDBRANCH   5   6
ENDBRANCH   1   5
TORSDOF 2
ENDMDL
MODEL 4
REMARK VINA RESULT:      -4.2      1.140      1.723
REMARK  2 active torsions:
REMARK  status: ('A' for Active; 'I' for Inactive)
REMARK    1  A    between atoms: C1_1  and  C2_2 
REMARK    2  A    between atoms: C2_2  and  C3_3 
ROOT
HETATM    1  C3  UNL     1     -34.758   5.070   5.574  1.00 20.00     0.393 C 
HETATM    2  F5  UNL     1     -35.411   5.344   6.723  1.00 20.00    -0.171 F 
HETATM    3  F6  UNL     1     -35.688   4.826   4.624  1.00 20.00    -0.171 F 
HETATM    4  F7  UNL     1     -34.050   3.934   5.751  1.00 20.00    -0.171 F 
ENDROOT
BRANCH   1   5
HETATM    5  C2  UNL     1     -33.869   6.216   5.157  1.00 20.00     0.186 C 
BRANCH   5   6
HETATM    6  C1  UNL     1     -33.515   6.187   3.690  1.00 20.00     0.239 C 
HETATM    7  O4  UNL     1     -32.383   6.029   3.247  1.00 20.00    -0.307 OA
ENDBRANCH   5   6
ENDBRANCH   1   5
TORSDOF 2
ENDMDL
MODEL 5
REMARK VINA RESULT:      -4.2      1.139      1.590
REMARK  2 active torsions:
REMARK  status: ('A' for Active; 'I' for Inactive)
REMARK    1  A    between atoms: C1_1  and  C2_2 
REMARK    2  A    between atoms: C2_2  and  C3_3 
ROOT
HETATM    1  C3  UNL     1     -34.766   5.046   5.570  1.00 20.00     0.393 C 
HETATM    2  F5  UNL     1     -35.680   4.761   4.618  1.00 20.00    -0.171 F 
HETATM    3  F6  UNL     1     -34.024   3.934   5.769  1.00 20.00    -0.171 F 
HETATM    4  F7  UNL     1     -35.423   5.308   6.720  1.00 20.00    -0.171 F 
ENDROOT
BRANCH   1   5
HETATM    5  C2  UNL     1     -33.884   6.201   5.162  1.00 20.00     0.186 C 
BRANCH   5   6
HETATM    6  C1  UNL     1     -33.492   6.160   3.705  1.00 20.00     0.239 C 
HETATM    7  O4  UNL     1     -32.342   6.065   3.292  1.00 20.00    -0.307 OA
ENDBRANCH   5   6
ENDBRANCH   1   5
TORSDOF 2
ENDMDL
MODEL 6
REMARK VINA RESULT:      -4.2      2.571      2.901
REMARK  2 active torsions:
REMARK  status: ('A' for Active; 'I' for Inactive)
REMARK    1  A    between atoms: C1_1  and  C2_2 
REMARK    2  A    between atoms: C2_2  and  C3_3 
ROOT
HETATM    1  C3  UNL     1     -34.876   5.287   3.655  1.00 20.00     0.393 C 
HETATM    2  F5  UNL     1     -34.306   4.976   2.472  1.00 20.00    -0.171 F 
HETATM    3  F6  UNL     1     -35.031   4.137   4.348  1.00 20.00    -0.171 F 
HETATM    4  F7  UNL     1     -36.108   5.785   3.413  1.00 20.00    -0.171 F 
ENDROOT
BRANCH   1   5
HETATM    5  C2  UNL     1     -34.031   6.263   4.437  1.00 20.00     0.186 C 
BRANCH   5   6
HETATM    6  C1  UNL     1     -34.196   6.124   5.931  1.00 20.00     0.239 C 
HETATM    7  O4  UNL     1     -33.804   6.941   6.757  1.00 20.00    -0.307 OA
ENDBRANCH   5   6
ENDBRANCH   1   5
TORSDOF 2
ENDMDL
MODEL 7
REMARK VINA RESULT:      -4.1      2.616      3.078
REMARK  2 active torsions:
REMARK  status: ('A' for Active; 'I' for Inactive)
REMARK    1  A    between atoms: C1_1  and  C2_2 
REMARK    2  A    between atoms: C2_2  and  C3_3 
ROOT
HETATM    1  C3  UNL     1     -35.011   5.463   3.687  1.00 20.00     0.393 C 
HETATM    2  F5  UNL     1     -34.407   4.976   2.583  1.00 20.00    -0.171 F 
HETATM    3  F6  UNL     1     -36.260   5.842   3.335  1.00 20.00    -0.171 F 
HETATM    4  F7  UNL     1     -34.345   6.570   4.079  1.00 20.00    -0.171 F 
ENDROOT
BRANCH   1   5
HETATM    5  C2  UNL     1     -35.066   4.432   4.788  1.00 20.00     0.186 C 
BRANCH   5   6
HETATM    6  C1  UNL     1     -34.366   4.875   6.049  1.00 20.00     0.239 C 
HETATM    7  O4  UNL     1     -34.700   5.834   6.735  1.00 20.00    -0.307 OA
ENDBRANCH   5   6
ENDBRANCH   1   5
TORSDOF 2
ENDMDL
MODEL 8
REMARK VINA RESULT:      -4.1      2.381      2.818
REMARK  2 active torsions:
REMARK  status: ('A' for Active; 'I' for Inactive)
REMARK    1  A    between atoms: C1_1  and  C2_2 
REMARK    2  A    between atoms: C2_2  and  C3_3 
ROOT
HETATM    1  C3  UNL     1     -34.862   5.302   3.634  1.00 20.00     0.393 C 
HETATM    2  F5  UNL     1     -36.099   5.807   3.439  1.00 20.00    -0.171 F 
HETATM    3  F6  UNL     1     -34.379   4.931   2.427  1.00 20.00    -0.171 F 
HETATM    4  F7  UNL     1     -34.974   4.188   4.388  1.00 20.00    -0.171 F 
ENDROOT
BRANCH   1   5
HETATM    5  C2  UNL     1     -33.947   6.315   4.277  1.00 20.00     0.186 C 
BRANCH   5   6
HETATM    6  C1  UNL     1     -32.640   6.485   3.541  1.00 20.00     0.239 C 
HETATM    7  O4  UNL     1     -32.367   7.429   2.808  1.00 20.00    -0.307 OA
ENDBRANCH   5   6
ENDBRANCH   1   5
TORSDOF 2
ENDMDL
MODEL 9
REMARK VINA RESULT:      -4.1      3.048      3.467
REMARK  2 active torsions:
REMARK  status: ('A' for Active; 'I' for Inactive)
REMARK    1  A    between atoms: C1_1  and  C2_2 
REMARK    2  A    between atoms: C2_2  and  C3_3 
ROOT
HETATM    1  C3  UNL     1     -33.351   6.049   3.423  1.00 20.00     0.393 C 
HETATM    2  F5  UNL     1     -33.973   5.375   2.433  1.00 20.00    -0.171 F 
HETATM    3  F6  UNL     1     -33.401   7.364   3.115  1.00 20.00    -0.171 F 
HETATM    4  F7  UNL     1     -32.052   5.682   3.433  1.00 20.00    -0.171 F 
ENDROOT
BRANCH   1   5
HETATM    5  C2  UNL     1     -34.006   5.797   4.759  1.00 20.00     0.186 C 
BRANCH   5   6
HETATM    6  C1  UNL     1     -35.169   4.839   4.676  1.00 20.00     0.239 C 
HETATM    7  O4  UNL     1     -35.128   3.659   5.006  1.00 20.00    -0.307 OA
ENDBRANCH   5   6
ENDBRANCH   1   5
TORSDOF 2
ENDMDL
