MODEL 1
REMARK VINA RESULT:      -5.4      0.000      0.000
REMARK  0 active torsions:
REMARK  status: ('A' for Active; 'I' for Inactive)
ROOT
HETATM    1  C1  UNL     1     -34.603   5.558   6.708  1.00 20.00    -0.030 C 
HETATM    2  C2  UNL     1     -35.322   4.759   5.896  1.00 20.00    -0.030 C 
HETATM    3  C3  UNL     1     -32.427   6.668   2.726  1.00 20.00    -0.030 C 
HETATM    4  C4  UNL     1     -32.517   7.268   3.923  1.00 20.00    -0.025 C 
HETATM    5  C5  UNL     1     -33.530   6.502   6.215  1.00 20.00     0.035 C 
HETATM    6  C6  UNL     1     -35.098   4.666   4.404  1.00 20.00     0.032 C 
HETATM    7  C7  UNL     1     -33.439   5.563   2.578  1.00 20.00     0.032 C 
HETATM    8  C8  UNL     1     -33.651   6.688   4.704  1.00 20.00     0.016 C 
HETATM    9  C9  UNL     1     -33.764   5.306   4.044  1.00 20.00     0.000 C 
ENDROOT
TORSDOF 0
ENDMDL
MODEL 2
REMARK VINA RESULT:      -5.3      0.628      3.768
REMARK  0 active torsions:
REMARK  status: ('A' for Active; 'I' for Inactive)
ROOT
HETATM    1  C1  UNL     1     -32.628   6.331   2.465  1.00 20.00    -0.030 C 
HETATM    2  C2  UNL     1     -32.205   7.229   3.376  1.00 20.00    -0.030 C 
HETATM    3  C3  UNL     1     -35.243   4.816   6.027  1.00 20.00    -0.030 C 
HETATM    4  C4  UNL     1     -35.321   4.658   4.696  1.00 20.00    -0.025 C 
HETATM    5  C5  UNL     1     -33.702   5.304   2.740  1.00 20.00     0.035 C 
HETATM    6  C6  UNL     1     -32.711   7.274   4.800  1.00 20.00     0.032 C 
HETATM    7  C7  UNL     1     -34.275   5.905   6.405  1.00 20.00     0.032 C 
HETATM    8  C8  UNL     1     -34.467   5.673   4.008  1.00 20.00     0.016 C 
HETATM    9  C9  UNL     1     -33.457   5.985   5.122  1.00 20.00     0.000 C 
ENDROOT
TORSDOF 0
ENDMDL
MODEL 3
REMARK VINA RESULT:      -5.2      0.522      2.087
REMARK  0 active torsions:
REMARK  status: ('A' for Active; 'I' for Inactive)
ROOT
HETATM    1  C1  UNL     1     -35.309   4.752   5.303  1.00 20.00    -0.030 C 
HETATM    2  C2  UNL     1     -34.736   5.385   6.345  1.00 20.00    -0.030 C 
HETATM    3  C3  UNL     1     -32.187   7.206   2.843  1.00 20.00    -0.030 C 
HETATM    4  C4  UNL     1     -32.907   6.104   2.577  1.00 20.00    -0.025 C 
HETATM    5  C5  UNL     1     -34.836   4.896   3.874  1.00 20.00     0.035 C 
HETATM    6  C6  UNL     1     -33.594   6.364   6.200  1.00 20.00     0.032 C 
HETATM    7  C7  UNL     1     -32.209   7.548   4.309  1.00 20.00     0.032 C 
HETATM    8  C8  UNL     1     -33.445   5.525   3.845  1.00 20.00     0.016 C 
HETATM    9  C9  UNL     1     -33.448   6.773   4.740  1.00 20.00     0.000 C 
ENDROOT
TORSDOF 0
ENDMDL
MODEL 4
REMARK VINA RESULT:      -4.9      0.655      3.217
REMARK  0 active torsions:
REMARK  status: ('A' for Active; 'I' for Inactive)
ROOT
HETATM    1  C1  UNL     1     -32.293   7.222   3.366  1.00 20.00    -0.030 C 
HETATM    2  C2  UNL     1     -32.686   6.316   2.450  1.00 20.00    -0.030 C 
HETATM    3  C3  UNL     1     -35.292   4.905   6.097  1.00 20.00    -0.030 C 
HETATM    4  C4  UNL     1     -34.265   5.732   6.352  1.00 20.00    -0.025 C 
HETATM    5  C5  UNL     1     -32.762   7.217   4.803  1.00 20.00     0.035 C 
HETATM    6  C6  UNL     1     -33.693   5.225   2.736  1.00 20.00     0.032 C 
HETATM    7  C7  UNL     1     -35.295   4.445   4.664  1.00 20.00     0.032 C 
HETATM    8  C8  UNL     1     -33.407   5.874   5.138  1.00 20.00     0.016 C 
HETATM    9  C9  UNL     1     -34.422   5.525   4.039  1.00 20.00     0.000 C 
ENDROOT
TORSDOF 0
ENDMDL
MODEL 5
REMARK VINA RESULT:      -4.4      9.505     10.677
REMARK  0 active torsions:
REMARK  status: ('A' for Active; 'I' for Inactive)
ROOT
HETATM    1  C1  UNL     1     -41.903   3.271  -2.683  1.00 20.00    -0.030 C 
HETATM    2  C2  UNL     1     -42.966   3.888  -3.235  1.00 20.00    -0.030 C 
HETATM    3  C3  UNL     1     -41.148   7.493  -0.830  1.00 20.00    -0.030 C 
HETATM    4  C4  UNL     1     -40.724   6.259  -0.512  1.00 20.00    -0.025 C 
HETATM    5  C5  UNL     1     -40.955   3.944  -1.716  1.00 20.00     0.035 C 
HETATM    6  C6  UNL     1     -43.300   5.344  -3.001  1.00 20.00     0.032 C 
HETATM    7  C7  UNL     1     -42.289   7.455  -1.812  1.00 20.00     0.032 C 
HETATM    8  C8  UNL     1     -41.577   5.234  -1.187  1.00 20.00     0.016 C 
HETATM    9  C9  UNL     1     -42.105   6.052  -2.374  1.00 20.00     0.000 C 
ENDROOT
TORSDOF 0
ENDMDL
MODEL 6
REMARK VINA RESULT:      -4.4     12.193     13.873
REMARK  0 active torsions:
REMARK  status: ('A' for Active; 'I' for Inactive)
ROOT
HETATM    1  C1  UNL     1     -33.111  15.107  -3.691  1.00 20.00    -0.030 C 
HETATM    2  C2  UNL     1     -33.830  13.968  -3.717  1.00 20.00    -0.030 C 
HETATM    3  C3  UNL     1     -35.119  15.786  -7.854  1.00 20.00    -0.030 C 
HETATM    4  C4  UNL     1     -34.523  16.607  -6.975  1.00 20.00    -0.025 C 
HETATM    5  C5  UNL     1     -33.181  16.165  -4.769  1.00 20.00     0.035 C 
HETATM    6  C6  UNL     1     -34.744  13.585  -4.858  1.00 20.00     0.032 C 
HETATM    7  C7  UNL     1     -35.418  14.441  -7.248  1.00 20.00     0.032 C 
HETATM    8  C8  UNL     1     -34.413  15.940  -5.643  1.00 20.00     0.016 C 
HETATM    9  C9  UNL     1     -34.455  14.465  -6.068  1.00 20.00     0.000 C 
ENDROOT
TORSDOF 0
ENDMDL
MODEL 7
REMARK VINA RESULT:      -4.3     12.134     13.922
REMARK  0 active torsions:
REMARK  status: ('A' for Active; 'I' for Inactive)
ROOT
HETATM    1  C1  UNL     1     -34.124  13.993  -3.588  1.00 20.00    -0.030 C 
HETATM    2  C2  UNL     1     -33.336  15.085  -3.575  1.00 20.00    -0.030 C 
HETATM    3  C3  UNL     1     -35.316  15.616  -7.804  1.00 20.00    -0.030 C 
HETATM    4  C4  UNL     1     -35.415  14.411  -7.220  1.00 20.00    -0.025 C 
HETATM    5  C5  UNL     1     -34.974  13.589  -4.772  1.00 20.00     0.035 C 
HETATM    6  C6  UNL     1     -33.257  16.071  -4.719  1.00 20.00     0.032 C 
HETATM    7  C7  UNL     1     -34.410  16.537  -7.032  1.00 20.00     0.032 C 
HETATM    8  C8  UNL     1     -34.528  14.348  -6.019  1.00 20.00     0.016 C 
HETATM    9  C9  UNL     1     -34.419  15.841  -5.677  1.00 20.00     0.000 C 
ENDROOT
TORSDOF 0
ENDMDL
MODEL 8
REMARK VINA RESULT:      -4.3      9.604     10.813
REMARK  0 active torsions:
REMARK  status: ('A' for Active; 'I' for Inactive)
ROOT
HETATM    1  C1  UNL     1     -42.997   3.915  -3.207  1.00 20.00    -0.030 C 
HETATM    2  C2  UNL     1     -41.935   3.343  -2.607  1.00 20.00    -0.030 C 
HETATM    3  C3  UNL     1     -41.514   7.707  -0.916  1.00 20.00    -0.030 C 
HETATM    4  C4  UNL     1     -42.317   7.529  -1.977  1.00 20.00    -0.025 C 
HETATM    5  C5  UNL     1     -43.336   5.384  -3.084  1.00 20.00     0.035 C 
HETATM    6  C6  UNL     1     -40.992   4.089  -1.691  1.00 20.00     0.032 C 
HETATM    7  C7  UNL     1     -40.750   6.455  -0.577  1.00 20.00     0.032 C 
HETATM    8  C8  UNL     1     -42.138   6.152  -2.530  1.00 20.00     0.016 C 
HETATM    9  C9  UNL     1     -41.614   5.420  -1.286  1.00 20.00     0.000 C 
ENDROOT
TORSDOF 0
ENDMDL
MODEL 9
REMARK VINA RESULT:      -4.3     11.744     13.324
REMARK  0 active torsions:
REMARK  status: ('A' for Active; 'I' for Inactive)
ROOT
HETATM    1  C1  UNL     1     -34.739  13.675  -5.269  1.00 20.00    -0.030 C 
HETATM    2  C2  UNL     1     -34.502  14.670  -6.145  1.00 20.00    -0.030 C 
HETATM    3  C3  UNL     1     -33.935  17.037  -2.126  1.00 20.00    -0.030 C 
HETATM    4  C4  UNL     1     -34.552  15.846  -2.062  1.00 20.00    -0.025 C 
HETATM    5  C5  UNL     1     -34.766  13.871  -3.770  1.00 20.00     0.035 C 
HETATM    6  C6  UNL     1     -34.174  16.087  -5.731  1.00 20.00     0.032 C 
HETATM    7  C7  UNL     1     -33.695  17.466  -3.549  1.00 20.00     0.032 C 
HETATM    8  C8  UNL     1     -34.868  15.358  -3.438  1.00 20.00     0.016 C 
HETATM    9  C9  UNL     1     -33.812  16.119  -4.252  1.00 20.00     0.000 C 
ENDROOT
TORSDOF 0
ENDMDL
