MODEL 1
REMARK VINA RESULT:      -5.5      0.000      0.000
REMARK  0 active torsions:
REMARK  status: ('A' for Active; 'I' for Inactive)
ROOT
HETATM    1  C1  UNL     1     -33.518  14.378  -3.868  1.00 20.00     0.047 C 
HETATM    2  C2  UNL     1     -33.497  15.616  -3.359  1.00 20.00    -0.014 C 
HETATM    3  C3  UNL     1     -34.806  13.706  -4.163  1.00 20.00     0.149 C 
HETATM    4  C4  UNL     1     -36.089  14.428  -3.825  1.00 20.00     0.084 C 
HETATM    5  C5  UNL     1     -35.910  15.938  -3.930  1.00 20.00     0.021 C 
HETATM    6  C6  UNL     1     -33.890  18.600  -1.129  1.00 20.00     0.000 C 
HETATM    7  C7  UNL     1     -33.491  18.693  -2.597  1.00 20.00     0.001 C 
HETATM    8  C8  UNL     1     -34.071  17.154  -0.687  1.00 20.00     0.001 C 
HETATM    9  C9  UNL     1     -34.472  17.943  -3.501  1.00 20.00     0.013 C 
HETATM   10  C10 UNL     1     -35.074  16.414  -1.575  1.00 20.00     0.013 C 
HETATM   11  C11 UNL     1     -34.725  16.470  -3.083  1.00 20.00    -0.022 C 
HETATM   12  O12 UNL     1     -34.808  12.564  -4.617  1.00 20.00    -0.293 OA
ENDROOT
TORSDOF 0
ENDMDL
MODEL 2
REMARK VINA RESULT:      -5.3      2.297      4.509
REMARK  0 active torsions:
REMARK  status: ('A' for Active; 'I' for Inactive)
ROOT
HETATM    1  C1  UNL     1     -34.551  16.825  -0.952  1.00 20.00     0.047 C 
HETATM    2  C2  UNL     1     -34.781  15.895  -1.887  1.00 20.00    -0.014 C 
HETATM    3  C3  UNL     1     -33.985  18.143  -1.322  1.00 20.00     0.149 C 
HETATM    4  C4  UNL     1     -33.623  18.390  -2.768  1.00 20.00     0.084 C 
HETATM    5  C5  UNL     1     -34.529  17.597  -3.701  1.00 20.00     0.021 C 
HETATM    6  C6  UNL     1     -34.388  13.330  -4.589  1.00 20.00     0.000 C 
HETATM    7  C7  UNL     1     -35.733  13.916  -4.174  1.00 20.00     0.001 C 
HETATM    8  C8  UNL     1     -33.247  13.892  -3.750  1.00 20.00     0.001 C 
HETATM    9  C9  UNL     1     -35.715  15.446  -4.192  1.00 20.00     0.013 C 
HETATM   10  C10 UNL     1     -33.215  15.421  -3.793  1.00 20.00     0.013 C 
HETATM   11  C11 UNL     1     -34.555  16.080  -3.380  1.00 20.00    -0.022 C 
HETATM   12  O12 UNL     1     -33.766  18.980  -0.450  1.00 20.00    -0.293 OA
ENDROOT
TORSDOF 0
ENDMDL
MODEL 3
REMARK VINA RESULT:      -4.9      0.963      2.287
REMARK  0 active torsions:
REMARK  status: ('A' for Active; 'I' for Inactive)
ROOT
HETATM    1  C1  UNL     1     -35.993  14.272  -3.788  1.00 20.00     0.047 C 
HETATM    2  C2  UNL     1     -35.929  15.424  -3.108  1.00 20.00    -0.014 C 
HETATM    3  C3  UNL     1     -34.761  13.639  -4.316  1.00 20.00     0.149 C 
HETATM    4  C4  UNL     1     -33.444  14.352  -4.117  1.00 20.00     0.084 C 
HETATM    5  C5  UNL     1     -33.457  15.177  -2.836  1.00 20.00     0.021 C 
HETATM    6  C6  UNL     1     -35.422  19.004  -2.130  1.00 20.00     0.000 C 
HETATM    7  C7  UNL     1     -35.683  17.886  -1.127  1.00 20.00     0.001 C 
HETATM    8  C8  UNL     1     -35.429  18.487  -3.563  1.00 20.00     0.001 C 
HETATM    9  C9  UNL     1     -34.711  16.719  -1.313  1.00 20.00     0.013 C 
HETATM   10  C10 UNL     1     -34.436  17.338  -3.752  1.00 20.00     0.013 C 
HETATM   11  C11 UNL     1     -34.648  16.166  -2.761  1.00 20.00    -0.022 C 
HETATM   12  O12 UNL     1     -34.838  12.589  -4.949  1.00 20.00    -0.293 OA
ENDROOT
TORSDOF 0
ENDMDL
MODEL 4
REMARK VINA RESULT:      -4.8      2.560      4.388
REMARK  0 active torsions:
REMARK  status: ('A' for Active; 'I' for Inactive)
ROOT
HETATM    1  C1  UNL     1     -36.184  17.837  -2.612  1.00 20.00     0.047 C 
HETATM    2  C2  UNL     1     -35.660  17.124  -3.617  1.00 20.00    -0.014 C 
HETATM    3  C3  UNL     1     -35.679  17.673  -1.229  1.00 20.00     0.149 C 
HETATM    4  C4  UNL     1     -34.601  16.647  -0.973  1.00 20.00     0.084 C 
HETATM    5  C5  UNL     1     -33.708  16.476  -2.195  1.00 20.00     0.021 C 
HETATM    6  C6  UNL     1     -34.603  14.340  -5.890  1.00 20.00     0.000 C 
HETATM    7  C7  UNL     1     -34.087  15.769  -6.013  1.00 20.00     0.001 C 
HETATM    8  C8  UNL     1     -35.616  14.204  -4.760  1.00 20.00     0.001 C 
HETATM    9  C9  UNL     1     -33.528  16.287  -4.687  1.00 20.00     0.013 C 
HETATM   10  C10 UNL     1     -35.044  14.696  -3.429  1.00 20.00     0.013 C 
HETATM   11  C11 UNL     1     -34.502  16.147  -3.487  1.00 20.00    -0.022 C 
HETATM   12  O12 UNL     1     -36.181  18.325  -0.315  1.00 20.00    -0.293 OA
ENDROOT
TORSDOF 0
ENDMDL
MODEL 5
REMARK VINA RESULT:      -4.7      2.902      4.354
REMARK  0 active torsions:
REMARK  status: ('A' for Active; 'I' for Inactive)
ROOT
HETATM    1  C1  UNL     1     -37.425  15.611  -5.624  1.00 20.00     0.047 C 
HETATM    2  C2  UNL     1     -36.309  15.209  -5.004  1.00 20.00    -0.014 C 
HETATM    3  C3  UNL     1     -37.488  15.665  -7.103  1.00 20.00     0.149 C 
HETATM    4  C4  UNL     1     -36.247  15.310  -7.890  1.00 20.00     0.084 C 
HETATM    5  C5  UNL     1     -35.401  14.287  -7.143  1.00 20.00     0.021 C 
HETATM    6  C6  UNL     1     -32.805  14.952  -3.703  1.00 20.00     0.000 C 
HETATM    7  C7  UNL     1     -33.824  13.823  -3.605  1.00 20.00     0.001 C 
HETATM    8  C8  UNL     1     -33.401  16.191  -4.359  1.00 20.00     0.001 C 
HETATM    9  C9  UNL     1     -34.447  13.500  -4.964  1.00 20.00     0.013 C 
HETATM   10  C10 UNL     1     -33.997  15.871  -5.731  1.00 20.00     0.013 C 
HETATM   11  C11 UNL     1     -35.045  14.729  -5.700  1.00 20.00    -0.022 C 
HETATM   12  O12 UNL     1     -38.515  16.049  -7.657  1.00 20.00    -0.293 OA
ENDROOT
TORSDOF 0
ENDMDL
MODEL 6
REMARK VINA RESULT:      -4.7      1.571      2.146
REMARK  0 active torsions:
REMARK  status: ('A' for Active; 'I' for Inactive)
ROOT
HETATM    1  C1  UNL     1     -34.456  14.278  -3.537  1.00 20.00     0.047 C 
HETATM    2  C2  UNL     1     -34.409  15.613  -3.456  1.00 20.00    -0.014 C 
HETATM    3  C3  UNL     1     -34.660  13.607  -4.842  1.00 20.00     0.149 C 
HETATM    4  C4  UNL     1     -34.870  14.466  -6.067  1.00 20.00     0.084 C 
HETATM    5  C5  UNL     1     -34.135  15.794  -5.935  1.00 20.00     0.021 C 
HETATM    6  C6  UNL     1     -35.268  19.259  -3.541  1.00 20.00     0.000 C 
HETATM    7  C7  UNL     1     -33.846  18.732  -3.384  1.00 20.00     0.001 C 
HETATM    8  C8  UNL     1     -36.281  18.124  -3.623  1.00 20.00     0.001 C 
HETATM    9  C9  UNL     1     -33.487  17.730  -4.483  1.00 20.00     0.013 C 
HETATM   10  C10 UNL     1     -35.935  17.139  -4.741  1.00 20.00     0.013 C 
HETATM   11  C11 UNL     1     -34.500  16.565  -4.639  1.00 20.00    -0.022 C 
HETATM   12  O12 UNL     1     -34.715  12.381  -4.896  1.00 20.00    -0.293 OA
ENDROOT
TORSDOF 0
ENDMDL
MODEL 7
REMARK VINA RESULT:      -4.7      2.082      3.074
REMARK  0 active torsions:
REMARK  status: ('A' for Active; 'I' for Inactive)
ROOT
HETATM    1  C1  UNL     1     -36.792  15.835  -5.767  1.00 20.00     0.047 C 
HETATM    2  C2  UNL     1     -36.141  16.075  -4.621  1.00 20.00    -0.014 C 
HETATM    3  C3  UNL     1     -36.133  15.094  -6.867  1.00 20.00     0.149 C 
HETATM    4  C4  UNL     1     -34.696  14.665  -6.688  1.00 20.00     0.084 C 
HETATM    5  C5  UNL     1     -34.385  14.399  -5.220  1.00 20.00     0.021 C 
HETATM    6  C6  UNL     1     -33.718  17.316  -2.048  1.00 20.00     0.000 C 
HETATM    7  C7  UNL     1     -34.735  16.212  -1.784  1.00 20.00     0.001 C 
HETATM    8  C8  UNL     1     -33.838  17.863  -3.465  1.00 20.00     0.001 C 
HETATM    9  C9  UNL     1     -34.650  15.099  -2.830  1.00 20.00     0.013 C 
HETATM   10  C10 UNL     1     -33.725  16.751  -4.510  1.00 20.00     0.013 C 
HETATM   11  C11 UNL     1     -34.735  15.595  -4.297  1.00 20.00    -0.022 C 
HETATM   12  O12 UNL     1     -36.740  14.894  -7.917  1.00 20.00    -0.293 OA
ENDROOT
TORSDOF 0
ENDMDL
MODEL 8
REMARK VINA RESULT:      -4.6      1.515      2.830
REMARK  0 active torsions:
REMARK  status: ('A' for Active; 'I' for Inactive)
ROOT
HETATM    1  C1  UNL     1     -35.892  14.580  -4.944  1.00 20.00     0.047 C 
HETATM    2  C2  UNL     1     -35.625  15.891  -4.899  1.00 20.00    -0.014 C 
HETATM    3  C3  UNL     1     -34.999  13.605  -4.275  1.00 20.00     0.149 C 
HETATM    4  C4  UNL     1     -33.755  14.120  -3.590  1.00 20.00     0.084 C 
HETATM    5  C5  UNL     1     -33.969  15.533  -3.060  1.00 20.00     0.021 C 
HETATM    6  C6  UNL     1     -34.045  19.261  -5.320  1.00 20.00     0.000 C 
HETATM    7  C7  UNL     1     -35.209  18.990  -4.375  1.00 20.00     0.001 C 
HETATM    8  C8  UNL     1     -33.637  18.008  -6.084  1.00 20.00     0.001 C 
HETATM    9  C9  UNL     1     -34.915  17.822  -3.431  1.00 20.00     0.013 C 
HETATM   10  C10 UNL     1     -33.316  16.850  -5.136  1.00 20.00     0.013 C 
HETATM   11  C11 UNL     1     -34.463  16.522  -4.148  1.00 20.00    -0.022 C 
HETATM   12  O12 UNL     1     -35.250  12.404  -4.339  1.00 20.00    -0.293 OA
ENDROOT
TORSDOF 0
ENDMDL
MODEL 9
REMARK VINA RESULT:      -4.6      2.515      3.962
REMARK  0 active torsions:
REMARK  status: ('A' for Active; 'I' for Inactive)
ROOT
HETATM    1  C1  UNL     1     -37.777  14.900  -3.939  1.00 20.00     0.047 C 
HETATM    2  C2  UNL     1     -36.467  14.640  -3.833  1.00 20.00    -0.014 C 
HETATM    3  C3  UNL     1     -38.331  15.489  -5.181  1.00 20.00     0.149 C 
HETATM    4  C4  UNL     1     -37.377  15.838  -6.299  1.00 20.00     0.084 C 
HETATM    5  C5  UNL     1     -36.173  14.905  -6.302  1.00 20.00     0.021 C 
HETATM    6  C6  UNL     1     -32.741  14.950  -3.613  1.00 20.00     0.000 C 
HETATM    7  C7  UNL     1     -33.465  13.623  -3.803  1.00 20.00     0.001 C 
HETATM    8  C8  UNL     1     -33.719  16.112  -3.491  1.00 20.00     0.001 C 
HETATM    9  C9  UNL     1     -34.437  13.671  -4.984  1.00 20.00     0.013 C 
HETATM   10  C10 UNL     1     -34.671  16.174  -4.687  1.00 20.00     0.013 C 
HETATM   11  C11 UNL     1     -35.441  14.853  -4.935  1.00 20.00    -0.022 C 
HETATM   12  O12 UNL     1     -39.532  15.734  -5.256  1.00 20.00    -0.293 OA
ENDROOT
TORSDOF 0
ENDMDL
