MODEL 1
REMARK VINA RESULT:      -4.3      0.000      0.000
REMARK  3 active torsions:
REMARK  status: ('A' for Active; 'I' for Inactive)
REMARK    1  A    between atoms: C1_1  and  C10_10 
REMARK    2  A    between atoms: C2_2  and  C8_8 
REMARK    3  A    between atoms: C9_9  and  C10_10 
ROOT
HETATM    1  C1  UNL     1     -35.404  15.644  -3.088  1.00 20.00    -0.016 C 
HETATM    2  C2  UNL     1     -34.145  15.978  -2.733  1.00 20.00    -0.087 C 
HETATM    3  C3  UNL     1     -32.986  15.472  -3.563  1.00 20.00     0.043 C 
ENDROOT
BRANCH   1   4
HETATM    4  C10 UNL     1     -35.940  14.795  -4.241  1.00 20.00    -0.030 C 
HETATM    5  C6  UNL     1     -35.314  13.386  -4.195  1.00 20.00     0.019 C 
HETATM    6  C7  UNL     1     -37.464  14.606  -4.022  1.00 20.00     0.019 C 
BRANCH   4   7
HETATM    7  C9  UNL     1     -35.716  15.418  -5.647  1.00 20.00     0.008 C 
HETATM    8  C5  UNL     1     -34.959  14.539  -6.638  1.00 20.00     0.006 C 
ENDBRANCH   4   7
ENDBRANCH   1   4
BRANCH   2   9
HETATM    9  C8  UNL     1     -33.742  16.874  -1.585  1.00 20.00     0.029 C 
HETATM   10  C4  UNL     1     -34.742  16.855  -0.436  1.00 20.00     0.010 C 
ENDBRANCH   2   9
TORSDOF 3
ENDMDL
MODEL 2
REMARK VINA RESULT:      -4.2      1.480      2.182
REMARK  3 active torsions:
REMARK  status: ('A' for Active; 'I' for Inactive)
REMARK    1  A    between atoms: C1_1  and  C10_10 
REMARK    2  A    between atoms: C2_2  and  C8_8 
REMARK    3  A    between atoms: C9_9  and  C10_10 
ROOT
HETATM    1  C1  UNL     1     -34.656  15.604  -2.177  1.00 20.00    -0.016 C 
HETATM    2  C2  UNL     1     -34.440  16.756  -1.506  1.00 20.00    -0.087 C 
HETATM    3  C3  UNL     1     -33.702  17.882  -2.195  1.00 20.00     0.043 C 
ENDROOT
BRANCH   1   4
HETATM    4  C10 UNL     1     -34.280  15.170  -3.593  1.00 20.00    -0.030 C 
HETATM    5  C6  UNL     1     -32.747  15.038  -3.716  1.00 20.00     0.019 C 
HETATM    6  C7  UNL     1     -34.863  13.752  -3.826  1.00 20.00     0.019 C 
BRANCH   4   7
HETATM    7  C9  UNL     1     -34.811  16.113  -4.709  1.00 20.00     0.008 C 
HETATM    8  C5  UNL     1     -33.766  16.591  -5.713  1.00 20.00     0.006 C 
ENDBRANCH   4   7
ENDBRANCH   1   4
BRANCH   2   9
HETATM    9  C8  UNL     1     -34.908  17.084  -0.108  1.00 20.00     0.029 C 
HETATM   10  C4  UNL     1     -34.048  18.139   0.577  1.00 20.00     0.010 C 
ENDBRANCH   2   9
TORSDOF 3
ENDMDL
MODEL 3
REMARK VINA RESULT:      -4.1      1.208      2.502
REMARK  3 active torsions:
REMARK  status: ('A' for Active; 'I' for Inactive)
REMARK    1  A    between atoms: C1_1  and  C10_10 
REMARK    2  A    between atoms: C2_2  and  C8_8 
REMARK    3  A    between atoms: C9_9  and  C10_10 
ROOT
HETATM    1  C1  UNL     1     -34.328  15.603  -2.311  1.00 20.00    -0.016 C 
HETATM    2  C2  UNL     1     -34.644  16.772  -1.713  1.00 20.00    -0.087 C 
HETATM    3  C3  UNL     1     -34.967  17.974  -2.572  1.00 20.00     0.043 C 
ENDROOT
BRANCH   1   4
HETATM    4  C10 UNL     1     -34.221  15.215  -3.785  1.00 20.00    -0.030 C 
HETATM    5  C6  UNL     1     -33.150  16.080  -4.483  1.00 20.00     0.019 C 
HETATM    6  C7  UNL     1     -33.717  13.750  -3.856  1.00 20.00     0.019 C 
BRANCH   4   7
HETATM    7  C9  UNL     1     -35.560  15.315  -4.568  1.00 20.00     0.008 C 
HETATM    8  C5  UNL     1     -36.747  14.602  -3.928  1.00 20.00     0.006 C 
ENDBRANCH   4   7
ENDBRANCH   1   4
BRANCH   2   9
HETATM    9  C8  UNL     1     -34.763  17.019  -0.228  1.00 20.00     0.029 C 
HETATM   10  C4  UNL     1     -33.874  18.156   0.260  1.00 20.00     0.010 C 
ENDBRANCH   2   9
TORSDOF 3
ENDMDL
MODEL 4
REMARK VINA RESULT:      -4.1      1.913      4.689
REMARK  3 active torsions:
REMARK  status: ('A' for Active; 'I' for Inactive)
REMARK    1  A    between atoms: C1_1  and  C10_10 
REMARK    2  A    between atoms: C2_2  and  C8_8 
REMARK    3  A    between atoms: C9_9  and  C10_10 
ROOT
HETATM    1  C1  UNL     1     -34.149  16.274  -1.896  1.00 20.00    -0.016 C 
HETATM    2  C2  UNL     1     -33.741  16.001  -3.154  1.00 20.00    -0.087 C 
HETATM    3  C3  UNL     1     -33.612  17.133  -4.148  1.00 20.00     0.043 C 
ENDROOT
BRANCH   1   4
HETATM    4  C10 UNL     1     -34.536  17.588  -1.219  1.00 20.00    -0.030 C 
HETATM    5  C6  UNL     1     -35.820  18.155  -1.861  1.00 20.00     0.019 C 
HETATM    6  C7  UNL     1     -34.884  17.277   0.260  1.00 20.00     0.019 C 
BRANCH   4   7
HETATM    7  C9  UNL     1     -33.421  18.670  -1.247  1.00 20.00     0.008 C 
HETATM    8  C5  UNL     1     -32.502  18.694  -0.028  1.00 20.00     0.006 C 
ENDBRANCH   4   7
ENDBRANCH   1   4
BRANCH   2   9
HETATM    9  C8  UNL     1     -33.338  14.649  -3.695  1.00 20.00     0.029 C 
HETATM   10  C4  UNL     1     -34.503  13.672  -3.785  1.00 20.00     0.010 C 
ENDBRANCH   2   9
TORSDOF 3
ENDMDL
MODEL 5
REMARK VINA RESULT:      -4.0      1.655      3.084
REMARK  3 active torsions:
REMARK  status: ('A' for Active; 'I' for Inactive)
REMARK    1  A    between atoms: C1_1  and  C10_10 
REMARK    2  A    between atoms: C2_2  and  C8_8 
REMARK    3  A    between atoms: C9_9  and  C10_10 
ROOT
HETATM    1  C1  UNL     1     -33.668  17.562  -2.935  1.00 20.00    -0.016 C 
HETATM    2  C2  UNL     1     -33.945  17.705  -1.620  1.00 20.00    -0.087 C 
HETATM    3  C3  UNL     1     -34.610  16.566  -0.881  1.00 20.00     0.043 C 
ENDROOT
BRANCH   1   4
HETATM    4  C10 UNL     1     -33.906  16.403  -3.901  1.00 20.00    -0.030 C 
HETATM    5  C6  UNL     1     -35.418  16.124  -4.029  1.00 20.00     0.019 C 
HETATM    6  C7  UNL     1     -33.421  16.847  -5.305  1.00 20.00     0.019 C 
BRANCH   4   7
HETATM    7  C9  UNL     1     -33.167  15.091  -3.514  1.00 20.00     0.008 C 
HETATM    8  C5  UNL     1     -33.975  13.809  -3.690  1.00 20.00     0.006 C 
ENDBRANCH   4   7
ENDBRANCH   1   4
BRANCH   2   9
HETATM    9  C8  UNL     1     -33.613  18.898  -0.756  1.00 20.00     0.029 C 
HETATM   10  C4  UNL     1     -32.320  18.723   0.030  1.00 20.00     0.010 C 
ENDBRANCH   2   9
TORSDOF 3
ENDMDL
MODEL 6
REMARK VINA RESULT:      -3.9     11.436     13.702
REMARK  3 active torsions:
REMARK  status: ('A' for Active; 'I' for Inactive)
REMARK    1  A    between atoms: C1_1  and  C10_10 
REMARK    2  A    between atoms: C2_2  and  C8_8 
REMARK    3  A    between atoms: C9_9  and  C10_10 
ROOT
HETATM    1  C1  UNL     1     -41.336   4.418  -1.722  1.00 20.00    -0.016 C 
HETATM    2  C2  UNL     1     -41.998   3.672  -2.634  1.00 20.00    -0.087 C 
HETATM    3  C3  UNL     1     -43.321   4.169  -3.170  1.00 20.00     0.043 C 
ENDROOT
BRANCH   1   4
HETATM    4  C10 UNL     1     -41.674   5.759  -1.072  1.00 20.00    -0.030 C 
HETATM    5  C6  UNL     1     -40.549   6.173  -0.101  1.00 20.00     0.019 C 
HETATM    6  C7  UNL     1     -41.708   6.834  -2.190  1.00 20.00     0.019 C 
BRANCH   4   7
HETATM    7  C9  UNL     1     -43.037   5.779  -0.326  1.00 20.00     0.008 C 
HETATM    8  C5  UNL     1     -43.112   4.904   0.922  1.00 20.00     0.006 C 
ENDBRANCH   4   7
ENDBRANCH   1   4
BRANCH   2   9
HETATM    9  C8  UNL     1     -41.530   2.370  -3.240  1.00 20.00     0.029 C 
HETATM   10  C4  UNL     1     -42.434   1.878  -4.363  1.00 20.00     0.010 C 
ENDBRANCH   2   9
TORSDOF 3
ENDMDL
MODEL 7
REMARK VINA RESULT:      -3.9     11.059     12.161
REMARK  3 active torsions:
REMARK  status: ('A' for Active; 'I' for Inactive)
REMARK    1  A    between atoms: C1_1  and  C10_10 
REMARK    2  A    between atoms: C2_2  and  C8_8 
REMARK    3  A    between atoms: C9_9  and  C10_10 
ROOT
HETATM    1  C1  UNL     1     -33.015   6.689   4.592  1.00 20.00    -0.016 C 
HETATM    2  C2  UNL     1     -34.136   5.955   4.759  1.00 20.00    -0.087 C 
HETATM    3  C3  UNL     1     -34.821   5.370   3.544  1.00 20.00     0.043 C 
ENDROOT
BRANCH   1   4
HETATM    4  C10 UNL     1     -32.238   7.081   3.336  1.00 20.00    -0.030 C 
HETATM    5  C6  UNL     1     -30.876   7.692   3.727  1.00 20.00     0.019 C 
HETATM    6  C7  UNL     1     -31.926   5.784   2.545  1.00 20.00     0.019 C 
BRANCH   4   7
HETATM    7  C9  UNL     1     -32.997   8.061   2.399  1.00 20.00     0.008 C 
HETATM    8  C5  UNL     1     -32.129   8.801   1.385  1.00 20.00     0.006 C 
ENDBRANCH   4   7
ENDBRANCH   1   4
BRANCH   2   9
HETATM    9  C8  UNL     1     -34.787   5.594   6.073  1.00 20.00     0.029 C 
HETATM   10  C4  UNL     1     -35.166   4.122   6.166  1.00 20.00     0.010 C 
ENDBRANCH   2   9
TORSDOF 3
ENDMDL
MODEL 8
REMARK VINA RESULT:      -3.9     11.469     13.643
REMARK  3 active torsions:
REMARK  status: ('A' for Active; 'I' for Inactive)
REMARK    1  A    between atoms: C1_1  and  C10_10 
REMARK    2  A    between atoms: C2_2  and  C8_8 
REMARK    3  A    between atoms: C9_9  and  C10_10 
ROOT
HETATM    1  C1  UNL     1     -41.221   4.261  -1.679  1.00 20.00    -0.016 C 
HETATM    2  C2  UNL     1     -41.837   3.402  -2.520  1.00 20.00    -0.087 C 
HETATM    3  C3  UNL     1     -43.342   3.450  -2.650  1.00 20.00     0.043 C 
ENDROOT
BRANCH   1   4
HETATM    4  C10 UNL     1     -41.773   5.352  -0.763  1.00 20.00    -0.030 C 
HETATM    5  C6  UNL     1     -42.612   4.719   0.367  1.00 20.00     0.019 C 
HETATM    6  C7  UNL     1     -40.569   6.051  -0.078  1.00 20.00     0.019 C 
BRANCH   4   7
HETATM    7  C9  UNL     1     -42.619   6.430  -1.496  1.00 20.00     0.008 C 
HETATM    8  C5  UNL     1     -41.919   7.135  -2.655  1.00 20.00     0.006 C 
ENDBRANCH   4   7
ENDBRANCH   1   4
BRANCH   2   9
HETATM    9  C8  UNL     1     -41.167   2.388  -3.418  1.00 20.00     0.029 C 
HETATM   10  C4  UNL     1     -42.020   1.149  -3.657  1.00 20.00     0.010 C 
ENDBRANCH   2   9
TORSDOF 3
ENDMDL
MODEL 9
REMARK VINA RESULT:      -3.9      1.620      5.019
REMARK  3 active torsions:
REMARK  status: ('A' for Active; 'I' for Inactive)
REMARK    1  A    between atoms: C1_1  and  C10_10 
REMARK    2  A    between atoms: C2_2  and  C8_8 
REMARK    3  A    between atoms: C9_9  and  C10_10 
ROOT
HETATM    1  C1  UNL     1     -33.519  16.664  -2.080  1.00 20.00    -0.016 C 
HETATM    2  C2  UNL     1     -34.110  15.712  -2.833  1.00 20.00    -0.087 C 
HETATM    3  C3  UNL     1     -35.615  15.574  -2.798  1.00 20.00     0.043 C 
ENDROOT
BRANCH   1   4
HETATM    4  C10 UNL     1     -34.100  17.709  -1.128  1.00 20.00    -0.030 C 
HETATM    5  C6  UNL     1     -32.962  18.543  -0.502  1.00 20.00     0.019 C 
HETATM    6  C7  UNL     1     -34.957  18.692  -1.966  1.00 20.00     0.019 C 
BRANCH   4   7
HETATM    7  C9  UNL     1     -34.989  17.116   0.000  1.00 20.00     0.008 C 
HETATM    8  C5  UNL     1     -34.945  17.864   1.329  1.00 20.00     0.006 C 
ENDBRANCH   4   7
ENDBRANCH   1   4
BRANCH   2   9
HETATM    9  C8  UNL     1     -33.421  14.759  -3.782  1.00 20.00     0.029 C 
HETATM   10  C4  UNL     1     -34.298  13.581  -4.185  1.00 20.00     0.010 C 
ENDBRANCH   2   9
TORSDOF 3
ENDMDL
