MODEL 1
REMARK VINA RESULT:      -4.6      0.000      0.000
REMARK  2 active torsions:
REMARK  status: ('A' for Active; 'I' for Inactive)
REMARK    1  A    between atoms: C3_3  and  C8_8 
REMARK    2  A    between atoms: C4_4  and  C7_7 
ROOT
HETATM    1  C5  UNL     1     -34.591   6.568   3.136  1.00 20.00     0.040 C 
HETATM    2  C6  UNL     1     -35.295   5.510   3.954  1.00 20.00     0.045 C 
HETATM    3  C7  UNL     1     -33.140   6.131   3.252  1.00 20.00     0.151 C 
HETATM    4  C8  UNL     1     -34.310   5.269   5.098  1.00 20.00     0.075 C 
HETATM    5  C10 UNL     1     -34.361   3.834   5.610  1.00 20.00     0.050 C 
HETATM    6  O11 UNL     1     -32.999   5.514   4.545  1.00 20.00    -0.367 OA
ENDROOT
BRANCH   3   7
HETATM    7  C4  UNL     1     -32.177   7.260   3.124  1.00 20.00    -0.065 C 
HETATM    8  C2  UNL     1     -31.278   7.536   4.079  1.00 20.00     0.016 C 
HETATM    9  C9  UNL     1     -32.271   8.069   1.865  1.00 20.00     0.045 C 
ENDBRANCH   3   7
BRANCH   4  10
HETATM   10  C3  UNL     1     -34.515   6.223   6.238  1.00 20.00     0.000 C 
HETATM   11  C1  UNL     1     -33.577   7.062   6.691  1.00 20.00     0.010 C 
ENDBRANCH   4  10
TORSDOF 2
ENDMDL
MODEL 2
REMARK VINA RESULT:      -4.4     11.488     12.618
REMARK  2 active torsions:
REMARK  status: ('A' for Active; 'I' for Inactive)
REMARK    1  A    between atoms: C3_3  and  C8_8 
REMARK    2  A    between atoms: C4_4  and  C7_7 
ROOT
HETATM    1  C5  UNL     1     -33.591  16.743  -4.279  1.00 20.00     0.040 C 
HETATM    2  C6  UNL     1     -33.857  15.563  -5.186  1.00 20.00     0.045 C 
HETATM    3  C7  UNL     1     -33.584  16.084  -2.910  1.00 20.00     0.151 C 
HETATM    4  C8  UNL     1     -34.841  14.731  -4.363  1.00 20.00     0.075 C 
HETATM    5  C10 UNL     1     -34.703  13.238  -4.637  1.00 20.00     0.050 C 
HETATM    6  O11 UNL     1     -34.506  14.980  -2.981  1.00 20.00    -0.367 OA
ENDROOT
BRANCH   3   7
HETATM    7  C4  UNL     1     -33.986  17.007  -1.813  1.00 20.00    -0.065 C 
HETATM    8  C2  UNL     1     -34.680  16.582  -0.748  1.00 20.00     0.016 C 
HETATM    9  C9  UNL     1     -33.571  18.439  -1.969  1.00 20.00     0.045 C 
ENDBRANCH   3   7
BRANCH   4  10
HETATM   10  C3  UNL     1     -36.264  15.158  -4.576  1.00 20.00     0.000 C 
HETATM   11  C1  UNL     1     -37.249  14.946  -3.696  1.00 20.00     0.010 C 
ENDBRANCH   4  10
TORSDOF 2
ENDMDL
MODEL 3
REMARK VINA RESULT:      -4.3     11.357     12.759
REMARK  2 active torsions:
REMARK  status: ('A' for Active; 'I' for Inactive)
REMARK    1  A    between atoms: C3_3  and  C8_8 
REMARK    2  A    between atoms: C4_4  and  C7_7 
ROOT
HETATM    1  C5  UNL     1     -36.461  15.578  -3.250  1.00 20.00     0.040 C 
HETATM    2  C6  UNL     1     -36.645  14.682  -4.454  1.00 20.00     0.045 C 
HETATM    3  C7  UNL     1     -35.398  16.545  -3.746  1.00 20.00     0.151 C 
HETATM    4  C8  UNL     1     -35.220  14.564  -4.997  1.00 20.00     0.075 C 
HETATM    5  C10 UNL     1     -35.193  14.390  -6.511  1.00 20.00     0.050 C 
HETATM    6  O11 UNL     1     -34.569  15.808  -4.664  1.00 20.00    -0.367 OA
ENDROOT
BRANCH   3   7
HETATM    7  C4  UNL     1     -34.562  17.108  -2.651  1.00 20.00    -0.065 C 
HETATM    8  C2  UNL     1     -33.795  18.193  -2.832  1.00 20.00     0.016 C 
HETATM    9  C9  UNL     1     -34.628  16.394  -1.335  1.00 20.00     0.045 C 
ENDBRANCH   3   7
BRANCH   4  10
HETATM   10  C3  UNL     1     -34.452  13.453  -4.343  1.00 20.00     0.000 C 
HETATM   11  C1  UNL     1     -33.276  13.617  -3.727  1.00 20.00     0.010 C 
ENDBRANCH   4  10
TORSDOF 2
ENDMDL
MODEL 4
REMARK VINA RESULT:      -4.2     11.490     13.224
REMARK  2 active torsions:
REMARK  status: ('A' for Active; 'I' for Inactive)
REMARK    1  A    between atoms: C3_3  and  C8_8 
REMARK    2  A    between atoms: C4_4  and  C7_7 
ROOT
HETATM    1  C5  UNL     1     -34.669  13.588  -5.259  1.00 20.00     0.040 C 
HETATM    2  C6  UNL     1     -34.655  13.719  -3.753  1.00 20.00     0.045 C 
HETATM    3  C7  UNL     1     -34.293  14.995  -5.693  1.00 20.00     0.151 C 
HETATM    4  C8  UNL     1     -35.223  15.122  -3.539  1.00 20.00     0.075 C 
HETATM    5  C10 UNL     1     -34.654  15.790  -2.292  1.00 20.00     0.050 C 
HETATM    6  O11 UNL     1     -34.822  15.888  -4.696  1.00 20.00    -0.367 OA
ENDROOT
BRANCH   3   7
HETATM    7  C4  UNL     1     -34.833  15.358  -7.033  1.00 20.00    -0.065 C 
HETATM    8  C2  UNL     1     -35.460  14.463  -7.810  1.00 20.00     0.016 C 
HETATM    9  C9  UNL     1     -34.634  16.780  -7.462  1.00 20.00     0.045 C 
ENDBRANCH   3   7
BRANCH   4  10
HETATM   10  C3  UNL     1     -36.722  15.127  -3.481  1.00 20.00     0.000 C 
HETATM   11  C1  UNL     1     -37.495  15.991  -4.149  1.00 20.00     0.010 C 
ENDBRANCH   4  10
TORSDOF 2
ENDMDL
MODEL 5
REMARK VINA RESULT:      -4.2     11.571     13.255
REMARK  2 active torsions:
REMARK  status: ('A' for Active; 'I' for Inactive)
REMARK    1  A    between atoms: C3_3  and  C8_8 
REMARK    2  A    between atoms: C4_4  and  C7_7 
ROOT
HETATM    1  C5  UNL     1     -34.394  14.294  -3.407  1.00 20.00     0.040 C 
HETATM    2  C6  UNL     1     -35.046  13.784  -4.672  1.00 20.00     0.045 C 
HETATM    3  C7  UNL     1     -35.243  15.514  -3.094  1.00 20.00     0.151 C 
HETATM    4  C8  UNL     1     -35.417  15.079  -5.396  1.00 20.00     0.075 C 
HETATM    5  C10 UNL     1     -36.673  14.925  -6.246  1.00 20.00     0.050 C 
HETATM    6  O11 UNL     1     -35.679  16.047  -4.358  1.00 20.00    -0.367 OA
ENDROOT
BRANCH   3   7
HETATM    7  C4  UNL     1     -34.506  16.560  -2.332  1.00 20.00    -0.065 C 
HETATM    8  C2  UNL     1     -33.736  17.471  -2.943  1.00 20.00     0.016 C 
HETATM    9  C9  UNL     1     -34.675  16.535  -0.842  1.00 20.00     0.045 C 
ENDBRANCH   3   7
BRANCH   4  10
HETATM   10  C3  UNL     1     -34.292  15.602  -6.240  1.00 20.00     0.000 C 
HETATM   11  C1  UNL     1     -34.238  16.845  -6.730  1.00 20.00     0.010 C 
ENDBRANCH   4  10
TORSDOF 2
ENDMDL
MODEL 6
REMARK VINA RESULT:      -4.2     11.400     13.535
REMARK  2 active torsions:
REMARK  status: ('A' for Active; 'I' for Inactive)
REMARK    1  A    between atoms: C3_3  and  C8_8 
REMARK    2  A    between atoms: C4_4  and  C7_7 
ROOT
HETATM    1  C5  UNL     1     -34.061  17.103  -5.574  1.00 20.00     0.040 C 
HETATM    2  C6  UNL     1     -33.658  17.311  -4.132  1.00 20.00     0.045 C 
HETATM    3  C7  UNL     1     -35.387  16.377  -5.421  1.00 20.00     0.151 C 
HETATM    4  C8  UNL     1     -34.132  16.018  -3.468  1.00 20.00     0.075 C 
HETATM    5  C10 UNL     1     -34.543  16.234  -2.016  1.00 20.00     0.050 C 
HETATM    6  O11 UNL     1     -35.290  15.594  -4.217  1.00 20.00    -0.367 OA
ENDROOT
BRANCH   3   7
HETATM    7  C4  UNL     1     -35.707  15.491  -6.575  1.00 20.00    -0.065 C 
HETATM    8  C2  UNL     1     -36.971  15.226  -6.935  1.00 20.00     0.016 C 
HETATM    9  C9  UNL     1     -34.535  14.914  -7.309  1.00 20.00     0.045 C 
ENDBRANCH   3   7
BRANCH   4  10
HETATM   10  C3  UNL     1     -33.105  14.927  -3.550  1.00 20.00     0.000 C 
HETATM   11  C1  UNL     1     -33.391  13.650  -3.827  1.00 20.00     0.010 C 
ENDBRANCH   4  10
TORSDOF 2
ENDMDL
MODEL 7
REMARK VINA RESULT:      -4.2     11.903     13.356
REMARK  2 active torsions:
REMARK  status: ('A' for Active; 'I' for Inactive)
REMARK    1  A    between atoms: C3_3  and  C8_8 
REMARK    2  A    between atoms: C4_4  and  C7_7 
ROOT
HETATM    1  C5  UNL     1     -33.340  16.428  -4.891  1.00 20.00     0.040 C 
HETATM    2  C6  UNL     1     -33.676  17.539  -3.922  1.00 20.00     0.045 C 
HETATM    3  C7  UNL     1     -34.718  16.036  -5.399  1.00 20.00     0.151 C 
HETATM    4  C8  UNL     1     -34.978  17.043  -3.292  1.00 20.00     0.075 C 
HETATM    5  C10 UNL     1     -35.897  18.190  -2.889  1.00 20.00     0.050 C 
HETATM    6  O11 UNL     1     -35.635  16.262  -4.313  1.00 20.00    -0.367 OA
ENDROOT
BRANCH   3   7
HETATM    7  C4  UNL     1     -34.797  14.616  -5.839  1.00 20.00    -0.065 C 
HETATM    8  C2  UNL     1     -35.215  14.278  -7.067  1.00 20.00     0.016 C 
HETATM    9  C9  UNL     1     -34.384  13.587  -4.831  1.00 20.00     0.045 C 
ENDBRANCH   3   7
BRANCH   4  10
HETATM   10  C3  UNL     1     -34.735  16.147  -2.112  1.00 20.00     0.000 C 
HETATM   11  C1  UNL     1     -34.611  16.584  -0.854  1.00 20.00     0.010 C 
ENDBRANCH   4  10
TORSDOF 2
ENDMDL
MODEL 8
REMARK VINA RESULT:      -4.2     11.418     12.388
REMARK  2 active torsions:
REMARK  status: ('A' for Active; 'I' for Inactive)
REMARK    1  A    between atoms: C3_3  and  C8_8 
REMARK    2  A    between atoms: C4_4  and  C7_7 
ROOT
HETATM    1  C5  UNL     1     -35.322  17.276  -3.066  1.00 20.00     0.040 C 
HETATM    2  C6  UNL     1     -35.540  18.085  -1.807  1.00 20.00     0.045 C 
HETATM    3  C7  UNL     1     -35.181  15.870  -2.506  1.00 20.00     0.151 C 
HETATM    4  C8  UNL     1     -34.618  17.391  -0.806  1.00 20.00     0.075 C 
HETATM    5  C10 UNL     1     -35.152  17.469   0.620  1.00 20.00     0.050 C 
HETATM    6  O11 UNL     1     -34.576  16.005  -1.207  1.00 20.00    -0.367 OA
ENDROOT
BRANCH   3   7
HETATM    7  C4  UNL     1     -34.348  14.981  -3.361  1.00 20.00    -0.065 C 
HETATM    8  C2  UNL     1     -33.057  15.242  -3.608  1.00 20.00     0.016 C 
HETATM    9  C9  UNL     1     -35.036  13.776  -3.930  1.00 20.00     0.045 C 
ENDBRANCH   3   7
BRANCH   4  10
HETATM   10  C3  UNL     1     -33.217  17.926  -0.855  1.00 20.00     0.000 C 
HETATM   11  C1  UNL     1     -32.696  18.746   0.065  1.00 20.00     0.010 C 
ENDBRANCH   4  10
TORSDOF 2
ENDMDL
MODEL 9
REMARK VINA RESULT:      -4.1     11.472     13.568
REMARK  2 active torsions:
REMARK  status: ('A' for Active; 'I' for Inactive)
REMARK    1  A    between atoms: C3_3  and  C8_8 
REMARK    2  A    between atoms: C4_4  and  C7_7 
ROOT
HETATM    1  C5  UNL     1     -34.945  16.220  -5.930  1.00 20.00     0.040 C 
HETATM    2  C6  UNL     1     -34.849  14.835  -5.332  1.00 20.00     0.045 C 
HETATM    3  C7  UNL     1     -33.585  16.801  -5.578  1.00 20.00     0.151 C 
HETATM    4  C8  UNL     1     -34.062  15.086  -4.046  1.00 20.00     0.075 C 
HETATM    5  C10 UNL     1     -33.202  13.889  -3.654  1.00 20.00     0.050 C 
HETATM    6  O11 UNL     1     -33.195  16.204  -4.328  1.00 20.00    -0.367 OA
ENDROOT
BRANCH   3   7
HETATM    7  C4  UNL     1     -33.599  18.284  -5.447  1.00 20.00    -0.065 C 
HETATM    8  C2  UNL     1     -33.553  18.890  -4.252  1.00 20.00     0.016 C 
HETATM    9  C9  UNL     1     -33.667  19.060  -6.728  1.00 20.00     0.045 C 
ENDBRANCH   3   7
BRANCH   4  10
HETATM   10  C3  UNL     1     -34.951  15.470  -2.900  1.00 20.00     0.000 C 
HETATM   11  C1  UNL     1     -34.539  16.164  -1.832  1.00 20.00     0.010 C 
ENDBRANCH   4  10
TORSDOF 2
ENDMDL
