MODEL 1
REMARK VINA RESULT:      -4.1      0.000      0.000
REMARK  0 active torsions:
REMARK  status: ('A' for Active; 'I' for Inactive)
ROOT
HETATM    1  C1  UNL     1     -34.108   5.409   3.689  1.00 20.00     0.009 A 
HETATM    2  C2  UNL     1     -35.550   5.710   3.981  1.00 20.00     0.009 A 
HETATM    3  C3  UNL     1     -34.628   5.286   5.101  1.00 20.00    -0.048 A 
HETATM    4  C4  UNL     1     -34.800   3.906   5.672  1.00 20.00     0.015 C 
HETATM    5  C5  UNL     1     -34.209   6.329   6.101  1.00 20.00     0.015 C 
ENDROOT
TORSDOF 0
ENDMDL
MODEL 2
REMARK VINA RESULT:      -4.1      0.031      1.861
REMARK  0 active torsions:
REMARK  status: ('A' for Active; 'I' for Inactive)
ROOT
HETATM    1  C1  UNL     1     -35.530   5.714   3.966  1.00 20.00     0.009 A 
HETATM    2  C2  UNL     1     -34.083   5.421   3.693  1.00 20.00     0.009 A 
HETATM    3  C3  UNL     1     -34.629   5.273   5.095  1.00 20.00    -0.048 A 
HETATM    4  C4  UNL     1     -34.228   6.298   6.119  1.00 20.00     0.015 C 
HETATM    5  C5  UNL     1     -34.808   3.882   5.639  1.00 20.00     0.015 C 
ENDROOT
TORSDOF 0
ENDMDL
MODEL 3
REMARK VINA RESULT:      -4.0      0.714      2.386
REMARK  0 active torsions:
REMARK  status: ('A' for Active; 'I' for Inactive)
ROOT
HETATM    1  C1  UNL     1     -34.365   4.262   5.695  1.00 20.00     0.009 A 
HETATM    2  C2  UNL     1     -34.682   5.626   6.238  1.00 20.00     0.009 A 
HETATM    3  C3  UNL     1     -34.498   5.434   4.750  1.00 20.00    -0.048 A 
HETATM    4  C4  UNL     1     -33.246   5.976   4.119  1.00 20.00     0.015 C 
HETATM    5  C5  UNL     1     -35.719   5.499   3.875  1.00 20.00     0.015 C 
ENDROOT
TORSDOF 0
ENDMDL
MODEL 4
REMARK VINA RESULT:      -4.0      0.707      2.241
REMARK  0 active torsions:
REMARK  status: ('A' for Active; 'I' for Inactive)
ROOT
HETATM    1  C1  UNL     1     -34.673   5.601   6.228  1.00 20.00     0.009 A 
HETATM    2  C2  UNL     1     -34.377   4.237   5.674  1.00 20.00     0.009 A 
HETATM    3  C3  UNL     1     -34.504   5.417   4.738  1.00 20.00    -0.048 A 
HETATM    4  C4  UNL     1     -35.731   5.502   3.873  1.00 20.00     0.015 C 
HETATM    5  C5  UNL     1     -33.250   5.949   4.099  1.00 20.00     0.015 C 
ENDROOT
TORSDOF 0
ENDMDL
MODEL 5
REMARK VINA RESULT:      -3.9      0.788      1.953
REMARK  0 active torsions:
REMARK  status: ('A' for Active; 'I' for Inactive)
ROOT
HETATM    1  C1  UNL     1     -34.386   4.128   5.352  1.00 20.00     0.009 A 
HETATM    2  C2  UNL     1     -35.487   4.968   4.771  1.00 20.00     0.009 A 
HETATM    3  C3  UNL     1     -34.163   5.605   5.126  1.00 20.00    -0.048 A 
HETATM    4  C4  UNL     1     -34.113   6.504   6.330  1.00 20.00     0.015 C 
HETATM    5  C5  UNL     1     -33.255   6.018   4.000  1.00 20.00     0.015 C 
ENDROOT
TORSDOF 0
ENDMDL
MODEL 6
REMARK VINA RESULT:      -3.9      0.789      1.953
REMARK  0 active torsions:
REMARK  status: ('A' for Active; 'I' for Inactive)
ROOT
HETATM    1  C1  UNL     1     -35.486   4.967   4.774  1.00 20.00     0.009 A 
HETATM    2  C2  UNL     1     -34.385   4.128   5.354  1.00 20.00     0.009 A 
HETATM    3  C3  UNL     1     -34.163   5.606   5.126  1.00 20.00    -0.048 A 
HETATM    4  C4  UNL     1     -33.256   6.017   4.000  1.00 20.00     0.015 C 
HETATM    5  C5  UNL     1     -34.113   6.505   6.331  1.00 20.00     0.015 C 
ENDROOT
TORSDOF 0
ENDMDL
MODEL 7
REMARK VINA RESULT:      -3.5      0.628      1.991
REMARK  0 active torsions:
REMARK  status: ('A' for Active; 'I' for Inactive)
ROOT
HETATM    1  C1  UNL     1     -33.294   5.765   4.397  1.00 20.00     0.009 A 
HETATM    2  C2  UNL     1     -34.058   6.467   5.483  1.00 20.00     0.009 A 
HETATM    3  C3  UNL     1     -34.678   5.288   4.769  1.00 20.00    -0.048 A 
HETATM    4  C4  UNL     1     -35.800   5.558   3.805  1.00 20.00     0.015 C 
HETATM    5  C5  UNL     1     -34.799   3.992   5.523  1.00 20.00     0.015 C 
ENDROOT
TORSDOF 0
ENDMDL
MODEL 8
REMARK VINA RESULT:      -3.3      1.589      2.717
REMARK  0 active torsions:
REMARK  status: ('A' for Active; 'I' for Inactive)
ROOT
HETATM    1  C1  UNL     1     -32.906   7.195   3.006  1.00 20.00     0.009 A 
HETATM    2  C2  UNL     1     -32.208   5.898   3.300  1.00 20.00     0.009 A 
HETATM    3  C3  UNL     1     -33.583   6.160   3.872  1.00 20.00    -0.048 A 
HETATM    4  C4  UNL     1     -33.693   6.436   5.346  1.00 20.00     0.015 C 
HETATM    5  C5  UNL     1     -34.745   5.402   3.289  1.00 20.00     0.015 C 
ENDROOT
TORSDOF 0
ENDMDL
MODEL 9
REMARK VINA RESULT:      -2.8      8.635      9.052
REMARK  0 active torsions:
REMARK  status: ('A' for Active; 'I' for Inactive)
ROOT
HETATM    1  C1  UNL     1     -40.691   4.554  -1.093  1.00 20.00     0.009 A 
HETATM    2  C2  UNL     1     -41.871   4.907  -1.951  1.00 20.00     0.009 A 
HETATM    3  C3  UNL     1     -41.592   5.699  -0.694  1.00 20.00    -0.048 A 
HETATM    4  C4  UNL     1     -42.506   5.500   0.483  1.00 20.00     0.015 C 
HETATM    5  C5  UNL     1     -41.063   7.099  -0.846  1.00 20.00     0.015 C 
ENDROOT
TORSDOF 0
ENDMDL
