MODEL 1
REMARK VINA RESULT:      -5.0      0.000      0.000
REMARK  3 active torsions:
REMARK  status: ('A' for Active; 'I' for Inactive)
REMARK    1  A    between atoms: C1_1  and  C3_3 
REMARK    2  A    between atoms: C1_1  and  O4_4 
REMARK    3  A    between atoms: C2_2  and  O4_4 
ROOT
HETATM    1  C1  UNL     1     -33.704   6.268   4.606  1.00 20.00     0.291 C 
ENDROOT
BRANCH   1   2
HETATM    2  C3  UNL     1     -33.050   6.193   3.251  1.00 20.00     0.408 C 
HETATM    3  F7  UNL     1     -31.816   5.652   3.348  1.00 20.00    -0.169 F 
HETATM    4  F8  UNL     1     -32.920   7.419   2.701  1.00 20.00    -0.169 F 
HETATM    5  F9  UNL     1     -33.767   5.427   2.402  1.00 20.00    -0.169 F 
ENDBRANCH   1   2
BRANCH   1   6
HETATM    6  O4  UNL     1     -34.899   5.501   4.587  1.00 20.00    -0.324 OA
BRANCH   6   7
HETATM    7  C2  UNL     1     -35.043   4.686   5.741  1.00 20.00     0.500 C 
HETATM    8  F5  UNL     1     -34.805   3.394   5.415  1.00 20.00    -0.185 F 
HETATM    9  F6  UNL     1     -34.132   5.056   6.672  1.00 20.00    -0.185 F 
ENDBRANCH   6   7
ENDBRANCH   1   6
TORSDOF 3
ENDMDL
MODEL 2
REMARK VINA RESULT:      -5.0      0.014      1.259
REMARK  3 active torsions:
REMARK  status: ('A' for Active; 'I' for Inactive)
REMARK    1  A    between atoms: C1_1  and  C3_3 
REMARK    2  A    between atoms: C1_1  and  O4_4 
REMARK    3  A    between atoms: C2_2  and  O4_4 
ROOT
HETATM    1  C1  UNL     1     -33.704   6.270   4.602  1.00 20.00     0.291 C 
ENDROOT
BRANCH   1   2
HETATM    2  C3  UNL     1     -33.045   6.189   3.249  1.00 20.00     0.408 C 
HETATM    3  F7  UNL     1     -32.918   7.420   2.708  1.00 20.00    -0.169 F 
HETATM    4  F8  UNL     1     -33.770   5.436   2.395  1.00 20.00    -0.169 F 
HETATM    5  F9  UNL     1     -31.810   5.650   3.337  1.00 20.00    -0.169 F 
ENDBRANCH   1   2
BRANCH   1   6
HETATM    6  O4  UNL     1     -34.896   5.500   4.583  1.00 20.00    -0.324 OA
BRANCH   6   7
HETATM    7  C2  UNL     1     -35.040   4.688   5.740  1.00 20.00     0.500 C 
HETATM    8  F5  UNL     1     -34.781   3.398   5.423  1.00 20.00    -0.185 F 
HETATM    9  F6  UNL     1     -34.143   5.076   6.678  1.00 20.00    -0.185 F 
ENDBRANCH   6   7
ENDBRANCH   1   6
TORSDOF 3
ENDMDL
MODEL 3
REMARK VINA RESULT:      -5.0      0.069      1.271
REMARK  3 active torsions:
REMARK  status: ('A' for Active; 'I' for Inactive)
REMARK    1  A    between atoms: C1_1  and  C3_3 
REMARK    2  A    between atoms: C1_1  and  O4_4 
REMARK    3  A    between atoms: C2_2  and  O4_4 
ROOT
HETATM    1  C1  UNL     1     -33.683   6.261   4.580  1.00 20.00     0.291 C 
ENDROOT
BRANCH   1   2
HETATM    2  C3  UNL     1     -33.026   6.178   3.227  1.00 20.00     0.408 C 
HETATM    3  F7  UNL     1     -33.774   5.437   2.380  1.00 20.00    -0.169 F 
HETATM    4  F8  UNL     1     -31.807   5.604   3.308  1.00 20.00    -0.169 F 
HETATM    5  F9  UNL     1     -32.878   7.403   2.678  1.00 20.00    -0.169 F 
ENDBRANCH   1   2
BRANCH   1   6
HETATM    6  O4  UNL     1     -34.876   5.491   4.564  1.00 20.00    -0.324 OA
BRANCH   6   7
HETATM    7  C2  UNL     1     -35.041   4.716   5.743  1.00 20.00     0.500 C 
HETATM    8  F5  UNL     1     -34.723   3.426   5.485  1.00 20.00    -0.185 F 
HETATM    9  F6  UNL     1     -34.200   5.169   6.703  1.00 20.00    -0.185 F 
ENDBRANCH   6   7
ENDBRANCH   1   6
TORSDOF 3
ENDMDL
MODEL 4
REMARK VINA RESULT:      -4.9      1.075      3.680
REMARK  3 active torsions:
REMARK  status: ('A' for Active; 'I' for Inactive)
REMARK    1  A    between atoms: C1_1  and  C3_3 
REMARK    2  A    between atoms: C1_1  and  O4_4 
REMARK    3  A    between atoms: C2_2  and  O4_4 
ROOT
HETATM    1  C1  UNL     1     -33.857   5.727   5.255  1.00 20.00     0.291 C 
ENDROOT
BRANCH   1   2
HETATM    2  C3  UNL     1     -35.030   4.791   5.393  1.00 20.00     0.408 C 
HETATM    3  F7  UNL     1     -35.620   4.944   6.599  1.00 20.00    -0.169 F 
HETATM    4  F8  UNL     1     -34.644   3.503   5.283  1.00 20.00    -0.169 F 
HETATM    5  F9  UNL     1     -35.963   5.032   4.447  1.00 20.00    -0.169 F 
ENDBRANCH   1   2
BRANCH   1   6
HETATM    6  O4  UNL     1     -34.071   6.576   4.137  1.00 20.00    -0.324 OA
BRANCH   6   7
HETATM    7  C2  UNL     1     -33.263   6.224   3.023  1.00 20.00     0.500 C 
HETATM    8  F5  UNL     1     -32.053   5.799   3.457  1.00 20.00    -0.185 F 
HETATM    9  F6  UNL     1     -33.845   5.206   2.346  1.00 20.00    -0.185 F 
ENDBRANCH   6   7
ENDBRANCH   1   6
TORSDOF 3
ENDMDL
MODEL 5
REMARK VINA RESULT:      -4.9      1.057      3.607
REMARK  3 active torsions:
REMARK  status: ('A' for Active; 'I' for Inactive)
REMARK    1  A    between atoms: C1_1  and  C3_3 
REMARK    2  A    between atoms: C1_1  and  O4_4 
REMARK    3  A    between atoms: C2_2  and  O4_4 
ROOT
HETATM    1  C1  UNL     1     -33.839   5.859   5.251  1.00 20.00     0.291 C 
ENDROOT
BRANCH   1   2
HETATM    2  C3  UNL     1     -34.970   4.885   5.457  1.00 20.00     0.408 C 
HETATM    3  F7  UNL     1     -34.516   3.613   5.410  1.00 20.00    -0.169 F 
HETATM    4  F8  UNL     1     -35.914   5.021   4.503  1.00 20.00    -0.169 F 
HETATM    5  F9  UNL     1     -35.559   5.065   6.659  1.00 20.00    -0.169 F 
ENDBRANCH   1   2
BRANCH   1   6
HETATM    6  O4  UNL     1     -34.084   6.613   4.074  1.00 20.00    -0.324 OA
BRANCH   6   7
HETATM    7  C2  UNL     1     -33.268   6.206   2.985  1.00 20.00     0.500 C 
HETATM    8  F5  UNL     1     -32.065   5.793   3.451  1.00 20.00    -0.185 F 
HETATM    9  F6  UNL     1     -33.849   5.162   2.349  1.00 20.00    -0.185 F 
ENDBRANCH   6   7
ENDBRANCH   1   6
TORSDOF 3
ENDMDL
MODEL 6
REMARK VINA RESULT:      -4.9      1.074      3.686
REMARK  3 active torsions:
REMARK  status: ('A' for Active; 'I' for Inactive)
REMARK    1  A    between atoms: C1_1  and  C3_3 
REMARK    2  A    between atoms: C1_1  and  O4_4 
REMARK    3  A    between atoms: C2_2  and  O4_4 
ROOT
HETATM    1  C1  UNL     1     -33.863   5.743   5.258  1.00 20.00     0.291 C 
ENDROOT
BRANCH   1   2
HETATM    2  C3  UNL     1     -35.027   4.798   5.406  1.00 20.00     0.408 C 
HETATM    3  F7  UNL     1     -35.957   5.036   4.455  1.00 20.00    -0.169 F 
HETATM    4  F8  UNL     1     -35.622   4.939   6.609  1.00 20.00    -0.169 F 
HETATM    5  F9  UNL     1     -34.633   3.512   5.282  1.00 20.00    -0.169 F 
ENDBRANCH   1   2
BRANCH   1   6
HETATM    6  O4  UNL     1     -34.083   6.576   4.129  1.00 20.00    -0.324 OA
BRANCH   6   7
HETATM    7  C2  UNL     1     -33.268   6.220   3.022  1.00 20.00     0.500 C 
HETATM    8  F5  UNL     1     -32.061   5.798   3.465  1.00 20.00    -0.185 F 
HETATM    9  F6  UNL     1     -33.845   5.199   2.345  1.00 20.00    -0.185 F 
ENDBRANCH   6   7
ENDBRANCH   1   6
TORSDOF 3
ENDMDL
MODEL 7
REMARK VINA RESULT:      -4.9      1.125      1.841
REMARK  3 active torsions:
REMARK  status: ('A' for Active; 'I' for Inactive)
REMARK    1  A    between atoms: C1_1  and  C3_3 
REMARK    2  A    between atoms: C1_1  and  O4_4 
REMARK    3  A    between atoms: C2_2  and  O4_4 
ROOT
HETATM    1  C1  UNL     1     -33.881   6.553   3.870  1.00 20.00     0.291 C 
ENDROOT
BRANCH   1   2
HETATM    2  C3  UNL     1     -32.487   6.758   3.338  1.00 20.00     0.408 C 
HETATM    3  F7  UNL     1     -32.512   7.514   2.219  1.00 20.00    -0.169 F 
HETATM    4  F8  UNL     1     -31.903   5.581   3.027  1.00 20.00    -0.169 F 
HETATM    5  F9  UNL     1     -31.705   7.388   4.241  1.00 20.00    -0.169 F 
ENDBRANCH   1   2
BRANCH   1   6
HETATM    6  O4  UNL     1     -33.919   5.348   4.620  1.00 20.00    -0.324 OA
BRANCH   6   7
HETATM    7  C2  UNL     1     -34.489   5.524   5.908  1.00 20.00     0.500 C 
HETATM    8  F5  UNL     1     -34.132   4.491   6.707  1.00 20.00    -0.185 F 
HETATM    9  F6  UNL     1     -34.012   6.664   6.462  1.00 20.00    -0.185 F 
ENDBRANCH   6   7
ENDBRANCH   1   6
TORSDOF 3
ENDMDL
MODEL 8
REMARK VINA RESULT:      -4.8      1.158      1.424
REMARK  3 active torsions:
REMARK  status: ('A' for Active; 'I' for Inactive)
REMARK    1  A    between atoms: C1_1  and  C3_3 
REMARK    2  A    between atoms: C1_1  and  O4_4 
REMARK    3  A    between atoms: C2_2  and  O4_4 
ROOT
HETATM    1  C1  UNL     1     -33.876   6.535   3.811  1.00 20.00     0.291 C 
ENDROOT
BRANCH   1   2
HETATM    2  C3  UNL     1     -32.494   6.774   3.261  1.00 20.00     0.408 C 
HETATM    3  F7  UNL     1     -31.708   7.364   4.188  1.00 20.00    -0.169 F 
HETATM    4  F8  UNL     1     -32.529   7.579   2.178  1.00 20.00    -0.169 F 
HETATM    5  F9  UNL     1     -31.903   5.614   2.901  1.00 20.00    -0.169 F 
ENDBRANCH   1   2
BRANCH   1   6
HETATM    6  O4  UNL     1     -33.847   5.397   4.658  1.00 20.00    -0.324 OA
BRANCH   6   7
HETATM    7  C2  UNL     1     -34.430   5.647   5.929  1.00 20.00     0.500 C 
HETATM    8  F5  UNL     1     -34.197   4.596   6.749  1.00 20.00    -0.185 F 
HETATM    9  F6  UNL     1     -33.855   6.743   6.482  1.00 20.00    -0.185 F 
ENDBRANCH   6   7
ENDBRANCH   1   6
TORSDOF 3
ENDMDL
MODEL 9
REMARK VINA RESULT:      -4.8      1.876      2.449
REMARK  3 active torsions:
REMARK  status: ('A' for Active; 'I' for Inactive)
REMARK    1  A    between atoms: C1_1  and  C3_3 
REMARK    2  A    between atoms: C1_1  and  O4_4 
REMARK    3  A    between atoms: C2_2  and  O4_4 
ROOT
HETATM    1  C1  UNL     1     -33.924   6.505   3.914  1.00 20.00     0.291 C 
ENDROOT
BRANCH   1   2
HETATM    2  C3  UNL     1     -34.807   5.381   3.439  1.00 20.00     0.408 C 
HETATM    3  F7  UNL     1     -34.772   4.349   4.310  1.00 20.00    -0.169 F 
HETATM    4  F8  UNL     1     -34.408   4.918   2.236  1.00 20.00    -0.169 F 
HETATM    5  F9  UNL     1     -36.093   5.780   3.329  1.00 20.00    -0.169 F 
ENDBRANCH   1   2
BRANCH   1   6
HETATM    6  O4  UNL     1     -33.350   6.149   5.162  1.00 20.00    -0.324 OA
BRANCH   6   7
HETATM    7  C2  UNL     1     -34.014   6.757   6.261  1.00 20.00     0.500 C 
HETATM    8  F5  UNL     1     -34.722   5.821   6.936  1.00 20.00    -0.185 F 
HETATM    9  F6  UNL     1     -33.097   7.279   7.110  1.00 20.00    -0.185 F 
ENDBRANCH   6   7
ENDBRANCH   1   6
TORSDOF 3
ENDMDL
