MODEL 1
REMARK VINA RESULT:      -4.3      0.000      0.000
REMARK  4 active torsions:
REMARK  status: ('A' for Active; 'I' for Inactive)
REMARK    1  A    between atoms: C2_2  and  C5_5 
REMARK    2  A    between atoms: C2_2  and  C6_6 
REMARK    3  A    between atoms: C5_5  and  O7_7 
REMARK    4  A    between atoms: C6_6  and  S8_8 
ROOT
HETATM    1  C1  UNL     1     -34.227   5.981   6.196  1.00 20.00    -0.025 C 
HETATM    2  C2  UNL     1     -34.475   5.743   4.893  1.00 20.00    -0.051 C 
HETATM    3  C3  UNL     1     -33.568   7.179   6.798  1.00 20.00     0.036 C 
ENDROOT
BRANCH   2   4
HETATM    4  C5  UNL     1     -35.175   4.469   4.483  1.00 20.00     0.198 C 
BRANCH   4   5
HETATM    5  O7  UNL     1     -35.295   3.609   5.610  1.00 20.00    -0.397 OA
HETATM    6  H20 UNL     1     -36.216   3.302   5.631  1.00 20.00     0.209 HD
ENDBRANCH   4   5
ENDBRANCH   2   4
BRANCH   2   7
HETATM    7  C6  UNL     1     -34.069   6.668   3.771  1.00 20.00     0.109 C 
BRANCH   7   8
HETATM    8  S8  UNL     1     -32.360   6.347   3.256  1.00 20.00    -0.169 SA
HETATM    9  C4  UNL     1     -32.061   7.889   2.359  1.00 20.00     0.090 C 
ENDBRANCH   7   8
ENDBRANCH   2   7
TORSDOF 4
ENDMDL
MODEL 2
REMARK VINA RESULT:      -3.6     12.210     12.652
REMARK  4 active torsions:
REMARK  status: ('A' for Active; 'I' for Inactive)
REMARK    1  A    between atoms: C2_2  and  C5_5 
REMARK    2  A    between atoms: C2_2  and  C6_6 
REMARK    3  A    between atoms: C5_5  and  O7_7 
REMARK    4  A    between atoms: C6_6  and  S8_8 
ROOT
HETATM    1  C1  UNL     1     -34.960  15.640  -2.237  1.00 20.00    -0.025 C 
HETATM    2  C2  UNL     1     -34.661  14.999  -3.384  1.00 20.00    -0.051 C 
HETATM    3  C3  UNL     1     -34.139  16.661  -1.519  1.00 20.00     0.036 C 
ENDROOT
BRANCH   2   4
HETATM    4  C5  UNL     1     -35.640  14.006  -3.965  1.00 20.00     0.198 C 
BRANCH   4   5
HETATM    5  O7  UNL     1     -35.018  12.731  -4.073  1.00 20.00    -0.397 OA
HETATM    6  H20 UNL     1     -35.634  12.160  -4.560  1.00 20.00     0.209 HD
ENDBRANCH   4   5
ENDBRANCH   2   4
BRANCH   2   7
HETATM    7  C6  UNL     1     -33.370  15.181  -4.144  1.00 20.00     0.109 C 
BRANCH   7   8
HETATM    8  S8  UNL     1     -33.488  16.582  -5.290  1.00 20.00    -0.169 SA
HETATM    9  C4  UNL     1     -34.115  15.691  -6.733  1.00 20.00     0.090 C 
ENDBRANCH   7   8
ENDBRANCH   2   7
TORSDOF 4
ENDMDL
MODEL 3
REMARK VINA RESULT:      -3.6     12.216     12.712
REMARK  4 active torsions:
REMARK  status: ('A' for Active; 'I' for Inactive)
REMARK    1  A    between atoms: C2_2  and  C5_5 
REMARK    2  A    between atoms: C2_2  and  C6_6 
REMARK    3  A    between atoms: C5_5  and  O7_7 
REMARK    4  A    between atoms: C6_6  and  S8_8 
ROOT
HETATM    1  C1  UNL     1     -35.029  15.603  -2.216  1.00 20.00    -0.025 C 
HETATM    2  C2  UNL     1     -34.671  15.057  -3.395  1.00 20.00    -0.051 C 
HETATM    3  C3  UNL     1     -34.281  16.617  -1.413  1.00 20.00     0.036 C 
ENDROOT
BRANCH   2   4
HETATM    4  C5  UNL     1     -35.582  14.054  -4.063  1.00 20.00     0.198 C 
BRANCH   4   5
HETATM    5  O7  UNL     1     -34.989  12.762  -4.008  1.00 20.00    -0.397 OA
HETATM    6  H20 UNL     1     -34.908  12.532  -3.068  1.00 20.00     0.209 HD
ENDBRANCH   4   5
ENDBRANCH   2   4
BRANCH   2   7
HETATM    7  C6  UNL     1     -33.377  15.359  -4.111  1.00 20.00     0.109 C 
BRANCH   7   8
HETATM    8  S8  UNL     1     -33.682  16.332  -5.611  1.00 20.00    -0.169 SA
HETATM    9  C4  UNL     1     -33.584  17.983  -4.879  1.00 20.00     0.090 C 
ENDBRANCH   7   8
ENDBRANCH   2   7
TORSDOF 4
ENDMDL
MODEL 4
REMARK VINA RESULT:      -3.6     12.562     12.794
REMARK  4 active torsions:
REMARK  status: ('A' for Active; 'I' for Inactive)
REMARK    1  A    between atoms: C2_2  and  C5_5 
REMARK    2  A    between atoms: C2_2  and  C6_6 
REMARK    3  A    between atoms: C5_5  and  O7_7 
REMARK    4  A    between atoms: C6_6  and  S8_8 
ROOT
HETATM    1  C1  UNL     1     -33.873  16.418  -1.970  1.00 20.00    -0.025 C 
HETATM    2  C2  UNL     1     -33.988  15.538  -2.984  1.00 20.00    -0.051 C 
HETATM    3  C3  UNL     1     -34.963  16.970  -1.110  1.00 20.00     0.036 C 
ENDROOT
BRANCH   2   4
HETATM    4  C5  UNL     1     -32.752  15.084  -3.726  1.00 20.00     0.198 C 
BRANCH   4   5
HETATM    5  O7  UNL     1     -32.502  15.963  -4.816  1.00 20.00    -0.397 OA
HETATM    6  H20 UNL     1     -33.258  15.881  -5.420  1.00 20.00     0.209 HD
ENDBRANCH   4   5
ENDBRANCH   2   4
BRANCH   2   7
HETATM    7  C6  UNL     1     -35.300  14.972  -3.471  1.00 20.00     0.109 C 
BRANCH   7   8
HETATM    8  S8  UNL     1     -35.033  13.453  -4.425  1.00 20.00    -0.169 SA
HETATM    9  C4  UNL     1     -35.285  14.134  -6.081  1.00 20.00     0.090 C 
ENDBRANCH   7   8
ENDBRANCH   2   7
TORSDOF 4
ENDMDL
MODEL 5
REMARK VINA RESULT:      -3.5     11.827     13.253
REMARK  4 active torsions:
REMARK  status: ('A' for Active; 'I' for Inactive)
REMARK    1  A    between atoms: C2_2  and  C5_5 
REMARK    2  A    between atoms: C2_2  and  C6_6 
REMARK    3  A    between atoms: C5_5  and  O7_7 
REMARK    4  A    between atoms: C6_6  and  S8_8 
ROOT
HETATM    1  C1  UNL     1     -34.611  14.460  -5.975  1.00 20.00    -0.025 C 
HETATM    2  C2  UNL     1     -34.093  14.666  -4.747  1.00 20.00    -0.051 C 
HETATM    3  C3  UNL     1     -34.422  15.295  -7.199  1.00 20.00     0.036 C 
ENDROOT
BRANCH   2   4
HETATM    4  C5  UNL     1     -34.389  13.687  -3.635  1.00 20.00     0.198 C 
BRANCH   4   5
HETATM    5  O7  UNL     1     -35.180  12.618  -4.140  1.00 20.00    -0.397 OA
HETATM    6  H20 UNL     1     -36.052  12.991  -4.351  1.00 20.00     0.209 HD
ENDBRANCH   4   5
ENDBRANCH   2   4
BRANCH   2   7
HETATM    7  C6  UNL     1     -33.235  15.851  -4.378  1.00 20.00     0.109 C 
BRANCH   7   8
HETATM    8  S8  UNL     1     -34.240  17.172  -3.646  1.00 20.00    -0.169 SA
HETATM    9  C4  UNL     1     -33.840  16.876  -1.908  1.00 20.00     0.090 C 
ENDBRANCH   7   8
ENDBRANCH   2   7
TORSDOF 4
ENDMDL
MODEL 6
REMARK VINA RESULT:      -3.5     12.241     12.674
REMARK  4 active torsions:
REMARK  status: ('A' for Active; 'I' for Inactive)
REMARK    1  A    between atoms: C2_2  and  C5_5 
REMARK    2  A    between atoms: C2_2  and  C6_6 
REMARK    3  A    between atoms: C5_5  and  O7_7 
REMARK    4  A    between atoms: C6_6  and  S8_8 
ROOT
HETATM    1  C1  UNL     1     -34.123  15.477  -2.619  1.00 20.00    -0.025 C 
HETATM    2  C2  UNL     1     -34.976  14.812  -3.424  1.00 20.00    -0.051 C 
HETATM    3  C3  UNL     1     -34.452  16.511  -1.592  1.00 20.00     0.036 C 
ENDROOT
BRANCH   2   4
HETATM    4  C5  UNL     1     -34.444  13.782  -4.392  1.00 20.00     0.198 C 
BRANCH   4   5
HETATM    5  O7  UNL     1     -35.137  12.553  -4.208  1.00 20.00    -0.397 OA
HETATM    6  H20 UNL     1     -36.019  12.778  -3.869  1.00 20.00     0.209 HD
ENDBRANCH   4   5
ENDBRANCH   2   4
BRANCH   2   7
HETATM    7  C6  UNL     1     -36.467  15.045  -3.455  1.00 20.00     0.109 C 
BRANCH   7   8
HETATM    8  S8  UNL     1     -37.007  15.555  -5.109  1.00 20.00    -0.169 SA
HETATM    9  C4  UNL     1     -36.243  17.194  -5.142  1.00 20.00     0.090 C 
ENDBRANCH   7   8
ENDBRANCH   2   7
TORSDOF 4
ENDMDL
MODEL 7
REMARK VINA RESULT:      -3.5     11.902     13.635
REMARK  4 active torsions:
REMARK  status: ('A' for Active; 'I' for Inactive)
REMARK    1  A    between atoms: C2_2  and  C5_5 
REMARK    2  A    between atoms: C2_2  and  C6_6 
REMARK    3  A    between atoms: C5_5  and  O7_7 
REMARK    4  A    between atoms: C6_6  and  S8_8 
ROOT
HETATM    1  C1  UNL     1     -34.626  14.483  -5.993  1.00 20.00    -0.025 C 
HETATM    2  C2  UNL     1     -34.090  14.695  -4.775  1.00 20.00    -0.051 C 
HETATM    3  C3  UNL     1     -34.411  15.280  -7.238  1.00 20.00     0.036 C 
ENDROOT
BRANCH   2   4
HETATM    4  C5  UNL     1     -34.419  13.756  -3.638  1.00 20.00     0.198 C 
BRANCH   4   5
HETATM    5  O7  UNL     1     -35.146  12.640  -4.137  1.00 20.00    -0.397 OA
HETATM    6  H20 UNL     1     -36.006  12.642  -3.686  1.00 20.00     0.209 HD
ENDBRANCH   4   5
ENDBRANCH   2   4
BRANCH   2   7
HETATM    7  C6  UNL     1     -33.178  15.849  -4.440  1.00 20.00     0.109 C 
BRANCH   7   8
HETATM    8  S8  UNL     1     -34.138  17.315  -3.972  1.00 20.00    -0.169 SA
HETATM    9  C4  UNL     1     -33.564  18.432  -5.272  1.00 20.00     0.090 C 
ENDBRANCH   7   8
ENDBRANCH   2   7
TORSDOF 4
ENDMDL
MODEL 8
REMARK VINA RESULT:      -3.4      1.768      2.573
REMARK  4 active torsions:
REMARK  status: ('A' for Active; 'I' for Inactive)
REMARK    1  A    between atoms: C2_2  and  C5_5 
REMARK    2  A    between atoms: C2_2  and  C6_6 
REMARK    3  A    between atoms: C5_5  and  O7_7 
REMARK    4  A    between atoms: C6_6  and  S8_8 
ROOT
HETATM    1  C1  UNL     1     -34.441   5.149   6.129  1.00 20.00    -0.025 C 
HETATM    2  C2  UNL     1     -33.905   6.219   5.509  1.00 20.00    -0.051 C 
HETATM    3  C3  UNL     1     -35.163   3.999   5.506  1.00 20.00     0.036 C 
ENDROOT
BRANCH   2   4
HETATM    4  C5  UNL     1     -33.191   7.275   6.320  1.00 20.00     0.198 C 
BRANCH   4   5
HETATM    5  O7  UNL     1     -34.042   7.727   7.367  1.00 20.00    -0.397 OA
HETATM    6  H20 UNL     1     -34.497   8.518   7.035  1.00 20.00     0.209 HD
ENDBRANCH   4   5
ENDBRANCH   2   4
BRANCH   2   7
HETATM    7  C6  UNL     1     -33.989   6.468   4.023  1.00 20.00     0.109 C 
BRANCH   7   8
HETATM    8  S8  UNL     1     -32.379   6.198   3.232  1.00 20.00    -0.169 SA
HETATM    9  C4  UNL     1     -32.161   7.841   2.510  1.00 20.00     0.090 C 
ENDBRANCH   7   8
ENDBRANCH   2   7
TORSDOF 4
ENDMDL
MODEL 9
REMARK VINA RESULT:      -3.3     11.658     12.933
REMARK  4 active torsions:
REMARK  status: ('A' for Active; 'I' for Inactive)
REMARK    1  A    between atoms: C2_2  and  C5_5 
REMARK    2  A    between atoms: C2_2  and  C6_6 
REMARK    3  A    between atoms: C5_5  and  O7_7 
REMARK    4  A    between atoms: C6_6  and  S8_8 
ROOT
HETATM    1  C1  UNL     1     -34.067  15.482  -5.325  1.00 20.00    -0.025 C 
HETATM    2  C2  UNL     1     -34.362  14.999  -4.102  1.00 20.00    -0.051 C 
HETATM    3  C3  UNL     1     -34.303  16.863  -5.844  1.00 20.00     0.036 C 
ENDROOT
BRANCH   2   4
HETATM    4  C5  UNL     1     -34.024  13.566  -3.761  1.00 20.00     0.198 C 
BRANCH   4   5
HETATM    5  O7  UNL     1     -35.117  12.724  -4.105  1.00 20.00    -0.397 OA
HETATM    6  H20 UNL     1     -34.756  11.831  -4.222  1.00 20.00     0.209 HD
ENDBRANCH   4   5
ENDBRANCH   2   4
BRANCH   2   7
HETATM    7  C6  UNL     1     -35.050  15.794  -3.020  1.00 20.00     0.109 C 
BRANCH   7   8
HETATM    8  S8  UNL     1     -33.848  16.765  -2.070  1.00 20.00    -0.169 SA
HETATM    9  C4  UNL     1     -34.739  16.824  -0.498  1.00 20.00     0.090 C 
ENDBRANCH   7   8
ENDBRANCH   2   7
TORSDOF 4
ENDMDL
