MODEL 1
REMARK VINA RESULT:      -3.8      0.000      0.000
REMARK  2 active torsions:
REMARK  status: ('A' for Active; 'I' for Inactive)
REMARK    1  A    between atoms: C1_1  and  C5_5 
REMARK    2  A    between atoms: C1_1  and  C6_6 
ROOT
HETATM    1  C1  UNL     1     -34.884  15.545  -3.075  1.00 20.00     0.167 C 
HETATM    2  O7  UNL     1     -36.107  15.627  -2.929  1.00 20.00    -0.294 OA
ENDROOT
BRANCH   1   3
HETATM    3  C5  UNL     1     -33.951  16.397  -2.239  1.00 20.00     0.248 C 
HETATM    4 CL8  UNL     1     -34.672  16.593  -0.633  1.00 20.00    -0.100 Cl
HETATM    5 CL9  UNL     1     -33.755  17.958  -3.050  1.00 20.00    -0.100 Cl
ENDBRANCH   1   3
BRANCH   1   6
HETATM    6  C6  UNL     1     -34.266  14.577  -4.107  1.00 20.00     0.012 C 
HETATM    7  C2  UNL     1     -35.163  13.333  -4.250  1.00 20.00     0.022 C 
HETATM    8  C3  UNL     1     -34.168  15.267  -5.473  1.00 20.00     0.022 C 
HETATM    9  C4  UNL     1     -32.879  14.126  -3.630  1.00 20.00     0.022 C 
ENDBRANCH   1   6
TORSDOF 2
ENDMDL
MODEL 2
REMARK VINA RESULT:      -3.8      0.032      1.441
REMARK  2 active torsions:
REMARK  status: ('A' for Active; 'I' for Inactive)
REMARK    1  A    between atoms: C1_1  and  C5_5 
REMARK    2  A    between atoms: C1_1  and  C6_6 
ROOT
HETATM    1  C1  UNL     1     -34.882  15.562  -3.068  1.00 20.00     0.167 C 
HETATM    2  O7  UNL     1     -36.106  15.649  -2.931  1.00 20.00    -0.294 OA
ENDROOT
BRANCH   1   3
HETATM    3  C5  UNL     1     -33.953  16.416  -2.229  1.00 20.00     0.248 C 
HETATM    4 CL8  UNL     1     -34.673  16.601  -0.622  1.00 20.00    -0.100 Cl
HETATM    5 CL9  UNL     1     -33.765  17.982  -3.033  1.00 20.00    -0.100 Cl
ENDBRANCH   1   3
BRANCH   1   6
HETATM    6  C6  UNL     1     -34.259  14.588  -4.091  1.00 20.00     0.012 C 
HETATM    7  C2  UNL     1     -34.155  15.279  -5.463  1.00 20.00     0.022 C 
HETATM    8  C3  UNL     1     -32.849  14.190  -3.637  1.00 20.00     0.022 C 
HETATM    9  C4  UNL     1     -35.149  13.347  -4.236  1.00 20.00     0.022 C 
ENDBRANCH   1   6
TORSDOF 2
ENDMDL
MODEL 3
REMARK VINA RESULT:      -3.7      2.850      3.542
REMARK  2 active torsions:
REMARK  status: ('A' for Active; 'I' for Inactive)
REMARK    1  A    between atoms: C1_1  and  C5_5 
REMARK    2  A    between atoms: C1_1  and  C6_6 
ROOT
HETATM    1  C1  UNL     1     -33.915  15.861  -4.948  1.00 20.00     0.167 C 
HETATM    2  O7  UNL     1     -32.817  16.425  -4.916  1.00 20.00    -0.294 OA
ENDROOT
BRANCH   1   3
HETATM    3  C5  UNL     1     -34.843  16.052  -6.130  1.00 20.00     0.248 C 
HETATM    4 CL8  UNL     1     -34.427  14.845  -7.359  1.00 20.00    -0.100 Cl
HETATM    5 CL9  UNL     1     -34.623  17.697  -6.745  1.00 20.00    -0.100 Cl
ENDBRANCH   1   3
BRANCH   1   6
HETATM    6  C6  UNL     1     -34.379  14.948  -3.792  1.00 20.00     0.012 C 
HETATM    7  C2  UNL     1     -35.827  14.491  -4.045  1.00 20.00     0.022 C 
HETATM    8  C3  UNL     1     -33.481  13.707  -3.718  1.00 20.00     0.022 C 
HETATM    9  C4  UNL     1     -34.337  15.724  -2.468  1.00 20.00     0.022 C 
ENDBRANCH   1   6
TORSDOF 2
ENDMDL
MODEL 4
REMARK VINA RESULT:      -3.6      3.005      3.712
REMARK  2 active torsions:
REMARK  status: ('A' for Active; 'I' for Inactive)
REMARK    1  A    between atoms: C1_1  and  C5_5 
REMARK    2  A    between atoms: C1_1  and  C6_6 
ROOT
HETATM    1  C1  UNL     1     -34.934  14.172  -4.921  1.00 20.00     0.167 C 
HETATM    2  O7  UNL     1     -35.140  12.956  -4.880  1.00 20.00    -0.294 OA
ENDROOT
BRANCH   1   3
HETATM    3  C5  UNL     1     -35.643  15.038  -5.943  1.00 20.00     0.248 C 
HETATM    4 CL8  UNL     1     -37.346  15.165  -5.474  1.00 20.00    -0.100 Cl
HETATM    5 CL9  UNL     1     -35.469  14.272  -7.530  1.00 20.00    -0.100 Cl
ENDBRANCH   1   3
BRANCH   1   6
HETATM    6  C6  UNL     1     -33.953  14.851  -3.940  1.00 20.00     0.012 C 
HETATM    7  C2  UNL     1     -33.260  16.034  -4.640  1.00 20.00     0.022 C 
HETATM    8  C3  UNL     1     -34.721  15.385  -2.724  1.00 20.00     0.022 C 
HETATM    9  C4  UNL     1     -32.879  13.847  -3.502  1.00 20.00     0.022 C 
ENDBRANCH   1   6
TORSDOF 2
ENDMDL
MODEL 5
REMARK VINA RESULT:      -3.6      1.729      2.530
REMARK  2 active torsions:
REMARK  status: ('A' for Active; 'I' for Inactive)
REMARK    1  A    between atoms: C1_1  and  C5_5 
REMARK    2  A    between atoms: C1_1  and  C6_6 
ROOT
HETATM    1  C1  UNL     1     -33.791  16.092  -4.246  1.00 20.00     0.167 C 
HETATM    2  O7  UNL     1     -32.779  16.409  -4.877  1.00 20.00    -0.294 OA
ENDROOT
BRANCH   1   3
HETATM    3  C5  UNL     1     -34.428  17.067  -3.275  1.00 20.00     0.248 C 
HETATM    4 CL8  UNL     1     -34.065  18.710  -3.826  1.00 20.00    -0.100 Cl
HETATM    5 CL9  UNL     1     -33.754  16.764  -1.667  1.00 20.00    -0.100 Cl
ENDBRANCH   1   3
BRANCH   1   6
HETATM    6  C6  UNL     1     -34.440  14.702  -4.420  1.00 20.00     0.012 C 
HETATM    7  C2  UNL     1     -34.630  14.406  -5.919  1.00 20.00     0.022 C 
HETATM    8  C3  UNL     1     -33.528  13.624  -3.821  1.00 20.00     0.022 C 
HETATM    9  C4  UNL     1     -35.816  14.682  -3.741  1.00 20.00     0.022 C 
ENDBRANCH   1   6
TORSDOF 2
ENDMDL
MODEL 6
REMARK VINA RESULT:      -3.6      2.510      3.148
REMARK  2 active torsions:
REMARK  status: ('A' for Active; 'I' for Inactive)
REMARK    1  A    between atoms: C1_1  and  C5_5 
REMARK    2  A    between atoms: C1_1  and  C6_6 
ROOT
HETATM    1  C1  UNL     1     -33.865  15.876  -4.996  1.00 20.00     0.167 C 
HETATM    2  O7  UNL     1     -32.774  16.448  -4.918  1.00 20.00    -0.294 OA
ENDROOT
BRANCH   1   3
HETATM    3  C5  UNL     1     -34.358  15.003  -3.859  1.00 20.00     0.248 C 
HETATM    4 CL8  UNL     1     -34.263  15.942  -2.360  1.00 20.00    -0.100 Cl
HETATM    5 CL9  UNL     1     -33.329  13.564  -3.783  1.00 20.00    -0.100 Cl
ENDBRANCH   1   3
BRANCH   1   6
HETATM    6  C6  UNL     1     -34.761  16.028  -6.244  1.00 20.00     0.012 C 
HETATM    7  C2  UNL     1     -36.242  15.984  -5.824  1.00 20.00     0.022 C 
HETATM    8  C3  UNL     1     -34.486  17.378  -6.919  1.00 20.00     0.022 C 
HETATM    9  C4  UNL     1     -34.496  14.873  -7.218  1.00 20.00     0.022 C 
ENDBRANCH   1   6
TORSDOF 2
ENDMDL
MODEL 7
REMARK VINA RESULT:      -3.6      2.551      3.224
REMARK  2 active torsions:
REMARK  status: ('A' for Active; 'I' for Inactive)
REMARK    1  A    between atoms: C1_1  and  C5_5 
REMARK    2  A    between atoms: C1_1  and  C6_6 
ROOT
HETATM    1  C1  UNL     1     -34.712  14.155  -5.111  1.00 20.00     0.167 C 
HETATM    2  O7  UNL     1     -34.986  12.952  -5.084  1.00 20.00    -0.294 OA
ENDROOT
BRANCH   1   3
HETATM    3  C5  UNL     1     -33.819  14.764  -4.049  1.00 20.00     0.248 C 
HETATM    4 CL8  UNL     1     -32.700  13.512  -3.485  1.00 20.00    -0.100 Cl
HETATM    5 CL9  UNL     1     -34.848  15.347  -2.732  1.00 20.00    -0.100 Cl
ENDBRANCH   1   3
BRANCH   1   6
HETATM    6  C6  UNL     1     -35.265  15.077  -6.220  1.00 20.00     0.012 C 
HETATM    7  C2  UNL     1     -36.679  15.552  -5.837  1.00 20.00     0.022 C 
HETATM    8  C3  UNL     1     -34.362  16.307  -6.371  1.00 20.00     0.022 C 
HETATM    9  C4  UNL     1     -35.352  14.305  -7.542  1.00 20.00     0.022 C 
ENDBRANCH   1   6
TORSDOF 2
ENDMDL
MODEL 8
REMARK VINA RESULT:      -3.5      2.601      3.363
REMARK  2 active torsions:
REMARK  status: ('A' for Active; 'I' for Inactive)
REMARK    1  A    between atoms: C1_1  and  C5_5 
REMARK    2  A    between atoms: C1_1  and  C6_6 
ROOT
HETATM    1  C1  UNL     1     -34.812  15.959  -4.850  1.00 20.00     0.167 C 
HETATM    2  O7  UNL     1     -35.931  16.480  -4.809  1.00 20.00    -0.294 OA
ENDROOT
BRANCH   1   3
HETATM    3  C5  UNL     1     -33.922  16.144  -6.062  1.00 20.00     0.248 C 
HETATM    4 CL8  UNL     1     -34.172  17.782  -6.687  1.00 20.00    -0.100 Cl
HETATM    5 CL9  UNL     1     -34.367  14.923  -7.264  1.00 20.00    -0.100 Cl
ENDBRANCH   1   3
BRANCH   1   6
HETATM    6  C6  UNL     1     -34.283  15.108  -3.675  1.00 20.00     0.012 C 
HETATM    7  C2  UNL     1     -34.789  13.661  -3.820  1.00 20.00     0.022 C 
HETATM    8  C3  UNL     1     -32.750  15.093  -3.694  1.00 20.00     0.022 C 
HETATM    9  C4  UNL     1     -34.802  15.675  -2.348  1.00 20.00     0.022 C 
ENDBRANCH   1   6
TORSDOF 2
ENDMDL
MODEL 9
REMARK VINA RESULT:      -3.5      2.607      3.416
REMARK  2 active torsions:
REMARK  status: ('A' for Active; 'I' for Inactive)
REMARK    1  A    between atoms: C1_1  and  C5_5 
REMARK    2  A    between atoms: C1_1  and  C6_6 
ROOT
HETATM    1  C1  UNL     1     -34.834  15.933  -4.879  1.00 20.00     0.167 C 
HETATM    2  O7  UNL     1     -35.953  16.452  -4.836  1.00 20.00    -0.294 OA
ENDROOT
BRANCH   1   3
HETATM    3  C5  UNL     1     -33.944  16.126  -6.091  1.00 20.00     0.248 C 
HETATM    4 CL8  UNL     1     -34.197  17.766  -6.707  1.00 20.00    -0.100 Cl
HETATM    5 CL9  UNL     1     -34.386  14.910  -7.299  1.00 20.00    -0.100 Cl
ENDBRANCH   1   3
BRANCH   1   6
HETATM    6  C6  UNL     1     -34.304  15.076  -3.709  1.00 20.00     0.012 C 
HETATM    7  C2  UNL     1     -34.814  15.653  -2.376  1.00 20.00     0.022 C 
HETATM    8  C3  UNL     1     -34.816  13.637  -3.846  1.00 20.00     0.022 C 
HETATM    9  C4  UNL     1     -32.770  15.105  -3.698  1.00 20.00     0.022 C 
ENDBRANCH   1   6
TORSDOF 2
ENDMDL
