MODEL 1
REMARK VINA RESULT:      -4.8      0.000      0.000
REMARK  4 active torsions:
REMARK  status: ('A' for Active; 'I' for Inactive)
REMARK    1  A    between atoms: C5_5  and  C6_6 
REMARK    2  A    between atoms: C6_6  and  C9_9 
REMARK    3  A    between atoms: C7_7  and  C8_8 
REMARK    4  A    between atoms: C7_7  and  C9_9 
ROOT
HETATM    1  C4  UNL     1     -32.163   5.257   3.047  1.00 20.00     0.010 C 
HETATM    2  C9  UNL     1     -33.038   6.504   2.869  1.00 20.00    -0.018 C 
ENDROOT
BRANCH   2   3
HETATM    3  C6  UNL     1     -32.138   7.759   2.942  1.00 20.00     0.004 C 
BRANCH   3   4
HETATM    4  C5  UNL     1     -31.863   8.402   1.580  1.00 20.00    -0.004 C 
HETATM    5  C1  UNL     1     -32.522   9.769   1.471  1.00 20.00     0.005 C 
ENDBRANCH   3   4
ENDBRANCH   2   3
BRANCH   2   6
HETATM    6  C7  UNL     1     -34.176   6.559   3.913  1.00 20.00     0.008 C 
BRANCH   6   7
HETATM    7  C8  UNL     1     -33.954   5.745   5.205  1.00 20.00    -0.022 C 
HETATM    8  C2  UNL     1     -35.049   4.682   5.339  1.00 20.00     0.009 C 
HETATM    9  C3  UNL     1     -33.937   6.626   6.454  1.00 20.00     0.009 C 
ENDBRANCH   6   7
ENDBRANCH   2   6
TORSDOF 4
ENDMDL
MODEL 2
REMARK VINA RESULT:      -4.6      1.026      4.499
REMARK  4 active torsions:
REMARK  status: ('A' for Active; 'I' for Inactive)
REMARK    1  A    between atoms: C5_5  and  C6_6 
REMARK    2  A    between atoms: C6_6  and  C9_9 
REMARK    3  A    between atoms: C7_7  and  C8_8 
REMARK    4  A    between atoms: C7_7  and  C9_9 
ROOT
HETATM    1  C4  UNL     1     -35.172   5.812   3.118  1.00 20.00     0.010 C 
HETATM    2  C9  UNL     1     -33.860   5.592   3.882  1.00 20.00    -0.018 C 
ENDROOT
BRANCH   2   3
HETATM    3  C6  UNL     1     -33.952   6.312   5.246  1.00 20.00     0.004 C 
BRANCH   3   4
HETATM    4  C5  UNL     1     -34.666   5.497   6.328  1.00 20.00    -0.004 C 
HETATM    5  C1  UNL     1     -34.701   4.017   5.973  1.00 20.00     0.005 C 
ENDBRANCH   3   4
ENDBRANCH   2   3
BRANCH   2   6
HETATM    6  C7  UNL     1     -32.636   6.069   3.068  1.00 20.00     0.008 C 
BRANCH   6   7
HETATM    7  C8  UNL     1     -32.266   7.560   3.209  1.00 20.00    -0.022 C 
HETATM    8  C2  UNL     1     -32.080   8.179   1.820  1.00 20.00     0.009 C 
HETATM    9  C3  UNL     1     -30.999   7.771   4.040  1.00 20.00     0.009 C 
ENDBRANCH   6   7
ENDBRANCH   2   6
TORSDOF 4
ENDMDL
MODEL 3
REMARK VINA RESULT:      -4.5      0.889      1.189
REMARK  4 active torsions:
REMARK  status: ('A' for Active; 'I' for Inactive)
REMARK    1  A    between atoms: C5_5  and  C6_6 
REMARK    2  A    between atoms: C6_6  and  C9_9 
REMARK    3  A    between atoms: C7_7  and  C8_8 
REMARK    4  A    between atoms: C7_7  and  C9_9 
ROOT
HETATM    1  C4  UNL     1     -31.458   7.676   4.286  1.00 20.00     0.010 C 
HETATM    2  C9  UNL     1     -32.285   6.756   3.378  1.00 20.00    -0.018 C 
ENDROOT
BRANCH   2   3
HETATM    3  C6  UNL     1     -32.223   7.297   1.932  1.00 20.00     0.004 C 
BRANCH   3   4
HETATM    4  C5  UNL     1     -32.159   8.824   1.845  1.00 20.00    -0.004 C 
HETATM    5  C1  UNL     1     -32.392   9.308   0.421  1.00 20.00     0.005 C 
ENDBRANCH   3   4
ENDBRANCH   2   3
BRANCH   2   6
HETATM    6  C7  UNL     1     -33.742   6.622   3.873  1.00 20.00     0.008 C 
BRANCH   6   7
HETATM    7  C8  UNL     1     -33.990   5.581   4.985  1.00 20.00    -0.022 C 
HETATM    8  C2  UNL     1     -35.216   4.732   4.633  1.00 20.00     0.009 C 
HETATM    9  C3  UNL     1     -34.189   6.228   6.356  1.00 20.00     0.009 C 
ENDBRANCH   6   7
ENDBRANCH   2   6
TORSDOF 4
ENDMDL
MODEL 4
REMARK VINA RESULT:      -4.4      0.975      1.658
REMARK  4 active torsions:
REMARK  status: ('A' for Active; 'I' for Inactive)
REMARK    1  A    between atoms: C5_5  and  C6_6 
REMARK    2  A    between atoms: C6_6  and  C9_9 
REMARK    3  A    between atoms: C7_7  and  C8_8 
REMARK    4  A    between atoms: C7_7  and  C9_9 
ROOT
HETATM    1  C4  UNL     1     -34.248   5.249   2.466  1.00 20.00     0.010 C 
HETATM    2  C9  UNL     1     -33.543   6.346   3.274  1.00 20.00    -0.018 C 
ENDROOT
BRANCH   2   3
HETATM    3  C6  UNL     1     -32.261   6.773   2.523  1.00 20.00     0.004 C 
BRANCH   3   4
HETATM    4  C5  UNL     1     -32.091   8.290   2.402  1.00 20.00    -0.004 C 
HETATM    5  C1  UNL     1     -31.931   8.715   0.950  1.00 20.00     0.005 C 
ENDBRANCH   3   4
ENDBRANCH   2   3
BRANCH   2   6
HETATM    6  C7  UNL     1     -33.230   5.886   4.716  1.00 20.00     0.008 C 
BRANCH   6   7
HETATM    7  C8  UNL     1     -34.363   6.064   5.748  1.00 20.00    -0.022 C 
HETATM    8  C2  UNL     1     -33.885   6.968   6.888  1.00 20.00     0.009 C 
HETATM    9  C3  UNL     1     -34.848   4.730   6.317  1.00 20.00     0.009 C 
ENDBRANCH   6   7
ENDBRANCH   2   6
TORSDOF 4
ENDMDL
MODEL 5
REMARK VINA RESULT:      -4.2      1.148      4.412
REMARK  4 active torsions:
REMARK  status: ('A' for Active; 'I' for Inactive)
REMARK    1  A    between atoms: C5_5  and  C6_6 
REMARK    2  A    between atoms: C6_6  and  C9_9 
REMARK    3  A    between atoms: C7_7  and  C8_8 
REMARK    4  A    between atoms: C7_7  and  C9_9 
ROOT
HETATM    1  C4  UNL     1     -34.232   4.983   1.982  1.00 20.00     0.010 C 
HETATM    2  C9  UNL     1     -33.976   5.460   3.417  1.00 20.00    -0.018 C 
ENDROOT
BRANCH   2   3
HETATM    3  C6  UNL     1     -35.254   5.226   4.255  1.00 20.00     0.004 C 
BRANCH   3   4
HETATM    4  C5  UNL     1     -34.979   4.715   5.672  1.00 20.00    -0.004 C 
HETATM    5  C1  UNL     1     -34.421   5.820   6.558  1.00 20.00     0.005 C 
ENDBRANCH   3   4
ENDBRANCH   2   3
BRANCH   2   6
HETATM    6  C7  UNL     1     -33.532   6.939   3.459  1.00 20.00     0.008 C 
BRANCH   6   7
HETATM    7  C8  UNL     1     -32.116   7.240   2.926  1.00 20.00    -0.022 C 
HETATM    8  C2  UNL     1     -31.216   7.695   4.079  1.00 20.00     0.009 C 
HETATM    9  C3  UNL     1     -32.120   8.302   1.826  1.00 20.00     0.009 C 
ENDBRANCH   6   7
ENDBRANCH   2   6
TORSDOF 4
ENDMDL
MODEL 6
REMARK VINA RESULT:      -4.2     10.285     11.603
REMARK  4 active torsions:
REMARK  status: ('A' for Active; 'I' for Inactive)
REMARK    1  A    between atoms: C5_5  and  C6_6 
REMARK    2  A    between atoms: C6_6  and  C9_9 
REMARK    3  A    between atoms: C7_7  and  C8_8 
REMARK    4  A    between atoms: C7_7  and  C9_9 
ROOT
HETATM    1  C4  UNL     1     -32.909  13.755  -3.548  1.00 20.00     0.010 C 
HETATM    2  C9  UNL     1     -34.440  13.747  -3.651  1.00 20.00    -0.018 C 
ENDROOT
BRANCH   2   3
HETATM    3  C6  UNL     1     -34.839  13.421  -5.108  1.00 20.00     0.004 C 
BRANCH   3   4
HETATM    4  C5  UNL     1     -35.369  14.627  -5.889  1.00 20.00    -0.004 C 
HETATM    5  C1  UNL     1     -34.385  15.064  -6.964  1.00 20.00     0.005 C 
ENDBRANCH   3   4
ENDBRANCH   2   3
BRANCH   2   6
HETATM    6  C7  UNL     1     -35.053  15.085  -3.180  1.00 20.00     0.008 C 
BRANCH   6   7
HETATM    7  C8  UNL     1     -34.077  16.090  -2.532  1.00 20.00    -0.022 C 
HETATM    8  C2  UNL     1     -34.611  16.517  -1.161  1.00 20.00     0.009 C 
HETATM    9  C3  UNL     1     -33.848  17.325  -3.403  1.00 20.00     0.009 C 
ENDBRANCH   6   7
ENDBRANCH   2   6
TORSDOF 4
ENDMDL
MODEL 7
REMARK VINA RESULT:      -4.2      1.010      4.587
REMARK  4 active torsions:
REMARK  status: ('A' for Active; 'I' for Inactive)
REMARK    1  A    between atoms: C5_5  and  C6_6 
REMARK    2  A    between atoms: C6_6  and  C9_9 
REMARK    3  A    between atoms: C7_7  and  C8_8 
REMARK    4  A    between atoms: C7_7  and  C9_9 
ROOT
HETATM    1  C4  UNL     1     -33.230   5.655   2.302  1.00 20.00     0.010 C 
HETATM    2  C9  UNL     1     -32.542   6.323   3.499  1.00 20.00    -0.018 C 
ENDROOT
BRANCH   2   3
HETATM    3  C6  UNL     1     -33.588   6.537   4.617  1.00 20.00     0.004 C 
BRANCH   3   4
HETATM    4  C5  UNL     1     -34.718   5.504   4.613  1.00 20.00    -0.004 C 
HETATM    5  C1  UNL     1     -34.793   4.760   5.939  1.00 20.00     0.005 C 
ENDBRANCH   3   4
ENDBRANCH   2   3
BRANCH   2   6
HETATM    6  C7  UNL     1     -31.858   7.650   3.100  1.00 20.00     0.008 C 
BRANCH   6   7
HETATM    7  C8  UNL     1     -32.468   8.394   1.894  1.00 20.00    -0.022 C 
HETATM    8  C2  UNL     1     -31.485   8.369   0.720  1.00 20.00     0.009 C 
HETATM    9  C3  UNL     1     -32.835   9.841   2.227  1.00 20.00     0.009 C 
ENDBRANCH   6   7
ENDBRANCH   2   6
TORSDOF 4
ENDMDL
MODEL 8
REMARK VINA RESULT:      -4.0     10.293     11.870
REMARK  4 active torsions:
REMARK  status: ('A' for Active; 'I' for Inactive)
REMARK    1  A    between atoms: C5_5  and  C6_6 
REMARK    2  A    between atoms: C6_6  and  C9_9 
REMARK    3  A    between atoms: C7_7  and  C8_8 
REMARK    4  A    between atoms: C7_7  and  C9_9 
ROOT
HETATM    1  C4  UNL     1     -34.402  16.564  -1.279  1.00 20.00     0.010 C 
HETATM    2  C9  UNL     1     -34.113  16.095  -2.711  1.00 20.00    -0.018 C 
ENDROOT
BRANCH   2   3
HETATM    3  C6  UNL     1     -34.094  17.328  -3.644  1.00 20.00     0.004 C 
BRANCH   3   4
HETATM    4  C5  UNL     1     -33.369  17.087  -4.971  1.00 20.00    -0.004 C 
HETATM    5  C1  UNL     1     -34.333  17.147  -6.147  1.00 20.00     0.005 C 
ENDBRANCH   3   4
ENDBRANCH   2   3
BRANCH   2   6
HETATM    6  C7  UNL     1     -35.136  15.039  -3.186  1.00 20.00     0.008 C 
BRANCH   6   7
HETATM    7  C8  UNL     1     -34.549  13.725  -3.742  1.00 20.00    -0.022 C 
HETATM    8  C2  UNL     1     -33.026  13.729  -3.575  1.00 20.00     0.009 C 
HETATM    9  C3  UNL     1     -34.905  13.504  -5.213  1.00 20.00     0.009 C 
ENDBRANCH   6   7
ENDBRANCH   2   6
TORSDOF 4
ENDMDL
MODEL 9
REMARK VINA RESULT:      -3.9     10.667     11.646
REMARK  4 active torsions:
REMARK  status: ('A' for Active; 'I' for Inactive)
REMARK    1  A    between atoms: C5_5  and  C6_6 
REMARK    2  A    between atoms: C6_6  and  C9_9 
REMARK    3  A    between atoms: C7_7  and  C8_8 
REMARK    4  A    between atoms: C7_7  and  C9_9 
ROOT
HETATM    1  C4  UNL     1     -33.617  17.190  -4.324  1.00 20.00     0.010 C 
HETATM    2  C9  UNL     1     -34.204  16.317  -3.208  1.00 20.00    -0.018 C 
ENDROOT
BRANCH   2   3
HETATM    3  C6  UNL     1     -33.729  16.869  -1.844  1.00 20.00     0.004 C 
BRANCH   3   4
HETATM    4  C5  UNL     1     -34.730  16.649  -0.706  1.00 20.00    -0.004 C 
HETATM    5  C1  UNL     1     -34.560  17.692   0.389  1.00 20.00     0.005 C 
ENDBRANCH   3   4
ENDBRANCH   2   3
BRANCH   2   6
HETATM    6  C7  UNL     1     -33.824  14.830  -3.382  1.00 20.00     0.008 C 
BRANCH   6   7
HETATM    7  C8  UNL     1     -34.967  13.880  -3.797  1.00 20.00    -0.022 C 
HETATM    8  C2  UNL     1     -34.648  13.251  -5.157  1.00 20.00     0.009 C 
HETATM    9  C3  UNL     1     -36.320  14.590  -3.863  1.00 20.00     0.009 C 
ENDBRANCH   6   7
ENDBRANCH   2   6
TORSDOF 4
ENDMDL
