MODEL 1
REMARK VINA RESULT:      -5.5      0.000      0.000
REMARK  2 active torsions:
REMARK  status: ('A' for Active; 'I' for Inactive)
REMARK    1  A    between atoms: C1_1  and  C2_2 
REMARK    2  A    between atoms: C1_1  and  C3_3 
ROOT
HETATM    1  C1  UNL     1     -34.129   5.936   4.826  1.00 20.00     0.234 C 
ENDROOT
BRANCH   1   2
HETATM    2  C2  UNL     1     -34.405   5.634   6.283  1.00 20.00     0.396 C 
HETATM    3  F4  UNL     1     -33.581   4.673   6.753  1.00 20.00    -0.171 F 
HETATM    4  F5  UNL     1     -34.218   6.739   7.038  1.00 20.00    -0.171 F 
HETATM    5  F6  UNL     1     -35.677   5.223   6.469  1.00 20.00    -0.171 F 
ENDBRANCH   1   2
BRANCH   1   6
HETATM    6  C3  UNL     1     -34.953   5.080   3.891  1.00 20.00     0.396 C 
HETATM    7  F7  UNL     1     -34.366   5.009   2.675  1.00 20.00    -0.171 F 
HETATM    8  F8  UNL     1     -36.192   5.587   3.718  1.00 20.00    -0.171 F 
HETATM    9  F9  UNL     1     -35.079   3.820   4.356  1.00 20.00    -0.171 F 
ENDBRANCH   1   6
TORSDOF 2
ENDMDL
MODEL 2
REMARK VINA RESULT:      -5.5      0.008      3.400
REMARK  2 active torsions:
REMARK  status: ('A' for Active; 'I' for Inactive)
REMARK    1  A    between atoms: C1_1  and  C2_2 
REMARK    2  A    between atoms: C1_1  and  C3_3 
ROOT
HETATM    1  C1  UNL     1     -34.119   5.928   4.826  1.00 20.00     0.234 C 
ENDROOT
BRANCH   1   2
HETATM    2  C2  UNL     1     -34.950   5.080   3.889  1.00 20.00     0.396 C 
HETATM    3  F4  UNL     1     -36.185   5.598   3.717  1.00 20.00    -0.171 F 
HETATM    4  F5  UNL     1     -34.364   5.006   2.673  1.00 20.00    -0.171 F 
HETATM    5  F6  UNL     1     -35.086   3.820   4.354  1.00 20.00    -0.171 F 
ENDBRANCH   1   2
BRANCH   1   6
HETATM    6  C3  UNL     1     -34.401   5.630   6.282  1.00 20.00     0.396 C 
HETATM    7  F7  UNL     1     -34.214   6.736   7.036  1.00 20.00    -0.171 F 
HETATM    8  F8  UNL     1     -33.583   4.668   6.757  1.00 20.00    -0.171 F 
HETATM    9  F9  UNL     1     -35.675   5.223   6.465  1.00 20.00    -0.171 F 
ENDBRANCH   1   6
TORSDOF 2
ENDMDL
MODEL 3
REMARK VINA RESULT:      -5.5      0.017      3.335
REMARK  2 active torsions:
REMARK  status: ('A' for Active; 'I' for Inactive)
REMARK    1  A    between atoms: C1_1  and  C2_2 
REMARK    2  A    between atoms: C1_1  and  C3_3 
ROOT
HETATM    1  C1  UNL     1     -34.106   5.926   4.826  1.00 20.00     0.234 C 
ENDROOT
BRANCH   1   2
HETATM    2  C2  UNL     1     -34.942   5.078   3.893  1.00 20.00     0.396 C 
HETATM    3  F4  UNL     1     -36.177   5.595   3.728  1.00 20.00    -0.171 F 
HETATM    4  F5  UNL     1     -34.362   5.006   2.674  1.00 20.00    -0.171 F 
HETATM    5  F6  UNL     1     -35.074   3.818   4.357  1.00 20.00    -0.171 F 
ENDBRANCH   1   2
BRANCH   1   6
HETATM    6  C3  UNL     1     -34.404   5.650   6.283  1.00 20.00     0.396 C 
HETATM    7  F7  UNL     1     -33.577   4.694   6.761  1.00 20.00    -0.171 F 
HETATM    8  F8  UNL     1     -35.671   5.220   6.456  1.00 20.00    -0.171 F 
HETATM    9  F9  UNL     1     -34.230   6.754   7.040  1.00 20.00    -0.171 F 
ENDBRANCH   1   6
TORSDOF 2
ENDMDL
MODEL 4
REMARK VINA RESULT:      -5.5      0.064      1.775
REMARK  2 active torsions:
REMARK  status: ('A' for Active; 'I' for Inactive)
REMARK    1  A    between atoms: C1_1  and  C2_2 
REMARK    2  A    between atoms: C1_1  and  C3_3 
ROOT
HETATM    1  C1  UNL     1     -34.090   5.908   4.821  1.00 20.00     0.234 C 
ENDROOT
BRANCH   1   2
HETATM    2  C2  UNL     1     -34.425   5.606   6.265  1.00 20.00     0.396 C 
HETATM    3  F4  UNL     1     -35.691   5.157   6.395  1.00 20.00    -0.171 F 
HETATM    4  F5  UNL     1     -33.600   4.652   6.752  1.00 20.00    -0.171 F 
HETATM    5  F6  UNL     1     -34.287   6.700   7.043  1.00 20.00    -0.171 F 
ENDBRANCH   1   2
BRANCH   1   6
HETATM    6  C3  UNL     1     -34.908   5.085   3.852  1.00 20.00     0.396 C 
HETATM    7  F7  UNL     1     -36.139   5.623   3.696  1.00 20.00    -0.171 F 
HETATM    8  F8  UNL     1     -35.068   3.819   4.291  1.00 20.00    -0.171 F 
HETATM    9  F9  UNL     1     -34.329   5.035   2.634  1.00 20.00    -0.171 F 
ENDBRANCH   1   6
TORSDOF 2
ENDMDL
MODEL 5
REMARK VINA RESULT:      -5.4      1.303      2.158
REMARK  2 active torsions:
REMARK  status: ('A' for Active; 'I' for Inactive)
REMARK    1  A    between atoms: C1_1  and  C2_2 
REMARK    2  A    between atoms: C1_1  and  C3_3 
ROOT
HETATM    1  C1  UNL     1     -35.153   4.923   4.541  1.00 20.00     0.234 C 
ENDROOT
BRANCH   1   2
HETATM    2  C2  UNL     1     -34.739   4.871   5.995  1.00 20.00     0.396 C 
HETATM    3  F4  UNL     1     -34.348   6.083   6.441  1.00 20.00    -0.171 F 
HETATM    4  F5  UNL     1     -35.773   4.465   6.766  1.00 20.00    -0.171 F 
HETATM    5  F6  UNL     1     -33.723   4.005   6.187  1.00 20.00    -0.171 F 
ENDBRANCH   1   2
BRANCH   1   6
HETATM    6  C3  UNL     1     -34.195   5.731   3.694  1.00 20.00     0.396 C 
HETATM    7  F7  UNL     1     -34.255   5.335   2.403  1.00 20.00    -0.171 F 
HETATM    8  F8  UNL     1     -32.920   5.580   4.109  1.00 20.00    -0.171 F 
HETATM    9  F9  UNL     1     -34.493   7.047   3.731  1.00 20.00    -0.171 F 
ENDBRANCH   1   6
TORSDOF 2
ENDMDL
MODEL 6
REMARK VINA RESULT:      -5.4      1.307      3.204
REMARK  2 active torsions:
REMARK  status: ('A' for Active; 'I' for Inactive)
REMARK    1  A    between atoms: C1_1  and  C2_2 
REMARK    2  A    between atoms: C1_1  and  C3_3 
ROOT
HETATM    1  C1  UNL     1     -35.165   4.920   4.537  1.00 20.00     0.234 C 
ENDROOT
BRANCH   1   2
HETATM    2  C2  UNL     1     -34.201   5.728   3.697  1.00 20.00     0.396 C 
HETATM    3  F4  UNL     1     -32.928   5.572   4.118  1.00 20.00    -0.171 F 
HETATM    4  F5  UNL     1     -34.256   5.335   2.405  1.00 20.00    -0.171 F 
HETATM    5  F6  UNL     1     -34.496   7.044   3.736  1.00 20.00    -0.171 F 
ENDBRANCH   1   2
BRANCH   1   6
HETATM    6  C3  UNL     1     -34.748   4.846   5.989  1.00 20.00     0.396 C 
HETATM    7  F7  UNL     1     -35.774   4.414   6.755  1.00 20.00    -0.171 F 
HETATM    8  F8  UNL     1     -34.368   6.054   6.457  1.00 20.00    -0.171 F 
HETATM    9  F9  UNL     1     -33.720   3.989   6.164  1.00 20.00    -0.171 F 
ENDBRANCH   1   6
TORSDOF 2
ENDMDL
MODEL 7
REMARK VINA RESULT:      -5.4      1.305      2.166
REMARK  2 active torsions:
REMARK  status: ('A' for Active; 'I' for Inactive)
REMARK    1  A    between atoms: C1_1  and  C2_2 
REMARK    2  A    between atoms: C1_1  and  C3_3 
ROOT
HETATM    1  C1  UNL     1     -35.149   4.940   4.518  1.00 20.00     0.234 C 
ENDROOT
BRANCH   1   2
HETATM    2  C2  UNL     1     -34.749   4.892   5.976  1.00 20.00     0.396 C 
HETATM    3  F4  UNL     1     -35.774   4.492   6.758  1.00 20.00    -0.171 F 
HETATM    4  F5  UNL     1     -33.731   4.021   6.158  1.00 20.00    -0.171 F 
HETATM    5  F6  UNL     1     -34.335   6.100   6.414  1.00 20.00    -0.171 F 
ENDBRANCH   1   2
BRANCH   1   6
HETATM    6  C3  UNL     1     -34.176   5.735   3.676  1.00 20.00     0.396 C 
HETATM    7  F7  UNL     1     -34.243   5.346   2.383  1.00 20.00    -0.171 F 
HETATM    8  F8  UNL     1     -32.904   5.560   4.091  1.00 20.00    -0.171 F 
HETATM    9  F9  UNL     1     -34.452   7.056   3.718  1.00 20.00    -0.171 F 
ENDBRANCH   1   6
TORSDOF 2
ENDMDL
MODEL 8
REMARK VINA RESULT:      -5.4      1.304      3.188
REMARK  2 active torsions:
REMARK  status: ('A' for Active; 'I' for Inactive)
REMARK    1  A    between atoms: C1_1  and  C2_2 
REMARK    2  A    between atoms: C1_1  and  C3_3 
ROOT
HETATM    1  C1  UNL     1     -35.183   4.939   4.543  1.00 20.00     0.234 C 
ENDROOT
BRANCH   1   2
HETATM    2  C2  UNL     1     -34.206   5.729   3.700  1.00 20.00     0.396 C 
HETATM    3  F4  UNL     1     -32.937   5.561   4.127  1.00 20.00    -0.171 F 
HETATM    4  F5  UNL     1     -34.261   5.326   2.411  1.00 20.00    -0.171 F 
HETATM    5  F6  UNL     1     -34.486   7.049   3.727  1.00 20.00    -0.171 F 
ENDBRANCH   1   2
BRANCH   1   6
HETATM    6  C3  UNL     1     -34.760   4.853   5.993  1.00 20.00     0.396 C 
HETATM    7  F7  UNL     1     -33.734   3.985   6.135  1.00 20.00    -0.171 F 
HETATM    8  F8  UNL     1     -35.770   4.426   6.778  1.00 20.00    -0.171 F 
HETATM    9  F9  UNL     1     -34.346   6.051   6.458  1.00 20.00    -0.171 F 
ENDBRANCH   1   6
TORSDOF 2
ENDMDL
MODEL 9
REMARK VINA RESULT:      -5.4      1.310      3.225
REMARK  2 active torsions:
REMARK  status: ('A' for Active; 'I' for Inactive)
REMARK    1  A    between atoms: C1_1  and  C2_2 
REMARK    2  A    between atoms: C1_1  and  C3_3 
ROOT
HETATM    1  C1  UNL     1     -35.169   4.904   4.530  1.00 20.00     0.234 C 
ENDROOT
BRANCH   1   2
HETATM    2  C2  UNL     1     -34.204   5.721   3.699  1.00 20.00     0.396 C 
HETATM    3  F4  UNL     1     -32.932   5.564   4.122  1.00 20.00    -0.171 F 
HETATM    4  F5  UNL     1     -34.256   5.338   2.404  1.00 20.00    -0.171 F 
HETATM    5  F6  UNL     1     -34.502   7.036   3.748  1.00 20.00    -0.171 F 
ENDBRANCH   1   2
BRANCH   1   6
HETATM    6  C3  UNL     1     -34.762   4.831   5.985  1.00 20.00     0.396 C 
HETATM    7  F7  UNL     1     -34.402   6.053   6.438  1.00 20.00    -0.171 F 
HETATM    8  F8  UNL     1     -33.711   4.003   6.163  1.00 20.00    -0.171 F 
HETATM    9  F9  UNL     1     -35.776   4.392   6.760  1.00 20.00    -0.171 F 
ENDBRANCH   1   6
TORSDOF 2
ENDMDL
