MODEL 1
REMARK VINA RESULT:      -4.2      0.000      0.000
REMARK  2 active torsions:
REMARK  status: ('A' for Active; 'I' for Inactive)
REMARK    1  A    between atoms: C6_6  and  C7_7 
REMARK    2  A    between atoms: C7_7  and  O8_8 
ROOT
HETATM    1  C1  UNL     1     -31.656   7.315   3.284  1.00 20.00     0.015 C 
HETATM    2  C2  UNL     1     -32.686   6.759   3.550  1.00 20.00    -0.079 C 
HETATM    3  C5  UNL     1     -34.272   5.049   2.777  1.00 20.00     0.061 C 
HETATM    4  C7  UNL     1     -33.957   6.078   3.871  1.00 20.00     0.119 C 
ENDROOT
BRANCH   4   5
HETATM    5  C6  UNL     1     -33.939   5.436   5.289  1.00 20.00     0.024 C 
HETATM    6  C3  UNL     1     -34.054   6.452   6.433  1.00 20.00     0.014 C 
HETATM    7  C4  UNL     1     -35.010   4.348   5.459  1.00 20.00     0.014 C 
ENDBRANCH   4   5
BRANCH   4   8
HETATM    8  O8  UNL     1     -35.003   7.057   3.830  1.00 20.00    -0.378 OA
HETATM    9  H20 UNL     1     -34.712   7.735   3.203  1.00 20.00     0.211 HD
ENDBRANCH   4   8
TORSDOF 2
ENDMDL
MODEL 2
REMARK VINA RESULT:      -4.1     11.264     12.302
REMARK  2 active torsions:
REMARK  status: ('A' for Active; 'I' for Inactive)
REMARK    1  A    between atoms: C6_6  and  C7_7 
REMARK    2  A    between atoms: C7_7  and  O8_8 
ROOT
HETATM    1  C1  UNL     1     -34.796  14.596  -6.840  1.00 20.00     0.015 C 
HETATM    2  C2  UNL     1     -34.805  14.266  -5.685  1.00 20.00    -0.079 C 
HETATM    3  C5  UNL     1     -33.371  13.777  -3.752  1.00 20.00     0.061 C 
HETATM    4  C7  UNL     1     -34.814  13.853  -4.268  1.00 20.00     0.119 C 
ENDROOT
BRANCH   4   5
HETATM    5  C6  UNL     1     -35.701  14.784  -3.389  1.00 20.00     0.024 C 
HETATM    6  C3  UNL     1     -35.145  16.204  -3.231  1.00 20.00     0.014 C 
HETATM    7  C4  UNL     1     -37.155  14.852  -3.882  1.00 20.00     0.014 C 
ENDBRANCH   4   5
BRANCH   4   8
HETATM    8  O8  UNL     1     -35.346  12.524  -4.200  1.00 20.00    -0.378 OA
HETATM    9  H20 UNL     1     -36.309  12.620  -4.178  1.00 20.00     0.211 HD
ENDBRANCH   4   8
TORSDOF 2
ENDMDL
MODEL 3
REMARK VINA RESULT:      -4.1     11.451     12.185
REMARK  2 active torsions:
REMARK  status: ('A' for Active; 'I' for Inactive)
REMARK    1  A    between atoms: C6_6  and  C7_7 
REMARK    2  A    between atoms: C7_7  and  O8_8 
ROOT
HETATM    1  C1  UNL     1     -37.753  14.789  -3.872  1.00 20.00     0.015 C 
HETATM    2  C2  UNL     1     -36.615  14.447  -4.044  1.00 20.00    -0.079 C 
HETATM    3  C5  UNL     1     -34.783  14.410  -5.680  1.00 20.00     0.061 C 
HETATM    4  C7  UNL     1     -35.217  14.023  -4.261  1.00 20.00     0.119 C 
ENDROOT
BRANCH   4   5
HETATM    5  C6  UNL     1     -34.254  14.594  -3.179  1.00 20.00     0.024 C 
HETATM    6  C3  UNL     1     -32.850  14.917  -3.704  1.00 20.00     0.014 C 
HETATM    7  C4  UNL     1     -34.831  15.825  -2.464  1.00 20.00     0.014 C 
ENDBRANCH   4   5
BRANCH   4   8
HETATM    8  O8  UNL     1     -35.177  12.592  -4.194  1.00 20.00    -0.378 OA
HETATM    9  H20 UNL     1     -35.561  12.352  -3.339  1.00 20.00     0.211 HD
ENDBRANCH   4   8
TORSDOF 2
ENDMDL
MODEL 4
REMARK VINA RESULT:      -4.1     11.462     12.178
REMARK  2 active torsions:
REMARK  status: ('A' for Active; 'I' for Inactive)
REMARK    1  A    between atoms: C6_6  and  C7_7 
REMARK    2  A    between atoms: C7_7  and  O8_8 
ROOT
HETATM    1  C1  UNL     1     -34.524  16.756  -0.707  1.00 20.00     0.015 C 
HETATM    2  C2  UNL     1     -34.852  16.235  -1.738  1.00 20.00    -0.079 C 
HETATM    3  C5  UNL     1     -35.180  16.630  -4.141  1.00 20.00     0.061 C 
HETATM    4  C7  UNL     1     -35.261  15.599  -3.007  1.00 20.00     0.119 C 
ENDROOT
BRANCH   4   5
HETATM    5  C6  UNL     1     -34.429  14.320  -3.319  1.00 20.00     0.024 C 
HETATM    6  C3  UNL     1     -35.068  13.405  -4.370  1.00 20.00     0.014 C 
HETATM    7  C4  UNL     1     -32.983  14.641  -3.728  1.00 20.00     0.014 C 
ENDBRANCH   4   5
BRANCH   4   8
HETATM    8  O8  UNL     1     -36.639  15.226  -2.887  1.00 20.00    -0.378 OA
HETATM    9  H20 UNL     1     -36.831  14.658  -3.646  1.00 20.00     0.211 HD
ENDBRANCH   4   8
TORSDOF 2
ENDMDL
MODEL 5
REMARK VINA RESULT:      -4.0     11.448     12.940
REMARK  2 active torsions:
REMARK  status: ('A' for Active; 'I' for Inactive)
REMARK    1  A    between atoms: C6_6  and  C7_7 
REMARK    2  A    between atoms: C7_7  and  O8_8 
ROOT
HETATM    1  C1  UNL     1     -34.535  16.282  -1.580  1.00 20.00     0.015 C 
HETATM    2  C2  UNL     1     -34.252  15.721  -2.602  1.00 20.00    -0.079 C 
HETATM    3  C5  UNL     1     -34.504  13.615  -3.842  1.00 20.00     0.061 C 
HETATM    4  C7  UNL     1     -33.899  15.025  -3.856  1.00 20.00     0.119 C 
ENDROOT
BRANCH   4   5
HETATM    5  C6  UNL     1     -34.327  15.832  -5.118  1.00 20.00     0.024 C 
HETATM    6  C3  UNL     1     -33.468  17.075  -5.380  1.00 20.00     0.014 C 
HETATM    7  C4  UNL     1     -34.377  14.965  -6.385  1.00 20.00     0.014 C 
ENDBRANCH   4   5
BRANCH   4   8
HETATM    8  O8  UNL     1     -32.476  14.862  -3.883  1.00 20.00    -0.378 OA
HETATM    9  H20 UNL     1     -32.169  15.031  -2.981  1.00 20.00     0.211 HD
ENDBRANCH   4   8
TORSDOF 2
ENDMDL
MODEL 6
REMARK VINA RESULT:      -4.0     11.568     12.786
REMARK  2 active torsions:
REMARK  status: ('A' for Active; 'I' for Inactive)
REMARK    1  A    between atoms: C6_6  and  C7_7 
REMARK    2  A    between atoms: C7_7  and  O8_8 
ROOT
HETATM    1  C1  UNL     1     -34.401  16.308  -1.717  1.00 20.00     0.015 C 
HETATM    2  C2  UNL     1     -34.121  15.794  -2.766  1.00 20.00    -0.079 C 
HETATM    3  C5  UNL     1     -33.395  13.692  -3.810  1.00 20.00     0.061 C 
HETATM    4  C7  UNL     1     -33.769  15.160  -4.052  1.00 20.00     0.119 C 
ENDROOT
BRANCH   4   5
HETATM    5  C6  UNL     1     -34.903  15.308  -5.110  1.00 20.00     0.024 C 
HETATM    6  C3  UNL     1     -34.512  14.824  -6.511  1.00 20.00     0.014 C 
HETATM    7  C4  UNL     1     -36.208  14.624  -4.676  1.00 20.00     0.014 C 
ENDBRANCH   4   5
BRANCH   4   8
HETATM    8  O8  UNL     1     -32.594  15.808  -4.555  1.00 20.00    -0.378 OA
HETATM    9  H20 UNL     1     -32.891  16.384  -5.273  1.00 20.00     0.211 HD
ENDBRANCH   4   8
TORSDOF 2
ENDMDL
MODEL 7
REMARK VINA RESULT:      -4.0     11.440     12.962
REMARK  2 active torsions:
REMARK  status: ('A' for Active; 'I' for Inactive)
REMARK    1  A    between atoms: C6_6  and  C7_7 
REMARK    2  A    between atoms: C7_7  and  O8_8 
ROOT
HETATM    1  C1  UNL     1     -34.569  16.219  -1.738  1.00 20.00     0.015 C 
HETATM    2  C2  UNL     1     -34.192  15.639  -2.719  1.00 20.00    -0.079 C 
HETATM    3  C5  UNL     1     -34.347  13.519  -3.950  1.00 20.00     0.061 C 
HETATM    4  C7  UNL     1     -33.723  14.921  -3.921  1.00 20.00     0.119 C 
ENDROOT
BRANCH   4   5
HETATM    5  C6  UNL     1     -34.009  15.715  -5.230  1.00 20.00     0.024 C 
HETATM    6  C3  UNL     1     -35.497  15.809  -5.588  1.00 20.00     0.014 C 
HETATM    7  C4  UNL     1     -33.395  17.123  -5.213  1.00 20.00     0.014 C 
ENDBRANCH   4   5
BRANCH   4   8
HETATM    8  O8  UNL     1     -32.307  14.739  -3.801  1.00 20.00    -0.378 OA
HETATM    9  H20 UNL     1     -32.094  14.892  -2.870  1.00 20.00     0.211 HD
ENDBRANCH   4   8
TORSDOF 2
ENDMDL
MODEL 8
REMARK VINA RESULT:      -3.9     12.015     13.392
REMARK  2 active torsions:
REMARK  status: ('A' for Active; 'I' for Inactive)
REMARK    1  A    between atoms: C6_6  and  C7_7 
REMARK    2  A    between atoms: C7_7  and  O8_8 
ROOT
HETATM    1  C1  UNL     1     -34.447  14.997  -7.242  1.00 20.00     0.015 C 
HETATM    2  C2  UNL     1     -34.103  15.456  -6.186  1.00 20.00    -0.079 C 
HETATM    3  C5  UNL     1     -33.727  17.555  -4.966  1.00 20.00     0.061 C 
HETATM    4  C7  UNL     1     -33.675  16.023  -4.892  1.00 20.00     0.119 C 
ENDROOT
BRANCH   4   5
HETATM    5  C6  UNL     1     -34.509  15.467  -3.700  1.00 20.00     0.024 C 
HETATM    6  C3  UNL     1     -34.468  13.939  -3.573  1.00 20.00     0.014 C 
HETATM    7  C4  UNL     1     -34.119  16.104  -2.358  1.00 20.00     0.014 C 
ENDBRANCH   4   5
BRANCH   4   8
HETATM    8  O8  UNL     1     -32.301  15.667  -4.690  1.00 20.00    -0.378 OA
HETATM    9  H20 UNL     1     -32.207  14.761  -5.016  1.00 20.00     0.211 HD
ENDBRANCH   4   8
TORSDOF 2
ENDMDL
MODEL 9
REMARK VINA RESULT:      -3.9     11.678     12.648
REMARK  2 active torsions:
REMARK  status: ('A' for Active; 'I' for Inactive)
REMARK    1  A    between atoms: C6_6  and  C7_7 
REMARK    2  A    between atoms: C7_7  and  O8_8 
ROOT
HETATM    1  C1  UNL     1     -33.768  16.819  -5.959  1.00 20.00     0.015 C 
HETATM    2  C2  UNL     1     -33.695  16.149  -4.965  1.00 20.00    -0.079 C 
HETATM    3  C5  UNL     1     -33.673  16.240  -2.510  1.00 20.00     0.061 C 
HETATM    4  C7  UNL     1     -33.597  15.328  -3.741  1.00 20.00     0.119 C 
ENDROOT
BRANCH   4   5
HETATM    5  C6  UNL     1     -34.672  14.202  -3.701  1.00 20.00     0.024 C 
HETATM    6  C3  UNL     1     -36.115  14.720  -3.672  1.00 20.00     0.014 C 
HETATM    7  C4  UNL     1     -34.512  13.191  -4.847  1.00 20.00     0.014 C 
ENDBRANCH   4   5
BRANCH   4   8
HETATM    8  O8  UNL     1     -32.301  14.718  -3.723  1.00 20.00    -0.378 OA
HETATM    9  H20 UNL     1     -31.975  14.805  -2.816  1.00 20.00     0.211 HD
ENDBRANCH   4   8
TORSDOF 2
ENDMDL
