MODEL 1
REMARK VINA RESULT:      -4.8      0.000      0.000
REMARK  3 active torsions:
REMARK  status: ('A' for Active; 'I' for Inactive)
REMARK    1  A    between atoms: C1_1  and  C3_3 
REMARK    2  A    between atoms: C3_3  and  C6_6 
REMARK    3  A    between atoms: C6_6  and  C7_7 
ROOT
HETATM    1  C3  UNL     1     -35.015   5.233   3.794  1.00 20.00     0.149 C 
HETATM    2  O8  UNL     1     -36.119   5.716   3.558  1.00 20.00    -0.293 OA
ENDROOT
BRANCH   1   3
HETATM    3  C1  UNL     1     -33.792   5.675   3.064  1.00 20.00     0.045 C 
HETATM    4  C2  UNL     1     -33.120   6.768   3.449  1.00 20.00    -0.027 C 
HETATM    5  C4  UNL     1     -31.890   7.260   2.759  1.00 20.00     0.036 C 
ENDBRANCH   1   3
BRANCH   1   6
HETATM    6  C6  UNL     1     -34.793   4.155   4.841  1.00 20.00     0.082 C 
BRANCH   6   7
HETATM    7  C7  UNL     1     -35.088   4.649   6.256  1.00 20.00     0.003 C 
HETATM    8  C5  UNL     1     -34.348   5.941   6.561  1.00 20.00     0.005 C 
ENDBRANCH   6   7
ENDBRANCH   1   6
TORSDOF 3
ENDMDL
MODEL 2
REMARK VINA RESULT:      -4.8      1.343      3.234
REMARK  3 active torsions:
REMARK  status: ('A' for Active; 'I' for Inactive)
REMARK    1  A    between atoms: C1_1  and  C3_3 
REMARK    2  A    between atoms: C3_3  and  C6_6 
REMARK    3  A    between atoms: C6_6  and  C7_7 
ROOT
HETATM    1  C3  UNL     1     -34.946   4.705   5.045  1.00 20.00     0.149 C 
HETATM    2  O8  UNL     1     -35.185   3.502   5.088  1.00 20.00    -0.293 OA
ENDROOT
BRANCH   1   3
HETATM    3  C1  UNL     1     -34.468   5.454   6.243  1.00 20.00     0.045 C 
HETATM    4  C2  UNL     1     -33.972   6.693   6.126  1.00 20.00    -0.027 C 
HETATM    5  C4  UNL     1     -33.479   7.492   7.287  1.00 20.00     0.036 C 
ENDBRANCH   1   3
BRANCH   1   6
HETATM    6  C6  UNL     1     -35.109   5.534   3.782  1.00 20.00     0.082 C 
BRANCH   6   7
HETATM    7  C7  UNL     1     -33.999   5.273   2.767  1.00 20.00     0.003 C 
HETATM    8  C5  UNL     1     -32.817   6.203   2.982  1.00 20.00     0.005 C 
ENDBRANCH   6   7
ENDBRANCH   1   6
TORSDOF 3
ENDMDL
MODEL 3
REMARK VINA RESULT:      -4.6      1.610      2.208
REMARK  3 active torsions:
REMARK  status: ('A' for Active; 'I' for Inactive)
REMARK    1  A    between atoms: C1_1  and  C3_3 
REMARK    2  A    between atoms: C3_3  and  C6_6 
REMARK    3  A    between atoms: C6_6  and  C7_7 
ROOT
HETATM    1  C3  UNL     1     -33.273   6.349   3.847  1.00 20.00     0.149 C 
HETATM    2  O8  UNL     1     -33.097   6.763   4.989  1.00 20.00    -0.293 OA
ENDROOT
BRANCH   1   3
HETATM    3  C1  UNL     1     -32.435   6.816   2.705  1.00 20.00     0.045 C 
HETATM    4  C2  UNL     1     -32.468   8.095   2.307  1.00 20.00    -0.027 C 
HETATM    5  C4  UNL     1     -31.653   8.623   1.173  1.00 20.00     0.036 C 
ENDBRANCH   1   3
BRANCH   1   6
HETATM    6  C6  UNL     1     -34.345   5.332   3.494  1.00 20.00     0.082 C 
BRANCH   6   7
HETATM    7  C7  UNL     1     -35.348   5.127   4.627  1.00 20.00     0.003 C 
HETATM    8  C5  UNL     1     -34.898   4.032   5.579  1.00 20.00     0.005 C 
ENDBRANCH   6   7
ENDBRANCH   1   6
TORSDOF 3
ENDMDL
MODEL 4
REMARK VINA RESULT:      -4.4      1.618      4.402
REMARK  3 active torsions:
REMARK  status: ('A' for Active; 'I' for Inactive)
REMARK    1  A    between atoms: C1_1  and  C3_3 
REMARK    2  A    between atoms: C3_3  and  C6_6 
REMARK    3  A    between atoms: C6_6  and  C7_7 
ROOT
HETATM    1  C3  UNL     1     -33.072   6.435   3.352  1.00 20.00     0.149 C 
HETATM    2  O8  UNL     1     -33.384   5.704   2.416  1.00 20.00    -0.293 OA
ENDROOT
BRANCH   1   3
HETATM    3  C1  UNL     1     -33.669   6.271   4.708  1.00 20.00     0.045 C 
HETATM    4  C2  UNL     1     -34.392   5.184   5.014  1.00 20.00    -0.027 C 
HETATM    5  C4  UNL     1     -35.014   4.963   6.353  1.00 20.00     0.036 C 
ENDBRANCH   1   3
BRANCH   1   6
HETATM    6  C6  UNL     1     -32.060   7.560   3.218  1.00 20.00     0.082 C 
BRANCH   6   7
HETATM    7  C7  UNL     1     -31.966   8.091   1.789  1.00 20.00     0.003 C 
HETATM    8  C5  UNL     1     -32.491   9.513   1.687  1.00 20.00     0.005 C 
ENDBRANCH   6   7
ENDBRANCH   1   6
TORSDOF 3
ENDMDL
MODEL 5
REMARK VINA RESULT:      -4.4      1.201      4.008
REMARK  3 active torsions:
REMARK  status: ('A' for Active; 'I' for Inactive)
REMARK    1  A    between atoms: C1_1  and  C3_3 
REMARK    2  A    between atoms: C3_3  and  C6_6 
REMARK    3  A    between atoms: C6_6  and  C7_7 
ROOT
HETATM    1  C3  UNL     1     -33.576   5.717   3.284  1.00 20.00     0.149 C 
HETATM    2  O8  UNL     1     -34.311   5.365   2.366  1.00 20.00    -0.293 OA
ENDROOT
BRANCH   1   3
HETATM    3  C1  UNL     1     -34.050   5.756   4.698  1.00 20.00     0.045 C 
HETATM    4  C2  UNL     1     -34.718   4.722   5.227  1.00 20.00    -0.027 C 
HETATM    5  C4  UNL     1     -35.216   4.701   6.635  1.00 20.00     0.036 C 
ENDBRANCH   1   3
BRANCH   1   6
HETATM    6  C6  UNL     1     -32.133   6.139   3.070  1.00 20.00     0.082 C 
BRANCH   6   7
HETATM    7  C7  UNL     1     -31.944   7.650   3.187  1.00 20.00     0.003 C 
HETATM    8  C5  UNL     1     -32.044   8.331   1.833  1.00 20.00     0.005 C 
ENDBRANCH   6   7
ENDBRANCH   1   6
TORSDOF 3
ENDMDL
MODEL 6
REMARK VINA RESULT:      -4.0     12.228     12.795
REMARK  3 active torsions:
REMARK  status: ('A' for Active; 'I' for Inactive)
REMARK    1  A    between atoms: C1_1  and  C3_3 
REMARK    2  A    between atoms: C3_3  and  C6_6 
REMARK    3  A    between atoms: C6_6  and  C7_7 
ROOT
HETATM    1  C3  UNL     1     -33.217  15.777  -3.881  1.00 20.00     0.149 C 
HETATM    2  O8  UNL     1     -32.826  16.272  -4.935  1.00 20.00    -0.293 OA
ENDROOT
BRANCH   1   3
HETATM    3  C1  UNL     1     -33.625  16.621  -2.722  1.00 20.00     0.045 C 
HETATM    4  C2  UNL     1     -34.394  16.121  -1.745  1.00 20.00    -0.027 C 
HETATM    5  C4  UNL     1     -34.836  16.915  -0.560  1.00 20.00     0.036 C 
ENDBRANCH   1   3
BRANCH   1   6
HETATM    6  C6  UNL     1     -33.322  14.277  -3.663  1.00 20.00     0.082 C 
BRANCH   6   7
HETATM    7  C7  UNL     1     -34.259  13.608  -4.666  1.00 20.00     0.003 C 
HETATM    8  C5  UNL     1     -35.717  13.843  -4.309  1.00 20.00     0.005 C 
ENDBRANCH   6   7
ENDBRANCH   1   6
TORSDOF 3
ENDMDL
MODEL 7
REMARK VINA RESULT:      -4.0      1.955      2.481
REMARK  3 active torsions:
REMARK  status: ('A' for Active; 'I' for Inactive)
REMARK    1  A    between atoms: C1_1  and  C3_3 
REMARK    2  A    between atoms: C3_3  and  C6_6 
REMARK    3  A    between atoms: C6_6  and  C7_7 
ROOT
HETATM    1  C3  UNL     1     -33.774   6.612   6.054  1.00 20.00     0.149 C 
HETATM    2  O8  UNL     1     -33.135   7.322   6.826  1.00 20.00    -0.293 OA
ENDROOT
BRANCH   1   3
HETATM    3  C1  UNL     1     -33.659   6.758   4.575  1.00 20.00     0.045 C 
HETATM    4  C2  UNL     1     -32.462   6.902   3.990  1.00 20.00    -0.027 C 
HETATM    5  C4  UNL     1     -32.282   7.052   2.515  1.00 20.00     0.036 C 
ENDBRANCH   1   3
BRANCH   1   6
HETATM    6  C6  UNL     1     -34.728   5.529   6.529  1.00 20.00     0.082 C 
BRANCH   6   7
HETATM    7  C7  UNL     1     -34.428   4.172   5.895  1.00 20.00     0.003 C 
HETATM    8  C5  UNL     1     -35.278   3.934   4.658  1.00 20.00     0.005 C 
ENDBRANCH   6   7
ENDBRANCH   1   6
TORSDOF 3
ENDMDL
MODEL 8
REMARK VINA RESULT:      -4.0     11.790     13.187
REMARK  3 active torsions:
REMARK  status: ('A' for Active; 'I' for Inactive)
REMARK    1  A    between atoms: C1_1  and  C3_3 
REMARK    2  A    between atoms: C3_3  and  C6_6 
REMARK    3  A    between atoms: C6_6  and  C7_7 
ROOT
HETATM    1  C3  UNL     1     -34.921  13.739  -4.578  1.00 20.00     0.149 C 
HETATM    2  O8  UNL     1     -34.890  12.514  -4.650  1.00 20.00    -0.293 OA
ENDROOT
BRANCH   1   3
HETATM    3  C1  UNL     1     -34.381  14.470  -3.396  1.00 20.00     0.045 C 
HETATM    4  C2  UNL     1     -35.055  15.494  -2.855  1.00 20.00    -0.027 C 
HETATM    5  C4  UNL     1     -34.568  16.264  -1.672  1.00 20.00     0.036 C 
ENDBRANCH   1   3
BRANCH   1   6
HETATM    6  C6  UNL     1     -35.503  14.615  -5.675  1.00 20.00     0.082 C 
BRANCH   6   7
HETATM    7  C7  UNL     1     -34.440  15.090  -6.664  1.00 20.00     0.003 C 
HETATM    8  C5  UNL     1     -34.362  16.606  -6.713  1.00 20.00     0.005 C 
ENDBRANCH   6   7
ENDBRANCH   1   6
TORSDOF 3
ENDMDL
MODEL 9
REMARK VINA RESULT:      -3.9     11.788     12.683
REMARK  3 active torsions:
REMARK  status: ('A' for Active; 'I' for Inactive)
REMARK    1  A    between atoms: C1_1  and  C3_3 
REMARK    2  A    between atoms: C3_3  and  C6_6 
REMARK    3  A    between atoms: C6_6  and  C7_7 
ROOT
HETATM    1  C3  UNL     1     -34.458  13.931  -4.020  1.00 20.00     0.149 C 
HETATM    2  O8  UNL     1     -33.593  13.174  -3.587  1.00 20.00    -0.293 OA
ENDROOT
BRANCH   1   3
HETATM    3  C1  UNL     1     -34.925  13.861  -5.434  1.00 20.00     0.045 C 
HETATM    4  C2  UNL     1     -34.536  14.777  -6.332  1.00 20.00    -0.027 C 
HETATM    5  C4  UNL     1     -34.969  14.761  -7.761  1.00 20.00     0.036 C 
ENDBRANCH   1   3
BRANCH   1   6
HETATM    6  C6  UNL     1     -35.128  14.993  -3.165  1.00 20.00     0.082 C 
BRANCH   6   7
HETATM    7  C7  UNL     1     -34.121  15.950  -2.531  1.00 20.00     0.003 C 
HETATM    8  C5  UNL     1     -34.607  16.459  -1.184  1.00 20.00     0.005 C 
ENDBRANCH   6   7
ENDBRANCH   1   6
TORSDOF 3
ENDMDL
