MODEL 1
REMARK VINA RESULT:      -3.4      0.000      0.000
REMARK  0 active torsions:
REMARK  status: ('A' for Active; 'I' for Inactive)
ROOT
HETATM    1  C1  UNL     1     -33.643   5.627   3.896  1.00 20.00     0.051 C 
HETATM    2  C2  UNL     1     -34.424   6.047   6.249  1.00 20.00     0.051 C 
HETATM    3  C3  UNL     1     -34.642   3.754   5.243  1.00 20.00     0.051 C 
HETATM    4  C4  UNL     1     -34.656   5.253   4.970  1.00 20.00     0.092 C 
HETATM    5  F5  UNL     1     -35.897   5.576   4.501  1.00 20.00    -0.244 F 
ENDROOT
TORSDOF 0
ENDMDL
MODEL 2
REMARK VINA RESULT:      -3.4      0.067      1.930
REMARK  0 active torsions:
REMARK  status: ('A' for Active; 'I' for Inactive)
ROOT
HETATM    1  C1  UNL     1     -34.387   6.114   6.260  1.00 20.00     0.051 C 
HETATM    2  C2  UNL     1     -34.646   3.797   5.319  1.00 20.00     0.051 C 
HETATM    3  C3  UNL     1     -33.606   5.612   3.924  1.00 20.00     0.051 C 
HETATM    4  C4  UNL     1     -34.630   5.287   5.004  1.00 20.00     0.092 C 
HETATM    5  F5  UNL     1     -35.862   5.622   4.520  1.00 20.00    -0.244 F 
ENDROOT
TORSDOF 0
ENDMDL
MODEL 3
REMARK VINA RESULT:      -3.4      0.060      1.948
REMARK  0 active torsions:
REMARK  status: ('A' for Active; 'I' for Inactive)
ROOT
HETATM    1  C1  UNL     1     -34.691   3.774   5.255  1.00 20.00     0.051 C 
HETATM    2  C2  UNL     1     -33.586   5.617   3.948  1.00 20.00     0.051 C 
HETATM    3  C3  UNL     1     -34.416   6.053   6.281  1.00 20.00     0.051 C 
HETATM    4  C4  UNL     1     -34.642   5.274   4.991  1.00 20.00     0.092 C 
HETATM    5  F5  UNL     1     -35.856   5.646   4.490  1.00 20.00    -0.244 F 
ENDROOT
TORSDOF 0
ENDMDL
MODEL 4
REMARK VINA RESULT:      -3.4      1.368      2.017
REMARK  0 active torsions:
REMARK  status: ('A' for Active; 'I' for Inactive)
ROOT
HETATM    1  C1  UNL     1     -34.735   3.923   5.582  1.00 20.00     0.051 C 
HETATM    2  C2  UNL     1     -34.280   6.347   6.074  1.00 20.00     0.051 C 
HETATM    3  C3  UNL     1     -35.531   5.700   3.991  1.00 20.00     0.051 C 
HETATM    4  C4  UNL     1     -34.449   5.295   4.985  1.00 20.00     0.092 C 
HETATM    5  F5  UNL     1     -33.270   5.213   4.302  1.00 20.00    -0.244 F 
ENDROOT
TORSDOF 0
ENDMDL
MODEL 5
REMARK VINA RESULT:      -3.4      1.384      2.160
REMARK  0 active torsions:
REMARK  status: ('A' for Active; 'I' for Inactive)
ROOT
HETATM    1  C1  UNL     1     -35.509   5.700   4.016  1.00 20.00     0.051 C 
HETATM    2  C2  UNL     1     -34.731   3.952   5.646  1.00 20.00     0.051 C 
HETATM    3  C3  UNL     1     -34.265   6.382   6.091  1.00 20.00     0.051 C 
HETATM    4  C4  UNL     1     -34.435   5.309   5.023  1.00 20.00     0.092 C 
HETATM    5  F5  UNL     1     -33.252   5.207   4.348  1.00 20.00    -0.244 F 
ENDROOT
TORSDOF 0
ENDMDL
MODEL 6
REMARK VINA RESULT:      -3.4      1.368      1.971
REMARK  0 active torsions:
REMARK  status: ('A' for Active; 'I' for Inactive)
ROOT
HETATM    1  C1  UNL     1     -34.291   6.338   6.086  1.00 20.00     0.051 C 
HETATM    2  C2  UNL     1     -35.531   5.694   3.995  1.00 20.00     0.051 C 
HETATM    3  C3  UNL     1     -34.726   3.914   5.578  1.00 20.00     0.051 C 
HETATM    4  C4  UNL     1     -34.449   5.292   4.990  1.00 20.00     0.092 C 
HETATM    5  F5  UNL     1     -33.267   5.222   4.311  1.00 20.00    -0.244 F 
ENDROOT
TORSDOF 0
ENDMDL
MODEL 7
REMARK VINA RESULT:      -3.2      1.471      2.203
REMARK  0 active torsions:
REMARK  status: ('A' for Active; 'I' for Inactive)
ROOT
HETATM    1  C1  UNL     1     -34.322   6.204   6.277  1.00 20.00     0.051 C 
HETATM    2  C2  UNL     1     -33.190   6.026   4.039  1.00 20.00     0.051 C 
HETATM    3  C3  UNL     1     -35.569   5.257   4.310  1.00 20.00     0.051 C 
HETATM    4  C4  UNL     1     -34.211   5.406   4.985  1.00 20.00     0.092 C 
HETATM    5  F5  UNL     1     -33.770   4.155   5.308  1.00 20.00    -0.244 F 
ENDROOT
TORSDOF 0
ENDMDL
MODEL 8
REMARK VINA RESULT:      -2.9      8.366      8.722
REMARK  0 active torsions:
REMARK  status: ('A' for Active; 'I' for Inactive)
ROOT
HETATM    1  C1  UNL     1     -40.726   4.638  -1.054  1.00 20.00     0.051 C 
HETATM    2  C2  UNL     1     -42.479   5.649   0.439  1.00 20.00     0.051 C 
HETATM    3  C3  UNL     1     -41.376   7.051  -1.334  1.00 20.00     0.051 C 
HETATM    4  C4  UNL     1     -41.199   5.903  -0.348  1.00 20.00     0.092 C 
HETATM    5  F5  UNL     1     -40.231   6.267   0.542  1.00 20.00    -0.244 F 
ENDROOT
TORSDOF 0
ENDMDL
MODEL 9
REMARK VINA RESULT:      -2.9      8.367      8.727
REMARK  0 active torsions:
REMARK  status: ('A' for Active; 'I' for Inactive)
ROOT
HETATM    1  C1  UNL     1     -42.478   5.659   0.426  1.00 20.00     0.051 C 
HETATM    2  C2  UNL     1     -41.362   7.042  -1.352  1.00 20.00     0.051 C 
HETATM    3  C3  UNL     1     -40.721   4.630  -1.047  1.00 20.00     0.051 C 
HETATM    4  C4  UNL     1     -41.194   5.902  -0.356  1.00 20.00     0.092 C 
HETATM    5  F5  UNL     1     -40.229   6.271   0.537  1.00 20.00    -0.244 F 
ENDROOT
TORSDOF 0
ENDMDL
