MODEL 1
REMARK VINA RESULT:      -3.9      0.000      0.000
REMARK  2 active torsions:
REMARK  status: ('A' for Active; 'I' for Inactive)
REMARK    1  A    between atoms: C1_1  and  C3_3 
REMARK    2  A    between atoms: C2_2  and  C3_3 
ROOT
HETATM    1  C3  UNL     1     -33.743   5.535   4.687  1.00 20.00     0.187 C 
HETATM    2 BR7  UNL     1     -33.975   6.550   6.345  1.00 20.00    -0.077 Br
ENDROOT
BRANCH   1   3
HETATM    3  C1  UNL     1     -35.092   4.856   4.434  1.00 20.00     0.190 C 
HETATM    4  O4  UNL     1     -35.219   3.716   4.969  1.00 20.00    -0.647 OA
HETATM    5  O5  UNL     1     -35.912   5.494   3.717  1.00 20.00    -0.647 OA
ENDBRANCH   1   3
BRANCH   1   6
HETATM    6  C2  UNL     1     -33.232   6.463   3.604  1.00 20.00     0.248 C 
HETATM    7  F6  UNL     1     -32.166   5.907   2.967  1.00 20.00    -0.254 F 
ENDBRANCH   1   6
TORSDOF 2
ENDMDL
MODEL 2
REMARK VINA RESULT:      -3.8      0.027      1.220
REMARK  2 active torsions:
REMARK  status: ('A' for Active; 'I' for Inactive)
REMARK    1  A    between atoms: C1_1  and  C3_3 
REMARK    2  A    between atoms: C2_2  and  C3_3 
ROOT
HETATM    1  C3  UNL     1     -33.742   5.530   4.690  1.00 20.00     0.187 C 
HETATM    2 BR7  UNL     1     -33.980   6.551   6.344  1.00 20.00    -0.077 Br
ENDROOT
BRANCH   1   3
HETATM    3  C1  UNL     1     -35.081   4.830   4.449  1.00 20.00     0.190 C 
HETATM    4  O4  UNL     1     -35.900   5.485   3.739  1.00 20.00    -0.647 OA
HETATM    5  O5  UNL     1     -35.225   3.698   4.989  1.00 20.00    -0.647 OA
ENDBRANCH   1   3
BRANCH   1   6
HETATM    6  C2  UNL     1     -33.250   6.460   3.600  1.00 20.00     0.248 C 
HETATM    7  F6  UNL     1     -32.147   5.941   2.996  1.00 20.00    -0.254 F 
ENDBRANCH   1   6
TORSDOF 2
ENDMDL
MODEL 3
REMARK VINA RESULT:      -3.7      2.409      2.714
REMARK  2 active torsions:
REMARK  status: ('A' for Active; 'I' for Inactive)
REMARK    1  A    between atoms: C1_1  and  C3_3 
REMARK    2  A    between atoms: C2_2  and  C3_3 
ROOT
HETATM    1  C3  UNL     1     -33.823   5.632   5.381  1.00 20.00     0.187 C 
HETATM    2 BR7  UNL     1     -35.014   4.112   5.706  1.00 20.00    -0.077 Br
ENDROOT
BRANCH   1   3
HETATM    3  C1  UNL     1     -34.056   6.025   3.920  1.00 20.00     0.190 C 
HETATM    4  O4  UNL     1     -35.080   5.504   3.389  1.00 20.00    -0.647 OA
HETATM    5  O5  UNL     1     -33.205   6.804   3.409  1.00 20.00    -0.647 OA
ENDBRANCH   1   3
BRANCH   1   6
HETATM    6  C2  UNL     1     -34.082   6.698   6.426  1.00 20.00     0.248 C 
HETATM    7  F6  UNL     1     -32.911   7.258   6.832  1.00 20.00    -0.254 F 
ENDBRANCH   1   6
TORSDOF 2
ENDMDL
MODEL 4
REMARK VINA RESULT:      -3.7      2.404      2.758
REMARK  2 active torsions:
REMARK  status: ('A' for Active; 'I' for Inactive)
REMARK    1  A    between atoms: C1_1  and  C3_3 
REMARK    2  A    between atoms: C2_2  and  C3_3 
ROOT
HETATM    1  C3  UNL     1     -33.827   5.626   5.379  1.00 20.00     0.187 C 
HETATM    2 BR7  UNL     1     -35.007   4.102   5.723  1.00 20.00    -0.077 Br
ENDROOT
BRANCH   1   3
HETATM    3  C1  UNL     1     -34.074   6.009   3.917  1.00 20.00     0.190 C 
HETATM    4  O4  UNL     1     -33.217   6.799   3.425  1.00 20.00    -0.647 OA
HETATM    5  O5  UNL     1     -35.101   5.512   3.376  1.00 20.00    -0.647 OA
ENDBRANCH   1   3
BRANCH   1   6
HETATM    6  C2  UNL     1     -34.085   6.698   6.419  1.00 20.00     0.248 C 
HETATM    7  F6  UNL     1     -32.911   7.250   6.831  1.00 20.00    -0.254 F 
ENDBRANCH   1   6
TORSDOF 2
ENDMDL
MODEL 5
REMARK VINA RESULT:      -3.7      2.505      2.973
REMARK  2 active torsions:
REMARK  status: ('A' for Active; 'I' for Inactive)
REMARK    1  A    between atoms: C1_1  and  C3_3 
REMARK    2  A    between atoms: C2_2  and  C3_3 
ROOT
HETATM    1  C3  UNL     1     -34.762   5.580   4.770  1.00 20.00     0.187 C 
HETATM    2 BR7  UNL     1     -33.980   6.441   6.346  1.00 20.00    -0.077 Br
ENDROOT
BRANCH   1   3
HETATM    3  C1  UNL     1     -33.786   5.865   3.626  1.00 20.00     0.190 C 
HETATM    4  O4  UNL     1     -34.079   5.306   2.529  1.00 20.00    -0.647 OA
HETATM    5  O5  UNL     1     -32.801   6.605   3.902  1.00 20.00    -0.647 OA
ENDBRANCH   1   3
BRANCH   1   6
HETATM    6  C2  UNL     1     -35.038   4.124   5.086  1.00 20.00     0.248 C 
HETATM    7  F6  UNL     1     -35.374   3.980   6.397  1.00 20.00    -0.254 F 
ENDBRANCH   1   6
TORSDOF 2
ENDMDL
MODEL 6
REMARK VINA RESULT:      -3.6     12.270     12.652
REMARK  2 active torsions:
REMARK  status: ('A' for Active; 'I' for Inactive)
REMARK    1  A    between atoms: C1_1  and  C3_3 
REMARK    2  A    between atoms: C2_2  and  C3_3 
ROOT
HETATM    1  C3  UNL     1     -34.316  14.887  -4.445  1.00 20.00     0.187 C 
HETATM    2 BR7  UNL     1     -34.499  15.072  -6.385  1.00 20.00    -0.077 Br
ENDROOT
BRANCH   1   3
HETATM    3  C1  UNL     1     -34.113  13.391  -4.196  1.00 20.00     0.190 C 
HETATM    4  O4  UNL     1     -32.957  13.074  -3.789  1.00 20.00    -0.647 OA
HETATM    5  O5  UNL     1     -35.103  12.645  -4.437  1.00 20.00    -0.647 OA
ENDBRANCH   1   3
BRANCH   1   6
HETATM    6  C2  UNL     1     -33.221  15.816  -3.959  1.00 20.00     0.248 C 
HETATM    7  F6  UNL     1     -33.298  15.973  -2.610  1.00 20.00    -0.254 F 
ENDBRANCH   1   6
TORSDOF 2
ENDMDL
MODEL 7
REMARK VINA RESULT:      -3.6     12.255     12.650
REMARK  2 active torsions:
REMARK  status: ('A' for Active; 'I' for Inactive)
REMARK    1  A    between atoms: C1_1  and  C3_3 
REMARK    2  A    between atoms: C2_2  and  C3_3 
ROOT
HETATM    1  C3  UNL     1     -34.374  14.927  -4.377  1.00 20.00     0.187 C 
HETATM    2 BR7  UNL     1     -34.498  15.120  -6.321  1.00 20.00    -0.077 Br
ENDROOT
BRANCH   1   3
HETATM    3  C1  UNL     1     -34.135  13.436  -4.130  1.00 20.00     0.190 C 
HETATM    4  O4  UNL     1     -35.115  12.689  -4.419  1.00 20.00    -0.647 OA
HETATM    5  O5  UNL     1     -33.008  13.121  -3.659  1.00 20.00    -0.647 OA
ENDBRANCH   1   3
BRANCH   1   6
HETATM    6  C2  UNL     1     -33.323  15.884  -3.850  1.00 20.00     0.248 C 
HETATM    7  F6  UNL     1     -33.425  16.003  -2.498  1.00 20.00    -0.254 F 
ENDBRANCH   1   6
TORSDOF 2
ENDMDL
MODEL 8
REMARK VINA RESULT:      -3.6      2.227      2.655
REMARK  2 active torsions:
REMARK  status: ('A' for Active; 'I' for Inactive)
REMARK    1  A    between atoms: C1_1  and  C3_3 
REMARK    2  A    between atoms: C2_2  and  C3_3 
ROOT
HETATM    1  C3  UNL     1     -34.251   6.323   4.875  1.00 20.00     0.187 C 
HETATM    2 BR7  UNL     1     -32.748   6.346   3.620  1.00 20.00    -0.077 Br
ENDROOT
BRANCH   1   3
HETATM    3  C1  UNL     1     -35.159   5.186   4.400  1.00 20.00     0.190 C 
HETATM    4  O4  UNL     1     -35.950   5.497   3.462  1.00 20.00    -0.647 OA
HETATM    5  O5  UNL     1     -35.032   4.082   4.999  1.00 20.00    -0.647 OA
ENDBRANCH   1   3
BRANCH   1   6
HETATM    6  C2  UNL     1     -33.715   6.224   6.289  1.00 20.00     0.248 C 
HETATM    7  F6  UNL     1     -33.968   7.373   6.973  1.00 20.00    -0.254 F 
ENDBRANCH   1   6
TORSDOF 2
ENDMDL
MODEL 9
REMARK VINA RESULT:      -3.5      2.360      2.470
REMARK  2 active torsions:
REMARK  status: ('A' for Active; 'I' for Inactive)
REMARK    1  A    between atoms: C1_1  and  C3_3 
REMARK    2  A    between atoms: C2_2  and  C3_3 
ROOT
HETATM    1  C3  UNL     1     -33.986   6.554   4.584  1.00 20.00     0.187 C 
HETATM    2 BR7  UNL     1     -35.160   5.135   3.919  1.00 20.00    -0.077 Br
ENDROOT
BRANCH   1   3
HETATM    3  C1  UNL     1     -33.964   6.384   6.105  1.00 20.00     0.190 C 
HETATM    4  O4  UNL     1     -34.716   5.466   6.546  1.00 20.00    -0.647 OA
HETATM    5  O5  UNL     1     -33.218   7.177   6.745  1.00 20.00    -0.647 OA
ENDBRANCH   1   3
BRANCH   1   6
HETATM    6  C2  UNL     1     -32.653   6.471   3.867  1.00 20.00     0.248 C 
HETATM    7  F6  UNL     1     -32.781   5.768   2.709  1.00 20.00    -0.254 F 
ENDBRANCH   1   6
TORSDOF 2
ENDMDL
