MODEL 1
REMARK VINA RESULT:      -5.3      0.000      0.000
REMARK  2 active torsions:
REMARK  status: ('A' for Active; 'I' for Inactive)
REMARK    1  A    between atoms: C1_1  and  C3_3 
REMARK    2  A    between atoms: C2_2  and  C5_5 
ROOT
HETATM    1  C1  UNL     1     -32.775   6.488   3.923  1.00 20.00     0.003 C 
HETATM    2  C2  UNL     1     -34.005   6.047   4.224  1.00 20.00     0.049 C 
ENDROOT
BRANCH   1   3
HETATM    3  C3  UNL     1     -32.414   6.941   2.598  1.00 20.00    -0.004 C 
HETATM    4  C4  UNL     1     -32.175   8.227   2.301  1.00 20.00    -0.031 C 
HETATM    5  C6  UNL     1     -31.801   8.706   0.937  1.00 20.00     0.036 C 
ENDBRANCH   1   3
BRANCH   2   6
HETATM    6  C5  UNL     1     -34.402   5.574   5.579  1.00 20.00     0.145 C 
HETATM    7  C7  UNL     1     -34.953   4.184   5.757  1.00 20.00     0.096 C 
HETATM    8  O8  UNL     1     -34.273   6.335   6.539  1.00 20.00    -0.294 OA
ENDBRANCH   2   6
TORSDOF 2
ENDMDL
MODEL 2
REMARK VINA RESULT:      -4.6      2.562      5.124
REMARK  2 active torsions:
REMARK  status: ('A' for Active; 'I' for Inactive)
REMARK    1  A    between atoms: C1_1  and  C3_3 
REMARK    2  A    between atoms: C2_2  and  C5_5 
ROOT
HETATM    1  C1  UNL     1     -33.336   6.862   2.982  1.00 20.00     0.003 C 
HETATM    2  C2  UNL     1     -32.199   7.542   2.778  1.00 20.00     0.049 C 
ENDROOT
BRANCH   1   3
HETATM    3  C3  UNL     1     -33.479   5.885   4.040  1.00 20.00    -0.004 C 
HETATM    4  C4  UNL     1     -34.665   5.400   4.435  1.00 20.00    -0.031 C 
HETATM    5  C6  UNL     1     -34.824   4.391   5.525  1.00 20.00     0.036 C 
ENDBRANCH   1   3
BRANCH   2   6
HETATM    6  C5  UNL     1     -32.026   8.552   1.697  1.00 20.00     0.145 C 
HETATM    7  C7  UNL     1     -32.676   9.905   1.823  1.00 20.00     0.096 C 
HETATM    8  O8  UNL     1     -31.348   8.261   0.711  1.00 20.00    -0.294 OA
ENDBRANCH   2   6
TORSDOF 2
ENDMDL
MODEL 3
REMARK VINA RESULT:      -4.4     11.263     11.893
REMARK  2 active torsions:
REMARK  status: ('A' for Active; 'I' for Inactive)
REMARK    1  A    between atoms: C1_1  and  C3_3 
REMARK    2  A    between atoms: C2_2  and  C5_5 
ROOT
HETATM    1  C1  UNL     1     -33.891  15.745  -3.308  1.00 20.00     0.003 C 
HETATM    2  C2  UNL     1     -34.664  14.653  -3.385  1.00 20.00     0.049 C 
ENDROOT
BRANCH   1   3
HETATM    3  C3  UNL     1     -33.823  16.569  -2.121  1.00 20.00    -0.004 C 
HETATM    4  C4  UNL     1     -34.711  16.488  -1.119  1.00 20.00    -0.031 C 
HETATM    5  C6  UNL     1     -34.650  17.332   0.111  1.00 20.00     0.036 C 
ENDBRANCH   1   3
BRANCH   2   6
HETATM    6  C5  UNL     1     -34.754  13.789  -4.595  1.00 20.00     0.145 C 
HETATM    7  C7  UNL     1     -34.615  14.400  -5.964  1.00 20.00     0.096 C 
HETATM    8  O8  UNL     1     -34.941  12.581  -4.453  1.00 20.00    -0.294 OA
ENDBRANCH   2   6
TORSDOF 2
ENDMDL
MODEL 4
REMARK VINA RESULT:      -4.0     11.585     12.327
REMARK  2 active torsions:
REMARK  status: ('A' for Active; 'I' for Inactive)
REMARK    1  A    between atoms: C1_1  and  C3_3 
REMARK    2  A    between atoms: C2_2  and  C5_5 
ROOT
HETATM    1  C1  UNL     1     -34.552  16.146  -1.715  1.00 20.00     0.003 C 
HETATM    2  C2  UNL     1     -33.525  16.399  -2.539  1.00 20.00     0.049 C 
ENDROOT
BRANCH   1   3
HETATM    3  C3  UNL     1     -34.755  16.869  -0.479  1.00 20.00    -0.004 C 
HETATM    4  C4  UNL     1     -33.938  17.846  -0.057  1.00 20.00    -0.031 C 
HETATM    5  C6  UNL     1     -34.139  18.600   1.216  1.00 20.00     0.036 C 
ENDBRANCH   1   3
BRANCH   2   6
HETATM    6  C5  UNL     1     -33.293  15.669  -3.816  1.00 20.00     0.145 C 
HETATM    7  C7  UNL     1     -33.624  14.202  -3.912  1.00 20.00     0.096 C 
HETATM    8  O8  UNL     1     -32.831  16.281  -4.779  1.00 20.00    -0.294 OA
ENDBRANCH   2   6
TORSDOF 2
ENDMDL
MODEL 5
REMARK VINA RESULT:      -3.9     10.890     11.623
REMARK  2 active torsions:
REMARK  status: ('A' for Active; 'I' for Inactive)
REMARK    1  A    between atoms: C1_1  and  C3_3 
REMARK    2  A    between atoms: C2_2  and  C5_5 
ROOT
HETATM    1  C1  UNL     1     -33.892  16.152  -2.424  1.00 20.00     0.003 C 
HETATM    2  C2  UNL     1     -34.778  16.462  -1.467  1.00 20.00     0.049 C 
ENDROOT
BRANCH   1   3
HETATM    3  C3  UNL     1     -34.242  15.356  -3.580  1.00 20.00    -0.004 C 
HETATM    4  C4  UNL     1     -34.255  14.015  -3.572  1.00 20.00    -0.031 C 
HETATM    5  C6  UNL     1     -34.615  13.184  -4.760  1.00 20.00     0.036 C 
ENDBRANCH   1   3
BRANCH   2   6
HETATM    6  C5  UNL     1     -34.443  17.278  -0.267  1.00 20.00     0.145 C 
HETATM    7  C7  UNL     1     -33.265  18.215  -0.302  1.00 20.00     0.096 C 
HETATM    8  O8  UNL     1     -35.142  17.171   0.742  1.00 20.00    -0.294 OA
ENDBRANCH   2   6
TORSDOF 2
ENDMDL
MODEL 6
REMARK VINA RESULT:      -3.8     11.213     11.673
REMARK  2 active torsions:
REMARK  status: ('A' for Active; 'I' for Inactive)
REMARK    1  A    between atoms: C1_1  and  C3_3 
REMARK    2  A    between atoms: C2_2  and  C5_5 
ROOT
HETATM    1  C1  UNL     1     -33.586  16.245  -2.587  1.00 20.00     0.003 C 
HETATM    2  C2  UNL     1     -34.419  16.388  -1.546  1.00 20.00     0.049 C 
ENDROOT
BRANCH   1   3
HETATM    3  C3  UNL     1     -33.825  15.292  -3.650  1.00 20.00    -0.004 C 
HETATM    4  C4  UNL     1     -34.609  14.213  -3.506  1.00 20.00    -0.031 C 
HETATM    5  C6  UNL     1     -34.862  13.225  -4.596  1.00 20.00     0.036 C 
ENDBRANCH   1   3
BRANCH   2   6
HETATM    6  C5  UNL     1     -34.196  17.359  -0.440  1.00 20.00     0.145 C 
HETATM    7  C7  UNL     1     -35.174  17.430   0.704  1.00 20.00     0.096 C 
HETATM    8  O8  UNL     1     -33.209  18.093  -0.479  1.00 20.00    -0.294 OA
ENDBRANCH   2   6
TORSDOF 2
ENDMDL
MODEL 7
REMARK VINA RESULT:      -3.8     10.606     11.265
REMARK  2 active torsions:
REMARK  status: ('A' for Active; 'I' for Inactive)
REMARK    1  A    between atoms: C1_1  and  C3_3 
REMARK    2  A    between atoms: C2_2  and  C5_5 
ROOT
HETATM    1  C1  UNL     1     -42.123   3.880  -2.596  1.00 20.00     0.003 C 
HETATM    2  C2  UNL     1     -41.279   4.310  -1.648  1.00 20.00     0.049 C 
ENDROOT
BRANCH   1   3
HETATM    3  C3  UNL     1     -42.281   2.479  -2.921  1.00 20.00    -0.004 C 
HETATM    4  C4  UNL     1     -41.458   1.821  -3.750  1.00 20.00    -0.031 C 
HETATM    5  C6  UNL     1     -41.611   0.375  -4.091  1.00 20.00     0.036 C 
ENDBRANCH   1   3
BRANCH   2   6
HETATM    6  C5  UNL     1     -41.097   5.746  -1.295  1.00 20.00     0.145 C 
HETATM    7  C7  UNL     1     -40.733   6.131   0.115  1.00 20.00     0.096 C 
HETATM    8  O8  UNL     1     -41.249   6.599  -2.169  1.00 20.00    -0.294 OA
ENDBRANCH   2   6
TORSDOF 2
ENDMDL
MODEL 8
REMARK VINA RESULT:      -3.6     11.535     12.419
REMARK  2 active torsions:
REMARK  status: ('A' for Active; 'I' for Inactive)
REMARK    1  A    between atoms: C1_1  and  C3_3 
REMARK    2  A    between atoms: C2_2  and  C5_5 
ROOT
HETATM    1  C1  UNL     1     -34.232  16.343  -2.401  1.00 20.00     0.003 C 
HETATM    2  C2  UNL     1     -34.376  15.190  -3.068  1.00 20.00     0.049 C 
ENDROOT
BRANCH   1   3
HETATM    3  C3  UNL     1     -34.519  16.467  -0.988  1.00 20.00    -0.004 C 
HETATM    4  C4  UNL     1     -35.077  17.559  -0.445  1.00 20.00    -0.031 C 
HETATM    5  C6  UNL     1     -35.378  17.696   1.012  1.00 20.00     0.036 C 
ENDBRANCH   1   3
BRANCH   2   6
HETATM    6  C5  UNL     1     -34.088  15.037  -4.521  1.00 20.00     0.145 C 
HETATM    7  C7  UNL     1     -33.549  16.204  -5.306  1.00 20.00     0.096 C 
HETATM    8  O8  UNL     1     -34.297  13.950  -5.060  1.00 20.00    -0.294 OA
ENDBRANCH   2   6
TORSDOF 2
ENDMDL
MODEL 9
REMARK VINA RESULT:      -3.6     11.456     11.905
REMARK  2 active torsions:
REMARK  status: ('A' for Active; 'I' for Inactive)
REMARK    1  A    between atoms: C1_1  and  C3_3 
REMARK    2  A    between atoms: C2_2  and  C5_5 
ROOT
HETATM    1  C1  UNL     1     -41.922   3.267  -2.723  1.00 20.00     0.003 C 
HETATM    2  C2  UNL     1     -41.240   2.314  -3.373  1.00 20.00     0.049 C 
ENDROOT
BRANCH   1   3
HETATM    3  C3  UNL     1     -41.283   4.208  -1.828  1.00 20.00    -0.004 C 
HETATM    4  C4  UNL     1     -41.634   5.500  -1.750  1.00 20.00    -0.031 C 
HETATM    5  C6  UNL     1     -40.982   6.480  -0.831  1.00 20.00     0.036 C 
ENDBRANCH   1   3
BRANCH   2   6
HETATM    6  C5  UNL     1     -41.873   1.333  -4.298  1.00 20.00     0.145 C 
HETATM    7  C7  UNL     1     -41.859  -0.134  -3.959  1.00 20.00     0.096 C 
HETATM    8  O8  UNL     1     -42.402   1.742  -5.332  1.00 20.00    -0.294 OA
ENDBRANCH   2   6
TORSDOF 2
ENDMDL
