MODEL 1
REMARK VINA RESULT:      -6.0      0.000      0.000
REMARK  2 active torsions:
REMARK  status: ('A' for Active; 'I' for Inactive)
REMARK    1  A    between atoms: C5_5  and  C7_7 
REMARK    2  A    between atoms: C7_7  and  C8_8 
ROOT
HETATM    1  C1  UNL     1     -34.328   5.561   6.446  1.00 20.00    -0.030 C 
HETATM    2  C2  UNL     1     -34.006   6.322   5.396  1.00 20.00    -0.026 C 
HETATM    3  C3  UNL     1     -35.160   4.389   6.049  1.00 20.00     0.027 C 
HETATM    4  C4  UNL     1     -35.001   4.363   4.528  1.00 20.00     0.012 C 
HETATM    5  C5  UNL     1     -34.581   5.784   4.122  1.00 20.00     0.008 C 
ENDROOT
BRANCH   5   6
HETATM    6  C7  UNL     1     -33.588   5.784   2.969  1.00 20.00     0.008 C 
BRANCH   6   7
HETATM    7  C8  UNL     1     -32.305   6.526   3.338  1.00 20.00    -0.004 C 
HETATM    8  C6  UNL     1     -32.107   7.758   2.470  1.00 20.00     0.005 C 
ENDBRANCH   6   7
ENDBRANCH   5   6
TORSDOF 2
ENDMDL
MODEL 2
REMARK VINA RESULT:      -5.2      0.843      1.563
REMARK  2 active torsions:
REMARK  status: ('A' for Active; 'I' for Inactive)
REMARK    1  A    between atoms: C5_5  and  C7_7 
REMARK    2  A    between atoms: C7_7  and  C8_8 
ROOT
HETATM    1  C1  UNL     1     -35.358   4.463   5.145  1.00 20.00    -0.030 C 
HETATM    2  C2  UNL     1     -34.686   4.845   4.055  1.00 20.00    -0.026 C 
HETATM    3  C3  UNL     1     -34.837   5.119   6.378  1.00 20.00     0.027 C 
HETATM    4  C4  UNL     1     -33.959   6.239   5.818  1.00 20.00     0.012 C 
HETATM    5  C5  UNL     1     -33.595   5.816   4.387  1.00 20.00     0.008 C 
ENDROOT
BRANCH   5   6
HETATM    6  C7  UNL     1     -33.538   7.001   3.433  1.00 20.00     0.008 C 
BRANCH   6   7
HETATM    7  C8  UNL     1     -32.130   7.202   2.876  1.00 20.00    -0.004 C 
HETATM    8  C6  UNL     1     -32.079   8.369   1.905  1.00 20.00     0.005 C 
ENDBRANCH   6   7
ENDBRANCH   5   6
TORSDOF 2
ENDMDL
MODEL 3
REMARK VINA RESULT:      -4.4      0.962      3.737
REMARK  2 active torsions:
REMARK  status: ('A' for Active; 'I' for Inactive)
REMARK    1  A    between atoms: C5_5  and  C7_7 
REMARK    2  A    between atoms: C7_7  and  C8_8 
ROOT
HETATM    1  C1  UNL     1     -32.438   5.872   2.717  1.00 20.00    -0.030 C 
HETATM    2  C2  UNL     1     -33.675   5.382   2.593  1.00 20.00    -0.026 C 
HETATM    3  C3  UNL     1     -32.343   6.871   3.820  1.00 20.00     0.027 C 
HETATM    4  C4  UNL     1     -33.651   6.653   4.584  1.00 20.00     0.012 C 
HETATM    5  C5  UNL     1     -34.614   5.985   3.592  1.00 20.00     0.008 C 
ENDROOT
BRANCH   5   6
HETATM    6  C7  UNL     1     -35.512   4.957   4.264  1.00 20.00     0.008 C 
BRANCH   6   7
HETATM    7  C8  UNL     1     -34.744   4.135   5.298  1.00 20.00    -0.004 C 
HETATM    8  C6  UNL     1     -35.105   4.550   6.715  1.00 20.00     0.005 C 
ENDBRANCH   6   7
ENDBRANCH   5   6
TORSDOF 2
ENDMDL
MODEL 4
REMARK VINA RESULT:      -4.2     11.496     12.726
REMARK  2 active torsions:
REMARK  status: ('A' for Active; 'I' for Inactive)
REMARK    1  A    between atoms: C5_5  and  C7_7 
REMARK    2  A    between atoms: C7_7  and  C8_8 
ROOT
HETATM    1  C1  UNL     1     -34.706  14.436  -5.788  1.00 20.00    -0.030 C 
HETATM    2  C2  UNL     1     -33.980  15.435  -5.279  1.00 20.00    -0.026 C 
HETATM    3  C3  UNL     1     -34.748  13.257  -4.874  1.00 20.00     0.027 C 
HETATM    4  C4  UNL     1     -34.216  13.831  -3.560  1.00 20.00     0.012 C 
HETATM    5  C5  UNL     1     -33.408  15.081  -3.940  1.00 20.00     0.008 C 
ENDROOT
BRANCH   5   6
HETATM    6  C7  UNL     1     -33.553  16.196  -2.914  1.00 20.00     0.008 C 
BRANCH   6   7
HETATM    7  C8  UNL     1     -34.762  15.967  -2.008  1.00 20.00    -0.004 C 
HETATM    8  C6  UNL     1     -34.625  16.726  -0.699  1.00 20.00     0.005 C 
ENDBRANCH   6   7
ENDBRANCH   5   6
TORSDOF 2
ENDMDL
MODEL 5
REMARK VINA RESULT:      -3.9     11.712     12.749
REMARK  2 active torsions:
REMARK  status: ('A' for Active; 'I' for Inactive)
REMARK    1  A    between atoms: C5_5  and  C7_7 
REMARK    2  A    between atoms: C7_7  and  C8_8 
ROOT
HETATM    1  C1  UNL     1     -35.224  16.064  -2.716  1.00 20.00    -0.030 C 
HETATM    2  C2  UNL     1     -35.576  14.907  -3.284  1.00 20.00    -0.026 C 
HETATM    3  C3  UNL     1     -33.744  16.194  -2.588  1.00 20.00     0.027 C 
HETATM    4  C4  UNL     1     -33.229  15.076  -3.496  1.00 20.00     0.012 C 
HETATM    5  C5  UNL     1     -34.381  14.069  -3.623  1.00 20.00     0.008 C 
ENDROOT
BRANCH   5   6
HETATM    6  C7  UNL     1     -34.458  13.452  -5.013  1.00 20.00     0.008 C 
BRANCH   6   7
HETATM    7  C8  UNL     1     -35.291  14.313  -5.960  1.00 20.00    -0.004 C 
HETATM    8  C6  UNL     1     -34.425  14.955  -7.032  1.00 20.00     0.005 C 
ENDBRANCH   6   7
ENDBRANCH   5   6
TORSDOF 2
ENDMDL
MODEL 6
REMARK VINA RESULT:      -3.8     12.030     13.496
REMARK  2 active torsions:
REMARK  status: ('A' for Active; 'I' for Inactive)
REMARK    1  A    between atoms: C5_5  and  C7_7 
REMARK    2  A    between atoms: C7_7  and  C8_8 
ROOT
HETATM    1  C1  UNL     1     -34.021  16.121  -6.406  1.00 20.00    -0.030 C 
HETATM    2  C2  UNL     1     -33.600  16.184  -5.139  1.00 20.00    -0.026 C 
HETATM    3  C3  UNL     1     -34.565  14.774  -6.744  1.00 20.00     0.027 C 
HETATM    4  C4  UNL     1     -34.733  14.124  -5.370  1.00 20.00     0.012 C 
HETATM    5  C5  UNL     1     -33.787  14.881  -4.425  1.00 20.00     0.008 C 
ENDROOT
BRANCH   5   6
HETATM    6  C7  UNL     1     -34.373  15.042  -3.030  1.00 20.00     0.008 C 
BRANCH   6   7
HETATM    7  C8  UNL     1     -33.907  16.341  -2.375  1.00 20.00    -0.004 C 
HETATM    8  C6  UNL     1     -34.611  16.578  -1.049  1.00 20.00     0.005 C 
ENDBRANCH   6   7
ENDBRANCH   5   6
TORSDOF 2
ENDMDL
MODEL 7
REMARK VINA RESULT:      -3.8      9.453     10.572
REMARK  2 active torsions:
REMARK  status: ('A' for Active; 'I' for Inactive)
REMARK    1  A    between atoms: C5_5  and  C7_7 
REMARK    2  A    between atoms: C7_7  and  C8_8 
ROOT
HETATM    1  C1  UNL     1     -41.911   7.185  -2.150  1.00 20.00    -0.030 C 
HETATM    2  C2  UNL     1     -42.234   5.931  -2.480  1.00 20.00    -0.026 C 
HETATM    3  C3  UNL     1     -41.156   7.245  -0.866  1.00 20.00     0.027 C 
HETATM    4  C4  UNL     1     -40.761   5.785  -0.638  1.00 20.00     0.012 C 
HETATM    5  C5  UNL     1     -41.751   4.946  -1.460  1.00 20.00     0.008 C 
ENDROOT
BRANCH   5   6
HETATM    6  C7  UNL     1     -41.095   3.719  -2.076  1.00 20.00     0.008 C 
BRANCH   6   7
HETATM    7  C8  UNL     1     -42.080   2.934  -2.941  1.00 20.00    -0.004 C 
HETATM    8  C6  UNL     1     -41.365   1.901  -3.796  1.00 20.00     0.005 C 
ENDBRANCH   6   7
ENDBRANCH   5   6
TORSDOF 2
ENDMDL
MODEL 8
REMARK VINA RESULT:      -3.7      9.386     10.489
REMARK  2 active torsions:
REMARK  status: ('A' for Active; 'I' for Inactive)
REMARK    1  A    between atoms: C5_5  and  C7_7 
REMARK    2  A    between atoms: C7_7  and  C8_8 
ROOT
HETATM    1  C1  UNL     1     -40.783   6.088  -0.145  1.00 20.00    -0.030 C 
HETATM    2  C2  UNL     1     -40.938   4.799  -0.460  1.00 20.00    -0.026 C 
HETATM    3  C3  UNL     1     -41.182   6.986  -1.266  1.00 20.00     0.027 C 
HETATM    4  C4  UNL     1     -41.942   6.043  -2.200  1.00 20.00     0.012 C 
HETATM    5  C5  UNL     1     -41.459   4.626  -1.854  1.00 20.00     0.008 C 
ENDROOT
BRANCH   5   6
HETATM    6  C7  UNL     1     -42.576   3.596  -1.951  1.00 20.00     0.008 C 
BRANCH   6   7
HETATM    7  C8  UNL     1     -42.661   2.997  -3.354  1.00 20.00    -0.004 C 
HETATM    8  C6  UNL     1     -41.530   2.014  -3.606  1.00 20.00     0.005 C 
ENDBRANCH   6   7
ENDBRANCH   5   6
TORSDOF 2
ENDMDL
MODEL 9
REMARK VINA RESULT:      -3.7     11.670     13.185
REMARK  2 active torsions:
REMARK  status: ('A' for Active; 'I' for Inactive)
REMARK    1  A    between atoms: C5_5  and  C7_7 
REMARK    2  A    between atoms: C7_7  and  C8_8 
ROOT
HETATM    1  C1  UNL     1     -34.072  17.319  -3.105  1.00 20.00    -0.030 C 
HETATM    2  C2  UNL     1     -33.703  16.124  -2.634  1.00 20.00    -0.026 C 
HETATM    3  C3  UNL     1     -33.614  17.528  -4.509  1.00 20.00     0.027 C 
HETATM    4  C4  UNL     1     -33.206  16.119  -4.944  1.00 20.00     0.012 C 
HETATM    5  C5  UNL     1     -32.928  15.341  -3.649  1.00 20.00     0.008 C 
ENDROOT
BRANCH   5   6
HETATM    6  C7  UNL     1     -33.366  13.887  -3.745  1.00 20.00     0.008 C 
BRANCH   6   7
HETATM    7  C8  UNL     1     -34.394  13.686  -4.856  1.00 20.00    -0.004 C 
HETATM    8  C6  UNL     1     -35.812  13.690  -4.308  1.00 20.00     0.005 C 
ENDBRANCH   6   7
ENDBRANCH   5   6
TORSDOF 2
ENDMDL
