MODEL 1
REMARK VINA RESULT:      -4.6      0.000      0.000
REMARK  3 active torsions:
REMARK  status: ('A' for Active; 'I' for Inactive)
REMARK    1  A    between atoms: C1_1  and  C2_2 
REMARK    2  A    between atoms: C4_4  and  C6_6 
REMARK    3  A    between atoms: C6_6  and  O7_7 
ROOT
HETATM    1  C2  UNL     1     -33.170   6.163   3.944  1.00 20.00    -0.002 C 
HETATM    2  C4  UNL     1     -34.369   5.563   3.917  1.00 20.00    -0.001 C 
ENDROOT
BRANCH   1   3
HETATM    3  C1  UNL     1     -32.513   6.671   2.762  1.00 20.00    -0.005 C 
HETATM    4  C3  UNL     1     -32.411   7.981   2.486  1.00 20.00    -0.031 C 
HETATM    5  C5  UNL     1     -31.734   8.520   1.269  1.00 20.00     0.036 C 
ENDBRANCH   1   3
BRANCH   2   6
HETATM    6  C6  UNL     1     -35.058   5.038   5.136  1.00 20.00     0.191 C 
BRANCH   6   7
HETATM    7  O7  UNL     1     -35.312   3.647   4.981  1.00 20.00    -0.397 OA
HETATM    8  H17 UNL     1     -34.479   3.188   5.178  1.00 20.00     0.209 HD
ENDBRANCH   6   7
ENDBRANCH   2   6
TORSDOF 3
ENDMDL
MODEL 2
REMARK VINA RESULT:      -4.3      2.788      4.807
REMARK  3 active torsions:
REMARK  status: ('A' for Active; 'I' for Inactive)
REMARK    1  A    between atoms: C1_1  and  C2_2 
REMARK    2  A    between atoms: C4_4  and  C6_6 
REMARK    3  A    between atoms: C6_6  and  O7_7 
ROOT
HETATM    1  C2  UNL     1     -33.324   6.639   3.225  1.00 20.00    -0.002 C 
HETATM    2  C4  UNL     1     -32.209   7.361   3.039  1.00 20.00    -0.001 C 
ENDROOT
BRANCH   1   3
HETATM    3  C1  UNL     1     -33.597   5.902   4.437  1.00 20.00    -0.005 C 
HETATM    4  C3  UNL     1     -34.732   5.215   4.637  1.00 20.00    -0.031 C 
HETATM    5  C5  UNL     1     -35.027   4.449   5.885  1.00 20.00     0.036 C 
ENDBRANCH   1   3
BRANCH   2   6
HETATM    6  C6  UNL     1     -31.921   8.130   1.790  1.00 20.00     0.191 C 
BRANCH   6   7
HETATM    7  O7  UNL     1     -32.521   9.417   1.870  1.00 20.00    -0.397 OA
HETATM    8  H17 UNL     1     -31.805  10.065   1.765  1.00 20.00     0.209 HD
ENDBRANCH   6   7
ENDBRANCH   2   6
TORSDOF 3
ENDMDL
MODEL 3
REMARK VINA RESULT:      -4.1     10.937     11.406
REMARK  3 active torsions:
REMARK  status: ('A' for Active; 'I' for Inactive)
REMARK    1  A    between atoms: C1_1  and  C2_2 
REMARK    2  A    between atoms: C4_4  and  C6_6 
REMARK    3  A    between atoms: C6_6  and  O7_7 
ROOT
HETATM    1  C2  UNL     1     -33.688  15.763  -3.111  1.00 20.00    -0.002 C 
HETATM    2  C4  UNL     1     -34.436  14.658  -3.246  1.00 20.00    -0.001 C 
ENDROOT
BRANCH   1   3
HETATM    3  C1  UNL     1     -33.818  16.675  -1.998  1.00 20.00    -0.005 C 
HETATM    4  C3  UNL     1     -34.680  16.480  -0.988  1.00 20.00    -0.031 C 
HETATM    5  C5  UNL     1     -34.825  17.414   0.169  1.00 20.00     0.036 C 
ENDBRANCH   1   3
BRANCH   2   6
HETATM    6  C6  UNL     1     -34.305  13.707  -4.393  1.00 20.00     0.191 C 
BRANCH   6   7
HETATM    7  O7  UNL     1     -35.163  12.590  -4.190  1.00 20.00    -0.397 OA
HETATM    8  H17 UNL     1     -35.966  12.930  -3.764  1.00 20.00     0.209 HD
ENDBRANCH   6   7
ENDBRANCH   2   6
TORSDOF 3
ENDMDL
MODEL 4
REMARK VINA RESULT:      -3.7     11.891     12.350
REMARK  3 active torsions:
REMARK  status: ('A' for Active; 'I' for Inactive)
REMARK    1  A    between atoms: C1_1  and  C2_2 
REMARK    2  A    between atoms: C4_4  and  C6_6 
REMARK    3  A    between atoms: C6_6  and  O7_7 
ROOT
HETATM    1  C2  UNL     1     -34.675  16.091  -2.083  1.00 20.00    -0.002 C 
HETATM    2  C4  UNL     1     -33.568  15.941  -2.826  1.00 20.00    -0.001 C 
ENDROOT
BRANCH   1   3
HETATM    3  C1  UNL     1     -34.666  16.663  -0.756  1.00 20.00    -0.005 C 
HETATM    4  C3  UNL     1     -33.926  17.732  -0.424  1.00 20.00    -0.031 C 
HETATM    5  C5  UNL     1     -33.908  18.334   0.943  1.00 20.00     0.036 C 
ENDBRANCH   1   3
BRANCH   2   6
HETATM    6  C6  UNL     1     -33.568  15.353  -4.200  1.00 20.00     0.191 C 
BRANCH   6   7
HETATM    7  O7  UNL     1     -32.500  15.907  -4.959  1.00 20.00    -0.397 OA
HETATM    8  H17 UNL     1     -32.094  15.172  -5.447  1.00 20.00     0.209 HD
ENDBRANCH   6   7
ENDBRANCH   2   6
TORSDOF 3
ENDMDL
MODEL 5
REMARK VINA RESULT:      -3.5      9.858     10.774
REMARK  3 active torsions:
REMARK  status: ('A' for Active; 'I' for Inactive)
REMARK    1  A    between atoms: C1_1  and  C2_2 
REMARK    2  A    between atoms: C4_4  and  C6_6 
REMARK    3  A    between atoms: C6_6  and  O7_7 
ROOT
HETATM    1  C2  UNL     1     -41.864   4.361  -2.262  1.00 20.00    -0.002 C 
HETATM    2  C4  UNL     1     -41.123   4.632  -1.177  1.00 20.00    -0.001 C 
ENDROOT
BRANCH   1   3
HETATM    3  C1  UNL     1     -42.161   3.018  -2.703  1.00 20.00    -0.005 C 
HETATM    4  C3  UNL     1     -41.345   2.311  -3.500  1.00 20.00    -0.031 C 
HETATM    5  C5  UNL     1     -41.640   0.922  -3.962  1.00 20.00     0.036 C 
ENDBRANCH   1   3
BRANCH   2   6
HETATM    6  C6  UNL     1     -40.814   6.018  -0.712  1.00 20.00     0.191 C 
BRANCH   6   7
HETATM    7  O7  UNL     1     -40.804   6.906  -1.824  1.00 20.00    -0.397 OA
HETATM    8  H17 UNL     1     -41.317   7.687  -1.561  1.00 20.00     0.209 HD
ENDBRANCH   6   7
ENDBRANCH   2   6
TORSDOF 3
ENDMDL
MODEL 6
REMARK VINA RESULT:      -3.5     11.191     11.619
REMARK  3 active torsions:
REMARK  status: ('A' for Active; 'I' for Inactive)
REMARK    1  A    between atoms: C1_1  and  C2_2 
REMARK    2  A    between atoms: C4_4  and  C6_6 
REMARK    3  A    between atoms: C6_6  and  O7_7 
ROOT
HETATM    1  C2  UNL     1     -33.735  16.325  -2.320  1.00 20.00    -0.002 C 
HETATM    2  C4  UNL     1     -34.671  16.316  -1.360  1.00 20.00    -0.001 C 
ENDROOT
BRANCH   1   3
HETATM    3  C1  UNL     1     -33.741  15.412  -3.440  1.00 20.00    -0.005 C 
HETATM    4  C3  UNL     1     -34.482  14.294  -3.470  1.00 20.00    -0.031 C 
HETATM    5  C5  UNL     1     -34.497  13.343  -4.622  1.00 20.00     0.036 C 
ENDBRANCH   1   3
BRANCH   2   6
HETATM    6  C6  UNL     1     -34.675  17.259  -0.200  1.00 20.00     0.191 C 
BRANCH   6   7
HETATM    7  O7  UNL     1     -36.013  17.613   0.126  1.00 20.00    -0.397 OA
HETATM    8  H17 UNL     1     -35.981  18.065   0.985  1.00 20.00     0.209 HD
ENDBRANCH   6   7
ENDBRANCH   2   6
TORSDOF 3
ENDMDL
MODEL 7
REMARK VINA RESULT:      -3.4     11.526     11.750
REMARK  3 active torsions:
REMARK  status: ('A' for Active; 'I' for Inactive)
REMARK    1  A    between atoms: C1_1  and  C2_2 
REMARK    2  A    between atoms: C4_4  and  C6_6 
REMARK    3  A    between atoms: C6_6  and  O7_7 
ROOT
HETATM    1  C2  UNL     1     -34.543  15.812  -2.999  1.00 20.00    -0.002 C 
HETATM    2  C4  UNL     1     -35.736  15.199  -2.992  1.00 20.00    -0.001 C 
ENDROOT
BRANCH   1   3
HETATM    3  C1  UNL     1     -34.036  16.570  -1.879  1.00 20.00    -0.005 C 
HETATM    4  C3  UNL     1     -34.806  16.966  -0.853  1.00 20.00    -0.031 C 
HETATM    5  C5  UNL     1     -34.294  17.749   0.311  1.00 20.00     0.036 C 
ENDBRANCH   1   3
BRANCH   2   6
HETATM    6  C6  UNL     1     -36.267  14.410  -4.145  1.00 20.00     0.191 C 
BRANCH   6   7
HETATM    7  O7  UNL     1     -37.629  14.073  -3.910  1.00 20.00    -0.397 OA
HETATM    8  H17 UNL     1     -38.000  14.782  -3.360  1.00 20.00     0.209 HD
ENDBRANCH   6   7
ENDBRANCH   2   6
TORSDOF 3
ENDMDL
MODEL 8
REMARK VINA RESULT:      -3.2     11.659     11.845
REMARK  3 active torsions:
REMARK  status: ('A' for Active; 'I' for Inactive)
REMARK    1  A    between atoms: C1_1  and  C2_2 
REMARK    2  A    between atoms: C4_4  and  C6_6 
REMARK    3  A    between atoms: C6_6  and  O7_7 
ROOT
HETATM    1  C2  UNL     1     -34.891  16.748  -0.841  1.00 20.00    -0.002 C 
HETATM    2  C4  UNL     1     -34.655  17.527   0.225  1.00 20.00    -0.001 C 
ENDROOT
BRANCH   1   3
HETATM    3  C1  UNL     1     -33.930  16.543  -1.900  1.00 20.00    -0.005 C 
HETATM    4  C3  UNL     1     -34.037  15.560  -2.807  1.00 20.00    -0.031 C 
HETATM    5  C5  UNL     1     -33.051  15.337  -3.906  1.00 20.00     0.036 C 
ENDBRANCH   1   3
BRANCH   2   6
HETATM    6  C6  UNL     1     -35.642  17.742   1.327  1.00 20.00     0.191 C 
BRANCH   6   7
HETATM    7  O7  UNL     1     -36.923  18.021   0.775  1.00 20.00    -0.397 OA
HETATM    8  H17 UNL     1     -37.570  17.876   1.485  1.00 20.00     0.209 HD
ENDBRANCH   6   7
ENDBRANCH   2   6
TORSDOF 3
ENDMDL
MODEL 9
REMARK VINA RESULT:      -3.2     10.316     11.067
REMARK  3 active torsions:
REMARK  status: ('A' for Active; 'I' for Inactive)
REMARK    1  A    between atoms: C1_1  and  C2_2 
REMARK    2  A    between atoms: C4_4  and  C6_6 
REMARK    3  A    between atoms: C6_6  and  O7_7 
ROOT
HETATM    1  C2  UNL     1     -42.278   3.239  -2.830  1.00 20.00    -0.002 C 
HETATM    2  C4  UNL     1     -41.337   2.420  -3.323  1.00 20.00    -0.001 C 
ENDROOT
BRANCH   1   3
HETATM    3  C1  UNL     1     -41.973   4.467  -2.132  1.00 20.00    -0.005 C 
HETATM    4  C3  UNL     1     -40.993   4.567  -1.221  1.00 20.00    -0.031 C 
HETATM    5  C5  UNL     1     -40.667   5.830  -0.492  1.00 20.00     0.036 C 
ENDBRANCH   1   3
BRANCH   2   6
HETATM    6  C6  UNL     1     -41.645   1.150  -4.049  1.00 20.00     0.191 C 
BRANCH   6   7
HETATM    7  O7  UNL     1     -42.257   1.448  -5.298  1.00 20.00    -0.397 OA
HETATM    8  H17 UNL     1     -43.203   1.249  -5.199  1.00 20.00     0.209 HD
ENDBRANCH   6   7
ENDBRANCH   2   6
TORSDOF 3
ENDMDL
