MODEL 1
REMARK VINA RESULT:      -3.7      0.000      0.000
REMARK  3 active torsions:
REMARK  status: ('A' for Active; 'I' for Inactive)
REMARK    1  A    between atoms: C2_2  and  C6_6 
REMARK    2  A    between atoms: C6_6  and  O9_9 
REMARK    3  A    between atoms: C7_7  and  O9_9 
ROOT
HETATM    1  O9  UNL     1     -33.357   5.157   4.322  1.00 20.00    -0.379 OA
ENDROOT
BRANCH   1   2
HETATM    2  C6  UNL     1     -33.409   6.005   3.185  1.00 20.00     0.202 C 
BRANCH   2   3
HETATM    3  C2  UNL     1     -32.030   6.577   2.931  1.00 20.00     0.169 A 
HETATM    4  C1  UNL     1     -31.564   7.823   3.632  1.00 20.00     0.202 A 
HETATM    5  O8  UNL     1     -32.025   7.847   2.271  1.00 20.00    -0.379 OA
ENDBRANCH   2   3
ENDBRANCH   1   2
BRANCH   1   6
HETATM    6  C7  UNL     1     -34.551   5.255   5.098  1.00 20.00     0.050 C 
HETATM    7  C3  UNL     1     -34.339   6.310   6.184  1.00 20.00     0.045 C 
HETATM    8  C4  UNL     1     -35.679   5.672   4.157  1.00 20.00     0.045 C 
HETATM    9  C5  UNL     1     -34.843   3.889   5.716  1.00 20.00     0.045 C 
ENDBRANCH   1   6
TORSDOF 3
ENDMDL
MODEL 2
REMARK VINA RESULT:      -3.7      0.013      1.452
REMARK  3 active torsions:
REMARK  status: ('A' for Active; 'I' for Inactive)
REMARK    1  A    between atoms: C2_2  and  C6_6 
REMARK    2  A    between atoms: C6_6  and  O9_9 
REMARK    3  A    between atoms: C7_7  and  O9_9 
ROOT
HETATM    1  O9  UNL     1     -33.351   5.170   4.338  1.00 20.00    -0.379 OA
ENDROOT
BRANCH   1   2
HETATM    2  C6  UNL     1     -33.402   6.004   3.191  1.00 20.00     0.202 C 
BRANCH   2   3
HETATM    3  C2  UNL     1     -32.024   6.576   2.935  1.00 20.00     0.169 A 
HETATM    4  C1  UNL     1     -31.560   7.828   3.628  1.00 20.00     0.202 A 
HETATM    5  O8  UNL     1     -32.019   7.842   2.266  1.00 20.00    -0.379 OA
ENDBRANCH   2   3
ENDBRANCH   1   2
BRANCH   1   6
HETATM    6  C7  UNL     1     -34.560   5.251   5.092  1.00 20.00     0.050 C 
HETATM    7  C3  UNL     1     -34.842   3.880   5.707  1.00 20.00     0.045 C 
HETATM    8  C4  UNL     1     -34.353   6.297   6.184  1.00 20.00     0.045 C 
HETATM    9  C5  UNL     1     -35.692   5.670   4.154  1.00 20.00     0.045 C 
ENDBRANCH   1   6
TORSDOF 3
ENDMDL
MODEL 3
REMARK VINA RESULT:      -3.6     11.420     12.478
REMARK  3 active torsions:
REMARK  status: ('A' for Active; 'I' for Inactive)
REMARK    1  A    between atoms: C2_2  and  C6_6 
REMARK    2  A    between atoms: C6_6  and  O9_9 
REMARK    3  A    between atoms: C7_7  and  O9_9 
ROOT
HETATM    1  O9  UNL     1     -33.723  15.736  -3.061  1.00 20.00    -0.379 OA
ENDROOT
BRANCH   1   2
HETATM    2  C6  UNL     1     -34.476  14.537  -3.150  1.00 20.00     0.202 C 
BRANCH   2   3
HETATM    3  C2  UNL     1     -34.038  13.770  -4.380  1.00 20.00     0.169 A 
HETATM    4  C1  UNL     1     -34.886  13.740  -5.622  1.00 20.00     0.202 A 
HETATM    5  O8  UNL     1     -34.856  12.639  -4.699  1.00 20.00    -0.379 OA
ENDBRANCH   2   3
ENDBRANCH   1   2
BRANCH   1   6
HETATM    6  C7  UNL     1     -34.500  16.796  -2.503  1.00 20.00     0.050 C 
HETATM    7  C3  UNL     1     -34.566  16.605  -0.988  1.00 20.00     0.045 C 
HETATM    8  C4  UNL     1     -33.803  18.109  -2.849  1.00 20.00     0.045 C 
HETATM    9  C5  UNL     1     -35.898  16.750  -3.118  1.00 20.00     0.045 C 
ENDBRANCH   1   6
TORSDOF 3
ENDMDL
MODEL 4
REMARK VINA RESULT:      -3.4     11.576     12.943
REMARK  3 active torsions:
REMARK  status: ('A' for Active; 'I' for Inactive)
REMARK    1  A    between atoms: C2_2  and  C6_6 
REMARK    2  A    between atoms: C6_6  and  O9_9 
REMARK    3  A    between atoms: C7_7  and  O9_9 
ROOT
HETATM    1  O9  UNL     1     -35.258  14.927  -4.739  1.00 20.00    -0.379 OA
ENDROOT
BRANCH   1   2
HETATM    2  C6  UNL     1     -36.273  15.889  -4.503  1.00 20.00     0.202 C 
BRANCH   2   3
HETATM    3  C2  UNL     1     -37.626  15.221  -4.635  1.00 20.00     0.169 A 
HETATM    4  C1  UNL     1     -38.640  15.291  -3.527  1.00 20.00     0.202 A 
HETATM    5  O8  UNL     1     -37.836  14.120  -3.744  1.00 20.00    -0.379 OA
ENDBRANCH   2   3
ENDBRANCH   1   2
BRANCH   1   6
HETATM    6  C7  UNL     1     -34.136  15.136  -3.882  1.00 20.00     0.050 C 
HETATM    7  C3  UNL     1     -33.392  13.810  -3.724  1.00 20.00     0.045 C 
HETATM    8  C4  UNL     1     -33.239  16.180  -4.542  1.00 20.00     0.045 C 
HETATM    9  C5  UNL     1     -34.643  15.639  -2.530  1.00 20.00     0.045 C 
ENDBRANCH   1   6
TORSDOF 3
ENDMDL
MODEL 5
REMARK VINA RESULT:      -3.4     11.535     12.913
REMARK  3 active torsions:
REMARK  status: ('A' for Active; 'I' for Inactive)
REMARK    1  A    between atoms: C2_2  and  C6_6 
REMARK    2  A    between atoms: C6_6  and  O9_9 
REMARK    3  A    between atoms: C7_7  and  O9_9 
ROOT
HETATM    1  O9  UNL     1     -35.397  15.750  -4.515  1.00 20.00    -0.379 OA
ENDROOT
BRANCH   1   2
HETATM    2  C6  UNL     1     -36.573  16.094  -3.801  1.00 20.00     0.202 C 
BRANCH   2   3
HETATM    3  C2  UNL     1     -37.745  15.330  -4.381  1.00 20.00     0.169 A 
HETATM    4  C1  UNL     1     -39.032  15.184  -3.618  1.00 20.00     0.202 A 
HETATM    5  O8  UNL     1     -38.068  14.121  -3.687  1.00 20.00    -0.379 OA
ENDBRANCH   2   3
ENDBRANCH   1   2
BRANCH   1   6
HETATM    6  C7  UNL     1     -34.372  15.290  -3.635  1.00 20.00     0.050 C 
HETATM    7  C3  UNL     1     -34.661  15.822  -2.231  1.00 20.00     0.045 C 
HETATM    8  C4  UNL     1     -34.404  13.764  -3.648  1.00 20.00     0.045 C 
HETATM    9  C5  UNL     1     -33.026  15.804  -4.144  1.00 20.00     0.045 C 
ENDBRANCH   1   6
TORSDOF 3
ENDMDL
MODEL 6
REMARK VINA RESULT:      -3.4     11.450     12.477
REMARK  3 active torsions:
REMARK  status: ('A' for Active; 'I' for Inactive)
REMARK    1  A    between atoms: C2_2  and  C6_6 
REMARK    2  A    between atoms: C6_6  and  O9_9 
REMARK    3  A    between atoms: C7_7  and  O9_9 
ROOT
HETATM    1  O9  UNL     1     -34.380  15.948  -4.215  1.00 20.00    -0.379 OA
ENDROOT
BRANCH   1   2
HETATM    2  C6  UNL     1     -33.688  16.004  -2.978  1.00 20.00     0.202 C 
BRANCH   2   3
HETATM    3  C2  UNL     1     -34.429  16.932  -2.039  1.00 20.00     0.169 A 
HETATM    4  C1  UNL     1     -33.750  17.525  -0.835  1.00 20.00     0.202 A 
HETATM    5  O8  UNL     1     -34.643  16.404  -0.726  1.00 20.00    -0.379 OA
ENDBRANCH   2   3
ENDBRANCH   1   2
BRANCH   1   6
HETATM    6  C7  UNL     1     -34.698  14.603  -4.571  1.00 20.00     0.050 C 
HETATM    7  C3  UNL     1     -36.113  14.293  -4.081  1.00 20.00     0.045 C 
HETATM    8  C4  UNL     1     -34.621  14.498  -6.092  1.00 20.00     0.045 C 
HETATM    9  C5  UNL     1     -33.680  13.671  -3.915  1.00 20.00     0.045 C 
ENDBRANCH   1   6
TORSDOF 3
ENDMDL
MODEL 7
REMARK VINA RESULT:      -3.4     11.709     12.587
REMARK  3 active torsions:
REMARK  status: ('A' for Active; 'I' for Inactive)
REMARK    1  A    between atoms: C2_2  and  C6_6 
REMARK    2  A    between atoms: C6_6  and  O9_9 
REMARK    3  A    between atoms: C7_7  and  O9_9 
ROOT
HETATM    1  O9  UNL     1     -34.395  15.924  -4.229  1.00 20.00    -0.379 OA
ENDROOT
BRANCH   1   2
HETATM    2  C6  UNL     1     -33.563  15.948  -3.080  1.00 20.00     0.202 C 
BRANCH   2   3
HETATM    3  C2  UNL     1     -34.059  17.021  -2.134  1.00 20.00     0.169 A 
HETATM    4  C1  UNL     1     -34.608  16.669  -0.779  1.00 20.00     0.202 A 
HETATM    5  O8  UNL     1     -35.468  16.989  -1.884  1.00 20.00    -0.379 OA
ENDBRANCH   2   3
ENDBRANCH   1   2
BRANCH   1   6
HETATM    6  C7  UNL     1     -34.719  14.586  -4.606  1.00 20.00     0.050 C 
HETATM    7  C3  UNL     1     -34.633  14.477  -6.129  1.00 20.00     0.045 C 
HETATM    8  C4  UNL     1     -33.703  13.661  -3.943  1.00 20.00     0.045 C 
HETATM    9  C5  UNL     1     -36.133  14.272  -4.118  1.00 20.00     0.045 C 
ENDBRANCH   1   6
TORSDOF 3
ENDMDL
MODEL 8
REMARK VINA RESULT:      -3.3     11.692     12.564
REMARK  3 active torsions:
REMARK  status: ('A' for Active; 'I' for Inactive)
REMARK    1  A    between atoms: C2_2  and  C6_6 
REMARK    2  A    between atoms: C6_6  and  O9_9 
REMARK    3  A    between atoms: C7_7  and  O9_9 
ROOT
HETATM    1  O9  UNL     1     -34.462  15.956  -4.204  1.00 20.00    -0.379 OA
ENDROOT
BRANCH   1   2
HETATM    2  C6  UNL     1     -33.562  16.008  -3.109  1.00 20.00     0.202 C 
BRANCH   2   3
HETATM    3  C2  UNL     1     -34.045  17.049  -2.122  1.00 20.00     0.169 A 
HETATM    4  C1  UNL     1     -34.612  16.652  -0.787  1.00 20.00     0.202 A 
HETATM    5  O8  UNL     1     -35.457  17.035  -1.885  1.00 20.00    -0.379 OA
ENDBRANCH   2   3
ENDBRANCH   1   2
BRANCH   1   6
HETATM    6  C7  UNL     1     -34.764  14.608  -4.564  1.00 20.00     0.050 C 
HETATM    7  C3  UNL     1     -33.766  13.684  -3.867  1.00 20.00     0.045 C 
HETATM    8  C4  UNL     1     -36.187  14.313  -4.097  1.00 20.00     0.045 C 
HETATM    9  C5  UNL     1     -34.658  14.475  -6.083  1.00 20.00     0.045 C 
ENDBRANCH   1   6
TORSDOF 3
ENDMDL
MODEL 9
REMARK VINA RESULT:      -3.3     12.102     13.890
REMARK  3 active torsions:
REMARK  status: ('A' for Active; 'I' for Inactive)
REMARK    1  A    between atoms: C2_2  and  C6_6 
REMARK    2  A    between atoms: C6_6  and  O9_9 
REMARK    3  A    between atoms: C7_7  and  O9_9 
ROOT
HETATM    1  O9  UNL     1     -35.628  16.177  -5.132  1.00 20.00    -0.379 OA
ENDROOT
BRANCH   1   2
HETATM    2  C6  UNL     1     -35.778  14.784  -5.354  1.00 20.00     0.202 C 
BRANCH   2   3
HETATM    3  C2  UNL     1     -35.475  14.044  -4.068  1.00 20.00     0.169 A 
HETATM    4  C1  UNL     1     -34.079  13.588  -3.743  1.00 20.00     0.202 A 
HETATM    5  O8  UNL     1     -35.075  12.681  -4.245  1.00 20.00    -0.379 OA
ENDBRANCH   2   3
ENDBRANCH   1   2
BRANCH   1   6
HETATM    6  C7  UNL     1     -34.620  16.731  -5.979  1.00 20.00     0.050 C 
HETATM    7  C3  UNL     1     -34.293  15.714  -7.073  1.00 20.00     0.045 C 
HETATM    8  C4  UNL     1     -35.182  18.013  -6.587  1.00 20.00     0.045 C 
HETATM    9  C5  UNL     1     -33.385  17.034  -5.131  1.00 20.00     0.045 C 
ENDBRANCH   1   6
TORSDOF 3
ENDMDL
