MODEL 1
REMARK VINA RESULT:      -3.8      0.000      0.000
REMARK  0 active torsions:
REMARK  status: ('A' for Active; 'I' for Inactive)
ROOT
HETATM    1  C1  UNL     1     -33.737  18.269  -2.468  1.00 20.00     0.002 C 
HETATM    2  C2  UNL     1     -33.717  17.382  -1.221  1.00 20.00     0.002 C 
HETATM    3  C3  UNL     1     -34.708  17.605  -3.447  1.00 20.00     0.032 C 
HETATM    4  C4  UNL     1     -34.672  16.221  -1.507  1.00 20.00     0.032 C 
HETATM    5  C5  UNL     1     -35.496  13.758  -4.118  1.00 20.00     0.086 C 
HETATM    6  C6  UNL     1     -34.191  14.112  -4.799  1.00 20.00     0.086 C 
HETATM    7  C7  UNL     1     -34.738  16.131  -3.034  1.00 20.00     0.056 C 
HETATM    8  S8  UNL     1     -36.266  15.309  -3.595  1.00 20.00    -0.147 SA
HETATM    9  S9  UNL     1     -33.282  15.226  -3.698  1.00 20.00    -0.147 SA
ENDROOT
TORSDOF 0
ENDMDL
MODEL 2
REMARK VINA RESULT:      -3.8      2.718      4.419
REMARK  0 active torsions:
REMARK  status: ('A' for Active; 'I' for Inactive)
ROOT
HETATM    1  C1  UNL     1     -36.779  15.062  -7.067  1.00 20.00     0.002 C 
HETATM    2  C2  UNL     1     -35.590  14.608  -7.917  1.00 20.00     0.002 C 
HETATM    3  C3  UNL     1     -36.184  15.739  -5.830  1.00 20.00     0.032 C 
HETATM    4  C4  UNL     1     -34.333  15.026  -7.151  1.00 20.00     0.032 C 
HETATM    5  C5  UNL     1     -32.868  14.940  -3.774  1.00 20.00     0.086 C 
HETATM    6  C6  UNL     1     -33.932  13.936  -3.388  1.00 20.00     0.086 C 
HETATM    7  C7  UNL     1     -34.781  15.143  -5.692  1.00 20.00     0.056 C 
HETATM    8  S8  UNL     1     -33.680  16.238  -4.736  1.00 20.00    -0.147 SA
HETATM    9  S9  UNL     1     -34.838  13.489  -4.891  1.00 20.00    -0.147 SA
ENDROOT
TORSDOF 0
ENDMDL
MODEL 3
REMARK VINA RESULT:      -3.7      1.961      3.876
REMARK  0 active torsions:
REMARK  status: ('A' for Active; 'I' for Inactive)
ROOT
HETATM    1  C1  UNL     1     -34.420  13.422  -4.856  1.00 20.00     0.002 C 
HETATM    2  C2  UNL     1     -33.428  13.609  -3.706  1.00 20.00     0.002 C 
HETATM    3  C3  UNL     1     -34.547  14.788  -5.535  1.00 20.00     0.032 C 
HETATM    4  C4  UNL     1     -33.006  15.080  -3.740  1.00 20.00     0.032 C 
HETATM    5  C5  UNL     1     -34.425  18.466  -4.013  1.00 20.00     0.086 C 
HETATM    6  C6  UNL     1     -35.787  17.869  -3.730  1.00 20.00     0.086 C 
HETATM    7  C7  UNL     1     -34.150  15.801  -4.459  1.00 20.00     0.056 C 
HETATM    8  S8  UNL     1     -33.596  17.376  -5.193  1.00 20.00    -0.147 SA
HETATM    9  S9  UNL     1     -35.544  16.126  -3.305  1.00 20.00    -0.147 SA
ENDROOT
TORSDOF 0
ENDMDL
MODEL 4
REMARK VINA RESULT:      -3.7      2.148      3.674
REMARK  0 active torsions:
REMARK  status: ('A' for Active; 'I' for Inactive)
ROOT
HETATM    1  C1  UNL     1     -33.402  13.624  -3.902  1.00 20.00     0.002 C 
HETATM    2  C2  UNL     1     -34.929  13.722  -3.902  1.00 20.00     0.002 C 
HETATM    3  C3  UNL     1     -32.885  15.020  -3.547  1.00 20.00     0.032 C 
HETATM    4  C4  UNL     1     -35.263  15.174  -3.551  1.00 20.00     0.032 C 
HETATM    5  C5  UNL     1     -34.330  18.626  -4.428  1.00 20.00     0.086 C 
HETATM    6  C6  UNL     1     -33.621  18.076  -5.647  1.00 20.00     0.086 C 
HETATM    7  C7  UNL     1     -34.017  15.971  -3.944  1.00 20.00     0.056 C 
HETATM    8  S8  UNL     1     -33.914  17.550  -3.036  1.00 20.00    -0.147 SA
HETATM    9  S9  UNL     1     -33.999  16.308  -5.751  1.00 20.00    -0.147 SA
ENDROOT
TORSDOF 0
ENDMDL
MODEL 5
REMARK VINA RESULT:      -3.7      2.463      3.587
REMARK  0 active torsions:
REMARK  status: ('A' for Active; 'I' for Inactive)
ROOT
HETATM    1  C1  UNL     1     -33.337  13.646  -3.684  1.00 20.00     0.002 C 
HETATM    2  C2  UNL     1     -33.023  15.142  -3.738  1.00 20.00     0.002 C 
HETATM    3  C3  UNL     1     -34.393  13.394  -4.763  1.00 20.00     0.032 C 
HETATM    4  C4  UNL     1     -33.907  15.725  -4.844  1.00 20.00     0.032 C 
HETATM    5  C5  UNL     1     -37.382  15.685  -6.060  1.00 20.00     0.086 C 
HETATM    6  C6  UNL     1     -37.787  15.059  -4.743  1.00 20.00     0.086 C 
HETATM    7  C7  UNL     1     -35.077  14.747  -4.968  1.00 20.00     0.056 C 
HETATM    8  S8  UNL     1     -35.872  14.854  -6.607  1.00 20.00    -0.147 SA
HETATM    9  S9  UNL     1     -36.333  15.061  -3.663  1.00 20.00    -0.147 SA
ENDROOT
TORSDOF 0
ENDMDL
MODEL 6
REMARK VINA RESULT:      -3.6      1.992      2.527
REMARK  0 active torsions:
REMARK  status: ('A' for Active; 'I' for Inactive)
ROOT
HETATM    1  C1  UNL     1     -35.151  16.275  -2.018  1.00 20.00     0.002 C 
HETATM    2  C2  UNL     1     -33.657  16.462  -2.288  1.00 20.00     0.002 C 
HETATM    3  C3  UNL     1     -35.660  15.308  -3.090  1.00 20.00     0.032 C 
HETATM    4  C4  UNL     1     -33.333  15.604  -3.514  1.00 20.00     0.032 C 
HETATM    5  C5  UNL     1     -34.576  14.846  -6.895  1.00 20.00     0.086 C 
HETATM    6  C6  UNL     1     -35.470  16.063  -6.790  1.00 20.00     0.086 C 
HETATM    7  C7  UNL     1     -34.667  15.446  -4.247  1.00 20.00     0.056 C 
HETATM    8  S8  UNL     1     -34.676  13.969  -5.317  1.00 20.00    -0.147 SA
HETATM    9  S9  UNL     1     -35.034  16.934  -5.264  1.00 20.00    -0.147 SA
ENDROOT
TORSDOF 0
ENDMDL
MODEL 7
REMARK VINA RESULT:      -3.6      1.315      2.268
REMARK  0 active torsions:
REMARK  status: ('A' for Active; 'I' for Inactive)
ROOT
HETATM    1  C1  UNL     1     -34.701  16.542  -1.391  1.00 20.00     0.002 C 
HETATM    2  C2  UNL     1     -35.838  17.312  -2.067  1.00 20.00     0.002 C 
HETATM    3  C3  UNL     1     -33.736  16.140  -2.509  1.00 20.00     0.032 C 
HETATM    4  C4  UNL     1     -35.510  17.335  -3.562  1.00 20.00     0.032 C 
HETATM    5  C5  UNL     1     -34.429  15.119  -6.297  1.00 20.00     0.086 C 
HETATM    6  C6  UNL     1     -34.757  13.939  -5.408  1.00 20.00     0.086 C 
HETATM    7  C7  UNL     1     -34.588  16.133  -3.781  1.00 20.00     0.056 C 
HETATM    8  S8  UNL     1     -33.562  16.334  -5.275  1.00 20.00    -0.147 SA
HETATM    9  S9  UNL     1     -35.562  14.579  -3.919  1.00 20.00    -0.147 SA
ENDROOT
TORSDOF 0
ENDMDL
MODEL 8
REMARK VINA RESULT:      -3.6      1.393      3.857
REMARK  0 active torsions:
REMARK  status: ('A' for Active; 'I' for Inactive)
ROOT
HETATM    1  C1  UNL     1     -34.663  14.292  -5.977  1.00 20.00     0.002 C 
HETATM    2  C2  UNL     1     -34.721  13.205  -4.901  1.00 20.00     0.002 C 
HETATM    3  C3  UNL     1     -34.241  15.577  -5.260  1.00 20.00     0.032 C 
HETATM    4  C4  UNL     1     -34.337  13.885  -3.585  1.00 20.00     0.032 C 
HETATM    5  C5  UNL     1     -35.060  16.895  -1.592  1.00 20.00     0.086 C 
HETATM    6  C6  UNL     1     -36.267  17.133  -2.473  1.00 20.00     0.086 C 
HETATM    7  C7  UNL     1     -34.652  15.368  -3.801  1.00 20.00     0.056 C 
HETATM    8  S8  UNL     1     -33.688  16.431  -2.675  1.00 20.00    -0.147 SA
HETATM    9  S9  UNL     1     -36.445  15.697  -3.561  1.00 20.00    -0.147 SA
ENDROOT
TORSDOF 0
ENDMDL
MODEL 9
REMARK VINA RESULT:      -3.6      1.231      2.362
REMARK  0 active torsions:
REMARK  status: ('A' for Active; 'I' for Inactive)
ROOT
HETATM    1  C1  UNL     1     -33.842  18.048  -2.936  1.00 20.00     0.002 C 
HETATM    2  C2  UNL     1     -33.520  18.112  -4.431  1.00 20.00     0.002 C 
HETATM    3  C3  UNL     1     -33.842  16.563  -2.564  1.00 20.00     0.032 C 
HETATM    4  C4  UNL     1     -33.345  16.663  -4.893  1.00 20.00     0.032 C 
HETATM    5  C5  UNL     1     -34.956  13.361  -4.655  1.00 20.00     0.086 C 
HETATM    6  C6  UNL     1     -36.195  14.054  -4.132  1.00 20.00     0.086 C 
HETATM    7  C7  UNL     1     -34.128  15.829  -3.876  1.00 20.00     0.056 C 
HETATM    8  S8  UNL     1     -33.534  14.105  -3.821  1.00 20.00    -0.147 SA
HETATM    9  S9  UNL     1     -35.924  15.840  -4.266  1.00 20.00    -0.147 SA
ENDROOT
TORSDOF 0
ENDMDL
