MODEL 1
REMARK VINA RESULT:      -4.1      0.000      0.000
REMARK  2 active torsions:
REMARK  status: ('A' for Active; 'I' for Inactive)
REMARK    1  A    between atoms: C1_1  and  C3_3 
REMARK    2  A    between atoms: C3_3  and  C4_4 
ROOT
HETATM    1  C1  UNL     1     -34.150   5.734   3.779  1.00 20.00    -0.088 C 
HETATM    2  C2  UNL     1     -33.304   6.442   3.304  1.00 20.00     0.004 C 
HETATM    3 CL5  UNL     1     -32.071   7.477   2.609  1.00 20.00    -0.023 Cl
ENDROOT
BRANCH   1   4
HETATM    4  C3  UNL     1     -35.184   4.868   4.364  1.00 20.00     0.110 C 
BRANCH   4   5
HETATM    5  C4  UNL     1     -34.983   4.659   5.860  1.00 20.00     0.126 C 
HETATM    6 CL6  UNL     1     -34.315   6.115   6.642  1.00 20.00    -0.130 Cl
ENDBRANCH   4   5
ENDBRANCH   1   4
TORSDOF 2
ENDMDL
MODEL 2
REMARK VINA RESULT:      -3.7      1.470      4.397
REMARK  2 active torsions:
REMARK  status: ('A' for Active; 'I' for Inactive)
REMARK    1  A    between atoms: C1_1  and  C3_3 
REMARK    2  A    between atoms: C3_3  and  C4_4 
ROOT
HETATM    1  C1  UNL     1     -33.235   6.183   3.873  1.00 20.00    -0.088 C 
HETATM    2  C2  UNL     1     -33.860   5.885   4.854  1.00 20.00     0.004 C 
HETATM    3 CL5  UNL     1     -34.775   5.448   6.284  1.00 20.00    -0.023 Cl
ENDROOT
BRANCH   1   4
HETATM    4  C3  UNL     1     -32.469   6.547   2.672  1.00 20.00     0.110 C 
BRANCH   4   5
HETATM    5  C4  UNL     1     -32.054   8.013   2.675  1.00 20.00     0.126 C 
HETATM    6 CL6  UNL     1     -31.882   8.649   1.018  1.00 20.00    -0.130 Cl
ENDBRANCH   4   5
ENDBRANCH   1   4
TORSDOF 2
ENDMDL
MODEL 3
REMARK VINA RESULT:      -3.7      1.733      2.191
REMARK  2 active torsions:
REMARK  status: ('A' for Active; 'I' for Inactive)
REMARK    1  A    between atoms: C1_1  and  C3_3 
REMARK    2  A    between atoms: C3_3  and  C4_4 
ROOT
HETATM    1  C1  UNL     1     -32.715   6.960   3.158  1.00 20.00    -0.088 C 
HETATM    2  C2  UNL     1     -32.267   7.677   2.305  1.00 20.00     0.004 C 
HETATM    3 CL5  UNL     1     -31.612   8.722   1.059  1.00 20.00    -0.023 Cl
ENDROOT
BRANCH   1   4
HETATM    4  C3  UNL     1     -33.266   6.082   4.200  1.00 20.00     0.110 C 
BRANCH   4   5
HETATM    5  C4  UNL     1     -34.617   5.496   3.806  1.00 20.00     0.126 C 
HETATM    6 CL6  UNL     1     -35.169   4.275   4.982  1.00 20.00    -0.130 Cl
ENDBRANCH   4   5
ENDBRANCH   1   4
TORSDOF 2
ENDMDL
MODEL 4
REMARK VINA RESULT:      -3.2      1.311      3.841
REMARK  2 active torsions:
REMARK  status: ('A' for Active; 'I' for Inactive)
REMARK    1  A    between atoms: C1_1  and  C3_3 
REMARK    2  A    between atoms: C3_3  and  C4_4 
ROOT
HETATM    1  C1  UNL     1     -33.494   5.943   3.939  1.00 20.00    -0.088 C 
HETATM    2  C2  UNL     1     -34.052   5.735   4.982  1.00 20.00     0.004 C 
HETATM    3 CL5  UNL     1     -34.864   5.428   6.505  1.00 20.00    -0.023 Cl
ENDROOT
BRANCH   1   4
HETATM    4  C3  UNL     1     -32.811   6.201   2.663  1.00 20.00     0.110 C 
BRANCH   4   5
HETATM    5  C4  UNL     1     -32.158   7.578   2.627  1.00 20.00     0.126 C 
HETATM    6 CL6  UNL     1     -31.146   7.861   4.067  1.00 20.00    -0.130 Cl
ENDBRANCH   4   5
ENDBRANCH   1   4
TORSDOF 2
ENDMDL
MODEL 5
REMARK VINA RESULT:      -3.1      2.037      3.171
REMARK  2 active torsions:
REMARK  status: ('A' for Active; 'I' for Inactive)
REMARK    1  A    between atoms: C1_1  and  C3_3 
REMARK    2  A    between atoms: C3_3  and  C4_4 
ROOT
HETATM    1  C1  UNL     1     -34.414   5.607   6.018  1.00 20.00    -0.088 C 
HETATM    2  C2  UNL     1     -33.911   6.538   6.586  1.00 20.00     0.004 C 
HETATM    3 CL5  UNL     1     -33.176   7.898   7.412  1.00 20.00    -0.023 Cl
ENDROOT
BRANCH   1   4
HETATM    4  C3  UNL     1     -35.032   4.468   5.323  1.00 20.00     0.110 C 
BRANCH   4   5
HETATM    5  C4  UNL     1     -35.507   4.835   3.923  1.00 20.00     0.126 C 
HETATM    6 CL6  UNL     1     -34.163   5.417   2.906  1.00 20.00    -0.130 Cl
ENDBRANCH   4   5
ENDBRANCH   1   4
TORSDOF 2
ENDMDL
MODEL 6
REMARK VINA RESULT:      -3.1     11.762     12.343
REMARK  2 active torsions:
REMARK  status: ('A' for Active; 'I' for Inactive)
REMARK    1  A    between atoms: C1_1  and  C3_3 
REMARK    2  A    between atoms: C3_3  and  C4_4 
ROOT
HETATM    1  C1  UNL     1     -34.310  16.569  -1.444  1.00 20.00    -0.088 C 
HETATM    2  C2  UNL     1     -34.707  16.933  -0.371  1.00 20.00     0.004 C 
HETATM    3 CL5  UNL     1     -35.288  17.462   1.197  1.00 20.00    -0.023 Cl
ENDROOT
BRANCH   1   4
HETATM    4  C3  UNL     1     -33.822  16.124  -2.757  1.00 20.00     0.110 C 
BRANCH   4   5
HETATM    5  C4  UNL     1     -34.502  14.841  -3.221  1.00 20.00     0.126 C 
HETATM    6 CL6  UNL     1     -33.314  13.636  -3.782  1.00 20.00    -0.130 Cl
ENDBRANCH   4   5
ENDBRANCH   1   4
TORSDOF 2
ENDMDL
MODEL 7
REMARK VINA RESULT:      -3.1     11.660     12.291
REMARK  2 active torsions:
REMARK  status: ('A' for Active; 'I' for Inactive)
REMARK    1  A    between atoms: C1_1  and  C3_3 
REMARK    2  A    between atoms: C3_3  and  C4_4 
ROOT
HETATM    1  C1  UNL     1     -33.921  15.938  -2.572  1.00 20.00    -0.088 C 
HETATM    2  C2  UNL     1     -34.332  16.410  -1.547  1.00 20.00     0.004 C 
HETATM    3 CL5  UNL     1     -34.934  17.096  -0.051  1.00 20.00    -0.023 Cl
ENDROOT
BRANCH   1   4
HETATM    4  C3  UNL     1     -33.415  15.360  -3.826  1.00 20.00     0.110 C 
BRANCH   4   5
HETATM    5  C4  UNL     1     -33.493  13.838  -3.832  1.00 20.00     0.126 C 
HETATM    6 CL6  UNL     1     -35.141  13.268  -4.204  1.00 20.00    -0.130 Cl
ENDBRANCH   4   5
ENDBRANCH   1   4
TORSDOF 2
ENDMDL
MODEL 8
REMARK VINA RESULT:      -2.9     12.195     12.869
REMARK  2 active torsions:
REMARK  status: ('A' for Active; 'I' for Inactive)
REMARK    1  A    between atoms: C1_1  and  C3_3 
REMARK    2  A    between atoms: C3_3  and  C4_4 
ROOT
HETATM    1  C1  UNL     1     -34.576  16.086  -1.761  1.00 20.00    -0.088 C 
HETATM    2  C2  UNL     1     -34.631  16.733  -0.749  1.00 20.00     0.004 C 
HETATM    3 CL5  UNL     1     -34.715  17.674   0.726  1.00 20.00    -0.023 Cl
ENDROOT
BRANCH   1   4
HETATM    4  C3  UNL     1     -34.507  15.294  -2.997  1.00 20.00     0.110 C 
BRANCH   4   5
HETATM    5  C4  UNL     1     -33.131  15.363  -3.649  1.00 20.00     0.126 C 
HETATM    6 CL6  UNL     1     -33.130  16.450  -5.062  1.00 20.00    -0.130 Cl
ENDBRANCH   4   5
ENDBRANCH   1   4
TORSDOF 2
ENDMDL
MODEL 9
REMARK VINA RESULT:      -2.9     11.828     12.203
REMARK  2 active torsions:
REMARK  status: ('A' for Active; 'I' for Inactive)
REMARK    1  A    between atoms: C1_1  and  C3_3 
REMARK    2  A    between atoms: C3_3  and  C4_4 
ROOT
HETATM    1  C1  UNL     1     -34.255  15.669  -2.566  1.00 20.00    -0.088 C 
HETATM    2  C2  UNL     1     -34.540  14.709  -3.230  1.00 20.00     0.004 C 
HETATM    3 CL5  UNL     1     -34.954  13.307  -4.198  1.00 20.00    -0.023 Cl
ENDROOT
BRANCH   1   4
HETATM    4  C3  UNL     1     -33.907  16.842  -1.753  1.00 20.00     0.110 C 
BRANCH   4   5
HETATM    5  C4  UNL     1     -34.740  16.929  -0.479  1.00 20.00     0.126 C 
HETATM    6 CL6  UNL     1     -34.073  18.127   0.660  1.00 20.00    -0.130 Cl
ENDBRANCH   4   5
ENDBRANCH   1   4
TORSDOF 2
ENDMDL
