MODEL 1
REMARK VINA RESULT:      -5.0      0.000      0.000
REMARK  2 active torsions:
REMARK  status: ('A' for Active; 'I' for Inactive)
REMARK    1  A    between atoms: C1_1  and  C2_2 
REMARK    2  A    between atoms: C1_1  and  C3_3 
ROOT
HETATM    1  C1  UNL     1     -33.878   6.527   3.750  1.00 20.00     0.153 C 
ENDROOT
BRANCH   1   2
HETATM    2  C2  UNL     1     -33.910   5.601   4.967  1.00 20.00     0.186 C 
HETATM    3 CL7  UNL     1     -35.271   4.452   4.905  1.00 20.00    -0.108 Cl
HETATM    4 CL8  UNL     1     -34.042   6.568   6.461  1.00 20.00    -0.108 Cl
ENDBRANCH   1   2
BRANCH   1   5
HETATM    5  C3  UNL     1     -32.488   6.776   3.198  1.00 20.00     0.390 C 
HETATM    6  F4  UNL     1     -31.897   5.622   2.821  1.00 20.00    -0.171 F 
HETATM    7  F5  UNL     1     -32.501   7.605   2.136  1.00 20.00    -0.171 F 
HETATM    8  F6  UNL     1     -31.705   7.344   4.143  1.00 20.00    -0.171 F 
ENDBRANCH   1   5
TORSDOF 2
ENDMDL
MODEL 2
REMARK VINA RESULT:      -5.0      0.032      1.324
REMARK  2 active torsions:
REMARK  status: ('A' for Active; 'I' for Inactive)
REMARK    1  A    between atoms: C1_1  and  C2_2 
REMARK    2  A    between atoms: C1_1  and  C3_3 
ROOT
HETATM    1  C1  UNL     1     -33.866   6.520   3.738  1.00 20.00     0.153 C 
ENDROOT
BRANCH   1   2
HETATM    2  C2  UNL     1     -33.911   5.593   4.953  1.00 20.00     0.186 C 
HETATM    3 CL7  UNL     1     -35.283   4.459   4.887  1.00 20.00    -0.108 Cl
HETATM    4 CL8  UNL     1     -34.037   6.561   6.448  1.00 20.00    -0.108 Cl
ENDBRANCH   1   2
BRANCH   1   5
HETATM    5  C3  UNL     1     -32.468   6.794   3.218  1.00 20.00     0.390 C 
HETATM    6  F4  UNL     1     -32.497   7.586   2.125  1.00 20.00    -0.171 F 
HETATM    7  F5  UNL     1     -31.686   7.386   4.143  1.00 20.00    -0.171 F 
HETATM    8  F6  UNL     1     -31.867   5.634   2.865  1.00 20.00    -0.171 F 
ENDBRANCH   1   5
TORSDOF 2
ENDMDL
MODEL 3
REMARK VINA RESULT:      -4.8      3.263      3.944
REMARK  2 active torsions:
REMARK  status: ('A' for Active; 'I' for Inactive)
REMARK    1  A    between atoms: C1_1  and  C2_2 
REMARK    2  A    between atoms: C1_1  and  C3_3 
ROOT
HETATM    1  C1  UNL     1     -33.882   6.395   4.991  1.00 20.00     0.153 C 
ENDROOT
BRANCH   1   2
HETATM    2  C2  UNL     1     -33.067   5.935   3.781  1.00 20.00     0.186 C 
HETATM    3 CL7  UNL     1     -32.081   7.250   3.093  1.00 20.00    -0.108 Cl
HETATM    4 CL8  UNL     1     -34.162   5.315   2.514  1.00 20.00    -0.108 Cl
ENDBRANCH   1   2
BRANCH   1   5
HETATM    5  C3  UNL     1     -34.661   5.284   5.670  1.00 20.00     0.390 C 
HETATM    6  F4  UNL     1     -35.774   4.970   4.973  1.00 20.00    -0.171 F 
HETATM    7  F5  UNL     1     -33.928   4.163   5.817  1.00 20.00    -0.171 F 
HETATM    8  F6  UNL     1     -35.050   5.676   6.905  1.00 20.00    -0.171 F 
ENDBRANCH   1   5
TORSDOF 2
ENDMDL
MODEL 4
REMARK VINA RESULT:      -4.7      3.252      3.957
REMARK  2 active torsions:
REMARK  status: ('A' for Active; 'I' for Inactive)
REMARK    1  A    between atoms: C1_1  and  C2_2 
REMARK    2  A    between atoms: C1_1  and  C3_3 
ROOT
HETATM    1  C1  UNL     1     -33.885   6.404   4.989  1.00 20.00     0.153 C 
ENDROOT
BRANCH   1   2
HETATM    2  C2  UNL     1     -33.068   5.938   3.783  1.00 20.00     0.186 C 
HETATM    3 CL7  UNL     1     -32.075   7.247   3.093  1.00 20.00    -0.108 Cl
HETATM    4 CL8  UNL     1     -34.161   5.316   2.515  1.00 20.00    -0.108 Cl
ENDBRANCH   1   2
BRANCH   1   5
HETATM    5  C3  UNL     1     -34.671   5.299   5.668  1.00 20.00     0.390 C 
HETATM    6  F4  UNL     1     -35.053   5.663   6.911  1.00 20.00    -0.171 F 
HETATM    7  F5  UNL     1     -35.775   4.958   4.974  1.00 20.00    -0.171 F 
HETATM    8  F6  UNL     1     -33.909   4.188   5.785  1.00 20.00    -0.171 F 
ENDBRANCH   1   5
TORSDOF 2
ENDMDL
MODEL 5
REMARK VINA RESULT:      -4.6      3.325      3.838
REMARK  2 active torsions:
REMARK  status: ('A' for Active; 'I' for Inactive)
REMARK    1  A    between atoms: C1_1  and  C2_2 
REMARK    2  A    between atoms: C1_1  and  C3_3 
ROOT
HETATM    1  C1  UNL     1     -33.840   5.680   5.140  1.00 20.00     0.153 C 
ENDROOT
BRANCH   1   2
HETATM    2  C2  UNL     1     -33.713   6.320   3.757  1.00 20.00     0.186 C 
HETATM    3 CL7  UNL     1     -34.044   5.163   2.444  1.00 20.00    -0.108 Cl
HETATM    4 CL8  UNL     1     -32.066   6.977   3.543  1.00 20.00    -0.108 Cl
ENDBRANCH   1   2
BRANCH   1   5
HETATM    5  C3  UNL     1     -35.064   4.800   5.305  1.00 20.00     0.390 C 
HETATM    6  F4  UNL     1     -36.039   5.151   4.439  1.00 20.00    -0.171 F 
HETATM    7  F5  UNL     1     -34.785   3.496   5.114  1.00 20.00    -0.171 F 
HETATM    8  F6  UNL     1     -35.565   4.926   6.555  1.00 20.00    -0.171 F 
ENDBRANCH   1   5
TORSDOF 2
ENDMDL
MODEL 6
REMARK VINA RESULT:      -4.5      2.405      3.060
REMARK  2 active torsions:
REMARK  status: ('A' for Active; 'I' for Inactive)
REMARK    1  A    between atoms: C1_1  and  C2_2 
REMARK    2  A    between atoms: C1_1  and  C3_3 
ROOT
HETATM    1  C1  UNL     1     -33.860   6.067   4.451  1.00 20.00     0.153 C 
ENDROOT
BRANCH   1   2
HETATM    2  C2  UNL     1     -34.343   6.213   5.895  1.00 20.00     0.186 C 
HETATM    3 CL7  UNL     1     -33.314   7.317   6.842  1.00 20.00    -0.108 Cl
HETATM    4 CL8  UNL     1     -34.358   4.615   6.692  1.00 20.00    -0.108 Cl
ENDBRANCH   1   2
BRANCH   1   5
HETATM    5  C3  UNL     1     -34.797   5.271   3.563  1.00 20.00     0.390 C 
HETATM    6  F4  UNL     1     -34.985   4.023   4.043  1.00 20.00    -0.171 F 
HETATM    7  F5  UNL     1     -36.003   5.857   3.437  1.00 20.00    -0.171 F 
HETATM    8  F6  UNL     1     -34.274   5.154   2.321  1.00 20.00    -0.171 F 
ENDBRANCH   1   5
TORSDOF 2
ENDMDL
MODEL 7
REMARK VINA RESULT:      -4.3      1.120      1.840
REMARK  2 active torsions:
REMARK  status: ('A' for Active; 'I' for Inactive)
REMARK    1  A    between atoms: C1_1  and  C2_2 
REMARK    2  A    between atoms: C1_1  and  C3_3 
ROOT
HETATM    1  C1  UNL     1     -34.467   5.864   4.179  1.00 20.00     0.153 C 
ENDROOT
BRANCH   1   2
HETATM    2  C2  UNL     1     -34.046   5.495   5.602  1.00 20.00     0.186 C 
HETATM    3 CL7  UNL     1     -35.221   4.416   6.395  1.00 20.00    -0.108 Cl
HETATM    4 CL8  UNL     1     -33.870   6.976   6.584  1.00 20.00    -0.108 Cl
ENDBRANCH   1   2
BRANCH   1   5
HETATM    5  C3  UNL     1     -33.309   6.180   3.252  1.00 20.00     0.390 C 
HETATM    6  F4  UNL     1     -33.156   7.512   3.096  1.00 20.00    -0.171 F 
HETATM    7  F5  UNL     1     -32.143   5.675   3.702  1.00 20.00    -0.171 F 
HETATM    8  F6  UNL     1     -33.532   5.649   2.028  1.00 20.00    -0.171 F 
ENDBRANCH   1   5
TORSDOF 2
ENDMDL
MODEL 8
REMARK VINA RESULT:      -4.3      2.360      2.750
REMARK  2 active torsions:
REMARK  status: ('A' for Active; 'I' for Inactive)
REMARK    1  A    between atoms: C1_1  and  C2_2 
REMARK    2  A    between atoms: C1_1  and  C3_3 
ROOT
HETATM    1  C1  UNL     1     -34.052   6.302   4.367  1.00 20.00     0.153 C 
ENDROOT
BRANCH   1   2
HETATM    2  C2  UNL     1     -33.851   5.854   5.815  1.00 20.00     0.186 C 
HETATM    3 CL7  UNL     1     -35.285   5.026   6.472  1.00 20.00    -0.108 Cl
HETATM    4 CL8  UNL     1     -33.484   7.269   6.841  1.00 20.00    -0.108 Cl
ENDBRANCH   1   2
BRANCH   1   5
HETATM    5  C3  UNL     1     -34.839   5.320   3.519  1.00 20.00     0.390 C 
HETATM    6  F4  UNL     1     -36.125   5.708   3.388  1.00 20.00    -0.171 F 
HETATM    7  F5  UNL     1     -34.317   5.179   2.285  1.00 20.00    -0.171 F 
HETATM    8  F6  UNL     1     -34.839   4.098   4.099  1.00 20.00    -0.171 F 
ENDBRANCH   1   5
TORSDOF 2
ENDMDL
MODEL 9
REMARK VINA RESULT:      -4.3      3.146      3.790
REMARK  2 active torsions:
REMARK  status: ('A' for Active; 'I' for Inactive)
REMARK    1  A    between atoms: C1_1  and  C2_2 
REMARK    2  A    between atoms: C1_1  and  C3_3 
ROOT
HETATM    1  C1  UNL     1     -34.957   5.413   4.295  1.00 20.00     0.153 C 
ENDROOT
BRANCH   1   2
HETATM    2  C2  UNL     1     -33.957   6.560   4.444  1.00 20.00     0.186 C 
HETATM    3 CL7  UNL     1     -32.411   6.219   3.627  1.00 20.00    -0.108 Cl
HETATM    4 CL8  UNL     1     -33.638   6.863   6.175  1.00 20.00    -0.108 Cl
ENDBRANCH   1   2
BRANCH   1   5
HETATM    5  C3  UNL     1     -34.853   4.356   5.377  1.00 20.00     0.390 C 
HETATM    6  F4  UNL     1     -33.587   4.243   5.832  1.00 20.00    -0.171 F 
HETATM    7  F5  UNL     1     -35.653   4.621   6.428  1.00 20.00    -0.171 F 
HETATM    8  F6  UNL     1     -35.218   3.149   4.887  1.00 20.00    -0.171 F 
ENDBRANCH   1   5
TORSDOF 2
ENDMDL
