MODEL 1
REMARK VINA RESULT:      -3.7      0.000      0.000
REMARK  2 active torsions:
REMARK  status: ('A' for Active; 'I' for Inactive)
REMARK    1  A    between atoms: C1_1  and  C6_6 
REMARK    2  A    between atoms: C6_6  and  O8_8 
ROOT
HETATM    1  C3  UNL     1     -35.576  15.639  -2.821  1.00 20.00     0.054 C 
HETATM    2  C4  UNL     1     -36.055  15.477  -5.279  1.00 20.00     0.054 C 
HETATM    3  C6  UNL     1     -35.891  14.692  -3.980  1.00 20.00     0.112 C 
ENDROOT
BRANCH   3   4
HETATM    4  C1  UNL     1     -34.793  13.634  -4.145  1.00 20.00     0.156 C 
HETATM    5  C2  UNL     1     -33.385  14.010  -3.748  1.00 20.00     0.094 C 
HETATM    6  O7  UNL     1     -35.040  12.498  -4.555  1.00 20.00    -0.295 OA
ENDBRANCH   3   4
BRANCH   3   7
HETATM    7  O8  UNL     1     -37.120  14.036  -3.699  1.00 20.00    -0.378 OA
HETATM    8  C5  UNL     1     -38.235  14.842  -4.053  1.00 20.00     0.203 C 
ENDBRANCH   3   7
TORSDOF 2
ENDMDL
MODEL 2
REMARK VINA RESULT:      -3.6      1.691      3.024
REMARK  2 active torsions:
REMARK  status: ('A' for Active; 'I' for Inactive)
REMARK    1  A    between atoms: C1_1  and  C6_6 
REMARK    2  A    between atoms: C6_6  and  O8_8 
ROOT
HETATM    1  C3  UNL     1     -34.370  15.617  -2.630  1.00 20.00     0.054 C 
HETATM    2  C4  UNL     1     -32.834  13.826  -3.484  1.00 20.00     0.054 C 
HETATM    3  C6  UNL     1     -34.056  14.683  -3.801  1.00 20.00     0.112 C 
ENDROOT
BRANCH   3   4
HETATM    4  C1  UNL     1     -35.255  13.784  -4.128  1.00 20.00     0.156 C 
HETATM    5  C2  UNL     1     -36.635  14.393  -4.061  1.00 20.00     0.094 C 
HETATM    6  O7  UNL     1     -35.112  12.608  -4.469  1.00 20.00    -0.295 OA
ENDBRANCH   3   4
BRANCH   3   7
HETATM    7  O8  UNL     1     -33.758  15.479  -4.939  1.00 20.00    -0.378 OA
HETATM    8  C5  UNL     1     -33.579  16.845  -4.590  1.00 20.00     0.203 C 
ENDBRANCH   3   7
TORSDOF 2
ENDMDL
MODEL 3
REMARK VINA RESULT:      -3.5     11.717     12.503
REMARK  2 active torsions:
REMARK  status: ('A' for Active; 'I' for Inactive)
REMARK    1  A    between atoms: C1_1  and  C6_6 
REMARK    2  A    between atoms: C6_6  and  O8_8 
ROOT
HETATM    1  C3  UNL     1     -34.021   4.859   2.660  1.00 20.00     0.054 C 
HETATM    2  C4  UNL     1     -36.099   6.057   3.394  1.00 20.00     0.054 C 
HETATM    3  C6  UNL     1     -34.705   5.599   3.811  1.00 20.00     0.112 C 
ENDROOT
BRANCH   3   4
HETATM    4  C1  UNL     1     -34.798   4.714   5.060  1.00 20.00     0.156 C 
HETATM    5  C2  UNL     1     -34.564   5.362   6.404  1.00 20.00     0.094 C 
HETATM    6  O7  UNL     1     -35.086   3.517   4.990  1.00 20.00    -0.295 OA
ENDBRANCH   3   4
BRANCH   3   7
HETATM    7  O8  UNL     1     -33.932   6.750   4.123  1.00 20.00    -0.378 OA
HETATM    8  C5  UNL     1     -32.668   6.723   3.473  1.00 20.00     0.203 C 
ENDBRANCH   3   7
TORSDOF 2
ENDMDL
MODEL 4
REMARK VINA RESULT:      -3.5      1.498      2.322
REMARK  2 active torsions:
REMARK  status: ('A' for Active; 'I' for Inactive)
REMARK    1  A    between atoms: C1_1  and  C6_6 
REMARK    2  A    between atoms: C6_6  and  O8_8 
ROOT
HETATM    1  C3  UNL     1     -36.806  14.833  -3.620  1.00 20.00     0.054 C 
HETATM    2  C4  UNL     1     -34.801  15.731  -2.409  1.00 20.00     0.054 C 
HETATM    3  C6  UNL     1     -35.296  15.067  -3.690  1.00 20.00     0.112 C 
ENDROOT
BRANCH   3   4
HETATM    4  C1  UNL     1     -34.543  13.751  -3.921  1.00 20.00     0.156 C 
HETATM    5  C2  UNL     1     -33.066  13.717  -3.606  1.00 20.00     0.094 C 
HETATM    6  O7  UNL     1     -35.116  12.734  -4.319  1.00 20.00    -0.295 OA
ENDBRANCH   3   4
BRANCH   3   7
HETATM    7  O8  UNL     1     -35.030  15.942  -4.777  1.00 20.00    -0.378 OA
HETATM    8  C5  UNL     1     -34.363  17.121  -4.347  1.00 20.00     0.203 C 
ENDBRANCH   3   7
TORSDOF 2
ENDMDL
MODEL 5
REMARK VINA RESULT:      -3.5      1.994      2.699
REMARK  2 active torsions:
REMARK  status: ('A' for Active; 'I' for Inactive)
REMARK    1  A    between atoms: C1_1  and  C6_6 
REMARK    2  A    between atoms: C6_6  and  O8_8 
ROOT
HETATM    1  C3  UNL     1     -32.795  14.157  -3.537  1.00 20.00     0.054 C 
HETATM    2  C4  UNL     1     -33.628  16.028  -4.986  1.00 20.00     0.054 C 
HETATM    3  C6  UNL     1     -34.022  14.775  -4.209  1.00 20.00     0.112 C 
ENDROOT
BRANCH   3   4
HETATM    4  C1  UNL     1     -34.704  13.772  -5.146  1.00 20.00     0.156 C 
HETATM    5  C2  UNL     1     -35.195  14.274  -6.483  1.00 20.00     0.094 C 
HETATM    6  O7  UNL     1     -34.827  12.582  -4.847  1.00 20.00    -0.295 OA
ENDBRANCH   3   4
BRANCH   3   7
HETATM    7  O8  UNL     1     -34.943  15.153  -3.195  1.00 20.00    -0.378 OA
HETATM    8  C5  UNL     1     -34.350  16.037  -2.253  1.00 20.00     0.203 C 
ENDBRANCH   3   7
TORSDOF 2
ENDMDL
MODEL 6
REMARK VINA RESULT:      -3.5      1.687      2.029
REMARK  2 active torsions:
REMARK  status: ('A' for Active; 'I' for Inactive)
REMARK    1  A    between atoms: C1_1  and  C6_6 
REMARK    2  A    between atoms: C6_6  and  O8_8 
ROOT
HETATM    1  C3  UNL     1     -33.833  15.940  -5.585  1.00 20.00     0.054 C 
HETATM    2  C4  UNL     1     -35.220  14.325  -6.912  1.00 20.00     0.054 C 
HETATM    3  C6  UNL     1     -34.892  14.838  -5.513  1.00 20.00     0.112 C 
ENDROOT
BRANCH   3   4
HETATM    4  C1  UNL     1     -34.423  13.677  -4.628  1.00 20.00     0.156 C 
HETATM    5  C2  UNL     1     -33.243  13.915  -3.715  1.00 20.00     0.094 C 
HETATM    6  O7  UNL     1     -34.999  12.587  -4.625  1.00 20.00    -0.295 OA
ENDBRANCH   3   4
BRANCH   3   7
HETATM    7  O8  UNL     1     -36.075  15.390  -4.953  1.00 20.00    -0.378 OA
HETATM    8  C5  UNL     1     -35.830  16.659  -4.360  1.00 20.00     0.203 C 
ENDBRANCH   3   7
TORSDOF 2
ENDMDL
MODEL 7
REMARK VINA RESULT:      -3.4      1.651      2.471
REMARK  2 active torsions:
REMARK  status: ('A' for Active; 'I' for Inactive)
REMARK    1  A    between atoms: C1_1  and  C6_6 
REMARK    2  A    between atoms: C6_6  and  O8_8 
ROOT
HETATM    1  C3  UNL     1     -36.399  15.254  -5.247  1.00 20.00     0.054 C 
HETATM    2  C4  UNL     1     -34.046  15.763  -5.951  1.00 20.00     0.054 C 
HETATM    3  C6  UNL     1     -35.060  14.656  -5.682  1.00 20.00     0.112 C 
ENDROOT
BRANCH   3   4
HETATM    4  C1  UNL     1     -34.514  13.693  -4.622  1.00 20.00     0.156 C 
HETATM    5  C2  UNL     1     -33.345  14.155  -3.783  1.00 20.00     0.094 C 
HETATM    6  O7  UNL     1     -35.021  12.587  -4.423  1.00 20.00    -0.295 OA
ENDBRANCH   3   4
BRANCH   3   7
HETATM    7  O8  UNL     1     -35.264  13.937  -6.891  1.00 20.00    -0.378 OA
HETATM    8  C5  UNL     1     -35.913  14.735  -7.871  1.00 20.00     0.203 C 
ENDBRANCH   3   7
TORSDOF 2
ENDMDL
MODEL 8
REMARK VINA RESULT:      -3.4      1.949      3.084
REMARK  2 active torsions:
REMARK  status: ('A' for Active; 'I' for Inactive)
REMARK    1  A    between atoms: C1_1  and  C6_6 
REMARK    2  A    between atoms: C6_6  and  O8_8 
ROOT
HETATM    1  C3  UNL     1     -34.481  16.147  -1.891  1.00 20.00     0.054 C 
HETATM    2  C4  UNL     1     -32.992  15.065  -3.596  1.00 20.00     0.054 C 
HETATM    3  C6  UNL     1     -34.369  15.670  -3.340  1.00 20.00     0.112 C 
ENDROOT
BRANCH   3   4
HETATM    4  C1  UNL     1     -35.460  14.644  -3.671  1.00 20.00     0.156 C 
HETATM    5  C2  UNL     1     -35.036  13.343  -4.311  1.00 20.00     0.094 C 
HETATM    6  O7  UNL     1     -36.646  14.844  -3.400  1.00 20.00    -0.295 OA
ENDBRANCH   3   4
BRANCH   3   7
HETATM    7  O8  UNL     1     -34.526  16.795  -4.194  1.00 20.00    -0.378 OA
HETATM    8  C5  UNL     1     -33.429  16.930  -5.087  1.00 20.00     0.203 C 
ENDBRANCH   3   7
TORSDOF 2
ENDMDL
MODEL 9
REMARK VINA RESULT:      -3.4      1.986      3.257
REMARK  2 active torsions:
REMARK  status: ('A' for Active; 'I' for Inactive)
REMARK    1  A    between atoms: C1_1  and  C6_6 
REMARK    2  A    between atoms: C6_6  and  O8_8 
ROOT
HETATM    1  C3  UNL     1     -32.787  14.894  -3.630  1.00 20.00     0.054 C 
HETATM    2  C4  UNL     1     -34.583  13.367  -4.489  1.00 20.00     0.054 C 
HETATM    3  C6  UNL     1     -34.230  14.808  -4.131  1.00 20.00     0.112 C 
ENDROOT
BRANCH   3   4
HETATM    4  C1  UNL     1     -35.212  15.341  -3.081  1.00 20.00     0.156 C 
HETATM    5  C2  UNL     1     -34.644  16.081  -1.893  1.00 20.00     0.094 C 
HETATM    6  O7  UNL     1     -36.432  15.208  -3.203  1.00 20.00    -0.295 OA
ENDBRANCH   3   4
BRANCH   3   7
HETATM    7  O8  UNL     1     -34.343  15.599  -5.305  1.00 20.00    -0.378 OA
HETATM    8  C5  UNL     1     -33.381  16.645  -5.326  1.00 20.00     0.203 C 
ENDBRANCH   3   7
TORSDOF 2
ENDMDL
