MODEL 1
REMARK VINA RESULT:      -3.9      0.000      0.000
REMARK  0 active torsions:
REMARK  status: ('A' for Active; 'I' for Inactive)
ROOT
HETATM    1  C1  UNL     1     -32.958   6.232   4.099  1.00 20.00     0.050 C 
HETATM    2  C2  UNL     1     -33.541   5.712   2.799  1.00 20.00     0.171 C 
HETATM    3  C3  UNL     1     -34.214   6.509   4.893  1.00 20.00     0.128 C 
HETATM    4  C4  UNL     1     -35.109   5.341   4.496  1.00 20.00     0.235 C 
HETATM    5  O5  UNL     1     -34.792   5.075   3.119  1.00 20.00    -0.369 OA
HETATM    6 CL6  UNL     1     -33.919   6.713   6.621  1.00 20.00    -0.121 Cl
HETATM    7 CL7  UNL     1     -34.816   3.834   5.409  1.00 20.00    -0.094 Cl
ENDROOT
TORSDOF 0
ENDMDL
MODEL 2
REMARK VINA RESULT:      -3.8      2.217      2.637
REMARK  0 active torsions:
REMARK  status: ('A' for Active; 'I' for Inactive)
ROOT
HETATM    1  C1  UNL     1     -33.906   6.465   5.765  1.00 20.00     0.050 C 
HETATM    2  C2  UNL     1     -34.679   5.370   6.475  1.00 20.00     0.171 C 
HETATM    3  C3  UNL     1     -33.538   5.772   4.474  1.00 20.00     0.128 C 
HETATM    4  C4  UNL     1     -34.792   4.961   4.174  1.00 20.00     0.235 C 
HETATM    5  O5  UNL     1     -35.295   4.557   5.460  1.00 20.00    -0.369 OA
HETATM    6 CL6  UNL     1     -33.007   6.883   3.209  1.00 20.00    -0.121 Cl
HETATM    7 CL7  UNL     1     -36.093   5.875   3.359  1.00 20.00    -0.094 Cl
ENDROOT
TORSDOF 0
ENDMDL
MODEL 3
REMARK VINA RESULT:      -3.4      2.309      3.239
REMARK  0 active torsions:
REMARK  status: ('A' for Active; 'I' for Inactive)
ROOT
HETATM    1  C1  UNL     1     -34.716   4.464   4.877  1.00 20.00     0.050 C 
HETATM    2  C2  UNL     1     -34.570   5.272   6.154  1.00 20.00     0.171 C 
HETATM    3  C3  UNL     1     -34.904   5.563   3.857  1.00 20.00     0.128 C 
HETATM    4  C4  UNL     1     -33.945   6.636   4.358  1.00 20.00     0.235 C 
HETATM    5  O5  UNL     1     -33.986   6.536   5.793  1.00 20.00    -0.369 OA
HETATM    6 CL6  UNL     1     -34.667   5.022   2.194  1.00 20.00    -0.121 Cl
HETATM    7 CL7  UNL     1     -32.246   6.409   3.858  1.00 20.00    -0.094 Cl
ENDROOT
TORSDOF 0
ENDMDL
MODEL 4
REMARK VINA RESULT:      -3.3     12.797     13.423
REMARK  0 active torsions:
REMARK  status: ('A' for Active; 'I' for Inactive)
ROOT
HETATM    1  C1  UNL     1     -34.762  15.495  -5.688  1.00 20.00     0.050 C 
HETATM    2  C2  UNL     1     -33.638  16.509  -5.790  1.00 20.00     0.171 C 
HETATM    3  C3  UNL     1     -34.102  14.408  -4.872  1.00 20.00     0.128 C 
HETATM    4  C4  UNL     1     -33.272  15.210  -3.878  1.00 20.00     0.235 C 
HETATM    5  O5  UNL     1     -32.832  16.371  -4.605  1.00 20.00    -0.369 OA
HETATM    6 CL6  UNL     1     -35.249  13.258  -4.180  1.00 20.00    -0.121 Cl
HETATM    7 CL7  UNL     1     -34.174  15.789  -2.449  1.00 20.00    -0.094 Cl
ENDROOT
TORSDOF 0
ENDMDL
MODEL 5
REMARK VINA RESULT:      -3.2      1.304      2.413
REMARK  0 active torsions:
REMARK  status: ('A' for Active; 'I' for Inactive)
ROOT
HETATM    1  C1  UNL     1     -35.185   5.426   3.928  1.00 20.00     0.050 C 
HETATM    2  C2  UNL     1     -34.087   6.171   3.194  1.00 20.00     0.171 C 
HETATM    3  C3  UNL     1     -34.393   4.737   5.016  1.00 20.00     0.128 C 
HETATM    4  C4  UNL     1     -33.367   5.800   5.389  1.00 20.00     0.235 C 
HETATM    5  O5  UNL     1     -33.063   6.478   4.157  1.00 20.00    -0.369 OA
HETATM    6 CL6  UNL     1     -35.398   4.128   6.334  1.00 20.00    -0.121 Cl
HETATM    7 CL7  UNL     1     -33.955   7.032   6.542  1.00 20.00    -0.094 Cl
ENDROOT
TORSDOF 0
ENDMDL
MODEL 6
REMARK VINA RESULT:      -3.2     12.056     12.488
REMARK  0 active torsions:
REMARK  status: ('A' for Active; 'I' for Inactive)
ROOT
HETATM    1  C1  UNL     1     -35.296  15.704  -3.270  1.00 20.00     0.050 C 
HETATM    2  C2  UNL     1     -36.716  15.171  -3.303  1.00 20.00     0.171 C 
HETATM    3  C3  UNL     1     -34.501  14.419  -3.282  1.00 20.00     0.128 C 
HETATM    4  C4  UNL     1     -35.311  13.548  -4.234  1.00 20.00     0.235 C 
HETATM    5  O5  UNL     1     -36.683  13.916  -4.006  1.00 20.00    -0.369 OA
HETATM    6 CL6  UNL     1     -32.800  14.651  -3.693  1.00 20.00    -0.121 Cl
HETATM    7 CL7  UNL     1     -34.969  13.821  -5.966  1.00 20.00    -0.094 Cl
ENDROOT
TORSDOF 0
ENDMDL
MODEL 7
REMARK VINA RESULT:      -3.2      8.809      9.484
REMARK  0 active torsions:
REMARK  status: ('A' for Active; 'I' for Inactive)
ROOT
HETATM    1  C1  UNL     1     -42.893   4.388  -1.142  1.00 20.00     0.050 C 
HETATM    2  C2  UNL     1     -41.688   3.986  -1.971  1.00 20.00     0.171 C 
HETATM    3  C3  UNL     1     -42.237   4.752   0.170  1.00 20.00     0.128 C 
HETATM    4  C4  UNL     1     -40.958   5.441  -0.290  1.00 20.00     0.235 C 
HETATM    5  O5  UNL     1     -40.566   4.747  -1.487  1.00 20.00    -0.369 OA
HETATM    6 CL6  UNL     1     -43.284   5.685   1.241  1.00 20.00    -0.121 Cl
HETATM    7 CL7  UNL     1     -41.153   7.165  -0.716  1.00 20.00    -0.094 Cl
ENDROOT
TORSDOF 0
ENDMDL
MODEL 8
REMARK VINA RESULT:      -3.2     11.944     12.496
REMARK  0 active torsions:
REMARK  status: ('A' for Active; 'I' for Inactive)
ROOT
HETATM    1  C1  UNL     1     -35.352  15.386  -4.843  1.00 20.00     0.050 C 
HETATM    2  C2  UNL     1     -35.109  14.160  -5.703  1.00 20.00     0.171 C 
HETATM    3  C3  UNL     1     -35.214  14.801  -3.457  1.00 20.00     0.128 C 
HETATM    4  C4  UNL     1     -34.070  13.811  -3.636  1.00 20.00     0.235 C 
HETATM    5  O5  UNL     1     -34.227  13.292  -4.968  1.00 20.00    -0.369 OA
HETATM    6 CL6  UNL     1     -34.999  16.022  -2.200  1.00 20.00    -0.121 Cl
HETATM    7 CL7  UNL     1     -32.439  14.533  -3.536  1.00 20.00    -0.094 Cl
ENDROOT
TORSDOF 0
ENDMDL
MODEL 9
REMARK VINA RESULT:      -3.2     12.120     12.645
REMARK  0 active torsions:
REMARK  status: ('A' for Active; 'I' for Inactive)
ROOT
HETATM    1  C1  UNL     1     -34.986  13.846  -3.872  1.00 20.00     0.050 C 
HETATM    2  C2  UNL     1     -36.381  14.437  -3.953  1.00 20.00     0.171 C 
HETATM    3  C3  UNL     1     -34.136  15.080  -4.066  1.00 20.00     0.128 C 
HETATM    4  C4  UNL     1     -34.915  16.134  -3.288  1.00 20.00     0.235 C 
HETATM    5  O5  UNL     1     -36.299  15.791  -3.473  1.00 20.00    -0.369 OA
HETATM    6 CL6  UNL     1     -32.450  14.850  -3.593  1.00 20.00    -0.121 Cl
HETATM    7 CL7  UNL     1     -34.601  16.146  -1.530  1.00 20.00    -0.094 Cl
ENDROOT
TORSDOF 0
ENDMDL
