MODEL 1
REMARK VINA RESULT:      -4.3      0.000      0.000
REMARK  1 active torsions:
REMARK  status: ('A' for Active; 'I' for Inactive)
REMARK    1  A    between atoms: C4_4  and  C7_7 
ROOT
HETATM    1  C1  UNL     1     -35.114  13.192  -4.534  1.00 20.00     0.135 A 
HETATM    2  C2  UNL     1     -36.008  14.149  -4.106  1.00 20.00     0.136 A 
HETATM    3  C3  UNL     1     -33.413  14.318  -3.500  1.00 20.00     0.143 A 
HETATM    4  C4  UNL     1     -34.307  15.275  -3.073  1.00 20.00     0.055 A 
HETATM    5  N8  UNL     1     -33.801  13.259  -4.238  1.00 20.00    -0.270 NA
HETATM    6  N9  UNL     1     -35.620  15.209  -3.368  1.00 20.00    -0.262 NA
ENDROOT
BRANCH   4   7
HETATM    7  C7  UNL     1     -33.833  16.455  -2.244  1.00 20.00     0.031 C 
HETATM    8  C5  UNL     1     -34.628  16.583  -0.942  1.00 20.00     0.016 C 
HETATM    9  C6  UNL     1     -33.882  17.760  -3.043  1.00 20.00     0.016 C 
ENDBRANCH   4   7
TORSDOF 1
ENDMDL
MODEL 2
REMARK VINA RESULT:      -4.1      0.911      1.602
REMARK  1 active torsions:
REMARK  status: ('A' for Active; 'I' for Inactive)
REMARK    1  A    between atoms: C4_4  and  C7_7 
ROOT
HETATM    1  C1  UNL     1     -35.175  13.394  -4.421  1.00 20.00     0.135 A 
HETATM    2  C2  UNL     1     -33.833  13.587  -4.180  1.00 20.00     0.136 A 
HETATM    3  C3  UNL     1     -35.664  15.246  -3.172  1.00 20.00     0.143 A 
HETATM    4  C4  UNL     1     -34.322  15.438  -2.930  1.00 20.00     0.055 A 
HETATM    5  N8  UNL     1     -36.115  14.221  -3.921  1.00 20.00    -0.270 NA
HETATM    6  N9  UNL     1     -33.381  14.612  -3.430  1.00 20.00    -0.262 NA
ENDROOT
BRANCH   4   7
HETATM    7  C7  UNL     1     -33.851  16.604  -2.080  1.00 20.00     0.031 C 
HETATM    8  C5  UNL     1     -34.629  16.691  -0.764  1.00 20.00     0.016 C 
HETATM    9  C6  UNL     1     -33.929  17.927  -2.848  1.00 20.00     0.016 C 
ENDBRANCH   4   7
TORSDOF 1
ENDMDL
MODEL 3
REMARK VINA RESULT:      -3.8     11.690     12.355
REMARK  1 active torsions:
REMARK  status: ('A' for Active; 'I' for Inactive)
REMARK    1  A    between atoms: C4_4  and  C7_7 
ROOT
HETATM    1  C1  UNL     1     -35.177   4.902   6.143  1.00 20.00     0.135 A 
HETATM    2  C2  UNL     1     -35.232   4.523   4.820  1.00 20.00     0.136 A 
HETATM    3  C3  UNL     1     -33.646   6.516   5.618  1.00 20.00     0.143 A 
HETATM    4  C4  UNL     1     -33.699   6.137   4.295  1.00 20.00     0.055 A 
HETATM    5  N8  UNL     1     -34.383   5.906   6.566  1.00 20.00    -0.270 NA
HETATM    6  N9  UNL     1     -34.493   5.133   3.872  1.00 20.00    -0.262 NA
ENDROOT
BRANCH   4   7
HETATM    7  C7  UNL     1     -32.852   6.847   3.256  1.00 20.00     0.031 C 
HETATM    8  C5  UNL     1     -32.380   5.886   2.161  1.00 20.00     0.016 C 
HETATM    9  C6  UNL     1     -31.663   7.569   3.896  1.00 20.00     0.016 C 
ENDBRANCH   4   7
TORSDOF 1
ENDMDL
MODEL 4
REMARK VINA RESULT:      -3.8     11.687     12.358
REMARK  1 active torsions:
REMARK  status: ('A' for Active; 'I' for Inactive)
REMARK    1  A    between atoms: C4_4  and  C7_7 
ROOT
HETATM    1  C1  UNL     1     -35.190   4.820   6.076  1.00 20.00     0.135 A 
HETATM    2  C2  UNL     1     -34.358   5.845   6.468  1.00 20.00     0.136 A 
HETATM    3  C3  UNL     1     -34.529   5.114   3.907  1.00 20.00     0.143 A 
HETATM    4  C4  UNL     1     -33.697   6.139   4.299  1.00 20.00     0.055 A 
HETATM    5  N8  UNL     1     -35.290   4.436   4.788  1.00 20.00    -0.270 NA
HETATM    6  N9  UNL     1     -33.596   6.524   5.587  1.00 20.00    -0.262 NA
ENDROOT
BRANCH   4   7
HETATM    7  C7  UNL     1     -32.855   6.881   3.277  1.00 20.00     0.031 C 
HETATM    8  C5  UNL     1     -32.412   5.960   2.137  1.00 20.00     0.016 C 
HETATM    9  C6  UNL     1     -31.648   7.560   3.930  1.00 20.00     0.016 C 
ENDBRANCH   4   7
TORSDOF 1
ENDMDL
MODEL 5
REMARK VINA RESULT:      -3.6      2.002      3.520
REMARK  1 active torsions:
REMARK  status: ('A' for Active; 'I' for Inactive)
REMARK    1  A    between atoms: C4_4  and  C7_7 
ROOT
HETATM    1  C1  UNL     1     -38.376  16.124  -3.525  1.00 20.00     0.135 A 
HETATM    2  C2  UNL     1     -38.281  14.801  -3.895  1.00 20.00     0.136 A 
HETATM    3  C3  UNL     1     -36.115  16.195  -3.192  1.00 20.00     0.143 A 
HETATM    4  C4  UNL     1     -36.020  14.871  -3.561  1.00 20.00     0.055 A 
HETATM    5  N8  UNL     1     -37.295  16.845  -3.167  1.00 20.00    -0.270 NA
HETATM    6  N9  UNL     1     -37.100  14.150  -3.919  1.00 20.00    -0.262 NA
ENDROOT
BRANCH   4   7
HETATM    7  C7  UNL     1     -34.673  14.172  -3.575  1.00 20.00     0.031 C 
HETATM    8  C5  UNL     1     -33.517  15.174  -3.530  1.00 20.00     0.016 C 
HETATM    9  C6  UNL     1     -34.537  13.238  -4.781  1.00 20.00     0.016 C 
ENDBRANCH   4   7
TORSDOF 1
ENDMDL
MODEL 6
REMARK VINA RESULT:      -3.6     11.519     12.949
REMARK  1 active torsions:
REMARK  status: ('A' for Active; 'I' for Inactive)
REMARK    1  A    between atoms: C4_4  and  C7_7 
ROOT
HETATM    1  C1  UNL     1     -42.817   3.003  -3.694  1.00 20.00     0.135 A 
HETATM    2  C2  UNL     1     -41.709   2.747  -2.917  1.00 20.00     0.136 A 
HETATM    3  C3  UNL     1     -42.869   5.151  -2.914  1.00 20.00     0.143 A 
HETATM    4  C4  UNL     1     -41.762   4.895  -2.135  1.00 20.00     0.055 A 
HETATM    5  N8  UNL     1     -43.417   4.210  -3.707  1.00 20.00    -0.270 NA
HETATM    6  N9  UNL     1     -41.162   3.689  -2.123  1.00 20.00    -0.262 NA
ENDROOT
BRANCH   4   7
HETATM    7  C7  UNL     1     -41.174   5.981  -1.253  1.00 20.00     0.031 C 
HETATM    8  C5  UNL     1     -41.306   5.633   0.232  1.00 20.00     0.016 C 
HETATM    9  C6  UNL     1     -41.798   7.347  -1.550  1.00 20.00     0.016 C 
ENDBRANCH   4   7
TORSDOF 1
ENDMDL
MODEL 7
REMARK VINA RESULT:      -3.6      2.061      3.075
REMARK  1 active torsions:
REMARK  status: ('A' for Active; 'I' for Inactive)
REMARK    1  A    between atoms: C4_4  and  C7_7 
ROOT
HETATM    1  C1  UNL     1     -38.092  15.531  -3.618  1.00 20.00     0.135 A 
HETATM    2  C2  UNL     1     -37.290  16.595  -3.271  1.00 20.00     0.136 A 
HETATM    3  C3  UNL     1     -36.238  14.216  -3.873  1.00 20.00     0.143 A 
HETATM    4  C4  UNL     1     -35.436  15.281  -3.526  1.00 20.00     0.055 A 
HETATM    5  N8  UNL     1     -37.580  14.321  -3.925  1.00 20.00    -0.270 NA
HETATM    6  N9  UNL     1     -35.946  16.489  -3.219  1.00 20.00    -0.262 NA
ENDROOT
BRANCH   4   7
HETATM    7  C7  UNL     1     -33.927  15.124  -3.479  1.00 20.00     0.031 C 
HETATM    8  C5  UNL     1     -33.228  16.128  -4.400  1.00 20.00     0.016 C 
HETATM    9  C6  UNL     1     -33.499  13.692  -3.810  1.00 20.00     0.016 C 
ENDBRANCH   4   7
TORSDOF 1
ENDMDL
MODEL 8
REMARK VINA RESULT:      -3.5     11.732     13.573
REMARK  1 active torsions:
REMARK  status: ('A' for Active; 'I' for Inactive)
REMARK    1  A    between atoms: C4_4  and  C7_7 
ROOT
HETATM    1  C1  UNL     1     -41.327   6.604  -1.574  1.00 20.00     0.135 A 
HETATM    2  C2  UNL     1     -42.280   6.536  -2.566  1.00 20.00     0.136 A 
HETATM    3  C3  UNL     1     -41.212   4.321  -1.526  1.00 20.00     0.143 A 
HETATM    4  C4  UNL     1     -42.167   4.252  -2.517  1.00 20.00     0.055 A 
HETATM    5  N8  UNL     1     -40.775   5.497  -1.037  1.00 20.00    -0.270 NA
HETATM    6  N9  UNL     1     -42.718   5.358  -3.055  1.00 20.00    -0.262 NA
ENDROOT
BRANCH   4   7
HETATM    7  C7  UNL     1     -42.635   2.908  -3.043  1.00 20.00     0.031 C 
HETATM    8  C5  UNL     1     -43.417   2.130  -1.981  1.00 20.00     0.016 C 
HETATM    9  C6  UNL     1     -41.468   2.075  -3.579  1.00 20.00     0.016 C 
ENDBRANCH   4   7
TORSDOF 1
ENDMDL
MODEL 9
REMARK VINA RESULT:      -3.5      2.813      3.579
REMARK  1 active torsions:
REMARK  status: ('A' for Active; 'I' for Inactive)
REMARK    1  A    between atoms: C4_4  and  C7_7 
ROOT
HETATM    1  C1  UNL     1     -34.455  17.186  -7.315  1.00 20.00     0.135 A 
HETATM    2  C2  UNL     1     -34.558  15.824  -7.141  1.00 20.00     0.136 A 
HETATM    3  C3  UNL     1     -33.542  17.386  -5.228  1.00 20.00     0.143 A 
HETATM    4  C4  UNL     1     -33.646  16.023  -5.053  1.00 20.00     0.055 A 
HETATM    5  N8  UNL     1     -33.945  17.992  -6.362  1.00 20.00    -0.270 NA
HETATM    6  N9  UNL     1     -34.155  15.218  -6.006  1.00 20.00    -0.262 NA
ENDROOT
BRANCH   4   7
HETATM    7  C7  UNL     1     -33.182  15.375  -3.761  1.00 20.00     0.031 C 
HETATM    8  C5  UNL     1     -33.467  13.871  -3.751  1.00 20.00     0.016 C 
HETATM    9  C6  UNL     1     -33.803  16.055  -2.537  1.00 20.00     0.016 C 
ENDBRANCH   4   7
TORSDOF 1
ENDMDL
