MODEL 1
REMARK VINA RESULT:      -4.5      0.000      0.000
REMARK  0 active torsions:
REMARK  status: ('A' for Active; 'I' for Inactive)
ROOT
HETATM    1  C1  UNL     1     -33.298  14.212  -3.790  1.00 20.00     0.000 C 
HETATM    2  C2  UNL     1     -33.498  15.522  -3.033  1.00 20.00     0.000 C 
HETATM    3  C3  UNL     1     -34.552  13.355  -3.962  1.00 20.00     0.004 C 
HETATM    4  C4  UNL     1     -34.587  16.440  -3.586  1.00 20.00     0.004 C 
HETATM    5  C5  UNL     1     -35.536  13.948  -4.975  1.00 20.00     0.049 C 
HETATM    6  C6  UNL     1     -35.994  15.905  -3.319  1.00 20.00     0.049 C 
HETATM    7  C7  UNL     1     -38.851  14.793  -3.950  1.00 20.00     0.180 C 
HETATM    8  C8  UNL     1     -38.950  15.184  -5.411  1.00 20.00     0.103 C 
HETATM    9  C9  UNL     1     -36.549  14.934  -4.374  1.00 20.00     0.108 C 
HETATM   10  O10 UNL     1     -37.589  14.150  -3.744  1.00 20.00    -0.369 OA
HETATM   11  S11 UNL     1     -37.324  15.874  -5.750  1.00 20.00    -0.129 SA
ENDROOT
TORSDOF 0
ENDMDL
MODEL 2
REMARK VINA RESULT:      -4.4      1.871      2.038
REMARK  0 active torsions:
REMARK  status: ('A' for Active; 'I' for Inactive)
ROOT
HETATM    1  C1  UNL     1     -33.140  14.016  -3.603  1.00 20.00     0.000 C 
HETATM    2  C2  UNL     1     -32.949  15.527  -3.702  1.00 20.00     0.000 C 
HETATM    3  C3  UNL     1     -34.542  13.507  -3.939  1.00 20.00     0.004 C 
HETATM    4  C4  UNL     1     -33.334  16.150  -5.043  1.00 20.00     0.004 C 
HETATM    5  C5  UNL     1     -34.852  13.585  -5.437  1.00 20.00     0.049 C 
HETATM    6  C6  UNL     1     -34.847  16.183  -5.259  1.00 20.00     0.049 C 
HETATM    7  C7  UNL     1     -37.610  15.543  -6.583  1.00 20.00     0.180 C 
HETATM    8  C8  UNL     1     -37.127  15.014  -7.918  1.00 20.00     0.103 C 
HETATM    9  C9  UNL     1     -35.458  14.921  -5.891  1.00 20.00     0.108 C 
HETATM   10  O10 UNL     1     -36.863  14.895  -5.548  1.00 20.00    -0.369 OA
HETATM   11  S11 UNL     1     -35.339  15.013  -7.723  1.00 20.00    -0.129 SA
ENDROOT
TORSDOF 0
ENDMDL
MODEL 3
REMARK VINA RESULT:      -4.3     11.219     12.453
REMARK  0 active torsions:
REMARK  status: ('A' for Active; 'I' for Inactive)
ROOT
HETATM    1  C1  UNL     1     -41.913   7.629  -1.550  1.00 20.00     0.000 C 
HETATM    2  C2  UNL     1     -40.790   7.027  -0.710  1.00 20.00     0.000 C 
HETATM    3  C3  UNL     1     -42.399   6.765  -2.713  1.00 20.00     0.004 C 
HETATM    4  C4  UNL     1     -41.071   5.637  -0.139  1.00 20.00     0.004 C 
HETATM    5  C5  UNL     1     -43.214   5.555  -2.246  1.00 20.00     0.049 C 
HETATM    6  C6  UNL     1     -41.046   4.549  -1.212  1.00 20.00     0.049 C 
HETATM    7  C7  UNL     1     -42.116   2.253  -3.051  1.00 20.00     0.180 C 
HETATM    8  C8  UNL     1     -43.382   1.902  -2.295  1.00 20.00     0.103 C 
HETATM    9  C9  UNL     1     -42.376   4.303  -1.944  1.00 20.00     0.108 C 
HETATM   10  O10 UNL     1     -42.071   3.675  -3.210  1.00 20.00    -0.369 OA
HETATM   11  S11 UNL     1     -43.417   3.132  -0.983  1.00 20.00    -0.129 SA
ENDROOT
TORSDOF 0
ENDMDL
MODEL 4
REMARK VINA RESULT:      -4.3      2.061      2.946
REMARK  0 active torsions:
REMARK  status: ('A' for Active; 'I' for Inactive)
ROOT
HETATM    1  C1  UNL     1     -34.562  13.278  -4.559  1.00 20.00     0.000 C 
HETATM    2  C2  UNL     1     -33.333  13.633  -3.728  1.00 20.00     0.000 C 
HETATM    3  C3  UNL     1     -35.846  14.018  -4.183  1.00 20.00     0.004 C 
HETATM    4  C4  UNL     1     -32.983  15.120  -3.675  1.00 20.00     0.004 C 
HETATM    5  C5  UNL     1     -35.819  15.491  -4.604  1.00 20.00     0.049 C 
HETATM    6  C6  UNL     1     -33.967  15.921  -2.823  1.00 20.00     0.049 C 
HETATM    7  C7  UNL     1     -36.155  18.052  -2.137  1.00 20.00     0.180 C 
HETATM    8  C8  UNL     1     -36.042  18.926  -3.369  1.00 20.00     0.103 C 
HETATM    9  C9  UNL     1     -35.216  16.439  -3.557  1.00 20.00     0.108 C 
HETATM   10  O10 UNL     1     -36.237  16.687  -2.563  1.00 20.00    -0.369 OA
HETATM   11  S11 UNL     1     -34.844  18.042  -4.377  1.00 20.00    -0.129 SA
ENDROOT
TORSDOF 0
ENDMDL
MODEL 5
REMARK VINA RESULT:      -4.2      2.080      2.811
REMARK  0 active torsions:
REMARK  status: ('A' for Active; 'I' for Inactive)
ROOT
HETATM    1  C1  UNL     1     -32.940  15.417  -3.732  1.00 20.00     0.000 C 
HETATM    2  C2  UNL     1     -33.248  13.924  -3.689  1.00 20.00     0.000 C 
HETATM    3  C3  UNL     1     -33.347  16.136  -5.018  1.00 20.00     0.004 C 
HETATM    4  C4  UNL     1     -34.704  13.546  -3.962  1.00 20.00     0.004 C 
HETATM    5  C5  UNL     1     -34.864  16.308  -5.140  1.00 20.00     0.049 C 
HETATM    6  C6  UNL     1     -35.089  13.729  -5.429  1.00 20.00     0.049 C 
HETATM    7  C7  UNL     1     -36.599  14.883  -7.918  1.00 20.00     0.180 C 
HETATM    8  C8  UNL     1     -37.774  15.530  -7.214  1.00 20.00     0.103 C 
HETATM    9  C9  UNL     1     -35.584  15.133  -5.818  1.00 20.00     0.108 C 
HETATM   10  O10 UNL     1     -35.400  15.283  -7.245  1.00 20.00    -0.369 OA
HETATM   11  S11 UNL     1     -37.384  15.284  -5.476  1.00 20.00    -0.129 SA
ENDROOT
TORSDOF 0
ENDMDL
MODEL 6
REMARK VINA RESULT:      -4.2      2.623      3.968
REMARK  0 active torsions:
REMARK  status: ('A' for Active; 'I' for Inactive)
ROOT
HETATM    1  C1  UNL     1     -33.822  13.406  -3.793  1.00 20.00     0.000 C 
HETATM    2  C2  UNL     1     -34.776  13.321  -4.980  1.00 20.00     0.000 C 
HETATM    3  C3  UNL     1     -32.902  14.626  -3.775  1.00 20.00     0.004 C 
HETATM    4  C4  UNL     1     -35.665  14.546  -5.197  1.00 20.00     0.004 C 
HETATM    5  C5  UNL     1     -33.649  15.921  -3.441  1.00 20.00     0.049 C 
HETATM    6  C6  UNL     1     -34.884  15.748  -5.727  1.00 20.00     0.049 C 
HETATM    7  C7  UNL     1     -33.653  18.626  -5.773  1.00 20.00     0.180 C 
HETATM    8  C8  UNL     1     -34.476  19.263  -4.673  1.00 20.00     0.103 C 
HETATM    9  C9  UNL     1     -34.238  16.647  -4.659  1.00 20.00     0.108 C 
HETATM   10  O10 UNL     1     -33.158  17.372  -5.291  1.00 20.00    -0.369 OA
HETATM   11  S11 UNL     1     -35.456  17.886  -4.058  1.00 20.00    -0.129 SA
ENDROOT
TORSDOF 0
ENDMDL
MODEL 7
REMARK VINA RESULT:      -4.2      2.711      3.794
REMARK  0 active torsions:
REMARK  status: ('A' for Active; 'I' for Inactive)
ROOT
HETATM    1  C1  UNL     1     -33.804  17.719  -0.356  1.00 20.00     0.000 C 
HETATM    2  C2  UNL     1     -33.871  19.080  -1.043  1.00 20.00     0.000 C 
HETATM    3  C3  UNL     1     -34.630  16.611  -1.011  1.00 20.00     0.004 C 
HETATM    4  C4  UNL     1     -33.513  19.084  -2.529  1.00 20.00     0.004 C 
HETATM    5  C5  UNL     1     -34.022  16.127  -2.331  1.00 20.00     0.049 C 
HETATM    6  C6  UNL     1     -34.595  18.435  -3.392  1.00 20.00     0.049 C 
HETATM    7  C7  UNL     1     -35.905  16.379  -5.355  1.00 20.00     0.180 C 
HETATM    8  C8  UNL     1     -34.651  15.737  -5.912  1.00 20.00     0.103 C 
HETATM    9  C9  UNL     1     -34.483  16.911  -3.568  1.00 20.00     0.108 C 
HETATM   10  O10 UNL     1     -35.793  16.414  -3.928  1.00 20.00    -0.369 OA
HETATM   11  S11 UNL     1     -33.344  16.519  -4.956  1.00 20.00    -0.129 SA
ENDROOT
TORSDOF 0
ENDMDL
MODEL 8
REMARK VINA RESULT:      -4.1      2.507      3.667
REMARK  0 active torsions:
REMARK  status: ('A' for Active; 'I' for Inactive)
ROOT
HETATM    1  C1  UNL     1     -34.920  13.847  -5.744  1.00 20.00     0.000 C 
HETATM    2  C2  UNL     1     -34.261  15.032  -6.443  1.00 20.00     0.000 C 
HETATM    3  C3  UNL     1     -34.708  13.776  -4.231  1.00 20.00     0.004 C 
HETATM    4  C4  UNL     1     -34.621  16.408  -5.883  1.00 20.00     0.004 C 
HETATM    5  C5  UNL     1     -35.508  14.841  -3.475  1.00 20.00     0.049 C 
HETATM    6  C6  UNL     1     -33.978  16.671  -4.522  1.00 20.00     0.049 C 
HETATM    7  C7  UNL     1     -33.805  17.239  -1.448  1.00 20.00     0.180 C 
HETATM    8  C8  UNL     1     -35.230  17.692  -1.201  1.00 20.00     0.103 C 
HETATM    9  C9  UNL     1     -34.776  16.181  -3.302  1.00 20.00     0.108 C 
HETATM   10  O10 UNL     1     -33.848  16.024  -2.204  1.00 20.00    -0.369 OA
HETATM   11  S11 UNL     1     -36.009  17.450  -2.804  1.00 20.00    -0.129 SA
ENDROOT
TORSDOF 0
ENDMDL
MODEL 9
REMARK VINA RESULT:      -4.1      2.321      3.676
REMARK  0 active torsions:
REMARK  status: ('A' for Active; 'I' for Inactive)
ROOT
HETATM    1  C1  UNL     1     -33.811  18.961  -1.731  1.00 20.00     0.000 C 
HETATM    2  C2  UNL     1     -33.620  17.775  -0.791  1.00 20.00     0.000 C 
HETATM    3  C3  UNL     1     -33.740  18.635  -3.223  1.00 20.00     0.004 C 
HETATM    4  C4  UNL     1     -34.557  16.591  -1.028  1.00 20.00     0.004 C 
HETATM    5  C5  UNL     1     -34.972  17.870  -3.717  1.00 20.00     0.049 C 
HETATM    6  C6  UNL     1     -34.213  15.820  -2.302  1.00 20.00     0.049 C 
HETATM    7  C7  UNL     1     -34.589  14.631  -5.173  1.00 20.00     0.180 C 
HETATM    8  C8  UNL     1     -36.092  14.771  -5.302  1.00 20.00     0.103 C 
HETATM    9  C9  UNL     1     -34.863  16.343  -3.594  1.00 20.00     0.108 C 
HETATM   10  O10 UNL     1     -34.063  15.878  -4.706  1.00 20.00    -0.369 OA
HETATM   11  S11 UNL     1     -36.545  15.628  -3.787  1.00 20.00    -0.129 SA
ENDROOT
TORSDOF 0
ENDMDL
