MODEL 1
REMARK VINA RESULT:      -4.6      0.000      0.000
REMARK  0 active torsions:
REMARK  status: ('A' for Active; 'I' for Inactive)
ROOT
HETATM    1  C1  UNL     1     -35.152  14.321  -3.925  1.00 20.00    -0.013 A 
HETATM    2  C2  UNL     1     -34.304  15.235  -3.435  1.00 20.00    -0.070 A 
HETATM    3  C3  UNL     1     -36.506  14.799  -3.580  1.00 20.00     0.160 A 
HETATM    4  C4  UNL     1     -34.963  16.389  -2.712  1.00 20.00     0.022 A 
HETATM    5  C5  UNL     1     -36.472  16.111  -2.840  1.00 20.00     0.064 A 
HETATM    6  C6  UNL     1     -34.935  13.064  -4.677  1.00 20.00     0.052 C 
HETATM    7  C7  UNL     1     -32.815  15.222  -3.570  1.00 20.00     0.044 C 
HETATM    8  C8  UNL     1     -34.542  16.473  -1.244  1.00 20.00     0.015 C 
HETATM    9  C9  UNL     1     -37.204  17.187  -3.627  1.00 20.00     0.019 C 
HETATM   10  O10 UNL     1     -37.527  14.196  -3.879  1.00 20.00    -0.292 OA
ENDROOT
TORSDOF 0
ENDMDL
MODEL 2
REMARK VINA RESULT:      -4.5     11.822     12.541
REMARK  0 active torsions:
REMARK  status: ('A' for Active; 'I' for Inactive)
ROOT
HETATM    1  C1  UNL     1     -33.081   6.536   4.213  1.00 20.00    -0.013 A 
HETATM    2  C2  UNL     1     -33.669   6.490   5.416  1.00 20.00    -0.070 A 
HETATM    3  C3  UNL     1     -33.913   5.704   3.322  1.00 20.00     0.160 A 
HETATM    4  C4  UNL     1     -34.916   5.635   5.479  1.00 20.00     0.022 A 
HETATM    5  C5  UNL     1     -35.105   5.124   4.039  1.00 20.00     0.064 A 
HETATM    6  C6  UNL     1     -31.868   7.233   3.725  1.00 20.00     0.052 C 
HETATM    7  C7  UNL     1     -33.226   7.215   6.646  1.00 20.00     0.044 C 
HETATM    8  C8  UNL     1     -34.775   4.472   6.462  1.00 20.00     0.015 C 
HETATM    9  C9  UNL     1     -36.399   5.613   3.407  1.00 20.00     0.019 C 
HETATM   10  O10 UNL     1     -33.660   5.526   2.139  1.00 20.00    -0.292 OA
ENDROOT
TORSDOF 0
ENDMDL
MODEL 3
REMARK VINA RESULT:      -4.4     10.820     11.467
REMARK  0 active torsions:
REMARK  status: ('A' for Active; 'I' for Inactive)
ROOT
HETATM    1  C1  UNL     1     -41.908   5.284  -2.004  1.00 20.00    -0.013 A 
HETATM    2  C2  UNL     1     -41.605   6.385  -1.302  1.00 20.00    -0.070 A 
HETATM    3  C3  UNL     1     -42.911   5.703  -3.003  1.00 20.00     0.160 A 
HETATM    4  C4  UNL     1     -42.357   7.630  -1.721  1.00 20.00     0.022 A 
HETATM    5  C5  UNL     1     -43.226   7.173  -2.907  1.00 20.00     0.064 A 
HETATM    6  C6  UNL     1     -41.420   3.887  -1.923  1.00 20.00     0.052 C 
HETATM    7  C7  UNL     1     -40.598   6.484  -0.202  1.00 20.00     0.044 C 
HETATM    8  C8  UNL     1     -43.220   8.195  -0.593  1.00 20.00     0.015 C 
HETATM    9  C9  UNL     1     -42.867   7.882  -4.205  1.00 20.00     0.019 C 
HETATM   10  O10 UNL     1     -43.409   4.937  -3.816  1.00 20.00    -0.292 OA
ENDROOT
TORSDOF 0
ENDMDL
MODEL 4
REMARK VINA RESULT:      -4.3      2.351      3.744
REMARK  0 active torsions:
REMARK  status: ('A' for Active; 'I' for Inactive)
ROOT
HETATM    1  C1  UNL     1     -34.181  17.684  -4.069  1.00 20.00    -0.013 A 
HETATM    2  C2  UNL     1     -35.044  17.636  -3.044  1.00 20.00    -0.070 A 
HETATM    3  C3  UNL     1     -33.447  16.403  -4.042  1.00 20.00     0.160 A 
HETATM    4  C4  UNL     1     -34.982  16.366  -2.223  1.00 20.00     0.022 A 
HETATM    5  C5  UNL     1     -33.914  15.506  -2.924  1.00 20.00     0.064 A 
HETATM    6  C6  UNL     1     -33.913  18.718  -5.095  1.00 20.00     0.052 C 
HETATM    7  C7  UNL     1     -36.046  18.683  -2.682  1.00 20.00     0.044 C 
HETATM    8  C8  UNL     1     -34.603  16.633  -0.766  1.00 20.00     0.015 C 
HETATM    9  C9  UNL     1     -34.478  14.209  -3.482  1.00 20.00     0.019 C 
HETATM   10  O10 UNL     1     -32.574  16.113  -4.846  1.00 20.00    -0.292 OA
ENDROOT
TORSDOF 0
ENDMDL
MODEL 5
REMARK VINA RESULT:      -4.2      1.537      2.938
REMARK  0 active torsions:
REMARK  status: ('A' for Active; 'I' for Inactive)
ROOT
HETATM    1  C1  UNL     1     -34.899  15.703  -2.952  1.00 20.00    -0.013 A 
HETATM    2  C2  UNL     1     -34.637  14.641  -3.727  1.00 20.00    -0.070 A 
HETATM    3  C3  UNL     1     -36.235  16.182  -3.361  1.00 20.00     0.160 A 
HETATM    4  C4  UNL     1     -35.721  14.301  -4.725  1.00 20.00     0.022 A 
HETATM    5  C5  UNL     1     -36.831  15.333  -4.454  1.00 20.00     0.064 A 
HETATM    6  C6  UNL     1     -34.127  16.364  -1.875  1.00 20.00     0.052 C 
HETATM    7  C7  UNL     1     -33.418  13.778  -3.660  1.00 20.00     0.044 C 
HETATM    8  C8  UNL     1     -35.229  14.390  -6.170  1.00 20.00     0.015 C 
HETATM    9  C9  UNL     1     -38.128  14.692  -3.985  1.00 20.00     0.019 C 
HETATM   10  O10 UNL     1     -36.786  17.148  -2.853  1.00 20.00    -0.292 OA
ENDROOT
TORSDOF 0
ENDMDL
MODEL 6
REMARK VINA RESULT:      -4.2      2.115      3.138
REMARK  0 active torsions:
REMARK  status: ('A' for Active; 'I' for Inactive)
ROOT
HETATM    1  C1  UNL     1     -33.845  14.641  -4.328  1.00 20.00    -0.013 A 
HETATM    2  C2  UNL     1     -34.182  15.907  -4.616  1.00 20.00    -0.070 A 
HETATM    3  C3  UNL     1     -34.757  13.790  -5.117  1.00 20.00     0.160 A 
HETATM    4  C4  UNL     1     -35.333  16.051  -5.587  1.00 20.00     0.022 A 
HETATM    5  C5  UNL     1     -35.706  14.604  -5.959  1.00 20.00     0.064 A 
HETATM    6  C6  UNL     1     -32.806  14.065  -3.444  1.00 20.00     0.052 C 
HETATM    7  C7  UNL     1     -33.513  17.139  -4.098  1.00 20.00     0.044 C 
HETATM    8  C8  UNL     1     -36.524  16.786  -4.972  1.00 20.00     0.015 C 
HETATM    9  C9  UNL     1     -35.501  14.305  -7.436  1.00 20.00     0.019 C 
HETATM   10  O10 UNL     1     -34.726  12.568  -5.092  1.00 20.00    -0.292 OA
ENDROOT
TORSDOF 0
ENDMDL
MODEL 7
REMARK VINA RESULT:      -4.2      1.588      2.981
REMARK  0 active torsions:
REMARK  status: ('A' for Active; 'I' for Inactive)
ROOT
HETATM    1  C1  UNL     1     -35.200  14.541  -3.841  1.00 20.00    -0.013 A 
HETATM    2  C2  UNL     1     -36.356  15.178  -3.605  1.00 20.00    -0.070 A 
HETATM    3  C3  UNL     1     -34.143  15.386  -3.251  1.00 20.00     0.160 A 
HETATM    4  C4  UNL     1     -36.216  16.491  -2.867  1.00 20.00     0.022 A 
HETATM    5  C5  UNL     1     -34.706  16.619  -2.593  1.00 20.00     0.064 A 
HETATM    6  C6  UNL     1     -34.890  13.262  -4.521  1.00 20.00     0.052 C 
HETATM    7  C7  UNL     1     -37.722  14.695  -3.970  1.00 20.00     0.044 C 
HETATM    8  C8  UNL     1     -36.729  17.676  -3.686  1.00 20.00     0.015 C 
HETATM    9  C9  UNL     1     -34.378  16.630  -1.108  1.00 20.00     0.019 C 
HETATM   10  O10 UNL     1     -32.956  15.099  -3.287  1.00 20.00    -0.292 OA
ENDROOT
TORSDOF 0
ENDMDL
MODEL 8
REMARK VINA RESULT:      -4.2     11.886     12.727
REMARK  0 active torsions:
REMARK  status: ('A' for Active; 'I' for Inactive)
ROOT
HETATM    1  C1  UNL     1     -33.018   6.516   4.126  1.00 20.00    -0.013 A 
HETATM    2  C2  UNL     1     -33.829   5.737   3.397  1.00 20.00    -0.070 A 
HETATM    3  C3  UNL     1     -33.573   6.511   5.494  1.00 20.00     0.160 A 
HETATM    4  C4  UNL     1     -34.996   5.148   4.158  1.00 20.00     0.022 A 
HETATM    5  C5  UNL     1     -34.804   5.648   5.602  1.00 20.00     0.064 A 
HETATM    6  C6  UNL     1     -31.793   7.274   3.782  1.00 20.00     0.052 C 
HETATM    7  C7  UNL     1     -33.659   5.390   1.953  1.00 20.00     0.044 C 
HETATM    8  C8  UNL     1     -36.344   5.598   3.595  1.00 20.00     0.015 C 
HETATM    9  C9  UNL     1     -34.577   4.515   6.591  1.00 20.00     0.019 C 
HETATM   10  O10 UNL     1     -33.074   7.128   6.424  1.00 20.00    -0.292 OA
ENDROOT
TORSDOF 0
ENDMDL
MODEL 9
REMARK VINA RESULT:      -4.1      1.611      3.239
REMARK  0 active torsions:
REMARK  status: ('A' for Active; 'I' for Inactive)
ROOT
HETATM    1  C1  UNL     1     -36.100  14.915  -3.994  1.00 20.00    -0.013 A 
HETATM    2  C2  UNL     1     -35.392  16.053  -3.956  1.00 20.00    -0.070 A 
HETATM    3  C3  UNL     1     -35.128  13.842  -4.284  1.00 20.00     0.160 A 
HETATM    4  C4  UNL     1     -33.912  15.887  -4.223  1.00 20.00     0.022 A 
HETATM    5  C5  UNL     1     -33.722  14.371  -4.413  1.00 20.00     0.064 A 
HETATM    6  C6  UNL     1     -37.541  14.633  -3.799  1.00 20.00     0.052 C 
HETATM    7  C7  UNL     1     -35.923  17.416  -3.649  1.00 20.00     0.044 C 
HETATM    8  C8  UNL     1     -33.454  16.659  -5.461  1.00 20.00     0.015 C 
HETATM    9  C9  UNL     1     -32.820  13.754  -3.356  1.00 20.00     0.019 C 
HETATM   10  O10 UNL     1     -35.439  12.665  -4.390  1.00 20.00    -0.292 OA
ENDROOT
TORSDOF 0
ENDMDL
