MODEL 1
REMARK VINA RESULT:      -4.6      0.000      0.000
REMARK  3 active torsions:
REMARK  status: ('A' for Active; 'I' for Inactive)
REMARK    1  A    between atoms: C1_1  and  C5_5 
REMARK    2  A    between atoms: C2_2  and  C6_6 
REMARK    3  A    between atoms: C6_6  and  C7_7 
ROOT
HETATM    1  C1  UNL     1     -32.391   6.160   3.168  1.00 20.00     0.150 A 
HETATM    2  C2  UNL     1     -33.379   5.613   4.169  1.00 20.00     0.151 A 
HETATM    3  O8  UNL     1     -33.790   6.063   2.871  1.00 20.00    -0.376 OA
ENDROOT
BRANCH   2   4
HETATM    4  C6  UNL     1     -33.927   6.428   5.329  1.00 20.00     0.034 C 
BRANCH   4   5
HETATM    5  C7  UNL     1     -34.603   5.536   6.369  1.00 20.00    -0.002 C 
HETATM    6  C4  UNL     1     -34.929   4.165   5.799  1.00 20.00     0.005 C 
ENDBRANCH   4   5
ENDBRANCH   2   4
BRANCH   1   7
HETATM    7  C5  UNL     1     -31.860   7.547   3.223  1.00 20.00     0.030 C 
HETATM    8  C3  UNL     1     -32.063   8.311   1.938  1.00 20.00     0.007 C 
ENDBRANCH   1   7
TORSDOF 3
ENDMDL
MODEL 2
REMARK VINA RESULT:      -4.4      1.061      1.363
REMARK  3 active torsions:
REMARK  status: ('A' for Active; 'I' for Inactive)
REMARK    1  A    between atoms: C1_1  and  C5_5 
REMARK    2  A    between atoms: C2_2  and  C6_6 
REMARK    3  A    between atoms: C6_6  and  C7_7 
ROOT
HETATM    1  C1  UNL     1     -32.059   7.237   3.265  1.00 20.00     0.150 A 
HETATM    2  C2  UNL     1     -32.905   6.195   3.956  1.00 20.00     0.151 A 
HETATM    3  O8  UNL     1     -32.125   5.885   2.793  1.00 20.00    -0.376 OA
ENDROOT
BRANCH   2   4
HETATM    4  C6  UNL     1     -34.409   6.083   3.764  1.00 20.00     0.034 C 
BRANCH   4   5
HETATM    5  C7  UNL     1     -35.005   4.990   4.648  1.00 20.00    -0.002 C 
HETATM    6  C4  UNL     1     -34.694   5.231   6.117  1.00 20.00     0.005 C 
ENDBRANCH   4   5
ENDBRANCH   2   4
BRANCH   1   7
HETATM    7  C5  UNL     1     -32.616   8.251   2.332  1.00 20.00     0.030 C 
HETATM    8  C3  UNL     1     -31.726   8.516   1.144  1.00 20.00     0.007 C 
ENDBRANCH   1   7
TORSDOF 3
ENDMDL
MODEL 3
REMARK VINA RESULT:      -4.3      0.882      4.147
REMARK  3 active torsions:
REMARK  status: ('A' for Active; 'I' for Inactive)
REMARK    1  A    between atoms: C1_1  and  C5_5 
REMARK    2  A    between atoms: C2_2  and  C6_6 
REMARK    3  A    between atoms: C6_6  and  C7_7 
ROOT
HETATM    1  C1  UNL     1     -34.800   5.962   4.249  1.00 20.00     0.150 A 
HETATM    2  C2  UNL     1     -33.809   6.290   3.159  1.00 20.00     0.151 A 
HETATM    3  O8  UNL     1     -34.509   5.039   3.192  1.00 20.00    -0.376 OA
ENDROOT
BRANCH   2   4
HETATM    4  C6  UNL     1     -32.304   6.183   3.342  1.00 20.00     0.034 C 
BRANCH   4   5
HETATM    5  C7  UNL     1     -31.629   7.549   3.229  1.00 20.00    -0.002 C 
HETATM    6  C4  UNL     1     -32.051   8.275   1.962  1.00 20.00     0.005 C 
ENDBRANCH   4   5
ENDBRANCH   2   4
BRANCH   1   7
HETATM    7  C5  UNL     1     -34.398   5.504   5.605  1.00 20.00     0.030 C 
HETATM    8  C3  UNL     1     -34.910   4.126   5.941  1.00 20.00     0.007 C 
ENDBRANCH   1   7
TORSDOF 3
ENDMDL
MODEL 4
REMARK VINA RESULT:      -4.2      1.074      1.723
REMARK  3 active torsions:
REMARK  status: ('A' for Active; 'I' for Inactive)
REMARK    1  A    between atoms: C1_1  and  C5_5 
REMARK    2  A    between atoms: C2_2  and  C6_6 
REMARK    3  A    between atoms: C6_6  and  C7_7 
ROOT
HETATM    1  C1  UNL     1     -33.927   5.604   2.975  1.00 20.00     0.150 A 
HETATM    2  C2  UNL     1     -34.787   4.931   4.017  1.00 20.00     0.151 A 
HETATM    3  O8  UNL     1     -34.902   6.332   3.733  1.00 20.00    -0.376 OA
ENDROOT
BRANCH   2   4
HETATM    4  C6  UNL     1     -34.295   4.601   5.417  1.00 20.00     0.034 C 
BRANCH   4   5
HETATM    5  C7  UNL     1     -34.781   5.629   6.436  1.00 20.00    -0.002 C 
HETATM    6  C4  UNL     1     -33.776   6.757   6.612  1.00 20.00     0.005 C 
ENDBRANCH   4   5
ENDBRANCH   2   4
BRANCH   1   7
HETATM    7  C5  UNL     1     -32.518   6.008   3.220  1.00 20.00     0.030 C 
HETATM    8  C3  UNL     1     -32.209   7.404   2.739  1.00 20.00     0.007 C 
ENDBRANCH   1   7
TORSDOF 3
ENDMDL
MODEL 5
REMARK VINA RESULT:      -4.1      1.487      3.822
REMARK  3 active torsions:
REMARK  status: ('A' for Active; 'I' for Inactive)
REMARK    1  A    between atoms: C1_1  and  C5_5 
REMARK    2  A    between atoms: C2_2  and  C6_6 
REMARK    3  A    between atoms: C6_6  and  C7_7 
ROOT
HETATM    1  C1  UNL     1     -35.223   5.289   5.120  1.00 20.00     0.150 A 
HETATM    2  C2  UNL     1     -34.858   5.337   3.656  1.00 20.00     0.151 A 
HETATM    3  O8  UNL     1     -35.140   4.100   4.323  1.00 20.00    -0.376 OA
ENDROOT
BRANCH   2   4
HETATM    4  C6  UNL     1     -33.429   5.482   3.159  1.00 20.00     0.034 C 
BRANCH   4   5
HETATM    5  C7  UNL     1     -33.063   6.947   2.928  1.00 20.00    -0.002 C 
HETATM    6  C4  UNL     1     -31.718   7.289   3.548  1.00 20.00     0.005 C 
ENDBRANCH   4   5
ENDBRANCH   2   4
BRANCH   1   7
HETATM    7  C5  UNL     1     -34.220   5.377   6.213  1.00 20.00     0.030 C 
HETATM    8  C3  UNL     1     -33.903   6.796   6.614  1.00 20.00     0.007 C 
ENDBRANCH   1   7
TORSDOF 3
ENDMDL
MODEL 6
REMARK VINA RESULT:      -4.0     11.112     12.066
REMARK  3 active torsions:
REMARK  status: ('A' for Active; 'I' for Inactive)
REMARK    1  A    between atoms: C1_1  and  C5_5 
REMARK    2  A    between atoms: C2_2  and  C6_6 
REMARK    3  A    between atoms: C6_6  and  C7_7 
ROOT
HETATM    1  C1  UNL     1     -34.398  13.514  -5.151  1.00 20.00     0.150 A 
HETATM    2  C2  UNL     1     -34.316  13.848  -3.682  1.00 20.00     0.151 A 
HETATM    3  O8  UNL     1     -35.137  12.778  -4.168  1.00 20.00    -0.376 OA
ENDROOT
BRANCH   2   4
HETATM    4  C6  UNL     1     -35.078  14.999  -3.046  1.00 20.00     0.034 C 
BRANCH   4   5
HETATM    5  C7  UNL     1     -34.129  16.038  -2.453  1.00 20.00    -0.002 C 
HETATM    6  C4  UNL     1     -34.611  16.522  -1.094  1.00 20.00     0.005 C 
ENDBRANCH   4   5
ENDBRANCH   2   4
BRANCH   1   7
HETATM    7  C5  UNL     1     -35.232  14.278  -6.115  1.00 20.00     0.030 C 
HETATM    8  C3  UNL     1     -34.418  15.013  -7.151  1.00 20.00     0.007 C 
ENDBRANCH   1   7
TORSDOF 3
ENDMDL
MODEL 7
REMARK VINA RESULT:      -3.9      0.917      4.399
REMARK  3 active torsions:
REMARK  status: ('A' for Active; 'I' for Inactive)
REMARK    1  A    between atoms: C1_1  and  C5_5 
REMARK    2  A    between atoms: C2_2  and  C6_6 
REMARK    3  A    between atoms: C6_6  and  C7_7 
ROOT
HETATM    1  C1  UNL     1     -33.758   5.961   3.941  1.00 20.00     0.150 A 
HETATM    2  C2  UNL     1     -32.965   6.536   2.792  1.00 20.00     0.151 A 
HETATM    3  O8  UNL     1     -32.508   5.393   3.528  1.00 20.00    -0.376 OA
ENDROOT
BRANCH   2   4
HETATM    4  C6  UNL     1     -32.088   7.770   2.922  1.00 20.00     0.034 C 
BRANCH   4   5
HETATM    5  C7  UNL     1     -31.870   8.446   1.569  1.00 20.00    -0.002 C 
HETATM    6  C4  UNL     1     -32.512   9.823   1.525  1.00 20.00     0.005 C 
ENDBRANCH   4   5
ENDBRANCH   2   4
BRANCH   1   7
HETATM    7  C5  UNL     1     -33.756   6.548   5.306  1.00 20.00     0.030 C 
HETATM    8  C3  UNL     1     -34.455   5.682   6.325  1.00 20.00     0.007 C 
ENDBRANCH   1   7
TORSDOF 3
ENDMDL
MODEL 8
REMARK VINA RESULT:      -3.6      1.491      4.290
REMARK  3 active torsions:
REMARK  status: ('A' for Active; 'I' for Inactive)
REMARK    1  A    between atoms: C1_1  and  C5_5 
REMARK    2  A    between atoms: C2_2  and  C6_6 
REMARK    3  A    between atoms: C6_6  and  C7_7 
ROOT
HETATM    1  C1  UNL     1     -33.999   5.601   6.391  1.00 20.00     0.150 A 
HETATM    2  C2  UNL     1     -33.263   6.507   5.433  1.00 20.00     0.151 A 
HETATM    3  O8  UNL     1     -34.172   7.024   6.415  1.00 20.00    -0.376 OA
ENDROOT
BRANCH   2   4
HETATM    4  C6  UNL     1     -33.693   6.719   3.991  1.00 20.00     0.034 C 
BRANCH   4   5
HETATM    5  C7  UNL     1     -32.525   6.531   3.026  1.00 20.00    -0.002 C 
HETATM    6  C4  UNL     1     -32.094   7.852   2.409  1.00 20.00     0.005 C 
ENDBRANCH   4   5
ENDBRANCH   2   4
BRANCH   1   7
HETATM    7  C5  UNL     1     -35.213   4.831   6.014  1.00 20.00     0.030 C 
HETATM    8  C3  UNL     1     -34.914   3.651   5.122  1.00 20.00     0.007 C 
ENDBRANCH   1   7
TORSDOF 3
ENDMDL
MODEL 9
REMARK VINA RESULT:      -3.5     11.981     13.017
REMARK  3 active torsions:
REMARK  status: ('A' for Active; 'I' for Inactive)
REMARK    1  A    between atoms: C1_1  and  C5_5 
REMARK    2  A    between atoms: C2_2  and  C6_6 
REMARK    3  A    between atoms: C6_6  and  C7_7 
ROOT
HETATM    1  C1  UNL     1     -33.917  16.269  -5.347  1.00 20.00     0.150 A 
HETATM    2  C2  UNL     1     -33.753  16.576  -3.878  1.00 20.00     0.151 A 
HETATM    3  O8  UNL     1     -32.644  16.176  -4.695  1.00 20.00    -0.376 OA
ENDROOT
BRANCH   2   4
HETATM    4  C6  UNL     1     -34.119  15.596  -2.776  1.00 20.00     0.034 C 
BRANCH   4   5
HETATM    5  C7  UNL     1     -34.678  16.316  -1.551  1.00 20.00    -0.002 C 
HETATM    6  C4  UNL     1     -33.724  17.389  -1.051  1.00 20.00     0.005 C 
ENDBRANCH   4   5
ENDBRANCH   2   4
BRANCH   1   7
HETATM    7  C5  UNL     1     -34.453  14.978  -5.853  1.00 20.00     0.030 C 
HETATM    8  C3  UNL     1     -34.536  14.920  -7.358  1.00 20.00     0.007 C 
ENDBRANCH   1   7
TORSDOF 3
ENDMDL
