MODEL 1
REMARK VINA RESULT:      -3.9      0.000      0.000
REMARK  3 active torsions:
REMARK  status: ('A' for Active; 'I' for Inactive)
REMARK    1  A    between atoms: C1_1  and  C5_5 
REMARK    2  A    between atoms: C1_1  and  O8_8 
REMARK    3  A    between atoms: C6_6  and  O8_8 
ROOT
HETATM    1  O8  UNL     1     -33.103   5.319   4.559  1.00 20.00    -0.310 OA
ENDROOT
BRANCH   1   2
HETATM    2  C1  UNL     1     -33.011   5.942   3.344  1.00 20.00     0.273 C 
HETATM    3  O7  UNL     1     -33.596   5.601   2.325  1.00 20.00    -0.264 OA
BRANCH   2   4
HETATM    4  C5  UNL     1     -32.075   7.113   3.475  1.00 20.00     0.225 C 
HETATM    5 CL9  UNL     1     -32.073   8.063   1.980  1.00 20.00    -0.120 Cl
ENDBRANCH   2   4
ENDBRANCH   1   2
BRANCH   1   6
HETATM    6  C6  UNL     1     -34.375   5.404   5.203  1.00 20.00     0.060 C 
HETATM    7  C2  UNL     1     -34.734   4.024   5.751  1.00 20.00     0.045 C 
HETATM    8  C3  UNL     1     -34.249   6.417   6.339  1.00 20.00     0.045 C 
HETATM    9  C4  UNL     1     -35.409   5.869   4.179  1.00 20.00     0.045 C 
ENDBRANCH   1   6
TORSDOF 3
ENDMDL
MODEL 2
REMARK VINA RESULT:      -3.8     11.862     12.551
REMARK  3 active torsions:
REMARK  status: ('A' for Active; 'I' for Inactive)
REMARK    1  A    between atoms: C1_1  and  C5_5 
REMARK    2  A    between atoms: C1_1  and  O8_8 
REMARK    3  A    between atoms: C6_6  and  O8_8 
ROOT
HETATM    1  O8  UNL     1     -35.650  14.871  -3.407  1.00 20.00    -0.310 OA
ENDROOT
BRANCH   1   2
HETATM    2  C1  UNL     1     -35.414  13.950  -4.391  1.00 20.00     0.273 C 
HETATM    3  O7  UNL     1     -34.918  12.845  -4.225  1.00 20.00    -0.264 OA
BRANCH   2   4
HETATM    4  C5  UNL     1     -35.871  14.526  -5.705  1.00 20.00     0.225 C 
HETATM    5 CL9  UNL     1     -34.498  14.681  -6.813  1.00 20.00    -0.120 Cl
ENDBRANCH   2   4
ENDBRANCH   1   2
BRANCH   1   6
HETATM    6  C6  UNL     1     -34.583  15.784  -3.145  1.00 20.00     0.060 C 
HETATM    7  C2  UNL     1     -34.782  17.026  -4.012  1.00 20.00     0.045 C 
HETATM    8  C3  UNL     1     -34.642  16.147  -1.663  1.00 20.00     0.045 C 
HETATM    9  C4  UNL     1     -33.261  15.094  -3.477  1.00 20.00     0.045 C 
ENDBRANCH   1   6
TORSDOF 3
ENDMDL
MODEL 3
REMARK VINA RESULT:      -3.8     11.958     12.723
REMARK  3 active torsions:
REMARK  status: ('A' for Active; 'I' for Inactive)
REMARK    1  A    between atoms: C1_1  and  C5_5 
REMARK    2  A    between atoms: C1_1  and  O8_8 
REMARK    3  A    between atoms: C6_6  and  O8_8 
ROOT
HETATM    1  O8  UNL     1     -34.374  14.987  -4.389  1.00 20.00    -0.310 OA
ENDROOT
BRANCH   1   2
HETATM    2  C1  UNL     1     -34.846  13.821  -4.929  1.00 20.00     0.273 C 
HETATM    3  O7  UNL     1     -34.948  12.756  -4.338  1.00 20.00    -0.264 OA
BRANCH   2   4
HETATM    4  C5  UNL     1     -35.217  14.075  -6.365  1.00 20.00     0.225 C 
HETATM    5 CL9  UNL     1     -34.147  15.302  -7.064  1.00 20.00    -0.120 Cl
ENDBRANCH   2   4
ENDBRANCH   1   2
BRANCH   1   6
HETATM    6  C6  UNL     1     -35.299  15.712  -3.577  1.00 20.00     0.060 C 
HETATM    7  C2  UNL     1     -34.717  15.836  -2.170  1.00 20.00     0.045 C 
HETATM    8  C3  UNL     1     -35.482  17.091  -4.207  1.00 20.00     0.045 C 
HETATM    9  C4  UNL     1     -36.625  14.952  -3.553  1.00 20.00     0.045 C 
ENDBRANCH   1   6
TORSDOF 3
ENDMDL
MODEL 4
REMARK VINA RESULT:      -3.8     11.954     12.703
REMARK  3 active torsions:
REMARK  status: ('A' for Active; 'I' for Inactive)
REMARK    1  A    between atoms: C1_1  and  C5_5 
REMARK    2  A    between atoms: C1_1  and  O8_8 
REMARK    3  A    between atoms: C6_6  and  O8_8 
ROOT
HETATM    1  O8  UNL     1     -34.388  14.974  -4.398  1.00 20.00    -0.310 OA
ENDROOT
BRANCH   1   2
HETATM    2  C1  UNL     1     -34.856  13.811  -4.947  1.00 20.00     0.273 C 
HETATM    3  O7  UNL     1     -34.973  12.745  -4.358  1.00 20.00    -0.264 OA
BRANCH   2   4
HETATM    4  C5  UNL     1     -35.201  14.068  -6.389  1.00 20.00     0.225 C 
HETATM    5 CL9  UNL     1     -34.145  15.324  -7.055  1.00 20.00    -0.120 Cl
ENDBRANCH   2   4
ENDBRANCH   1   2
BRANCH   1   6
HETATM    6  C6  UNL     1     -35.322  15.701  -3.599  1.00 20.00     0.060 C 
HETATM    7  C2  UNL     1     -36.643  14.934  -3.578  1.00 20.00     0.045 C 
HETATM    8  C3  UNL     1     -34.739  15.807  -2.191  1.00 20.00     0.045 C 
HETATM    9  C4  UNL     1     -35.507  17.089  -4.210  1.00 20.00     0.045 C 
ENDBRANCH   1   6
TORSDOF 3
ENDMDL
MODEL 5
REMARK VINA RESULT:      -3.8     11.858     12.544
REMARK  3 active torsions:
REMARK  status: ('A' for Active; 'I' for Inactive)
REMARK    1  A    between atoms: C1_1  and  C5_5 
REMARK    2  A    between atoms: C1_1  and  O8_8 
REMARK    3  A    between atoms: C6_6  and  O8_8 
ROOT
HETATM    1  O8  UNL     1     -35.615  14.894  -3.417  1.00 20.00    -0.310 OA
ENDROOT
BRANCH   1   2
HETATM    2  C1  UNL     1     -35.385  13.952  -4.382  1.00 20.00     0.273 C 
HETATM    3  O7  UNL     1     -34.879  12.854  -4.196  1.00 20.00    -0.264 OA
BRANCH   2   4
HETATM    4  C5  UNL     1     -35.860  14.494  -5.704  1.00 20.00     0.225 C 
HETATM    5 CL9  UNL     1     -34.495  14.662  -6.820  1.00 20.00    -0.120 Cl
ENDBRANCH   2   4
ENDBRANCH   1   2
BRANCH   1   6
HETATM    6  C6  UNL     1     -34.530  15.784  -3.149  1.00 20.00     0.060 C 
HETATM    7  C2  UNL     1     -33.223  15.077  -3.503  1.00 20.00     0.045 C 
HETATM    8  C3  UNL     1     -34.725  17.023  -4.020  1.00 20.00     0.045 C 
HETATM    9  C4  UNL     1     -34.563  16.158  -1.668  1.00 20.00     0.045 C 
ENDBRANCH   1   6
TORSDOF 3
ENDMDL
MODEL 6
REMARK VINA RESULT:      -3.8     11.913     13.244
REMARK  3 active torsions:
REMARK  status: ('A' for Active; 'I' for Inactive)
REMARK    1  A    between atoms: C1_1  and  C5_5 
REMARK    2  A    between atoms: C1_1  and  O8_8 
REMARK    3  A    between atoms: C6_6  and  O8_8 
ROOT
HETATM    1  O8  UNL     1     -34.159  14.534  -5.682  1.00 20.00    -0.310 OA
ENDROOT
BRANCH   1   2
HETATM    2  C1  UNL     1     -34.521  13.648  -4.704  1.00 20.00     0.273 C 
HETATM    3  O7  UNL     1     -34.931  12.512  -4.892  1.00 20.00    -0.264 OA
BRANCH   2   4
HETATM    4  C5  UNL     1     -34.328  14.309  -3.365  1.00 20.00     0.225 C 
HETATM    5 CL9  UNL     1     -33.070  15.551  -3.473  1.00 20.00    -0.120 Cl
ENDBRANCH   2   4
ENDBRANCH   1   2
BRANCH   1   6
HETATM    6  C6  UNL     1     -35.237  15.160  -6.380  1.00 20.00     0.060 C 
HETATM    7  C2  UNL     1     -36.484  15.103  -5.499  1.00 20.00     0.045 C 
HETATM    8  C3  UNL     1     -34.832  16.609  -6.646  1.00 20.00     0.045 C 
HETATM    9  C4  UNL     1     -35.464  14.415  -7.694  1.00 20.00     0.045 C 
ENDBRANCH   1   6
TORSDOF 3
ENDMDL
MODEL 7
REMARK VINA RESULT:      -3.7     11.908     12.775
REMARK  3 active torsions:
REMARK  status: ('A' for Active; 'I' for Inactive)
REMARK    1  A    between atoms: C1_1  and  C5_5 
REMARK    2  A    between atoms: C1_1  and  O8_8 
REMARK    3  A    between atoms: C6_6  and  O8_8 
ROOT
HETATM    1  O8  UNL     1     -34.979  16.034  -4.352  1.00 20.00    -0.310 OA
ENDROOT
BRANCH   1   2
HETATM    2  C1  UNL     1     -33.718  16.391  -3.957  1.00 20.00     0.273 C 
HETATM    3  O7  UNL     1     -32.682  16.081  -4.526  1.00 20.00    -0.264 OA
BRANCH   2   4
HETATM    4  C5  UNL     1     -33.827  17.227  -2.710  1.00 20.00     0.225 C 
HETATM    5 CL9  UNL     1     -34.590  16.293  -1.413  1.00 20.00    -0.120 Cl
ENDBRANCH   2   4
ENDBRANCH   1   2
BRANCH   1   6
HETATM    6  C6  UNL     1     -35.192  14.637  -4.556  1.00 20.00     0.060 C 
HETATM    7  C2  UNL     1     -34.179  13.864  -3.713  1.00 20.00     0.045 C 
HETATM    8  C3  UNL     1     -36.617  14.319  -4.109  1.00 20.00     0.045 C 
HETATM    9  C4  UNL     1     -35.012  14.328  -6.041  1.00 20.00     0.045 C 
ENDBRANCH   1   6
TORSDOF 3
ENDMDL
MODEL 8
REMARK VINA RESULT:      -3.6      2.422      3.837
REMARK  3 active torsions:
REMARK  status: ('A' for Active; 'I' for Inactive)
REMARK    1  A    between atoms: C1_1  and  C5_5 
REMARK    2  A    between atoms: C1_1  and  O8_8 
REMARK    3  A    between atoms: C6_6  and  O8_8 
ROOT
HETATM    1  O8  UNL     1     -33.639   7.247   3.755  1.00 20.00    -0.310 OA
ENDROOT
BRANCH   1   2
HETATM    2  C1  UNL     1     -34.247   6.055   4.040  1.00 20.00     0.273 C 
HETATM    3  O7  UNL     1     -34.734   5.292   3.217  1.00 20.00    -0.264 OA
BRANCH   2   4
HETATM    4  C5  UNL     1     -34.212   5.844   5.530  1.00 20.00     0.225 C 
HETATM    5 CL9  UNL     1     -34.945   4.285   5.942  1.00 20.00    -0.120 Cl
ENDBRANCH   2   4
ENDBRANCH   1   2
BRANCH   1   6
HETATM    6  C6  UNL     1     -32.316   7.156   3.224  1.00 20.00     0.060 C 
HETATM    7  C2  UNL     1     -32.245   7.997   1.951  1.00 20.00     0.045 C 
HETATM    8  C3  UNL     1     -31.358   7.700   4.282  1.00 20.00     0.045 C 
HETATM    9  C4  UNL     1     -32.012   5.689   2.926  1.00 20.00     0.045 C 
ENDBRANCH   1   6
TORSDOF 3
ENDMDL
MODEL 9
REMARK VINA RESULT:      -3.6      9.687     10.769
REMARK  3 active torsions:
REMARK  status: ('A' for Active; 'I' for Inactive)
REMARK    1  A    between atoms: C1_1  and  C5_5 
REMARK    2  A    between atoms: C1_1  and  O8_8 
REMARK    3  A    between atoms: C6_6  and  O8_8 
ROOT
HETATM    1  O8  UNL     1     -41.445   6.500  -2.353  1.00 20.00    -0.310 OA
ENDROOT
BRANCH   1   2
HETATM    2  C1  UNL     1     -42.576   6.637  -3.112  1.00 20.00     0.273 C 
HETATM    3  O7  UNL     1     -43.194   5.721  -3.635  1.00 20.00    -0.264 OA
BRANCH   2   4
HETATM    4  C5  UNL     1     -42.927   8.099  -3.188  1.00 20.00     0.225 C 
HETATM    5 CL9  UNL     1     -42.226   8.818  -4.647  1.00 20.00    -0.120 Cl
ENDBRANCH   2   4
ENDBRANCH   1   2
BRANCH   1   6
HETATM    6  C6  UNL     1     -41.568   5.660  -1.204  1.00 20.00     0.060 C 
HETATM    7  C2  UNL     1     -41.192   4.234  -1.603  1.00 20.00     0.045 C 
HETATM    8  C3  UNL     1     -40.610   6.191  -0.141  1.00 20.00     0.045 C 
HETATM    9  C4  UNL     1     -43.012   5.724  -0.708  1.00 20.00     0.045 C 
ENDBRANCH   1   6
TORSDOF 3
ENDMDL
