MODEL 1
REMARK VINA RESULT:      -4.4      0.000      0.000
REMARK  3 active torsions:
REMARK  status: ('A' for Active; 'I' for Inactive)
REMARK    1  A    between atoms: C2_2  and  C7_7 
REMARK    2  A    between atoms: C5_5  and  C6_6 
REMARK    3  A    between atoms: C6_6  and  C7_7 
ROOT
HETATM    1  C4  UNL     1     -35.243   5.400   3.667  1.00 20.00     0.012 C 
HETATM    2  C7  UNL     1     -34.061   6.279   4.076  1.00 20.00     0.012 C 
ENDROOT
BRANCH   2   3
HETATM    3  C2  UNL     1     -33.643   5.946   5.510  1.00 20.00     0.149 A 
HETATM    4  C1  UNL     1     -33.837   6.932   6.628  1.00 20.00     0.200 A 
HETATM    5  O8  UNL     1     -34.731   5.825   6.433  1.00 20.00    -0.381 OA
ENDBRANCH   2   3
BRANCH   2   6
HETATM    6  C6  UNL     1     -32.855   6.120   3.131  1.00 20.00     0.006 C 
BRANCH   6   7
HETATM    7  C5  UNL     1     -31.874   7.294   3.191  1.00 20.00    -0.004 C 
HETATM    8  C3  UNL     1     -32.099   8.263   2.040  1.00 20.00     0.005 C 
ENDBRANCH   6   7
ENDBRANCH   2   6
TORSDOF 3
ENDMDL
MODEL 2
REMARK VINA RESULT:      -4.2      1.986      3.954
REMARK  3 active torsions:
REMARK  status: ('A' for Active; 'I' for Inactive)
REMARK    1  A    between atoms: C2_2  and  C7_7 
REMARK    2  A    between atoms: C5_5  and  C6_6 
REMARK    3  A    between atoms: C6_6  and  C7_7 
ROOT
HETATM    1  C4  UNL     1     -33.450   6.804   5.395  1.00 20.00     0.012 C 
HETATM    2  C7  UNL     1     -33.721   6.621   3.901  1.00 20.00     0.012 C 
ENDROOT
BRANCH   2   3
HETATM    3  C2  UNL     1     -32.402   6.682   3.127  1.00 20.00     0.149 A 
HETATM    4  C1  UNL     1     -32.033   7.888   2.309  1.00 20.00     0.200 A 
HETATM    5  O8  UNL     1     -31.473   7.658   3.612  1.00 20.00    -0.381 OA
ENDBRANCH   2   3
BRANCH   2   6
HETATM    6  C6  UNL     1     -34.446   5.298   3.594  1.00 20.00     0.006 C 
BRANCH   6   7
HETATM    7  C5  UNL     1     -35.462   4.896   4.665  1.00 20.00    -0.004 C 
HETATM    8  C3  UNL     1     -34.882   3.863   5.620  1.00 20.00     0.005 C 
ENDBRANCH   6   7
ENDBRANCH   2   6
TORSDOF 3
ENDMDL
MODEL 3
REMARK VINA RESULT:      -4.2      1.179      2.078
REMARK  3 active torsions:
REMARK  status: ('A' for Active; 'I' for Inactive)
REMARK    1  A    between atoms: C2_2  and  C7_7 
REMARK    2  A    between atoms: C5_5  and  C6_6 
REMARK    3  A    between atoms: C6_6  and  C7_7 
ROOT
HETATM    1  C4  UNL     1     -33.774   6.908   6.399  1.00 20.00     0.012 C 
HETATM    2  C7  UNL     1     -33.765   6.007   5.163  1.00 20.00     0.012 C 
ENDROOT
BRANCH   2   3
HETATM    3  C2  UNL     1     -35.038   5.157   5.137  1.00 20.00     0.149 A 
HETATM    4  C1  UNL     1     -34.972   3.655   5.161  1.00 20.00     0.200 A 
HETATM    5  O8  UNL     1     -35.283   4.417   6.338  1.00 20.00    -0.381 OA
ENDBRANCH   2   3
BRANCH   2   6
HETATM    6  C6  UNL     1     -33.646   6.808   3.853  1.00 20.00     0.006 C 
BRANCH   6   7
HETATM    7  C5  UNL     1     -32.228   6.823   3.275  1.00 20.00    -0.004 C 
HETATM    8  C3  UNL     1     -32.046   7.966   2.288  1.00 20.00     0.005 C 
ENDBRANCH   6   7
ENDBRANCH   2   6
TORSDOF 3
ENDMDL
MODEL 4
REMARK VINA RESULT:      -3.7      1.833      3.667
REMARK  3 active torsions:
REMARK  status: ('A' for Active; 'I' for Inactive)
REMARK    1  A    between atoms: C2_2  and  C7_7 
REMARK    2  A    between atoms: C5_5  and  C6_6 
REMARK    3  A    between atoms: C6_6  and  C7_7 
ROOT
HETATM    1  C4  UNL     1     -34.597   5.486   2.793  1.00 20.00     0.012 C 
HETATM    2  C7  UNL     1     -33.509   5.653   3.855  1.00 20.00     0.012 C 
ENDROOT
BRANCH   2   3
HETATM    3  C2  UNL     1     -32.243   6.225   3.211  1.00 20.00     0.149 A 
HETATM    4  C1  UNL     1     -32.241   7.587   2.573  1.00 20.00     0.200 A 
HETATM    5  O8  UNL     1     -31.698   7.365   3.884  1.00 20.00    -0.381 OA
ENDBRANCH   2   3
BRANCH   2   6
HETATM    6  C6  UNL     1     -33.957   6.558   5.017  1.00 20.00     0.006 C 
BRANCH   6   7
HETATM    7  C5  UNL     1     -34.282   5.788   6.300  1.00 20.00    -0.004 C 
HETATM    8  C3  UNL     1     -34.896   4.431   5.990  1.00 20.00     0.005 C 
ENDBRANCH   6   7
ENDBRANCH   2   6
TORSDOF 3
ENDMDL
MODEL 5
REMARK VINA RESULT:      -3.7     11.199     11.884
REMARK  3 active torsions:
REMARK  status: ('A' for Active; 'I' for Inactive)
REMARK    1  A    between atoms: C2_2  and  C7_7 
REMARK    2  A    between atoms: C5_5  and  C6_6 
REMARK    3  A    between atoms: C6_6  and  C7_7 
ROOT
HETATM    1  C4  UNL     1     -32.751  15.195  -3.475  1.00 20.00     0.012 C 
HETATM    2  C7  UNL     1     -34.278  15.210  -3.571  1.00 20.00     0.012 C 
ENDROOT
BRANCH   2   3
HETATM    3  C2  UNL     1     -34.791  13.794  -3.846  1.00 20.00     0.149 A 
HETATM    4  C1  UNL     1     -35.017  13.307  -5.250  1.00 20.00     0.200 A 
HETATM    5  O8  UNL     1     -33.848  12.938  -4.501  1.00 20.00    -0.381 OA
ENDBRANCH   2   3
BRANCH   2   6
HETATM    6  C6  UNL     1     -34.941  15.767  -2.298  1.00 20.00     0.006 C 
BRANCH   6   7
HETATM    7  C5  UNL     1     -34.063  16.766  -1.539  1.00 20.00    -0.004 C 
HETATM    8  C3  UNL     1     -34.668  17.122  -0.191  1.00 20.00     0.005 C 
ENDBRANCH   6   7
ENDBRANCH   2   6
TORSDOF 3
ENDMDL
MODEL 6
REMARK VINA RESULT:      -3.6     11.076     12.011
REMARK  3 active torsions:
REMARK  status: ('A' for Active; 'I' for Inactive)
REMARK    1  A    between atoms: C2_2  and  C7_7 
REMARK    2  A    between atoms: C5_5  and  C6_6 
REMARK    3  A    between atoms: C6_6  and  C7_7 
ROOT
HETATM    1  C4  UNL     1     -34.325  13.667  -3.695  1.00 20.00     0.012 C 
HETATM    2  C7  UNL     1     -34.797  15.121  -3.677  1.00 20.00     0.012 C 
ENDROOT
BRANCH   2   3
HETATM    3  C2  UNL     1     -36.278  15.177  -3.294  1.00 20.00     0.149 A 
HETATM    4  C1  UNL     1     -37.341  15.424  -4.328  1.00 20.00     0.200 A 
HETATM    5  O8  UNL     1     -37.069  14.107  -3.823  1.00 20.00    -0.381 OA
ENDBRANCH   2   3
BRANCH   2   6
HETATM    6  C6  UNL     1     -33.975  15.994  -2.710  1.00 20.00     0.006 C 
BRANCH   6   7
HETATM    7  C5  UNL     1     -34.710  16.318  -1.407  1.00 20.00    -0.004 C 
HETATM    8  C3  UNL     1     -34.016  17.437  -0.644  1.00 20.00     0.005 C 
ENDBRANCH   6   7
ENDBRANCH   2   6
TORSDOF 3
ENDMDL
MODEL 7
REMARK VINA RESULT:      -3.6     11.434     12.367
REMARK  3 active torsions:
REMARK  status: ('A' for Active; 'I' for Inactive)
REMARK    1  A    between atoms: C2_2  and  C7_7 
REMARK    2  A    between atoms: C5_5  and  C6_6 
REMARK    3  A    between atoms: C6_6  and  C7_7 
ROOT
HETATM    1  C4  UNL     1     -33.306  16.491  -5.116  1.00 20.00     0.012 C 
HETATM    2  C7  UNL     1     -34.096  15.782  -4.015  1.00 20.00     0.012 C 
ENDROOT
BRANCH   2   3
HETATM    3  C2  UNL     1     -33.932  14.266  -4.158  1.00 20.00     0.149 A 
HETATM    4  C1  UNL     1     -35.127  13.359  -4.257  1.00 20.00     0.200 A 
HETATM    5  O8  UNL     1     -34.367  13.738  -5.416  1.00 20.00    -0.381 OA
ENDBRANCH   2   3
BRANCH   2   6
HETATM    6  C6  UNL     1     -33.664  16.223  -2.605  1.00 20.00     0.006 C 
BRANCH   6   7
HETATM    7  C5  UNL     1     -34.804  16.206  -1.584  1.00 20.00    -0.004 C 
HETATM    8  C3  UNL     1     -34.502  17.114  -0.401  1.00 20.00     0.005 C 
ENDBRANCH   6   7
ENDBRANCH   2   6
TORSDOF 3
ENDMDL
MODEL 8
REMARK VINA RESULT:      -3.5     11.035     11.877
REMARK  3 active torsions:
REMARK  status: ('A' for Active; 'I' for Inactive)
REMARK    1  A    between atoms: C2_2  and  C7_7 
REMARK    2  A    between atoms: C5_5  and  C6_6 
REMARK    3  A    between atoms: C6_6  and  C7_7 
ROOT
HETATM    1  C4  UNL     1     -37.199  15.073  -3.599  1.00 20.00     0.012 C 
HETATM    2  C7  UNL     1     -35.693  15.014  -3.333  1.00 20.00     0.012 C 
ENDROOT
BRANCH   2   3
HETATM    3  C2  UNL     1     -35.007  14.208  -4.439  1.00 20.00     0.149 A 
HETATM    4  C1  UNL     1     -33.799  13.361  -4.150  1.00 20.00     0.200 A 
HETATM    5  O8  UNL     1     -35.108  12.788  -4.289  1.00 20.00    -0.381 OA
ENDBRANCH   2   3
BRANCH   2   6
HETATM    6  C6  UNL     1     -35.059  16.414  -3.237  1.00 20.00     0.006 C 
BRANCH   6   7
HETATM    7  C5  UNL     1     -33.985  16.524  -2.152  1.00 20.00    -0.004 C 
HETATM    8  C3  UNL     1     -34.606  16.659  -0.770  1.00 20.00     0.005 C 
ENDBRANCH   6   7
ENDBRANCH   2   6
TORSDOF 3
ENDMDL
MODEL 9
REMARK VINA RESULT:      -3.5     11.543     12.784
REMARK  3 active torsions:
REMARK  status: ('A' for Active; 'I' for Inactive)
REMARK    1  A    between atoms: C2_2  and  C7_7 
REMARK    2  A    between atoms: C5_5  and  C6_6 
REMARK    3  A    between atoms: C6_6  and  C7_7 
ROOT
HETATM    1  C4  UNL     1     -34.096  14.015  -3.550  1.00 20.00     0.012 C 
HETATM    2  C7  UNL     1     -33.949  15.508  -3.252  1.00 20.00     0.012 C 
ENDROOT
BRANCH   2   3
HETATM    3  C2  UNL     1     -34.381  16.322  -4.474  1.00 20.00     0.149 A 
HETATM    4  C1  UNL     1     -33.424  17.248  -5.172  1.00 20.00     0.200 A 
HETATM    5  O8  UNL     1     -33.734  15.948  -5.696  1.00 20.00    -0.381 OA
ENDBRANCH   2   3
BRANCH   2   6
HETATM    6  C6  UNL     1     -34.764  15.945  -2.020  1.00 20.00     0.006 C 
BRANCH   6   7
HETATM    7  C5  UNL     1     -34.054  16.994  -1.160  1.00 20.00    -0.004 C 
HETATM    8  C3  UNL     1     -34.821  17.265   0.126  1.00 20.00     0.005 C 
ENDBRANCH   6   7
ENDBRANCH   2   6
TORSDOF 3
ENDMDL
