MODEL 1
REMARK VINA RESULT:      -5.5      0.000      0.000
REMARK  0 active torsions:
REMARK  status: ('A' for Active; 'I' for Inactive)
ROOT
HETATM    1  C1  UNL     1     -32.746   7.003   4.446  1.00 20.00     0.053 A 
HETATM    2  C2  UNL     1     -33.814   6.376   4.940  1.00 20.00    -0.072 A 
HETATM    3  C3  UNL     1     -32.755   6.715   3.005  1.00 20.00     0.150 A 
HETATM    4  C4  UNL     1     -34.223   6.288   6.374  1.00 20.00     0.034 C 
HETATM    5  C5  UNL     1     -33.902   5.826   2.613  1.00 20.00     0.092 A 
HETATM    6  C6  UNL     1     -34.416   4.823   6.776  1.00 20.00     0.004 C 
HETATM    7  C7  UNL     1     -35.313   4.062   5.792  1.00 20.00     0.001 C 
HETATM    8  C8  UNL     1     -34.799   4.172   4.353  1.00 20.00     0.009 C 
HETATM    9  C9  UNL     1     -34.649   5.637   3.933  1.00 20.00     0.022 A 
HETATM   10  O10 UNL     1     -31.913   7.152   2.234  1.00 20.00    -0.293 OA
ENDROOT
TORSDOF 0
ENDMDL
MODEL 2
REMARK VINA RESULT:      -4.9      2.179      4.120
REMARK  0 active torsions:
REMARK  status: ('A' for Active; 'I' for Inactive)
ROOT
HETATM    1  C1  UNL     1     -35.056   4.413   4.635  1.00 20.00     0.053 A 
HETATM    2  C2  UNL     1     -34.476   5.430   3.995  1.00 20.00    -0.072 A 
HETATM    3  C3  UNL     1     -35.034   4.783   6.057  1.00 20.00     0.150 A 
HETATM    4  C4  UNL     1     -34.179   5.522   2.534  1.00 20.00     0.034 C 
HETATM    5  C5  UNL     1     -34.363   6.109   6.287  1.00 20.00     0.092 A 
HETATM    6  C6  UNL     1     -32.697   5.841   2.318  1.00 20.00     0.004 C 
HETATM    7  C7  UNL     1     -32.230   7.036   3.157  1.00 20.00     0.001 C 
HETATM    8  C8  UNL     1     -32.537   6.841   4.646  1.00 20.00     0.009 C 
HETATM    9  C9  UNL     1     -34.027   6.567   4.869  1.00 20.00     0.022 A 
HETATM   10  O10 UNL     1     -35.503   4.075   6.936  1.00 20.00    -0.293 OA
ENDROOT
TORSDOF 0
ENDMDL
MODEL 3
REMARK VINA RESULT:      -4.6     11.652     12.664
REMARK  0 active torsions:
REMARK  status: ('A' for Active; 'I' for Inactive)
ROOT
HETATM    1  C1  UNL     1     -33.974  14.125  -3.423  1.00 20.00     0.053 A 
HETATM    2  C2  UNL     1     -34.346  15.389  -3.215  1.00 20.00    -0.072 A 
HETATM    3  C3  UNL     1     -34.894  13.609  -4.445  1.00 20.00     0.150 A 
HETATM    4  C4  UNL     1     -33.779  16.341  -2.213  1.00 20.00     0.034 C 
HETATM    5  C5  UNL     1     -35.912  14.636  -4.860  1.00 20.00     0.092 A 
HETATM    6  C6  UNL     1     -34.899  16.915  -1.341  1.00 20.00     0.004 C 
HETATM    7  C7  UNL     1     -36.066  17.459  -2.174  1.00 20.00     0.001 C 
HETATM    8  C8  UNL     1     -36.612  16.406  -3.145  1.00 20.00     0.009 C 
HETATM    9  C9  UNL     1     -35.501  15.864  -4.050  1.00 20.00     0.022 A 
HETATM   10  O10 UNL     1     -34.828  12.472  -4.887  1.00 20.00    -0.293 OA
ENDROOT
TORSDOF 0
ENDMDL
MODEL 4
REMARK VINA RESULT:      -4.5     11.641     12.990
REMARK  0 active torsions:
REMARK  status: ('A' for Active; 'I' for Inactive)
ROOT
HETATM    1  C1  UNL     1     -36.132  14.348  -4.201  1.00 20.00     0.053 A 
HETATM    2  C2  UNL     1     -35.811  15.379  -3.419  1.00 20.00    -0.072 A 
HETATM    3  C3  UNL     1     -34.933  13.500  -4.243  1.00 20.00     0.150 A 
HETATM    4  C4  UNL     1     -36.656  16.571  -3.108  1.00 20.00     0.034 C 
HETATM    5  C5  UNL     1     -33.799  14.084  -3.446  1.00 20.00     0.092 A 
HETATM    6  C6  UNL     1     -35.888  17.857  -3.427  1.00 20.00     0.004 C 
HETATM    7  C7  UNL     1     -34.487  17.868  -2.804  1.00 20.00     0.001 C 
HETATM    8  C8  UNL     1     -33.676  16.632  -3.207  1.00 20.00     0.009 C 
HETATM    9  C9  UNL     1     -34.422  15.344  -2.847  1.00 20.00     0.022 A 
HETATM   10  O10 UNL     1     -34.881  12.450  -4.867  1.00 20.00    -0.293 OA
ENDROOT
TORSDOF 0
ENDMDL
MODEL 5
REMARK VINA RESULT:      -4.5     11.609     13.342
REMARK  0 active torsions:
REMARK  status: ('A' for Active; 'I' for Inactive)
ROOT
HETATM    1  C1  UNL     1     -34.302  14.135  -3.334  1.00 20.00     0.053 A 
HETATM    2  C2  UNL     1     -34.006  15.429  -3.465  1.00 20.00    -0.072 A 
HETATM    3  C3  UNL     1     -34.535  13.647  -4.700  1.00 20.00     0.150 A 
HETATM    4  C4  UNL     1     -33.757  16.412  -2.368  1.00 20.00     0.034 C 
HETATM    5  C5  UNL     1     -34.394  14.739  -5.724  1.00 20.00     0.092 A 
HETATM    6  C6  UNL     1     -34.674  17.627  -2.532  1.00 20.00     0.004 C 
HETATM    7  C7  UNL     1     -34.626  18.205  -3.951  1.00 20.00     0.001 C 
HETATM    8  C8  UNL     1     -34.933  17.140  -5.010  1.00 20.00     0.009 C 
HETATM    9  C9  UNL     1     -33.986  15.944  -4.877  1.00 20.00     0.022 A 
HETATM   10  O10 UNL     1     -34.817  12.485  -4.952  1.00 20.00    -0.293 OA
ENDROOT
TORSDOF 0
ENDMDL
MODEL 6
REMARK VINA RESULT:      -4.4     12.085     13.605
REMARK  0 active torsions:
REMARK  status: ('A' for Active; 'I' for Inactive)
ROOT
HETATM    1  C1  UNL     1     -34.023  17.339  -4.774  1.00 20.00     0.053 A 
HETATM    2  C2  UNL     1     -33.899  16.031  -5.006  1.00 20.00    -0.072 A 
HETATM    3  C3  UNL     1     -33.821  17.501  -3.328  1.00 20.00     0.150 A 
HETATM    4  C4  UNL     1     -34.090  15.325  -6.309  1.00 20.00     0.034 C 
HETATM    5  C5  UNL     1     -33.586  16.185  -2.639  1.00 20.00     0.092 A 
HETATM    6  C6  UNL     1     -35.103  14.189  -6.149  1.00 20.00     0.004 C 
HETATM    7  C7  UNL     1     -34.778  13.283  -4.955  1.00 20.00     0.001 C 
HETATM    8  C8  UNL     1     -34.641  14.082  -3.654  1.00 20.00     0.009 C 
HETATM    9  C9  UNL     1     -33.594  15.191  -3.799  1.00 20.00     0.022 A 
HETATM   10  O10 UNL     1     -33.853  18.587  -2.769  1.00 20.00    -0.293 OA
ENDROOT
TORSDOF 0
ENDMDL
MODEL 7
REMARK VINA RESULT:      -4.3      9.957     10.960
REMARK  0 active torsions:
REMARK  status: ('A' for Active; 'I' for Inactive)
ROOT
HETATM    1  C1  UNL     1     -43.245   5.335  -3.179  1.00 20.00     0.053 A 
HETATM    2  C2  UNL     1     -42.755   5.654  -1.980  1.00 20.00    -0.072 A 
HETATM    3  C3  UNL     1     -43.060   3.884  -3.304  1.00 20.00     0.150 A 
HETATM    4  C4  UNL     1     -42.633   7.021  -1.391  1.00 20.00     0.034 C 
HETATM    5  C5  UNL     1     -42.383   3.293  -2.098  1.00 20.00     0.092 A 
HETATM    6  C6  UNL     1     -41.190   7.274  -0.943  1.00 20.00     0.004 C 
HETATM    7  C7  UNL     1     -40.642   6.136  -0.074  1.00 20.00     0.001 C 
HETATM    8  C8  UNL     1     -40.770   4.776  -0.770  1.00 20.00     0.009 C 
HETATM    9  C9  UNL     1     -42.221   4.501  -1.177  1.00 20.00     0.022 A 
HETATM   10  O10 UNL     1     -43.415   3.250  -4.287  1.00 20.00    -0.293 OA
ENDROOT
TORSDOF 0
ENDMDL
MODEL 8
REMARK VINA RESULT:      -4.3     12.231     14.147
REMARK  0 active torsions:
REMARK  status: ('A' for Active; 'I' for Inactive)
ROOT
HETATM    1  C1  UNL     1     -34.803  14.526  -5.992  1.00 20.00     0.053 A 
HETATM    2  C2  UNL     1     -34.834  15.790  -5.567  1.00 20.00    -0.072 A 
HETATM    3  C3  UNL     1     -34.763  13.705  -4.775  1.00 20.00     0.150 A 
HETATM    4  C4  UNL     1     -34.806  17.024  -6.408  1.00 20.00     0.034 C 
HETATM    5  C5  UNL     1     -34.740  14.543  -3.526  1.00 20.00     0.092 A 
HETATM    6  C6  UNL     1     -33.672  17.945  -5.952  1.00 20.00     0.004 C 
HETATM    7  C7  UNL     1     -33.690  18.186  -4.438  1.00 20.00     0.001 C 
HETATM    8  C8  UNL     1     -33.676  16.870  -3.652  1.00 20.00     0.009 C 
HETATM    9  C9  UNL     1     -34.838  15.966  -4.075  1.00 20.00     0.022 A 
HETATM   10  O10 UNL     1     -34.741  12.483  -4.797  1.00 20.00    -0.293 OA
ENDROOT
TORSDOF 0
ENDMDL
MODEL 9
REMARK VINA RESULT:      -4.3     11.570     12.954
REMARK  0 active torsions:
REMARK  status: ('A' for Active; 'I' for Inactive)
ROOT
HETATM    1  C1  UNL     1     -35.311  13.475  -4.146  1.00 20.00     0.053 A 
HETATM    2  C2  UNL     1     -36.070  14.518  -3.809  1.00 20.00    -0.072 A 
HETATM    3  C3  UNL     1     -33.953  13.818  -3.701  1.00 20.00     0.150 A 
HETATM    4  C4  UNL     1     -37.522  14.708  -4.105  1.00 20.00     0.034 C 
HETATM    5  C5  UNL     1     -33.892  15.184  -3.074  1.00 20.00     0.092 A 
HETATM    6  C6  UNL     1     -37.742  16.046  -4.816  1.00 20.00     0.004 C 
HETATM    7  C7  UNL     1     -37.065  17.212  -4.087  1.00 20.00     0.001 C 
HETATM    8  C8  UNL     1     -35.572  16.952  -3.861  1.00 20.00     0.009 C 
HETATM    9  C9  UNL     1     -35.351  15.636  -3.108  1.00 20.00     0.022 A 
HETATM   10  O10 UNL     1     -32.997  13.070  -3.842  1.00 20.00    -0.293 OA
ENDROOT
TORSDOF 0
ENDMDL
