MODEL 1
REMARK VINA RESULT:      -4.9      0.000      0.000
REMARK  2 active torsions:
REMARK  status: ('A' for Active; 'I' for Inactive)
REMARK    1  A    between atoms: C1_1  and  C2_2 
REMARK    2  A    between atoms: C2_2  and  C3_3 
ROOT
HETATM    1  C2  UNL     1     -33.999   6.452   4.204  1.00 20.00     0.203 C 
HETATM    2 CL8  UNL     1     -34.015   6.290   5.988  1.00 20.00    -0.115 Cl
ENDROOT
BRANCH   1   3
HETATM    3  C1  UNL     1     -32.570   6.379   3.667  1.00 20.00     0.143 C 
HETATM    4 CL7  UNL     1     -32.231   7.684   2.500  1.00 20.00    -0.129 Cl
ENDBRANCH   1   3
BRANCH   1   5
HETATM    5  C3  UNL     1     -34.866   5.359   3.604  1.00 20.00     0.405 C 
HETATM    6  F4  UNL     1     -36.128   5.782   3.381  1.00 20.00    -0.169 F 
HETATM    7  F5  UNL     1     -34.360   4.938   2.423  1.00 20.00    -0.169 F 
HETATM    8  F6  UNL     1     -34.927   4.280   4.418  1.00 20.00    -0.169 F 
ENDBRANCH   1   5
TORSDOF 2
ENDMDL
MODEL 2
REMARK VINA RESULT:      -4.7      2.430      2.748
REMARK  2 active torsions:
REMARK  status: ('A' for Active; 'I' for Inactive)
REMARK    1  A    between atoms: C1_1  and  C2_2 
REMARK    2  A    between atoms: C2_2  and  C3_3 
ROOT
HETATM    1  C2  UNL     1     -34.206   5.319   4.685  1.00 20.00     0.203 C 
HETATM    2 CL8  UNL     1     -35.758   5.421   3.796  1.00 20.00    -0.115 Cl
ENDROOT
BRANCH   1   3
HETATM    3  C1  UNL     1     -33.313   6.514   4.352  1.00 20.00     0.143 C 
HETATM    4 CL7  UNL     1     -32.180   6.147   3.024  1.00 20.00    -0.129 Cl
ENDBRANCH   1   3
BRANCH   1   5
HETATM    5  C3  UNL     1     -34.497   5.251   6.174  1.00 20.00     0.405 C 
HETATM    6  F4  UNL     1     -34.461   6.470   6.751  1.00 20.00    -0.169 F 
HETATM    7  F5  UNL     1     -35.723   4.727   6.399  1.00 20.00    -0.169 F 
HETATM    8  F6  UNL     1     -33.603   4.462   6.812  1.00 20.00    -0.169 F 
ENDBRANCH   1   5
TORSDOF 2
ENDMDL
MODEL 3
REMARK VINA RESULT:      -4.7      2.439      2.882
REMARK  2 active torsions:
REMARK  status: ('A' for Active; 'I' for Inactive)
REMARK    1  A    between atoms: C1_1  and  C2_2 
REMARK    2  A    between atoms: C2_2  and  C3_3 
ROOT
HETATM    1  C2  UNL     1     -34.211   5.304   4.686  1.00 20.00     0.203 C 
HETATM    2 CL8  UNL     1     -35.767   5.401   3.804  1.00 20.00    -0.115 Cl
ENDROOT
BRANCH   1   3
HETATM    3  C1  UNL     1     -33.328   6.507   4.358  1.00 20.00     0.143 C 
HETATM    4 CL7  UNL     1     -32.175   6.147   3.046  1.00 20.00    -0.129 Cl
ENDBRANCH   1   3
BRANCH   1   5
HETATM    5  C3  UNL     1     -34.496   5.224   6.176  1.00 20.00     0.405 C 
HETATM    6  F4  UNL     1     -33.593   4.456   6.821  1.00 20.00    -0.169 F 
HETATM    7  F5  UNL     1     -34.464   6.453   6.738  1.00 20.00    -0.169 F 
HETATM    8  F6  UNL     1     -35.724   4.709   6.413  1.00 20.00    -0.169 F 
ENDBRANCH   1   5
TORSDOF 2
ENDMDL
MODEL 4
REMARK VINA RESULT:      -4.7      2.438      2.772
REMARK  2 active torsions:
REMARK  status: ('A' for Active; 'I' for Inactive)
REMARK    1  A    between atoms: C1_1  and  C2_2 
REMARK    2  A    between atoms: C2_2  and  C3_3 
ROOT
HETATM    1  C2  UNL     1     -34.208   5.316   4.684  1.00 20.00     0.203 C 
HETATM    2 CL8  UNL     1     -35.754   5.426   3.786  1.00 20.00    -0.115 Cl
ENDROOT
BRANCH   1   3
HETATM    3  C1  UNL     1     -33.310   6.509   4.363  1.00 20.00     0.143 C 
HETATM    4 CL7  UNL     1     -32.182   6.151   3.028  1.00 20.00    -0.129 Cl
ENDBRANCH   1   3
BRANCH   1   5
HETATM    5  C3  UNL     1     -34.509   5.241   6.171  1.00 20.00     0.405 C 
HETATM    6  F4  UNL     1     -35.730   4.721   6.413  1.00 20.00    -0.169 F 
HETATM    7  F5  UNL     1     -33.601   4.465   6.806  1.00 20.00    -0.169 F 
HETATM    8  F6  UNL     1     -34.457   6.465   6.744  1.00 20.00    -0.169 F 
ENDBRANCH   1   5
TORSDOF 2
ENDMDL
MODEL 5
REMARK VINA RESULT:      -4.7      1.727      2.562
REMARK  2 active torsions:
REMARK  status: ('A' for Active; 'I' for Inactive)
REMARK    1  A    between atoms: C1_1  and  C2_2 
REMARK    2  A    between atoms: C2_2  and  C3_3 
ROOT
HETATM    1  C2  UNL     1     -34.735   5.753   5.224  1.00 20.00     0.203 C 
HETATM    2 CL8  UNL     1     -33.727   6.680   6.379  1.00 20.00    -0.115 Cl
ENDROOT
BRANCH   1   3
HETATM    3  C1  UNL     1     -34.166   5.852   3.809  1.00 20.00     0.143 C 
HETATM    4 CL7  UNL     1     -32.558   6.625   3.792  1.00 20.00    -0.129 Cl
ENDBRANCH   1   3
BRANCH   1   5
HETATM    5  C3  UNL     1     -34.809   4.308   5.685  1.00 20.00     0.405 C 
HETATM    6  F4  UNL     1     -33.635   3.882   6.196  1.00 20.00    -0.169 F 
HETATM    7  F5  UNL     1     -35.751   4.158   6.644  1.00 20.00    -0.169 F 
HETATM    8  F6  UNL     1     -35.142   3.484   4.666  1.00 20.00    -0.169 F 
ENDBRANCH   1   5
TORSDOF 2
ENDMDL
MODEL 6
REMARK VINA RESULT:      -4.5      2.610      3.488
REMARK  2 active torsions:
REMARK  status: ('A' for Active; 'I' for Inactive)
REMARK    1  A    between atoms: C1_1  and  C2_2 
REMARK    2  A    between atoms: C2_2  and  C3_3 
ROOT
HETATM    1  C2  UNL     1     -33.851   6.573   4.024  1.00 20.00     0.203 C 
HETATM    2 CL8  UNL     1     -34.662   5.203   3.202  1.00 20.00    -0.115 Cl
ENDROOT
BRANCH   1   3
HETATM    3  C1  UNL     1     -33.771   6.329   5.530  1.00 20.00     0.143 C 
HETATM    4 CL7  UNL     1     -34.862   5.018   6.050  1.00 20.00    -0.129 Cl
ENDBRANCH   1   3
BRANCH   1   5
HETATM    5  C3  UNL     1     -32.469   6.756   3.424  1.00 20.00     0.405 C 
HETATM    6  F4  UNL     1     -31.868   5.575   3.172  1.00 20.00    -0.169 F 
HETATM    7  F5  UNL     1     -32.538   7.437   2.257  1.00 20.00    -0.169 F 
HETATM    8  F6  UNL     1     -31.665   7.464   4.250  1.00 20.00    -0.169 F 
ENDBRANCH   1   5
TORSDOF 2
ENDMDL
MODEL 7
REMARK VINA RESULT:      -4.3      0.831      2.379
REMARK  2 active torsions:
REMARK  status: ('A' for Active; 'I' for Inactive)
REMARK    1  A    between atoms: C1_1  and  C2_2 
REMARK    2  A    between atoms: C2_2  and  C3_3 
ROOT
HETATM    1  C2  UNL     1     -33.460   5.860   4.222  1.00 20.00     0.203 C 
HETATM    2 CL8  UNL     1     -32.633   6.996   3.111  1.00 20.00    -0.115 Cl
ENDROOT
BRANCH   1   3
HETATM    3  C1  UNL     1     -33.901   6.576   5.498  1.00 20.00     0.143 C 
HETATM    4 CL7  UNL     1     -34.718   5.469   6.633  1.00 20.00    -0.129 Cl
ENDBRANCH   1   3
BRANCH   1   5
HETATM    5  C3  UNL     1     -34.646   5.244   3.501  1.00 20.00     0.405 C 
HETATM    6  F4  UNL     1     -35.741   6.031   3.568  1.00 20.00    -0.169 F 
HETATM    7  F5  UNL     1     -34.363   5.047   2.193  1.00 20.00    -0.169 F 
HETATM    8  F6  UNL     1     -34.967   4.040   4.025  1.00 20.00    -0.169 F 
ENDBRANCH   1   5
TORSDOF 2
ENDMDL
MODEL 8
REMARK VINA RESULT:      -4.3      0.832      2.734
REMARK  2 active torsions:
REMARK  status: ('A' for Active; 'I' for Inactive)
REMARK    1  A    between atoms: C1_1  and  C2_2 
REMARK    2  A    between atoms: C2_2  and  C3_3 
ROOT
HETATM    1  C2  UNL     1     -33.456   5.861   4.217  1.00 20.00     0.203 C 
HETATM    2 CL8  UNL     1     -32.638   7.004   3.106  1.00 20.00    -0.115 Cl
ENDROOT
BRANCH   1   3
HETATM    3  C1  UNL     1     -33.908   6.574   5.490  1.00 20.00     0.143 C 
HETATM    4 CL7  UNL     1     -34.710   5.459   6.628  1.00 20.00    -0.129 Cl
ENDBRANCH   1   3
BRANCH   1   5
HETATM    5  C3  UNL     1     -34.634   5.233   3.494  1.00 20.00     0.405 C 
HETATM    6  F4  UNL     1     -34.970   4.037   4.021  1.00 20.00    -0.169 F 
HETATM    7  F5  UNL     1     -35.723   6.032   3.565  1.00 20.00    -0.169 F 
HETATM    8  F6  UNL     1     -34.362   5.047   2.182  1.00 20.00    -0.169 F 
ENDBRANCH   1   5
TORSDOF 2
ENDMDL
MODEL 9
REMARK VINA RESULT:      -4.1      1.997      3.213
REMARK  2 active torsions:
REMARK  status: ('A' for Active; 'I' for Inactive)
REMARK    1  A    between atoms: C1_1  and  C2_2 
REMARK    2  A    between atoms: C2_2  and  C3_3 
ROOT
HETATM    1  C2  UNL     1     -33.661   5.558   4.827  1.00 20.00     0.203 C 
HETATM    2 CL8  UNL     1     -33.684   6.866   6.051  1.00 20.00    -0.115 Cl
ENDROOT
BRANCH   1   3
HETATM    3  C1  UNL     1     -35.011   4.843   4.775  1.00 20.00     0.143 C 
HETATM    4 CL7  UNL     1     -35.425   4.089   6.338  1.00 20.00    -0.129 Cl
ENDBRANCH   1   3
BRANCH   1   5
HETATM    5  C3  UNL     1     -33.304   6.154   3.477  1.00 20.00     0.405 C 
HETATM    6  F4  UNL     1     -31.972   6.150   3.261  1.00 20.00    -0.169 F 
HETATM    7  F5  UNL     1     -33.884   5.454   2.475  1.00 20.00    -0.169 F 
HETATM    8  F6  UNL     1     -33.739   7.430   3.375  1.00 20.00    -0.169 F 
ENDBRANCH   1   5
TORSDOF 2
ENDMDL
