MODEL 1
REMARK VINA RESULT:      -5.0      0.000      0.000
REMARK  2 active torsions:
REMARK  status: ('A' for Active; 'I' for Inactive)
REMARK    1  A    between atoms: C1_1  and  C4_4 
REMARK    2  A    between atoms: C5_5  and  C8_8 
ROOT
HETATM    1  C2  UNL     1     -33.241  15.796  -3.520  1.00 20.00     0.020 C 
HETATM    2  C3  UNL     1     -35.103  15.321  -2.597  1.00 20.00     0.020 C 
HETATM    3  C4  UNL     1     -34.427  14.882  -3.918  1.00 20.00     0.087 C 
HETATM    4  C5  UNL     1     -34.248  16.612  -2.670  1.00 20.00    -0.010 C 
ENDROOT
BRANCH   3   5
HETATM    5  C1  UNL     1     -34.112  13.435  -4.029  1.00 20.00     0.177 C 
HETATM    6  O9  UNL     1     -35.079  12.699  -4.374  1.00 20.00    -0.648 OA
HETATM    7  O10 UNL     1     -32.916  13.130  -3.764  1.00 20.00    -0.648 OA
ENDBRANCH   3   5
BRANCH   4   8
HETATM    8  C8  UNL     1     -33.737  17.163  -1.355  1.00 20.00    -0.019 C 
HETATM    9  C6  UNL     1     -33.336  18.635  -1.496  1.00 20.00     0.010 C 
HETATM   10  C7  UNL     1     -34.785  17.007  -0.249  1.00 20.00     0.010 C 
ENDBRANCH   4   8
TORSDOF 2
ENDMDL
MODEL 2
REMARK VINA RESULT:      -4.9     11.237     12.105
REMARK  2 active torsions:
REMARK  status: ('A' for Active; 'I' for Inactive)
REMARK    1  A    between atoms: C1_1  and  C4_4 
REMARK    2  A    between atoms: C5_5  and  C8_8 
ROOT
HETATM    1  C2  UNL     1     -34.032   5.493   3.194  1.00 20.00     0.020 C 
HETATM    2  C3  UNL     1     -33.652   6.671   4.930  1.00 20.00     0.020 C 
HETATM    3  C4  UNL     1     -34.742   5.635   4.563  1.00 20.00     0.087 C 
HETATM    4  C5  UNL     1     -33.484   6.927   3.410  1.00 20.00    -0.010 C 
ENDROOT
BRANCH   3   5
HETATM    5  C1  UNL     1     -34.771   4.409   5.401  1.00 20.00     0.177 C 
HETATM    6  O9  UNL     1     -34.387   4.563   6.594  1.00 20.00    -0.648 OA
HETATM    7  O10 UNL     1     -35.177   3.371   4.809  1.00 20.00    -0.648 OA
ENDBRANCH   3   5
BRANCH   4   8
HETATM    8  C8  UNL     1     -32.076   7.197   2.919  1.00 20.00    -0.019 C 
HETATM    9  C6  UNL     1     -32.082   8.201   1.762  1.00 20.00     0.010 C 
HETATM   10  C7  UNL     1     -31.187   7.710   4.056  1.00 20.00     0.010 C 
ENDBRANCH   4   8
TORSDOF 2
ENDMDL
MODEL 3
REMARK VINA RESULT:      -4.7     10.075     11.103
REMARK  2 active torsions:
REMARK  status: ('A' for Active; 'I' for Inactive)
REMARK    1  A    between atoms: C1_1  and  C4_4 
REMARK    2  A    between atoms: C5_5  and  C8_8 
ROOT
HETATM    1  C2  UNL     1     -33.357   6.390   2.577  1.00 20.00     0.020 C 
HETATM    2  C3  UNL     1     -32.291   7.416   4.111  1.00 20.00     0.020 C 
HETATM    3  C4  UNL     1     -32.047   7.215   2.596  1.00 20.00     0.087 C 
HETATM    4  C5  UNL     1     -33.115   6.103   4.081  1.00 20.00    -0.010 C 
ENDROOT
BRANCH   3   5
HETATM    5  C1  UNL     1     -32.055   8.452   1.774  1.00 20.00     0.177 C 
HETATM    6  O9  UNL     1     -32.748   9.401   2.236  1.00 20.00    -0.648 OA
HETATM    7  O10 UNL     1     -31.366   8.392   0.718  1.00 20.00    -0.648 OA
ENDBRANCH   3   5
BRANCH   4   8
HETATM    8  C8  UNL     1     -34.342   6.051   4.968  1.00 20.00    -0.019 C 
HETATM    9  C6  UNL     1     -34.987   4.663   4.930  1.00 20.00     0.010 C 
HETATM   10  C7  UNL     1     -33.992   6.430   6.410  1.00 20.00     0.010 C 
ENDBRANCH   4   8
TORSDOF 2
ENDMDL
MODEL 4
REMARK VINA RESULT:      -4.5      1.147      1.949
REMARK  2 active torsions:
REMARK  status: ('A' for Active; 'I' for Inactive)
REMARK    1  A    between atoms: C1_1  and  C4_4 
REMARK    2  A    between atoms: C5_5  and  C8_8 
ROOT
HETATM    1  C2  UNL     1     -34.395  14.695  -2.774  1.00 20.00     0.020 C 
HETATM    2  C3  UNL     1     -33.533  15.978  -4.242  1.00 20.00     0.020 C 
HETATM    3  C4  UNL     1     -33.657  14.441  -4.111  1.00 20.00     0.087 C 
HETATM    4  C5  UNL     1     -33.641  16.048  -2.697  1.00 20.00    -0.010 C 
ENDROOT
BRANCH   3   5
HETATM    5  C1  UNL     1     -34.457  13.769  -5.167  1.00 20.00     0.177 C 
HETATM    6  O9  UNL     1     -34.612  14.433  -6.230  1.00 20.00    -0.648 OA
HETATM    7  O10 UNL     1     -34.877  12.618  -4.863  1.00 20.00    -0.648 OA
ENDBRANCH   3   5
BRANCH   4   8
HETATM    8  C8  UNL     1     -34.408  17.221  -2.122  1.00 20.00    -0.019 C 
HETATM    9  C6  UNL     1     -34.726  16.995  -0.641  1.00 20.00     0.010 C 
HETATM   10  C7  UNL     1     -33.627  18.527  -2.300  1.00 20.00     0.010 C 
ENDBRANCH   4   8
TORSDOF 2
ENDMDL
MODEL 5
REMARK VINA RESULT:      -4.0      1.388      2.176
REMARK  2 active torsions:
REMARK  status: ('A' for Active; 'I' for Inactive)
REMARK    1  A    between atoms: C1_1  and  C4_4 
REMARK    2  A    between atoms: C5_5  and  C8_8 
ROOT
HETATM    1  C2  UNL     1     -35.077  15.761  -4.657  1.00 20.00     0.020 C 
HETATM    2  C3  UNL     1     -34.132  15.633  -2.750  1.00 20.00     0.020 C 
HETATM    3  C4  UNL     1     -34.973  14.642  -3.591  1.00 20.00     0.087 C 
HETATM    4  C5  UNL     1     -34.853  16.778  -3.508  1.00 20.00    -0.010 C 
ENDROOT
BRANCH   3   5
HETATM    5  C1  UNL     1     -34.269  13.408  -4.023  1.00 20.00     0.177 C 
HETATM    6  O9  UNL     1     -33.068  13.312  -3.645  1.00 20.00    -0.648 OA
HETATM    7  O10 UNL     1     -34.966  12.613  -4.714  1.00 20.00    -0.648 OA
ENDBRANCH   3   5
BRANCH   4   8
HETATM    8  C8  UNL     1     -34.022  18.001  -3.838  1.00 20.00    -0.019 C 
HETATM    9  C6  UNL     1     -34.776  18.936  -4.789  1.00 20.00     0.010 C 
HETATM   10  C7  UNL     1     -33.625  18.754  -2.564  1.00 20.00     0.010 C 
ENDBRANCH   4   8
TORSDOF 2
ENDMDL
MODEL 6
REMARK VINA RESULT:      -3.9      2.872      4.544
REMARK  2 active torsions:
REMARK  status: ('A' for Active; 'I' for Inactive)
REMARK    1  A    between atoms: C1_1  and  C4_4 
REMARK    2  A    between atoms: C5_5  and  C8_8 
ROOT
HETATM    1  C2  UNL     1     -33.421  15.887  -3.063  1.00 20.00     0.020 C 
HETATM    2  C3  UNL     1     -35.324  16.327  -2.209  1.00 20.00     0.020 C 
HETATM    3  C4  UNL     1     -33.874  16.725  -1.842  1.00 20.00     0.087 C 
HETATM    4  C5  UNL     1     -34.730  15.072  -2.900  1.00 20.00    -0.010 C 
ENDROOT
BRANCH   3   5
HETATM    5  C1  UNL     1     -33.569  18.177  -1.912  1.00 20.00     0.177 C 
HETATM    6  O9  UNL     1     -33.253  18.714  -0.813  1.00 20.00    -0.648 OA
HETATM    7  O10 UNL     1     -33.665  18.685  -3.064  1.00 20.00    -0.648 OA
ENDBRANCH   3   5
BRANCH   4   8
HETATM    8  C8  UNL     1     -35.409  14.614  -4.174  1.00 20.00    -0.019 C 
HETATM    9  C6  UNL     1     -34.853  13.264  -4.637  1.00 20.00     0.010 C 
HETATM   10  C7  UNL     1     -36.926  14.523  -3.986  1.00 20.00     0.010 C 
ENDBRANCH   4   8
TORSDOF 2
ENDMDL
MODEL 7
REMARK VINA RESULT:      -3.8      2.964      4.493
REMARK  2 active torsions:
REMARK  status: ('A' for Active; 'I' for Inactive)
REMARK    1  A    between atoms: C1_1  and  C4_4 
REMARK    2  A    between atoms: C5_5  and  C8_8 
ROOT
HETATM    1  C2  UNL     1     -35.467  15.574  -4.785  1.00 20.00     0.020 C 
HETATM    2  C3  UNL     1     -35.140  14.388  -6.526  1.00 20.00     0.020 C 
HETATM    3  C4  UNL     1     -34.339  14.606  -5.220  1.00 20.00     0.087 C 
HETATM    4  C5  UNL     1     -35.769  15.786  -6.291  1.00 20.00    -0.010 C 
ENDROOT
BRANCH   3   5
HETATM    5  C1  UNL     1     -34.162  13.403  -4.367  1.00 20.00     0.177 C 
HETATM    6  O9  UNL     1     -35.122  12.583  -4.386  1.00 20.00    -0.648 OA
HETATM    7  O10 UNL     1     -33.071  13.358  -3.733  1.00 20.00    -0.648 OA
ENDBRANCH   3   5
BRANCH   4   8
HETATM    8  C8  UNL     1     -37.225  15.949  -6.676  1.00 20.00    -0.019 C 
HETATM    9  C6  UNL     1     -37.565  17.422  -6.921  1.00 20.00     0.010 C 
HETATM   10  C7  UNL     1     -37.560  15.118  -7.918  1.00 20.00     0.010 C 
ENDBRANCH   4   8
TORSDOF 2
ENDMDL
MODEL 8
REMARK VINA RESULT:      -3.8      2.845      4.468
REMARK  2 active torsions:
REMARK  status: ('A' for Active; 'I' for Inactive)
REMARK    1  A    between atoms: C1_1  and  C4_4 
REMARK    2  A    between atoms: C5_5  and  C8_8 
ROOT
HETATM    1  C2  UNL     1     -33.839  16.966  -3.874  1.00 20.00     0.020 C 
HETATM    2  C3  UNL     1     -34.365  15.135  -2.918  1.00 20.00     0.020 C 
HETATM    3  C4  UNL     1     -33.695  16.440  -2.424  1.00 20.00     0.087 C 
HETATM    4  C5  UNL     1     -33.843  15.487  -4.335  1.00 20.00    -0.010 C 
ENDROOT
BRANCH   3   5
HETATM    5  C1  UNL     1     -34.446  17.196  -1.389  1.00 20.00     0.177 C 
HETATM    6  O9  UNL     1     -34.696  18.400  -1.677  1.00 20.00    -0.648 OA
HETATM    7  O10 UNL     1     -34.737  16.533  -0.355  1.00 20.00    -0.648 OA
ENDBRANCH   3   5
BRANCH   4   8
HETATM    8  C8  UNL     1     -34.751  15.140  -5.498  1.00 20.00    -0.019 C 
HETATM    9  C6  UNL     1     -34.147  15.611  -6.824  1.00 20.00     0.010 C 
HETATM   10  C7  UNL     1     -35.026  13.634  -5.549  1.00 20.00     0.010 C 
ENDBRANCH   4   8
TORSDOF 2
ENDMDL
MODEL 9
REMARK VINA RESULT:      -3.8      2.836      4.403
REMARK  2 active torsions:
REMARK  status: ('A' for Active; 'I' for Inactive)
REMARK    1  A    between atoms: C1_1  and  C4_4 
REMARK    2  A    between atoms: C5_5  and  C8_8 
ROOT
HETATM    1  C2  UNL     1     -33.424  16.569  -4.197  1.00 20.00     0.020 C 
HETATM    2  C3  UNL     1     -34.816  15.142  -3.442  1.00 20.00     0.020 C 
HETATM    3  C4  UNL     1     -33.634  15.916  -2.809  1.00 20.00     0.087 C 
HETATM    4  C5  UNL     1     -34.108  15.320  -4.810  1.00 20.00    -0.010 C 
ENDROOT
BRANCH   3   5
HETATM    5  C1  UNL     1     -33.992  16.847  -1.709  1.00 20.00     0.177 C 
HETATM    6  O9  UNL     1     -34.682  16.343  -0.779  1.00 20.00    -0.648 OA
HETATM    7  O10 UNL     1     -33.558  18.025  -1.848  1.00 20.00    -0.648 OA
ENDBRANCH   3   5
BRANCH   4   8
HETATM    8  C8  UNL     1     -35.001  15.555  -6.011  1.00 20.00    -0.019 C 
HETATM    9  C6  UNL     1     -34.363  16.553  -6.981  1.00 20.00     0.010 C 
HETATM   10  C7  UNL     1     -35.306  14.240  -6.734  1.00 20.00     0.010 C 
ENDBRANCH   4   8
TORSDOF 2
ENDMDL
