MODEL 1
REMARK VINA RESULT:      -4.1      0.000      0.000
REMARK  3 active torsions:
REMARK  status: ('A' for Active; 'I' for Inactive)
REMARK    1  A    between atoms: C6_6  and  C9_9 
REMARK    2  A    between atoms: C7_7  and  C8_8 
REMARK    3  A    between atoms: C7_7  and  C9_9 
ROOT
HETATM    1  C4  UNL     1     -31.410   7.708   4.074  1.00 20.00     0.015 C 
HETATM    2  C5  UNL     1     -31.912   5.532   2.979  1.00 20.00     0.015 C 
HETATM    3  C9  UNL     1     -32.430   6.976   3.182  1.00 20.00    -0.048 C 
ENDROOT
BRANCH   3   4
HETATM    4  C6  UNL     1     -32.476   7.709   1.811  1.00 20.00     0.004 C 
HETATM    5  C1  UNL     1     -32.274   9.218   1.854  1.00 20.00     0.006 C 
ENDBRANCH   3   4
BRANCH   3   6
HETATM    6  C7  UNL     1     -33.822   6.884   3.876  1.00 20.00     0.012 C 
BRANCH   6   7
HETATM    7  C8  UNL     1     -34.031   5.732   4.888  1.00 20.00    -0.022 C 
HETATM    8  C2  UNL     1     -34.165   6.299   6.306  1.00 20.00     0.009 C 
HETATM    9  C3  UNL     1     -35.284   4.910   4.570  1.00 20.00     0.009 C 
ENDBRANCH   6   7
ENDBRANCH   3   6
TORSDOF 3
ENDMDL
MODEL 2
REMARK VINA RESULT:      -4.0     10.534     11.684
REMARK  3 active torsions:
REMARK  status: ('A' for Active; 'I' for Inactive)
REMARK    1  A    between atoms: C6_6  and  C9_9 
REMARK    2  A    between atoms: C7_7  and  C8_8 
REMARK    3  A    between atoms: C7_7  and  C9_9 
ROOT
HETATM    1  C4  UNL     1     -32.901  14.141  -3.575  1.00 20.00     0.015 C 
HETATM    2  C5  UNL     1     -35.163  13.340  -4.229  1.00 20.00     0.015 C 
HETATM    3  C9  UNL     1     -34.285  14.604  -4.069  1.00 20.00    -0.048 C 
ENDROOT
BRANCH   3   4
HETATM    4  C6  UNL     1     -34.093  15.283  -5.455  1.00 20.00     0.004 C 
HETATM    5  C1  UNL     1     -34.841  14.645  -6.619  1.00 20.00     0.006 C 
ENDBRANCH   3   4
BRANCH   3   6
HETATM    6  C7  UNL     1     -34.976  15.529  -3.023  1.00 20.00     0.012 C 
BRANCH   6   7
HETATM    7  C8  UNL     1     -34.057  16.412  -2.146  1.00 20.00    -0.022 C 
HETATM    8  C2  UNL     1     -33.853  17.778  -2.812  1.00 20.00     0.009 C 
HETATM    9  C3  UNL     1     -34.639  16.633  -0.746  1.00 20.00     0.009 C 
ENDBRANCH   6   7
ENDBRANCH   3   6
TORSDOF 3
ENDMDL
MODEL 3
REMARK VINA RESULT:      -3.8      0.989      4.034
REMARK  3 active torsions:
REMARK  status: ('A' for Active; 'I' for Inactive)
REMARK    1  A    between atoms: C6_6  and  C9_9 
REMARK    2  A    between atoms: C7_7  and  C8_8 
REMARK    3  A    between atoms: C7_7  and  C9_9 
ROOT
HETATM    1  C4  UNL     1     -35.908   5.811   3.561  1.00 20.00     0.015 C 
HETATM    2  C5  UNL     1     -33.767   4.834   2.756  1.00 20.00     0.015 C 
HETATM    3  C9  UNL     1     -34.387   5.792   3.801  1.00 20.00    -0.048 C 
ENDROOT
BRANCH   3   4
HETATM    4  C6  UNL     1     -34.137   5.233   5.230  1.00 20.00     0.004 C 
HETATM    5  C1  UNL     1     -34.136   6.259   6.357  1.00 20.00     0.006 C 
ENDBRANCH   3   4
BRANCH   3   6
HETATM    6  C7  UNL     1     -33.763   7.202   3.575  1.00 20.00     0.012 C 
BRANCH   6   7
HETATM    7  C8  UNL     1     -32.358   7.257   2.931  1.00 20.00    -0.022 C 
HETATM    8  C2  UNL     1     -32.301   8.383   1.892  1.00 20.00     0.009 C 
HETATM    9  C3  UNL     1     -31.259   7.497   3.971  1.00 20.00     0.009 C 
ENDBRANCH   6   7
ENDBRANCH   3   6
TORSDOF 3
ENDMDL
MODEL 4
REMARK VINA RESULT:      -3.8     10.674     11.631
REMARK  3 active torsions:
REMARK  status: ('A' for Active; 'I' for Inactive)
REMARK    1  A    between atoms: C6_6  and  C9_9 
REMARK    2  A    between atoms: C7_7  and  C8_8 
REMARK    3  A    between atoms: C7_7  and  C9_9 
ROOT
HETATM    1  C4  UNL     1     -33.536  16.204  -4.992  1.00 20.00     0.015 C 
HETATM    2  C5  UNL     1     -32.509  14.479  -3.523  1.00 20.00     0.015 C 
HETATM    3  C9  UNL     1     -33.710  15.445  -3.663  1.00 20.00    -0.048 C 
ENDROOT
BRANCH   3   4
HETATM    4  C6  UNL     1     -35.028  14.625  -3.751  1.00 20.00     0.004 C 
HETATM    5  C1  UNL     1     -34.932  13.281  -4.463  1.00 20.00     0.006 C 
ENDBRANCH   3   4
BRANCH   3   6
HETATM    6  C7  UNL     1     -33.674  16.420  -2.447  1.00 20.00     0.012 C 
BRANCH   6   7
HETATM    7  C8  UNL     1     -35.008  16.672  -1.706  1.00 20.00    -0.022 C 
HETATM    8  C2  UNL     1     -34.738  16.976  -0.228  1.00 20.00     0.009 C 
HETATM    9  C3  UNL     1     -35.788  17.844  -2.311  1.00 20.00     0.009 C 
ENDBRANCH   6   7
ENDBRANCH   3   6
TORSDOF 3
ENDMDL
MODEL 5
REMARK VINA RESULT:      -3.8     10.504     12.729
REMARK  3 active torsions:
REMARK  status: ('A' for Active; 'I' for Inactive)
REMARK    1  A    between atoms: C6_6  and  C9_9 
REMARK    2  A    between atoms: C7_7  and  C8_8 
REMARK    3  A    between atoms: C7_7  and  C9_9 
ROOT
HETATM    1  C4  UNL     1     -34.669  13.603  -3.777  1.00 20.00     0.015 C 
HETATM    2  C5  UNL     1     -32.854  15.304  -3.768  1.00 20.00     0.015 C 
HETATM    3  C9  UNL     1     -34.388  15.116  -3.699  1.00 20.00    -0.048 C 
ENDROOT
BRANCH   3   4
HETATM    4  C6  UNL     1     -34.913  15.628  -2.328  1.00 20.00     0.004 C 
HETATM    5  C1  UNL     1     -34.074  16.705  -1.651  1.00 20.00     0.006 C 
ENDBRANCH   3   4
BRANCH   3   6
HETATM    6  C7  UNL     1     -35.010  15.868  -4.914  1.00 20.00     0.012 C 
BRANCH   6   7
HETATM    7  C8  UNL     1     -34.108  16.072  -6.154  1.00 20.00    -0.022 C 
HETATM    8  C2  UNL     1     -34.439  15.022  -7.221  1.00 20.00     0.009 C 
HETATM    9  C3  UNL     1     -34.284  17.465  -6.768  1.00 20.00     0.009 C 
ENDBRANCH   6   7
ENDBRANCH   3   6
TORSDOF 3
ENDMDL
MODEL 6
REMARK VINA RESULT:      -3.7     10.527     12.741
REMARK  3 active torsions:
REMARK  status: ('A' for Active; 'I' for Inactive)
REMARK    1  A    between atoms: C6_6  and  C9_9 
REMARK    2  A    between atoms: C7_7  and  C8_8 
REMARK    3  A    between atoms: C7_7  and  C9_9 
ROOT
HETATM    1  C4  UNL     1     -35.577  15.067  -3.724  1.00 20.00     0.015 C 
HETATM    2  C5  UNL     1     -33.380  13.900  -3.693  1.00 20.00     0.015 C 
HETATM    3  C9  UNL     1     -34.054  15.290  -3.783  1.00 20.00    -0.048 C 
ENDROOT
BRANCH   3   4
HETATM    4  C6  UNL     1     -33.649  16.145  -2.549  1.00 20.00     0.004 C 
HETATM    5  C1  UNL     1     -34.718  16.317  -1.477  1.00 20.00     0.006 C 
ENDBRANCH   3   4
BRANCH   3   6
HETATM    6  C7  UNL     1     -33.630  15.931  -5.139  1.00 20.00     0.012 C 
BRANCH   6   7
HETATM    7  C8  UNL     1     -34.704  16.006  -6.250  1.00 20.00    -0.022 C 
HETATM    8  C2  UNL     1     -34.623  17.357  -6.968  1.00 20.00     0.009 C 
HETATM    9  C3  UNL     1     -34.534  14.890  -7.287  1.00 20.00     0.009 C 
ENDBRANCH   6   7
ENDBRANCH   3   6
TORSDOF 3
ENDMDL
MODEL 7
REMARK VINA RESULT:      -3.7     10.474     12.261
REMARK  3 active torsions:
REMARK  status: ('A' for Active; 'I' for Inactive)
REMARK    1  A    between atoms: C6_6  and  C9_9 
REMARK    2  A    between atoms: C7_7  and  C8_8 
REMARK    3  A    between atoms: C7_7  and  C9_9 
ROOT
HETATM    1  C4  UNL     1     -35.215  15.526  -4.888  1.00 20.00     0.015 C 
HETATM    2  C5  UNL     1     -33.395  17.182  -5.248  1.00 20.00     0.015 C 
HETATM    3  C9  UNL     1     -34.064  16.274  -4.189  1.00 20.00    -0.048 C 
ENDROOT
BRANCH   3   4
HETATM    4  C6  UNL     1     -33.040  15.215  -3.692  1.00 20.00     0.004 C 
HETATM    5  C1  UNL     1     -33.496  13.763  -3.757  1.00 20.00     0.006 C 
ENDBRANCH   3   4
BRANCH   3   6
HETATM    6  C7  UNL     1     -34.598  17.193  -3.050  1.00 20.00     0.012 C 
BRANCH   6   7
HETATM    7  C8  UNL     1     -33.812  17.194  -1.718  1.00 20.00    -0.022 C 
HETATM    8  C2  UNL     1     -33.307  18.608  -1.408  1.00 20.00     0.009 C 
HETATM    9  C3  UNL     1     -34.672  16.714  -0.544  1.00 20.00     0.009 C 
ENDBRANCH   6   7
ENDBRANCH   3   6
TORSDOF 3
ENDMDL
MODEL 8
REMARK VINA RESULT:      -3.7     10.918     12.894
REMARK  3 active torsions:
REMARK  status: ('A' for Active; 'I' for Inactive)
REMARK    1  A    between atoms: C6_6  and  C9_9 
REMARK    2  A    between atoms: C7_7  and  C8_8 
REMARK    3  A    between atoms: C7_7  and  C9_9 
ROOT
HETATM    1  C4  UNL     1     -32.904  15.088  -3.637  1.00 20.00     0.015 C 
HETATM    2  C5  UNL     1     -34.650  15.928  -2.079  1.00 20.00     0.015 C 
HETATM    3  C9  UNL     1     -34.394  15.465  -3.532  1.00 20.00    -0.048 C 
ENDROOT
BRANCH   3   4
HETATM    4  C6  UNL     1     -35.230  14.186  -3.825  1.00 20.00     0.004 C 
HETATM    5  C1  UNL     1     -34.593  13.173  -4.767  1.00 20.00     0.006 C 
ENDBRANCH   3   4
BRANCH   3   6
HETATM    6  C7  UNL     1     -34.743  16.655  -4.475  1.00 20.00     0.012 C 
BRANCH   6   7
HETATM    7  C8  UNL     1     -33.787  16.918  -5.662  1.00 20.00    -0.022 C 
HETATM    8  C2  UNL     1     -34.312  16.220  -6.923  1.00 20.00     0.009 C 
HETATM    9  C3  UNL     1     -33.638  18.414  -5.958  1.00 20.00     0.009 C 
ENDBRANCH   6   7
ENDBRANCH   3   6
TORSDOF 3
ENDMDL
MODEL 9
REMARK VINA RESULT:      -3.6      1.055      4.184
REMARK  3 active torsions:
REMARK  status: ('A' for Active; 'I' for Inactive)
REMARK    1  A    between atoms: C6_6  and  C9_9 
REMARK    2  A    between atoms: C7_7  and  C8_8 
REMARK    3  A    between atoms: C7_7  and  C9_9 
ROOT
HETATM    1  C4  UNL     1     -34.086   6.595   5.626  1.00 20.00     0.015 C 
HETATM    2  C5  UNL     1     -35.334   6.182   3.515  1.00 20.00     0.015 C 
HETATM    3  C9  UNL     1     -34.104   5.743   4.343  1.00 20.00    -0.048 C 
ENDROOT
BRANCH   3   4
HETATM    4  C6  UNL     1     -34.264   4.254   4.762  1.00 20.00     0.004 C 
HETATM    5  C1  UNL     1     -34.980   4.006   6.083  1.00 20.00     0.006 C 
ENDBRANCH   3   4
BRANCH   3   6
HETATM    6  C7  UNL     1     -32.835   6.003   3.476  1.00 20.00     0.012 C 
BRANCH   6   7
HETATM    7  C8  UNL     1     -32.371   7.471   3.328  1.00 20.00    -0.022 C 
HETATM    8  C2  UNL     1     -31.057   7.685   4.088  1.00 20.00     0.009 C 
HETATM    9  C3  UNL     1     -32.156   7.859   1.861  1.00 20.00     0.009 C 
ENDBRANCH   6   7
ENDBRANCH   3   6
TORSDOF 3
ENDMDL
