MODEL 1
REMARK VINA RESULT:      -4.7      0.000      0.000
REMARK  0 active torsions:
REMARK  status: ('A' for Active; 'I' for Inactive)
ROOT
HETATM    1  C1  UNL     1     -36.456  15.143  -4.225  1.00 20.00    -0.007 C 
HETATM    2  C2  UNL     1     -35.891  16.389  -4.869  1.00 20.00     0.056 C 
HETATM    3  C3  UNL     1     -35.004  13.609  -5.385  1.00 20.00     0.011 C 
HETATM    4  C4  UNL     1     -34.344  14.829  -6.067  1.00 20.00     0.011 C 
HETATM    5  C5  UNL     1     -35.342  14.141  -3.977  1.00 20.00     0.034 C 
HETATM    6  C6  UNL     1     -34.405  15.931  -4.968  1.00 20.00    -0.032 C 
HETATM    7  C7  UNL     1     -34.175  15.111  -3.657  1.00 20.00    -0.032 C 
HETATM    8  C8  UNL     1     -33.455  17.085  -5.228  1.00 20.00     0.016 C 
HETATM    9  C9  UNL     1     -32.803  14.416  -3.550  1.00 20.00     0.016 C 
HETATM   10  C10 UNL     1     -34.369  15.894  -2.342  1.00 20.00     0.016 C 
HETATM   11  S11 UNL     1     -38.060  14.905  -3.864  1.00 20.00    -0.089 SA
ENDROOT
TORSDOF 0
ENDMDL
MODEL 2
REMARK VINA RESULT:      -4.6      2.039      3.352
REMARK  0 active torsions:
REMARK  status: ('A' for Active; 'I' for Inactive)
ROOT
HETATM    1  C1  UNL     1     -34.289  17.230  -4.729  1.00 20.00    -0.007 C 
HETATM    2  C2  UNL     1     -35.753  16.898  -4.554  1.00 20.00     0.056 C 
HETATM    3  C3  UNL     1     -33.569  16.181  -2.684  1.00 20.00     0.011 C 
HETATM    4  C4  UNL     1     -35.038  15.768  -2.437  1.00 20.00     0.011 C 
HETATM    5  C5  UNL     1     -33.434  16.083  -4.217  1.00 20.00     0.034 C 
HETATM    6  C6  UNL     1     -35.582  15.505  -3.874  1.00 20.00    -0.032 C 
HETATM    7  C7  UNL     1     -34.342  14.884  -4.594  1.00 20.00    -0.032 C 
HETATM    8  C8  UNL     1     -36.861  14.690  -3.886  1.00 20.00     0.016 C 
HETATM    9  C9  UNL     1     -33.859  13.537  -4.021  1.00 20.00     0.016 C 
HETATM   10  C10 UNL     1     -34.492  14.680  -6.116  1.00 20.00     0.016 C 
HETATM   11  S11 UNL     1     -33.708  18.648  -5.370  1.00 20.00    -0.089 SA
ENDROOT
TORSDOF 0
ENDMDL
MODEL 3
REMARK VINA RESULT:      -4.6      1.302      2.508
REMARK  0 active torsions:
REMARK  status: ('A' for Active; 'I' for Inactive)
ROOT
HETATM    1  C1  UNL     1     -35.589  15.802  -5.368  1.00 20.00    -0.007 C 
HETATM    2  C2  UNL     1     -35.998  16.214  -3.973  1.00 20.00     0.056 C 
HETATM    3  C3  UNL     1     -33.444  16.896  -5.310  1.00 20.00     0.011 C 
HETATM    4  C4  UNL     1     -33.763  17.335  -3.864  1.00 20.00     0.011 C 
HETATM    5  C5  UNL     1     -34.100  15.503  -5.403  1.00 20.00     0.034 C 
HETATM    6  C6  UNL     1     -34.593  16.142  -3.302  1.00 20.00    -0.032 C 
HETATM    7  C7  UNL     1     -33.914  14.910  -3.982  1.00 20.00    -0.032 C 
HETATM    8  C8  UNL     1     -34.671  16.132  -1.787  1.00 20.00     0.016 C 
HETATM    9  C9  UNL     1     -32.439  14.679  -3.596  1.00 20.00     0.016 C 
HETATM   10  C10 UNL     1     -34.633  13.560  -3.779  1.00 20.00     0.016 C 
HETATM   11  S11 UNL     1     -36.617  15.710  -6.670  1.00 20.00    -0.089 SA
ENDROOT
TORSDOF 0
ENDMDL
MODEL 4
REMARK VINA RESULT:      -4.5      1.873      2.778
REMARK  0 active torsions:
REMARK  status: ('A' for Active; 'I' for Inactive)
ROOT
HETATM    1  C1  UNL     1     -34.163  16.617  -2.662  1.00 20.00    -0.007 C 
HETATM    2  C2  UNL     1     -33.775  17.012  -4.068  1.00 20.00     0.056 C 
HETATM    3  C3  UNL     1     -36.347  15.789  -3.252  1.00 20.00     0.011 C 
HETATM    4  C4  UNL     1     -36.024  16.131  -4.724  1.00 20.00     0.011 C 
HETATM    5  C5  UNL     1     -34.982  15.338  -2.693  1.00 20.00     0.034 C 
HETATM    6  C6  UNL     1     -34.494  15.856  -4.828  1.00 20.00    -0.032 C 
HETATM    7  C7  UNL     1     -34.310  14.619  -3.891  1.00 20.00    -0.032 C 
HETATM    8  C8  UNL     1     -34.011  15.710  -6.259  1.00 20.00     0.016 C 
HETATM    9  C9  UNL     1     -35.048  13.342  -4.340  1.00 20.00     0.016 C 
HETATM   10  C10 UNL     1     -32.850  14.203  -3.619  1.00 20.00     0.016 C 
HETATM   11  S11 UNL     1     -33.765  17.469  -1.293  1.00 20.00    -0.089 SA
ENDROOT
TORSDOF 0
ENDMDL
MODEL 5
REMARK VINA RESULT:      -4.5      2.005      3.278
REMARK  0 active torsions:
REMARK  status: ('A' for Active; 'I' for Inactive)
ROOT
HETATM    1  C1  UNL     1     -34.091  16.525  -2.573  1.00 20.00    -0.007 C 
HETATM    2  C2  UNL     1     -35.333  15.668  -2.491  1.00 20.00     0.056 C 
HETATM    3  C3  UNL     1     -32.744  14.871  -3.692  1.00 20.00     0.011 C 
HETATM    4  C4  UNL     1     -33.975  13.936  -3.684  1.00 20.00     0.011 C 
HETATM    5  C5  UNL     1     -33.371  16.267  -3.886  1.00 20.00     0.034 C 
HETATM    6  C6  UNL     1     -35.173  14.919  -3.849  1.00 20.00    -0.032 C 
HETATM    7  C7  UNL     1     -34.587  16.003  -4.810  1.00 20.00    -0.032 C 
HETATM    8  C8  UNL     1     -36.450  14.231  -4.290  1.00 20.00     0.016 C 
HETATM    9  C9  UNL     1     -34.200  15.495  -6.213  1.00 20.00     0.016 C 
HETATM   10  C10 UNL     1     -35.476  17.246  -5.029  1.00 20.00     0.016 C 
HETATM   11  S11 UNL     1     -33.585  17.577  -1.391  1.00 20.00    -0.089 SA
ENDROOT
TORSDOF 0
ENDMDL
MODEL 6
REMARK VINA RESULT:      -4.5      0.777      2.782
REMARK  0 active torsions:
REMARK  status: ('A' for Active; 'I' for Inactive)
ROOT
HETATM    1  C1  UNL     1     -36.676  15.178  -4.528  1.00 20.00    -0.007 C 
HETATM    2  C2  UNL     1     -35.901  13.974  -4.047  1.00 20.00     0.056 C 
HETATM    3  C3  UNL     1     -35.481  16.774  -3.176  1.00 20.00     0.011 C 
HETATM    4  C4  UNL     1     -34.615  15.607  -2.652  1.00 20.00     0.011 C 
HETATM    5  C5  UNL     1     -35.749  16.377  -4.642  1.00 20.00     0.034 C 
HETATM    6  C6  UNL     1     -34.510  14.658  -3.883  1.00 20.00    -0.032 C 
HETATM    7  C7  UNL     1     -34.443  15.664  -5.078  1.00 20.00    -0.032 C 
HETATM    8  C8  UNL     1     -33.377  13.656  -3.768  1.00 20.00     0.016 C 
HETATM    9  C9  UNL     1     -33.208  16.587  -5.089  1.00 20.00     0.016 C 
HETATM   10  C10 UNL     1     -34.526  15.032  -6.483  1.00 20.00     0.016 C 
HETATM   11  S11 UNL     1     -38.303  15.188  -4.863  1.00 20.00    -0.089 SA
ENDROOT
TORSDOF 0
ENDMDL
MODEL 7
REMARK VINA RESULT:      -4.4      2.037      3.014
REMARK  0 active torsions:
REMARK  status: ('A' for Active; 'I' for Inactive)
ROOT
HETATM    1  C1  UNL     1     -34.038  17.178  -4.806  1.00 20.00    -0.007 C 
HETATM    2  C2  UNL     1     -33.069  16.056  -4.513  1.00 20.00     0.056 C 
HETATM    3  C3  UNL     1     -35.469  15.876  -6.241  1.00 20.00     0.011 C 
HETATM    4  C4  UNL     1     -34.551  14.662  -5.972  1.00 20.00     0.011 C 
HETATM    5  C5  UNL     1     -35.452  16.630  -4.895  1.00 20.00     0.034 C 
HETATM    6  C6  UNL     1     -34.092  14.880  -4.498  1.00 20.00    -0.032 C 
HETATM    7  C7  UNL     1     -35.366  15.499  -3.838  1.00 20.00    -0.032 C 
HETATM    8  C8  UNL     1     -33.530  13.625  -3.858  1.00 20.00     0.016 C 
HETATM    9  C9  UNL     1     -36.604  14.580  -3.813  1.00 20.00     0.016 C 
HETATM   10  C10 UNL     1     -35.182  16.017  -2.396  1.00 20.00     0.016 C 
HETATM   11  S11 UNL     1     -33.610  18.770  -5.017  1.00 20.00    -0.089 SA
ENDROOT
TORSDOF 0
ENDMDL
MODEL 8
REMARK VINA RESULT:      -4.4      1.099      1.280
REMARK  0 active torsions:
REMARK  status: ('A' for Active; 'I' for Inactive)
ROOT
HETATM    1  C1  UNL     1     -36.803  15.103  -4.347  1.00 20.00    -0.007 C 
HETATM    2  C2  UNL     1     -36.450  15.489  -5.765  1.00 20.00     0.056 C 
HETATM    3  C3  UNL     1     -35.168  13.341  -4.177  1.00 20.00     0.011 C 
HETATM    4  C4  UNL     1     -34.717  13.689  -5.614  1.00 20.00     0.011 C 
HETATM    5  C5  UNL     1     -35.544  14.717  -3.589  1.00 20.00     0.034 C 
HETATM    6  C6  UNL     1     -34.915  15.233  -5.688  1.00 20.00    -0.032 C 
HETATM    7  C7  UNL     1     -34.530  15.690  -4.243  1.00 20.00    -0.032 C 
HETATM    8  C8  UNL     1     -34.158  15.876  -6.834  1.00 20.00     0.016 C 
HETATM    9  C9  UNL     1     -33.066  15.422  -3.840  1.00 20.00     0.016 C 
HETATM   10  C10 UNL     1     -34.804  17.174  -3.921  1.00 20.00     0.016 C 
HETATM   11  S11 UNL     1     -38.342  15.086  -3.723  1.00 20.00    -0.089 SA
ENDROOT
TORSDOF 0
ENDMDL
MODEL 9
REMARK VINA RESULT:      -4.4      1.475      2.949
REMARK  0 active torsions:
REMARK  status: ('A' for Active; 'I' for Inactive)
ROOT
HETATM    1  C1  UNL     1     -35.381  16.792  -3.054  1.00 20.00    -0.007 C 
HETATM    2  C2  UNL     1     -34.427  15.751  -2.516  1.00 20.00     0.056 C 
HETATM    3  C3  UNL     1     -34.137  17.221  -5.072  1.00 20.00     0.011 C 
HETATM    4  C4  UNL     1     -33.125  16.145  -4.618  1.00 20.00     0.011 C 
HETATM    5  C5  UNL     1     -35.484  16.666  -4.565  1.00 20.00     0.034 C 
HETATM    6  C6  UNL     1     -34.016  15.105  -3.874  1.00 20.00    -0.032 C 
HETATM    7  C7  UNL     1     -35.333  15.130  -4.715  1.00 20.00    -0.032 C 
HETATM    8  C8  UNL     1     -33.341  13.759  -3.700  1.00 20.00     0.016 C 
HETATM    9  C9  UNL     1     -35.186  14.663  -6.177  1.00 20.00     0.016 C 
HETATM   10  C10 UNL     1     -36.515  14.334  -4.123  1.00 20.00     0.016 C 
HETATM   11  S11 UNL     1     -36.180  17.916  -2.128  1.00 20.00    -0.089 SA
ENDROOT
TORSDOF 0
ENDMDL
