MODEL 1
REMARK VINA RESULT:      -4.9      0.000      0.000
REMARK  5 active torsions:
REMARK  status: ('A' for Active; 'I' for Inactive)
REMARK    1  A    between atoms: C1_1  and  C5_5 
REMARK    2  A    between atoms: C1_1  and  C9_9 
REMARK    3  A    between atoms: C5_5  and  C6_6 
REMARK    4  A    between atoms: C7_7  and  C9_9 
REMARK    5  A    between atoms: C8_8  and  C9_9 
ROOT
HETATM    1  C1  UNL     1     -32.628   6.467   3.423  1.00 20.00     0.131 C 
HETATM    2  O10 UNL     1     -32.139   5.433   2.969  1.00 20.00    -0.298 OA
ENDROOT
BRANCH   1   3
HETATM    3  C5  UNL     1     -32.016   7.838   3.175  1.00 20.00     0.078 C 
BRANCH   3   4
HETATM    4  C6  UNL     1     -31.986   8.242   1.703  1.00 20.00     0.003 C 
HETATM    5  C2  UNL     1     -32.438   9.679   1.482  1.00 20.00     0.005 C 
ENDBRANCH   3   4
ENDBRANCH   1   3
BRANCH   1   6
HETATM    6  C9  UNL     1     -33.913   6.442   4.254  1.00 20.00     0.054 C 
BRANCH   6   7
HETATM    7  C7  UNL     1     -33.584   6.073   5.709  1.00 20.00     0.007 C 
HETATM    8  C3  UNL     1     -33.660   7.266   6.653  1.00 20.00     0.006 C 
ENDBRANCH   6   7
BRANCH   6   9
HETATM    9  C8  UNL     1     -34.909   5.436   3.655  1.00 20.00     0.007 C 
HETATM   10  C4  UNL     1     -35.290   4.329   4.632  1.00 20.00     0.006 C 
ENDBRANCH   6   9
ENDBRANCH   1   6
TORSDOF 5
ENDMDL
MODEL 2
REMARK VINA RESULT:      -4.8      0.945      1.137
REMARK  5 active torsions:
REMARK  status: ('A' for Active; 'I' for Inactive)
REMARK    1  A    between atoms: C1_1  and  C5_5 
REMARK    2  A    between atoms: C1_1  and  C9_9 
REMARK    3  A    between atoms: C5_5  and  C6_6 
REMARK    4  A    between atoms: C7_7  and  C9_9 
REMARK    5  A    between atoms: C8_8  and  C9_9 
ROOT
HETATM    1  C1  UNL     1     -33.514   5.913   3.209  1.00 20.00     0.131 C 
HETATM    2  O10 UNL     1     -33.947   5.227   2.284  1.00 20.00    -0.298 OA
ENDROOT
BRANCH   1   3
HETATM    3  C5  UNL     1     -32.159   6.605   3.147  1.00 20.00     0.078 C 
BRANCH   3   4
HETATM    4  C6  UNL     1     -32.239   8.083   2.774  1.00 20.00     0.003 C 
HETATM    5  C2  UNL     1     -31.865   8.340   1.320  1.00 20.00     0.005 C 
ENDBRANCH   3   4
ENDBRANCH   1   3
BRANCH   1   6
HETATM    6  C9  UNL     1     -34.328   6.139   4.484  1.00 20.00     0.054 C 
BRANCH   6   7
HETATM    7  C7  UNL     1     -33.388   6.190   5.699  1.00 20.00     0.007 C 
HETATM    8  C3  UNL     1     -33.789   7.257   6.711  1.00 20.00     0.006 C 
ENDBRANCH   6   7
BRANCH   6   9
HETATM    9  C8  UNL     1     -35.366   5.017   4.653  1.00 20.00     0.007 C 
HETATM   10  C4  UNL     1     -34.931   3.957   5.659  1.00 20.00     0.006 C 
ENDBRANCH   6   9
ENDBRANCH   1   6
TORSDOF 5
ENDMDL
MODEL 3
REMARK VINA RESULT:      -4.3      1.470      2.646
REMARK  5 active torsions:
REMARK  status: ('A' for Active; 'I' for Inactive)
REMARK    1  A    between atoms: C1_1  and  C5_5 
REMARK    2  A    between atoms: C1_1  and  C9_9 
REMARK    3  A    between atoms: C5_5  and  C6_6 
REMARK    4  A    between atoms: C7_7  and  C9_9 
REMARK    5  A    between atoms: C8_8  and  C9_9 
ROOT
HETATM    1  C1  UNL     1     -34.261   5.684   3.697  1.00 20.00     0.131 C 
HETATM    2  O10 UNL     1     -35.434   5.738   3.330  1.00 20.00    -0.298 OA
ENDROOT
BRANCH   1   3
HETATM    3  C5  UNL     1     -33.096   5.930   2.747  1.00 20.00     0.078 C 
BRANCH   3   4
HETATM    4  C6  UNL     1     -32.182   7.074   3.178  1.00 20.00     0.003 C 
HETATM    5  C2  UNL     1     -32.062   8.159   2.115  1.00 20.00     0.005 C 
ENDBRANCH   3   4
ENDBRANCH   1   3
BRANCH   1   6
HETATM    6  C9  UNL     1     -33.893   5.389   5.152  1.00 20.00     0.054 C 
BRANCH   6   7
HETATM    7  C7  UNL     1     -34.513   4.049   5.583  1.00 20.00     0.007 C 
HETATM    8  C3  UNL     1     -35.444   4.188   6.781  1.00 20.00     0.006 C 
ENDBRANCH   6   7
BRANCH   6   9
HETATM    9  C8  UNL     1     -34.384   6.527   6.062  1.00 20.00     0.007 C 
HETATM   10  C4  UNL     1     -33.243   7.283   6.730  1.00 20.00     0.006 C 
ENDBRANCH   6   9
ENDBRANCH   1   6
TORSDOF 5
ENDMDL
MODEL 4
REMARK VINA RESULT:      -4.3     10.725     11.906
REMARK  5 active torsions:
REMARK  status: ('A' for Active; 'I' for Inactive)
REMARK    1  A    between atoms: C1_1  and  C5_5 
REMARK    2  A    between atoms: C1_1  and  C9_9 
REMARK    3  A    between atoms: C5_5  and  C6_6 
REMARK    4  A    between atoms: C7_7  and  C9_9 
REMARK    5  A    between atoms: C8_8  and  C9_9 
ROOT
HETATM    1  C1  UNL     1     -35.201  13.891  -3.949  1.00 20.00     0.131 C 
HETATM    2  O10 UNL     1     -34.859  12.781  -4.358  1.00 20.00    -0.298 OA
ENDROOT
BRANCH   1   3
HETATM    3  C5  UNL     1     -36.541  14.517  -4.311  1.00 20.00     0.078 C 
BRANCH   3   4
HETATM    4  C6  UNL     1     -36.599  15.068  -5.734  1.00 20.00     0.003 C 
HETATM    5  C2  UNL     1     -36.911  16.558  -5.771  1.00 20.00     0.005 C 
ENDBRANCH   3   4
ENDBRANCH   1   3
BRANCH   1   6
HETATM    6  C9  UNL     1     -34.304  14.710  -3.020  1.00 20.00     0.054 C 
BRANCH   6   7
HETATM    7  C7  UNL     1     -35.059  15.958  -2.534  1.00 20.00     0.007 C 
HETATM    8  C3  UNL     1     -34.580  16.446  -1.174  1.00 20.00     0.006 C 
ENDBRANCH   6   7
BRANCH   6   9
HETATM    9  C8  UNL     1     -33.014  15.113  -3.753  1.00 20.00     0.007 C 
HETATM   10  C4  UNL     1     -33.220  16.279  -4.713  1.00 20.00     0.006 C 
ENDBRANCH   6   9
ENDBRANCH   1   6
TORSDOF 5
ENDMDL
MODEL 5
REMARK VINA RESULT:      -4.2     10.675     12.219
REMARK  5 active torsions:
REMARK  status: ('A' for Active; 'I' for Inactive)
REMARK    1  A    between atoms: C1_1  and  C5_5 
REMARK    2  A    between atoms: C1_1  and  C9_9 
REMARK    3  A    between atoms: C5_5  and  C6_6 
REMARK    4  A    between atoms: C7_7  and  C9_9 
REMARK    5  A    between atoms: C8_8  and  C9_9 
ROOT
HETATM    1  C1  UNL     1     -34.533  13.793  -4.593  1.00 20.00     0.131 C 
HETATM    2  O10 UNL     1     -34.805  12.619  -4.843  1.00 20.00    -0.298 OA
ENDROOT
BRANCH   1   3
HETATM    3  C5  UNL     1     -33.602  14.192  -3.457  1.00 20.00     0.078 C 
BRANCH   3   4
HETATM    4  C6  UNL     1     -33.592  15.691  -3.167  1.00 20.00     0.003 C 
HETATM    5  C2  UNL     1     -34.432  16.057  -1.951  1.00 20.00     0.005 C 
ENDBRANCH   3   4
ENDBRANCH   1   3
BRANCH   1   6
HETATM    6  C9  UNL     1     -35.099  14.938  -5.435  1.00 20.00     0.054 C 
BRANCH   6   7
HETATM    7  C7  UNL     1     -36.634  14.855  -5.461  1.00 20.00     0.007 C 
HETATM    8  C3  UNL     1     -37.254  14.952  -4.073  1.00 20.00     0.006 C 
ENDBRANCH   6   7
BRANCH   6   9
HETATM    9  C8  UNL     1     -34.533  14.873  -6.863  1.00 20.00     0.007 C 
HETATM   10  C4  UNL     1     -35.591  14.523  -7.902  1.00 20.00     0.006 C 
ENDBRANCH   6   9
ENDBRANCH   1   6
TORSDOF 5
ENDMDL
MODEL 6
REMARK VINA RESULT:      -4.2     10.659     11.835
REMARK  5 active torsions:
REMARK  status: ('A' for Active; 'I' for Inactive)
REMARK    1  A    between atoms: C1_1  and  C5_5 
REMARK    2  A    between atoms: C1_1  and  C9_9 
REMARK    3  A    between atoms: C5_5  and  C6_6 
REMARK    4  A    between atoms: C7_7  and  C9_9 
REMARK    5  A    between atoms: C8_8  and  C9_9 
ROOT
HETATM    1  C1  UNL     1     -33.316  14.942  -3.361  1.00 20.00     0.131 C 
HETATM    2  O10 UNL     1     -32.160  14.630  -3.648  1.00 20.00    -0.298 OA
ENDROOT
BRANCH   1   3
HETATM    3  C5  UNL     1     -34.487  13.984  -3.532  1.00 20.00     0.078 C 
BRANCH   3   4
HETATM    4  C6  UNL     1     -34.548  13.326  -4.908  1.00 20.00     0.003 C 
HETATM    5  C2  UNL     1     -34.818  14.327  -6.024  1.00 20.00     0.005 C 
ENDBRANCH   3   4
ENDBRANCH   1   3
BRANCH   1   6
HETATM    6  C9  UNL     1     -33.650  16.318  -2.783  1.00 20.00     0.054 C 
BRANCH   6   7
HETATM    7  C7  UNL     1     -34.881  16.213  -1.868  1.00 20.00     0.007 C 
HETATM    8  C3  UNL     1     -34.656  16.847  -0.501  1.00 20.00     0.006 C 
ENDBRANCH   6   7
BRANCH   6   9
HETATM    9  C8  UNL     1     -33.910  17.320  -3.921  1.00 20.00     0.007 C 
HETATM   10  C4  UNL     1     -35.394  17.577  -4.153  1.00 20.00     0.006 C 
ENDBRANCH   6   9
ENDBRANCH   1   6
TORSDOF 5
ENDMDL
MODEL 7
REMARK VINA RESULT:      -4.1     10.933     12.537
REMARK  5 active torsions:
REMARK  status: ('A' for Active; 'I' for Inactive)
REMARK    1  A    between atoms: C1_1  and  C5_5 
REMARK    2  A    between atoms: C1_1  and  C9_9 
REMARK    3  A    between atoms: C5_5  and  C6_6 
REMARK    4  A    between atoms: C7_7  and  C9_9 
REMARK    5  A    between atoms: C8_8  and  C9_9 
ROOT
HETATM    1  C1  UNL     1     -34.024  17.005  -4.210  1.00 20.00     0.131 C 
HETATM    2  O10 UNL     1     -34.810  17.939  -4.054  1.00 20.00    -0.298 OA
ENDROOT
BRANCH   1   3
HETATM    3  C5  UNL     1     -33.374  16.701  -5.553  1.00 20.00     0.078 C 
BRANCH   3   4
HETATM    4  C6  UNL     1     -34.374  16.484  -6.686  1.00 20.00     0.003 C 
HETATM    5  C2  UNL     1     -34.441  15.031  -7.137  1.00 20.00     0.005 C 
ENDBRANCH   3   4
ENDBRANCH   1   3
BRANCH   1   6
HETATM    6  C9  UNL     1     -33.625  16.096  -3.047  1.00 20.00     0.054 C 
BRANCH   6   7
HETATM    7  C7  UNL     1     -33.178  14.727  -3.586  1.00 20.00     0.007 C 
HETATM    8  C3  UNL     1     -34.306  13.704  -3.610  1.00 20.00     0.006 C 
ENDBRANCH   6   7
BRANCH   6   9
HETATM    9  C8  UNL     1     -34.807  15.932  -2.076  1.00 20.00     0.007 C 
HETATM   10  C4  UNL     1     -34.598  16.675  -0.762  1.00 20.00     0.006 C 
ENDBRANCH   6   9
ENDBRANCH   1   6
TORSDOF 5
ENDMDL
MODEL 8
REMARK VINA RESULT:      -4.1     10.886     11.866
REMARK  5 active torsions:
REMARK  status: ('A' for Active; 'I' for Inactive)
REMARK    1  A    between atoms: C1_1  and  C5_5 
REMARK    2  A    between atoms: C1_1  and  C9_9 
REMARK    3  A    between atoms: C5_5  and  C6_6 
REMARK    4  A    between atoms: C7_7  and  C9_9 
REMARK    5  A    between atoms: C8_8  and  C9_9 
ROOT
HETATM    1  C1  UNL     1     -33.539  15.343  -3.703  1.00 20.00     0.131 C 
HETATM    2  O10 UNL     1     -32.789  16.094  -4.326  1.00 20.00    -0.298 OA
ENDROOT
BRANCH   1   3
HETATM    3  C5  UNL     1     -33.494  13.829  -3.860  1.00 20.00     0.078 C 
BRANCH   3   4
HETATM    4  C6  UNL     1     -34.701  13.250  -4.593  1.00 20.00     0.003 C 
HETATM    5  C2  UNL     1     -34.969  13.947  -5.920  1.00 20.00     0.005 C 
ENDBRANCH   3   4
ENDBRANCH   1   3
BRANCH   1   6
HETATM    6  C9  UNL     1     -34.558  15.887  -2.701  1.00 20.00     0.054 C 
BRANCH   6   7
HETATM    7  C7  UNL     1     -35.635  16.697  -3.441  1.00 20.00     0.007 C 
HETATM    8  C3  UNL     1     -36.984  15.991  -3.478  1.00 20.00     0.006 C 
ENDBRANCH   6   7
BRANCH   6   9
HETATM    9  C8  UNL     1     -33.852  16.762  -1.652  1.00 20.00     0.007 C 
HETATM   10  C4  UNL     1     -34.682  16.954  -0.388  1.00 20.00     0.006 C 
ENDBRANCH   6   9
ENDBRANCH   1   6
TORSDOF 5
ENDMDL
MODEL 9
REMARK VINA RESULT:      -4.1     11.036     12.103
REMARK  5 active torsions:
REMARK  status: ('A' for Active; 'I' for Inactive)
REMARK    1  A    between atoms: C1_1  and  C5_5 
REMARK    2  A    between atoms: C1_1  and  C9_9 
REMARK    3  A    between atoms: C5_5  and  C6_6 
REMARK    4  A    between atoms: C7_7  and  C9_9 
REMARK    5  A    between atoms: C8_8  and  C9_9 
ROOT
HETATM    1  C1  UNL     1     -34.781  13.844  -4.785  1.00 20.00     0.131 C 
HETATM    2  O10 UNL     1     -34.800  12.616  -4.856  1.00 20.00    -0.298 OA
ENDROOT
BRANCH   1   3
HETATM    3  C5  UNL     1     -34.499  14.728  -5.992  1.00 20.00     0.078 C 
BRANCH   3   4
HETATM    4  C6  UNL     1     -35.258  14.314  -7.250  1.00 20.00     0.003 C 
HETATM    5  C2  UNL     1     -36.569  15.070  -7.418  1.00 20.00     0.005 C 
ENDBRANCH   3   4
ENDBRANCH   1   3
BRANCH   1   6
HETATM    6  C9  UNL     1     -35.070  14.571  -3.470  1.00 20.00     0.054 C 
BRANCH   6   7
HETATM    7  C7  UNL     1     -36.311  15.463  -3.631  1.00 20.00     0.007 C 
HETATM    8  C3  UNL     1     -37.583  14.666  -3.887  1.00 20.00     0.006 C 
ENDBRANCH   6   7
BRANCH   6   9
HETATM    9  C8  UNL     1     -33.852  15.412  -3.053  1.00 20.00     0.007 C 
HETATM   10  C4  UNL     1     -34.178  16.419  -1.957  1.00 20.00     0.006 C 
ENDBRANCH   6   9
ENDBRANCH   1   6
TORSDOF 5
ENDMDL
