MODEL 1
REMARK VINA RESULT:      -2.9      0.000      0.000
REMARK  0 active torsions:
REMARK  status: ('A' for Active; 'I' for Inactive)
ROOT
HETATM    1  C1  UNL     1     -34.025  15.393  -5.025  1.00 20.00     0.117 C 
HETATM    2  C2  UNL     1     -34.977  16.567  -2.634  1.00 20.00     0.117 C 
HETATM    3  C3  UNL     1     -34.632  14.561  -6.147  1.00 20.00     0.033 C 
HETATM    4  C4  UNL     1     -34.620  16.472  -1.157  1.00 20.00     0.033 C 
HETATM    5  S5  UNL     1     -34.788  14.917  -3.421  1.00 20.00    -0.137 SA
HETATM    6  S6  UNL     1     -34.270  17.156  -5.357  1.00 20.00    -0.081 SA
HETATM    7  S7  UNL     1     -33.928  17.796  -3.449  1.00 20.00    -0.081 SA
ENDROOT
TORSDOF 0
ENDMDL
MODEL 2
REMARK VINA RESULT:      -2.9      0.074      3.411
REMARK  0 active torsions:
REMARK  status: ('A' for Active; 'I' for Inactive)
ROOT
HETATM    1  C1  UNL     1     -34.967  16.598  -2.588  1.00 20.00     0.117 C 
HETATM    2  C2  UNL     1     -33.984  15.449  -4.978  1.00 20.00     0.117 C 
HETATM    3  C3  UNL     1     -34.621  16.498  -1.108  1.00 20.00     0.033 C 
HETATM    4  C4  UNL     1     -34.574  14.619  -6.110  1.00 20.00     0.033 C 
HETATM    5  S5  UNL     1     -34.755  14.955  -3.384  1.00 20.00    -0.137 SA
HETATM    6  S6  UNL     1     -33.922  17.842  -3.387  1.00 20.00    -0.081 SA
HETATM    7  S7  UNL     1     -34.242  17.212  -5.301  1.00 20.00    -0.081 SA
ENDROOT
TORSDOF 0
ENDMDL
MODEL 3
REMARK VINA RESULT:      -2.9      1.575      1.962
REMARK  0 active torsions:
REMARK  status: ('A' for Active; 'I' for Inactive)
ROOT
HETATM    1  C1  UNL     1     -34.853  15.930  -5.705  1.00 20.00     0.117 C 
HETATM    2  C2  UNL     1     -34.845  15.456  -2.916  1.00 20.00     0.117 C 
HETATM    3  C3  UNL     1     -34.213  15.277  -6.923  1.00 20.00     0.033 C 
HETATM    4  C4  UNL     1     -34.473  16.257  -1.676  1.00 20.00     0.033 C 
HETATM    5  S5  UNL     1     -33.688  15.864  -4.285  1.00 20.00    -0.137 SA
HETATM    6  S6  UNL     1     -36.410  15.099  -5.301  1.00 20.00    -0.081 SA
HETATM    7  S7  UNL     1     -36.556  15.805  -3.392  1.00 20.00    -0.081 SA
ENDROOT
TORSDOF 0
ENDMDL
MODEL 4
REMARK VINA RESULT:      -2.9      1.593      3.850
REMARK  0 active torsions:
REMARK  status: ('A' for Active; 'I' for Inactive)
ROOT
HETATM    1  C1  UNL     1     -34.892  15.449  -2.932  1.00 20.00     0.117 C 
HETATM    2  C2  UNL     1     -34.888  15.940  -5.717  1.00 20.00     0.117 C 
HETATM    3  C3  UNL     1     -34.537  16.247  -1.684  1.00 20.00     0.033 C 
HETATM    4  C4  UNL     1     -34.232  15.303  -6.935  1.00 20.00     0.033 C 
HETATM    5  S5  UNL     1     -33.731  15.878  -4.290  1.00 20.00    -0.137 SA
HETATM    6  S6  UNL     1     -36.604  15.783  -3.417  1.00 20.00    -0.081 SA
HETATM    7  S7  UNL     1     -36.438  15.090  -5.329  1.00 20.00    -0.081 SA
ENDROOT
TORSDOF 0
ENDMDL
MODEL 5
REMARK VINA RESULT:      -2.8      1.803      3.812
REMARK  0 active torsions:
REMARK  status: ('A' for Active; 'I' for Inactive)
ROOT
HETATM    1  C1  UNL     1     -33.846  16.698  -2.048  1.00 20.00     0.117 C 
HETATM    2  C2  UNL     1     -34.295  17.720  -4.647  1.00 20.00     0.117 C 
HETATM    3  C3  UNL     1     -34.611  16.696  -0.731  1.00 20.00     0.033 C 
HETATM    4  C4  UNL     1     -33.564  18.673  -5.584  1.00 20.00     0.033 C 
HETATM    5  S5  UNL     1     -34.109  18.299  -2.912  1.00 20.00    -0.137 SA
HETATM    6  S6  UNL     1     -34.383  15.312  -3.081  1.00 20.00    -0.081 SA
HETATM    7  S7  UNL     1     -33.649  16.041  -4.840  1.00 20.00    -0.081 SA
ENDROOT
TORSDOF 0
ENDMDL
MODEL 6
REMARK VINA RESULT:      -2.8      1.338      2.424
REMARK  0 active torsions:
REMARK  status: ('A' for Active; 'I' for Inactive)
ROOT
HETATM    1  C1  UNL     1     -34.847  15.236  -6.036  1.00 20.00     0.117 C 
HETATM    2  C2  UNL     1     -33.557  15.816  -3.587  1.00 20.00     0.117 C 
HETATM    3  C3  UNL     1     -34.407  15.051  -7.483  1.00 20.00     0.033 C 
HETATM    4  C4  UNL     1     -33.679  16.896  -2.521  1.00 20.00     0.033 C 
HETATM    5  S5  UNL     1     -33.837  16.553  -5.247  1.00 20.00    -0.137 SA
HETATM    6  S6  UNL     1     -34.689  13.674  -5.134  1.00 20.00    -0.081 SA
HETATM    7  S7  UNL     1     -34.742  14.486  -3.263  1.00 20.00    -0.081 SA
ENDROOT
TORSDOF 0
ENDMDL
MODEL 7
REMARK VINA RESULT:      -2.8      1.642      2.448
REMARK  0 active torsions:
REMARK  status: ('A' for Active; 'I' for Inactive)
ROOT
HETATM    1  C1  UNL     1     -34.380  17.478  -4.838  1.00 20.00     0.117 C 
HETATM    2  C2  UNL     1     -33.891  16.513  -2.225  1.00 20.00     0.117 C 
HETATM    3  C3  UNL     1     -33.629  18.349  -5.837  1.00 20.00     0.033 C 
HETATM    4  C4  UNL     1     -34.600  16.605  -0.880  1.00 20.00     0.033 C 
HETATM    5  S5  UNL     1     -34.087  18.099  -3.134  1.00 20.00    -0.137 SA
HETATM    6  S6  UNL     1     -33.851  15.754  -4.997  1.00 20.00    -0.081 SA
HETATM    7  S7  UNL     1     -34.558  15.132  -3.186  1.00 20.00    -0.081 SA
ENDROOT
TORSDOF 0
ENDMDL
MODEL 8
REMARK VINA RESULT:      -2.7      1.916      1.942
REMARK  0 active torsions:
REMARK  status: ('A' for Active; 'I' for Inactive)
ROOT
HETATM    1  C1  UNL     1     -34.696  14.178  -3.631  1.00 20.00     0.117 C 
HETATM    2  C2  UNL     1     -35.548  16.848  -3.249  1.00 20.00     0.117 C 
HETATM    3  C3  UNL     1     -34.696  13.189  -4.789  1.00 20.00     0.033 C 
HETATM    4  C4  UNL     1     -36.509  17.561  -2.308  1.00 20.00     0.033 C 
HETATM    5  S5  UNL     1     -36.225  15.197  -3.689  1.00 20.00    -0.137 SA
HETATM    6  S6  UNL     1     -33.220  15.224  -3.706  1.00 20.00    -0.081 SA
HETATM    7  S7  UNL     1     -33.920  16.693  -2.474  1.00 20.00    -0.081 SA
ENDROOT
TORSDOF 0
ENDMDL
MODEL 9
REMARK VINA RESULT:      -2.7      1.910      3.438
REMARK  0 active torsions:
REMARK  status: ('A' for Active; 'I' for Inactive)
ROOT
HETATM    1  C1  UNL     1     -35.645  16.871  -3.269  1.00 20.00     0.117 C 
HETATM    2  C2  UNL     1     -34.705  14.224  -3.605  1.00 20.00     0.117 C 
HETATM    3  C3  UNL     1     -36.618  17.570  -2.329  1.00 20.00     0.033 C 
HETATM    4  C4  UNL     1     -34.687  13.211  -4.742  1.00 20.00     0.033 C 
HETATM    5  S5  UNL     1     -36.270  15.188  -3.663  1.00 20.00    -0.137 SA
HETATM    6  S6  UNL     1     -34.002  16.788  -2.513  1.00 20.00    -0.081 SA
HETATM    7  S7  UNL     1     -33.268  15.317  -3.723  1.00 20.00    -0.081 SA
ENDROOT
TORSDOF 0
ENDMDL
