MODEL 1
REMARK VINA RESULT:      -4.7      0.000      0.000
REMARK  1 active torsions:
REMARK  status: ('A' for Active; 'I' for Inactive)
REMARK    1  A    between atoms: C5_5  and  O10_10 
ROOT
HETATM    1  C1  UNL     1     -33.368  15.268  -3.209  1.00 20.00     0.007 C 
HETATM    2  C2  UNL     1     -34.253  16.018  -2.530  1.00 20.00    -0.084 C 
HETATM    3  C3  UNL     1     -35.745  15.876  -2.728  1.00 20.00     0.042 C 
HETATM    4  C4  UNL     1     -35.256  13.870  -4.169  1.00 20.00     0.045 C 
HETATM    5  C5  UNL     1     -33.763  14.219  -4.208  1.00 20.00     0.142 C 
HETATM    6  C6  UNL     1     -36.156  15.113  -4.014  1.00 20.00    -0.042 C 
HETATM    7  C7  UNL     1     -33.815  17.037  -1.520  1.00 20.00     0.043 C 
HETATM    8  C8  UNL     1     -36.036  16.033  -5.246  1.00 20.00     0.015 C 
HETATM    9  C9  UNL     1     -37.624  14.667  -3.891  1.00 20.00     0.015 C 
ENDROOT
BRANCH   5  10
HETATM   10  O10 UNL     1     -33.006  13.033  -3.977  1.00 20.00    -0.392 OA
HETATM   11  H26 UNL     1     -33.251  12.409  -4.678  1.00 20.00     0.210 HD
ENDBRANCH   5  10
TORSDOF 1
ENDMDL
MODEL 2
REMARK VINA RESULT:      -4.6      1.434      1.859
REMARK  1 active torsions:
REMARK  status: ('A' for Active; 'I' for Inactive)
REMARK    1  A    between atoms: C5_5  and  O10_10 
ROOT
HETATM    1  C1  UNL     1     -34.365  14.495  -3.102  1.00 20.00     0.007 C 
HETATM    2  C2  UNL     1     -34.716  15.764  -2.831  1.00 20.00    -0.084 C 
HETATM    3  C3  UNL     1     -35.346  16.663  -3.871  1.00 20.00     0.042 C 
HETATM    4  C4  UNL     1     -35.487  14.647  -5.374  1.00 20.00     0.045 C 
HETATM    5  C5  UNL     1     -34.574  13.843  -4.438  1.00 20.00     0.142 C 
HETATM    6  C6  UNL     1     -35.201  16.162  -5.331  1.00 20.00    -0.042 C 
HETATM    7  C7  UNL     1     -34.513  16.368  -1.473  1.00 20.00     0.043 C 
HETATM    8  C8  UNL     1     -33.786  16.466  -5.865  1.00 20.00     0.015 C 
HETATM    9  C9  UNL     1     -36.217  16.897  -6.223  1.00 20.00     0.015 C 
ENDROOT
BRANCH   5  10
HETATM   10  O10 UNL     1     -35.132  12.545  -4.252  1.00 20.00    -0.392 OA
HETATM   11  H26 UNL     1     -36.069  12.675  -4.037  1.00 20.00     0.210 HD
ENDBRANCH   5  10
TORSDOF 1
ENDMDL
MODEL 3
REMARK VINA RESULT:      -4.6      1.549      3.172
REMARK  1 active torsions:
REMARK  status: ('A' for Active; 'I' for Inactive)
REMARK    1  A    between atoms: C5_5  and  O10_10 
ROOT
HETATM    1  C1  UNL     1     -35.248  14.502  -5.571  1.00 20.00     0.007 C 
HETATM    2  C2  UNL     1     -34.625  15.678  -5.763  1.00 20.00    -0.084 C 
HETATM    3  C3  UNL     1     -34.105  16.508  -4.611  1.00 20.00     0.042 C 
HETATM    4  C4  UNL     1     -34.679  14.577  -3.099  1.00 20.00     0.045 C 
HETATM    5  C5  UNL     1     -35.475  13.894  -4.218  1.00 20.00     0.142 C 
HETATM    6  C6  UNL     1     -34.674  16.115  -3.223  1.00 20.00    -0.042 C 
HETATM    7  C7  UNL     1     -34.396  16.236  -7.136  1.00 20.00     0.043 C 
HETATM    8  C8  UNL     1     -36.097  16.682  -3.045  1.00 20.00     0.015 C 
HETATM    9  C9  UNL     1     -33.780  16.712  -2.122  1.00 20.00     0.015 C 
ENDROOT
BRANCH   5  10
HETATM   10  O10 UNL     1     -35.129  12.511  -4.253  1.00 20.00    -0.392 OA
HETATM   11  H26 UNL     1     -35.527  12.107  -3.466  1.00 20.00     0.210 HD
ENDBRANCH   5  10
TORSDOF 1
ENDMDL
MODEL 4
REMARK VINA RESULT:      -4.5      0.895      3.120
REMARK  1 active torsions:
REMARK  status: ('A' for Active; 'I' for Inactive)
REMARK    1  A    between atoms: C5_5  and  O10_10 
ROOT
HETATM    1  C1  UNL     1     -35.428  13.840  -3.850  1.00 20.00     0.007 C 
HETATM    2  C2  UNL     1     -36.224  14.912  -4.000  1.00 20.00    -0.084 C 
HETATM    3  C3  UNL     1     -35.719  16.322  -3.794  1.00 20.00     0.042 C 
HETATM    4  C4  UNL     1     -33.406  15.349  -3.585  1.00 20.00     0.045 C 
HETATM    5  C5  UNL     1     -33.975  13.929  -3.483  1.00 20.00     0.142 C 
HETATM    6  C6  UNL     1     -34.371  16.420  -3.036  1.00 20.00    -0.042 C 
HETATM    7  C7  UNL     1     -37.666  14.778  -4.394  1.00 20.00     0.043 C 
HETATM    8  C8  UNL     1     -34.591  16.233  -1.521  1.00 20.00     0.015 C 
HETATM    9  C9  UNL     1     -33.763  17.817  -3.260  1.00 20.00     0.015 C 
ENDROOT
BRANCH   5  10
HETATM   10  O10 UNL     1     -33.217  13.066  -4.327  1.00 20.00    -0.392 OA
HETATM   11  H26 UNL     1     -33.750  12.266  -4.454  1.00 20.00     0.210 HD
ENDBRANCH   5  10
TORSDOF 1
ENDMDL
MODEL 5
REMARK VINA RESULT:      -4.3      1.883      2.850
REMARK  1 active torsions:
REMARK  status: ('A' for Active; 'I' for Inactive)
REMARK    1  A    between atoms: C5_5  and  O10_10 
ROOT
HETATM    1  C1  UNL     1     -35.792  14.822  -3.454  1.00 20.00     0.007 C 
HETATM    2  C2  UNL     1     -36.234  16.004  -3.918  1.00 20.00    -0.084 C 
HETATM    3  C3  UNL     1     -35.810  16.547  -5.263  1.00 20.00     0.042 C 
HETATM    4  C4  UNL     1     -34.692  14.331  -5.688  1.00 20.00     0.045 C 
HETATM    5  C5  UNL     1     -34.861  13.926  -4.218  1.00 20.00     0.142 C 
HETATM    6  C6  UNL     1     -34.564  15.857  -5.875  1.00 20.00    -0.042 C 
HETATM    7  C7  UNL     1     -37.186  16.856  -3.132  1.00 20.00     0.043 C 
HETATM    8  C8  UNL     1     -33.276  16.384  -5.210  1.00 20.00     0.015 C 
HETATM    9  C9  UNL     1     -34.492  16.181  -7.378  1.00 20.00     0.015 C 
ENDROOT
BRANCH   5  10
HETATM   10  O10 UNL     1     -35.338  12.584  -4.161  1.00 20.00    -0.392 OA
HETATM   11  H26 UNL     1     -36.286  12.619  -4.363  1.00 20.00     0.210 HD
ENDBRANCH   5  10
TORSDOF 1
ENDMDL
MODEL 6
REMARK VINA RESULT:      -4.3      2.065      2.579
REMARK  1 active torsions:
REMARK  status: ('A' for Active; 'I' for Inactive)
REMARK    1  A    between atoms: C5_5  and  O10_10 
ROOT
HETATM    1  C1  UNL     1     -34.242  17.382  -3.338  1.00 20.00     0.007 C 
HETATM    2  C2  UNL     1     -34.433  16.372  -2.472  1.00 20.00    -0.084 C 
HETATM    3  C3  UNL     1     -34.545  14.935  -2.926  1.00 20.00     0.042 C 
HETATM    4  C4  UNL     1     -33.908  15.724  -5.231  1.00 20.00     0.045 C 
HETATM    5  C5  UNL     1     -34.107  17.189  -4.821  1.00 20.00     0.142 C 
HETATM    6  C6  UNL     1     -34.813  14.756  -4.442  1.00 20.00    -0.042 C 
HETATM    7  C7  UNL     1     -34.536  16.608  -0.994  1.00 20.00     0.043 C 
HETATM    8  C8  UNL     1     -36.300  15.015  -4.759  1.00 20.00     0.015 C 
HETATM    9  C9  UNL     1     -34.484  13.307  -4.847  1.00 20.00     0.015 C 
ENDROOT
BRANCH   5  10
HETATM   10  O10 UNL     1     -33.006  17.957  -5.303  1.00 20.00    -0.392 OA
HETATM   11  H26 UNL     1     -32.470  18.186  -4.528  1.00 20.00     0.210 HD
ENDBRANCH   5  10
TORSDOF 1
ENDMDL
MODEL 7
REMARK VINA RESULT:      -4.3      3.574      5.278
REMARK  1 active torsions:
REMARK  status: ('A' for Active; 'I' for Inactive)
REMARK    1  A    between atoms: C5_5  and  O10_10 
ROOT
HETATM    1  C1  UNL     1     -33.465  19.119   1.252  1.00 20.00     0.007 C 
HETATM    2  C2  UNL     1     -34.449  18.258   1.562  1.00 20.00    -0.084 C 
HETATM    3  C3  UNL     1     -34.968  17.240   0.571  1.00 20.00     0.042 C 
HETATM    4  C4  UNL     1     -33.089  17.929  -0.958  1.00 20.00     0.045 C 
HETATM    5  C5  UNL     1     -32.780  19.151  -0.083  1.00 20.00     0.142 C 
HETATM    6  C6  UNL     1     -34.574  17.516  -0.902  1.00 20.00    -0.042 C 
HETATM    7  C7  UNL     1     -35.089  18.243   2.919  1.00 20.00     0.043 C 
HETATM    8  C8  UNL     1     -35.471  18.618  -1.501  1.00 20.00     0.015 C 
HETATM    9  C9  UNL     1     -34.777  16.234  -1.730  1.00 20.00     0.015 C 
ENDROOT
BRANCH   5  10
HETATM   10  O10 UNL     1     -31.369  19.237   0.107  1.00 20.00    -0.392 OA
HETATM   11  H26 UNL     1     -30.986  18.449  -0.309  1.00 20.00     0.210 HD
ENDBRANCH   5  10
TORSDOF 1
ENDMDL
MODEL 8
REMARK VINA RESULT:      -4.2      2.146      4.026
REMARK  1 active torsions:
REMARK  status: ('A' for Active; 'I' for Inactive)
REMARK    1  A    between atoms: C5_5  and  O10_10 
ROOT
HETATM    1  C1  UNL     1     -36.708  15.338  -5.212  1.00 20.00     0.007 C 
HETATM    2  C2  UNL     1     -35.800  14.817  -6.055  1.00 20.00    -0.084 C 
HETATM    3  C3  UNL     1     -34.459  14.308  -5.577  1.00 20.00     0.042 C 
HETATM    4  C4  UNL     1     -35.286  14.657  -3.224  1.00 20.00     0.045 C 
HETATM    5  C5  UNL     1     -36.496  15.452  -3.730  1.00 20.00     0.142 C 
HETATM    6  C6  UNL     1     -34.061  14.777  -4.154  1.00 20.00    -0.042 C 
HETATM    7  C7  UNL     1     -36.065  14.698  -7.527  1.00 20.00     0.043 C 
HETATM    8  C8  UNL     1     -33.544  16.229  -4.191  1.00 20.00     0.015 C 
HETATM    9  C9  UNL     1     -32.929  13.880  -3.623  1.00 20.00     0.015 C 
ENDROOT
BRANCH   5  10
HETATM   10  O10 UNL     1     -37.663  15.001  -3.046  1.00 20.00    -0.392 OA
HETATM   11  H26 UNL     1     -37.355  14.517  -2.265  1.00 20.00     0.210 HD
ENDBRANCH   5  10
TORSDOF 1
ENDMDL
MODEL 9
REMARK VINA RESULT:      -4.2      1.404      3.343
REMARK  1 active torsions:
REMARK  status: ('A' for Active; 'I' for Inactive)
REMARK    1  A    between atoms: C5_5  and  O10_10 
ROOT
HETATM    1  C1  UNL     1     -34.566  14.844  -3.768  1.00 20.00     0.007 C 
HETATM    2  C2  UNL     1     -35.814  15.292  -3.550  1.00 20.00    -0.084 C 
HETATM    3  C3  UNL     1     -36.085  16.633  -2.906  1.00 20.00     0.042 C 
HETATM    4  C4  UNL     1     -33.613  17.088  -3.061  1.00 20.00     0.045 C 
HETATM    5  C5  UNL     1     -33.331  15.622  -3.416  1.00 20.00     0.142 C 
HETATM    6  C6  UNL     1     -34.867  17.258  -2.179  1.00 20.00    -0.042 C 
HETATM    7  C7  UNL     1     -37.021  14.493  -3.943  1.00 20.00     0.043 C 
HETATM    8  C8  UNL     1     -34.663  16.591  -0.803  1.00 20.00     0.015 C 
HETATM    9  C9  UNL     1     -35.128  18.757  -1.949  1.00 20.00     0.015 C 
ENDROOT
BRANCH   5  10
HETATM   10  O10 UNL     1     -32.414  15.579  -4.506  1.00 20.00    -0.392 OA
HETATM   11  H26 UNL     1     -32.034  14.687  -4.512  1.00 20.00     0.210 HD
ENDBRANCH   5  10
TORSDOF 1
ENDMDL
