MODEL 1
REMARK VINA RESULT:      -5.3      0.000      0.000
REMARK  0 active torsions:
REMARK  status: ('A' for Active; 'I' for Inactive)
ROOT
HETATM    1  C1  UNL     1     -34.719   5.412   6.605  1.00 20.00     0.003 C 
HETATM    2  C2  UNL     1     -35.194   4.305   6.023  1.00 20.00    -0.025 C 
HETATM    3  C3  UNL     1     -33.914   6.379   5.874  1.00 20.00    -0.059 C 
HETATM    4  C4  UNL     1     -33.890   6.370   4.519  1.00 20.00    -0.070 C 
HETATM    5  C5  UNL     1     -34.931   4.021   4.578  1.00 20.00     0.040 C 
HETATM    6  C6  UNL     1     -34.679   5.301   3.725  1.00 20.00    -0.021 C 
HETATM    7  C7  UNL     1     -33.171   7.342   6.759  1.00 20.00     0.048 C 
HETATM    8  C8  UNL     1     -33.157   7.410   3.706  1.00 20.00     0.044 C 
HETATM    9  C9  UNL     1     -33.935   4.850   2.449  1.00 20.00     0.020 C 
HETATM   10  C10 UNL     1     -36.038   5.907   3.310  1.00 20.00     0.020 C 
ENDROOT
TORSDOF 0
ENDMDL
MODEL 2
REMARK VINA RESULT:      -4.7     12.041     13.893
REMARK  0 active torsions:
REMARK  status: ('A' for Active; 'I' for Inactive)
ROOT
HETATM    1  C1  UNL     1     -34.738  14.221  -6.237  1.00 20.00     0.003 C 
HETATM    2  C2  UNL     1     -34.931  13.433  -5.174  1.00 20.00    -0.025 C 
HETATM    3  C3  UNL     1     -34.428  15.636  -6.096  1.00 20.00    -0.059 C 
HETATM    4  C4  UNL     1     -34.000  16.133  -4.910  1.00 20.00    -0.070 C 
HETATM    5  C5  UNL     1     -34.815  13.971  -3.783  1.00 20.00     0.040 C 
HETATM    6  C6  UNL     1     -33.881  15.214  -3.670  1.00 20.00    -0.021 C 
HETATM    7  C7  UNL     1     -34.613  16.426  -7.363  1.00 20.00     0.048 C 
HETATM    8  C8  UNL     1     -33.565  17.567  -4.731  1.00 20.00     0.044 C 
HETATM    9  C9  UNL     1     -34.261  15.941  -2.361  1.00 20.00     0.020 C 
HETATM   10  C10 UNL     1     -32.416  14.736  -3.556  1.00 20.00     0.020 C 
ENDROOT
TORSDOF 0
ENDMDL
MODEL 3
REMARK VINA RESULT:      -4.4     12.225     12.845
REMARK  0 active torsions:
REMARK  status: ('A' for Active; 'I' for Inactive)
ROOT
HETATM    1  C1  UNL     1     -36.130  16.409  -2.758  1.00 20.00     0.003 C 
HETATM    2  C2  UNL     1     -36.980  15.668  -3.476  1.00 20.00    -0.025 C 
HETATM    3  C3  UNL     1     -34.719  16.069  -2.649  1.00 20.00    -0.059 C 
HETATM    4  C4  UNL     1     -34.151  15.199  -3.520  1.00 20.00    -0.070 C 
HETATM    5  C5  UNL     1     -36.510  14.458  -4.220  1.00 20.00     0.040 C 
HETATM    6  C6  UNL     1     -35.003  14.514  -4.615  1.00 20.00    -0.021 C 
HETATM    7  C7  UNL     1     -34.010  16.777  -1.527  1.00 20.00     0.048 C 
HETATM    8  C8  UNL     1     -32.674  14.888  -3.520  1.00 20.00     0.044 C 
HETATM    9  C9  UNL     1     -34.557  13.060  -4.882  1.00 20.00     0.020 C 
HETATM   10  C10 UNL     1     -34.853  15.319  -5.924  1.00 20.00     0.020 C 
ENDROOT
TORSDOF 0
ENDMDL
MODEL 4
REMARK VINA RESULT:      -4.3      8.194     10.260
REMARK  0 active torsions:
REMARK  status: ('A' for Active; 'I' for Inactive)
ROOT
HETATM    1  C1  UNL     1     -41.254   7.047  -0.797  1.00 20.00     0.003 C 
HETATM    2  C2  UNL     1     -40.509   6.067  -0.273  1.00 20.00    -0.025 C 
HETATM    3  C3  UNL     1     -42.115   6.824  -1.949  1.00 20.00    -0.059 C 
HETATM    4  C4  UNL     1     -42.448   5.565  -2.326  1.00 20.00    -0.070 C 
HETATM    5  C5  UNL     1     -40.544   4.684  -0.841  1.00 20.00     0.040 C 
HETATM    6  C6  UNL     1     -41.880   4.341  -1.569  1.00 20.00    -0.021 C 
HETATM    7  C7  UNL     1     -42.575   8.091  -2.617  1.00 20.00     0.048 C 
HETATM    8  C8  UNL     1     -43.417   5.275  -3.447  1.00 20.00     0.044 C 
HETATM    9  C9  UNL     1     -41.583   3.153  -2.511  1.00 20.00     0.020 C 
HETATM   10  C10 UNL     1     -42.923   3.887  -0.524  1.00 20.00     0.020 C 
ENDROOT
TORSDOF 0
ENDMDL
MODEL 5
REMARK VINA RESULT:      -4.3     12.056     13.214
REMARK  0 active torsions:
REMARK  status: ('A' for Active; 'I' for Inactive)
ROOT
HETATM    1  C1  UNL     1     -36.605  14.692  -3.740  1.00 20.00     0.003 C 
HETATM    2  C2  UNL     1     -37.077  15.898  -3.405  1.00 20.00    -0.025 C 
HETATM    3  C3  UNL     1     -35.184  14.452  -3.942  1.00 20.00    -0.059 C 
HETATM    4  C4  UNL     1     -34.265  15.336  -3.484  1.00 20.00    -0.070 C 
HETATM    5  C5  UNL     1     -36.153  17.057  -3.203  1.00 20.00     0.040 C 
HETATM    6  C6  UNL     1     -34.711  16.642  -2.782  1.00 20.00    -0.021 C 
HETATM    7  C7  UNL     1     -34.882  13.166  -4.663  1.00 20.00     0.048 C 
HETATM    8  C8  UNL     1     -32.778  15.092  -3.572  1.00 20.00     0.044 C 
HETATM    9  C9  UNL     1     -33.787  17.833  -3.116  1.00 20.00     0.020 C 
HETATM   10  C10 UNL     1     -34.677  16.410  -1.255  1.00 20.00     0.020 C 
ENDROOT
TORSDOF 0
ENDMDL
MODEL 6
REMARK VINA RESULT:      -4.3     12.388     14.531
REMARK  0 active torsions:
REMARK  status: ('A' for Active; 'I' for Inactive)
ROOT
HETATM    1  C1  UNL     1     -34.814  16.601  -6.817  1.00 20.00     0.003 C 
HETATM    2  C2  UNL     1     -34.044  17.392  -6.062  1.00 20.00    -0.025 C 
HETATM    3  C3  UNL     1     -34.906  15.168  -6.581  1.00 20.00    -0.059 C 
HETATM    4  C4  UNL     1     -34.487  14.635  -5.406  1.00 20.00    -0.070 C 
HETATM    5  C5  UNL     1     -33.252  16.837  -4.921  1.00 20.00     0.040 C 
HETATM    6  C6  UNL     1     -33.859  15.535  -4.315  1.00 20.00    -0.021 C 
HETATM    7  C7  UNL     1     -35.505  14.401  -7.728  1.00 20.00     0.048 C 
HETATM    8  C8  UNL     1     -34.652  13.174  -5.065  1.00 20.00     0.044 C 
HETATM    9  C9  UNL     1     -32.720  14.823  -3.552  1.00 20.00     0.020 C 
HETATM   10  C10 UNL     1     -34.962  15.915  -3.302  1.00 20.00     0.020 C 
ENDROOT
TORSDOF 0
ENDMDL
MODEL 7
REMARK VINA RESULT:      -4.3     11.908     13.581
REMARK  0 active torsions:
REMARK  status: ('A' for Active; 'I' for Inactive)
ROOT
HETATM    1  C1  UNL     1     -34.685  14.317  -3.245  1.00 20.00     0.003 C 
HETATM    2  C2  UNL     1     -34.981  13.352  -4.122  1.00 20.00    -0.025 C 
HETATM    3  C3  UNL     1     -34.193  15.618  -3.672  1.00 20.00    -0.059 C 
HETATM    4  C4  UNL     1     -34.327  16.016  -4.961  1.00 20.00    -0.070 C 
HETATM    5  C5  UNL     1     -34.837  13.577  -5.594  1.00 20.00     0.040 C 
HETATM    6  C6  UNL     1     -34.962  15.073  -6.013  1.00 20.00    -0.021 C 
HETATM    7  C7  UNL     1     -33.571  16.425  -2.565  1.00 20.00     0.048 C 
HETATM    8  C8  UNL     1     -33.930  17.391  -5.440  1.00 20.00     0.044 C 
HETATM    9  C9  UNL     1     -34.295  15.207  -7.399  1.00 20.00     0.020 C 
HETATM   10  C10 UNL     1     -36.457  15.436  -6.152  1.00 20.00     0.020 C 
ENDROOT
TORSDOF 0
ENDMDL
MODEL 8
REMARK VINA RESULT:      -4.3     11.950     13.154
REMARK  0 active torsions:
REMARK  status: ('A' for Active; 'I' for Inactive)
ROOT
HETATM    1  C1  UNL     1     -35.670  13.790  -4.373  1.00 20.00     0.003 C 
HETATM    2  C2  UNL     1     -34.381  13.622  -4.062  1.00 20.00    -0.025 C 
HETATM    3  C3  UNL     1     -36.451  14.896  -3.838  1.00 20.00    -0.059 C 
HETATM    4  C4  UNL     1     -35.835  15.967  -3.280  1.00 20.00    -0.070 C 
HETATM    5  C5  UNL     1     -33.674  14.581  -3.158  1.00 20.00     0.040 C 
HETATM    6  C6  UNL     1     -34.293  16.012  -3.158  1.00 20.00    -0.021 C 
HETATM    7  C7  UNL     1     -37.938  14.718  -3.989  1.00 20.00     0.048 C 
HETATM    8  C8  UNL     1     -36.587  17.186  -2.802  1.00 20.00     0.044 C 
HETATM    9  C9  UNL     1     -33.827  16.702  -1.857  1.00 20.00     0.020 C 
HETATM   10  C10 UNL     1     -33.733  16.805  -4.359  1.00 20.00     0.020 C 
ENDROOT
TORSDOF 0
ENDMDL
MODEL 9
REMARK VINA RESULT:      -4.3     12.044     13.775
REMARK  0 active torsions:
REMARK  status: ('A' for Active; 'I' for Inactive)
ROOT
HETATM    1  C1  UNL     1     -33.946  17.207  -3.458  1.00 20.00     0.003 C 
HETATM    2  C2  UNL     1     -33.997  16.233  -2.542  1.00 20.00    -0.025 C 
HETATM    3  C3  UNL     1     -34.001  16.923  -4.884  1.00 20.00    -0.059 C 
HETATM    4  C4  UNL     1     -34.434  15.718  -5.330  1.00 20.00    -0.070 C 
HETATM    5  C5  UNL     1     -34.135  14.800  -2.948  1.00 20.00     0.040 C 
HETATM    6  C6  UNL     1     -34.830  14.605  -4.330  1.00 20.00    -0.021 C 
HETATM    7  C7  UNL     1     -33.562  18.073  -5.749  1.00 20.00     0.048 C 
HETATM    8  C8  UNL     1     -34.610  15.402  -6.796  1.00 20.00     0.044 C 
HETATM    9  C9  UNL     1     -34.441  13.198  -4.832  1.00 20.00     0.020 C 
HETATM   10  C10 UNL     1     -36.362  14.648  -4.135  1.00 20.00     0.020 C 
ENDROOT
TORSDOF 0
ENDMDL
