MODEL 1
REMARK VINA RESULT:      -3.4      0.000      0.000
REMARK  1 active torsions:
REMARK  status: ('A' for Active; 'I' for Inactive)
REMARK    1  A    between atoms: C4_4  and  C5_5 
ROOT
HETATM    1  C1  UNL     1     -35.791   5.752   3.933  1.00 20.00     0.015 C 
HETATM    2  C2  UNL     1     -34.743   3.927   5.280  1.00 20.00     0.015 C 
HETATM    3  C3  UNL     1     -34.243   6.331   5.806  1.00 20.00     0.015 C 
HETATM    4  C5  UNL     1     -34.511   5.323   4.675  1.00 20.00    -0.039 C 
ENDROOT
BRANCH   4   5
HETATM    5  C4  UNL     1     -33.351   5.304   3.654  1.00 20.00     0.122 C 
HETATM    6 CL6  UNL     1     -32.428   6.826   3.572  1.00 20.00    -0.130 Cl
ENDBRANCH   4   5
TORSDOF 1
ENDMDL
MODEL 2
REMARK VINA RESULT:      -3.4      0.325      1.795
REMARK  1 active torsions:
REMARK  status: ('A' for Active; 'I' for Inactive)
REMARK    1  A    between atoms: C4_4  and  C5_5 
ROOT
HETATM    1  C1  UNL     1     -34.301   6.328   6.002  1.00 20.00     0.015 C 
HETATM    2  C2  UNL     1     -35.666   5.750   3.991  1.00 20.00     0.015 C 
HETATM    3  C3  UNL     1     -34.699   3.930   5.425  1.00 20.00     0.015 C 
HETATM    4  C5  UNL     1     -34.452   5.330   4.838  1.00 20.00    -0.039 C 
ENDROOT
BRANCH   4   5
HETATM    5  C4  UNL     1     -33.150   5.368   4.006  1.00 20.00     0.122 C 
HETATM    6 CL6  UNL     1     -32.861   6.919   3.176  1.00 20.00    -0.130 Cl
ENDBRANCH   4   5
TORSDOF 1
ENDMDL
MODEL 3
REMARK VINA RESULT:      -3.2      1.586      2.209
REMARK  1 active torsions:
REMARK  status: ('A' for Active; 'I' for Inactive)
REMARK    1  A    between atoms: C4_4  and  C5_5 
ROOT
HETATM    1  C1  UNL     1     -33.896   4.986   2.769  1.00 20.00     0.015 C 
HETATM    2  C2  UNL     1     -34.902   4.136   4.892  1.00 20.00     0.015 C 
HETATM    3  C3  UNL     1     -36.054   5.943   3.585  1.00 20.00     0.015 C 
HETATM    4  C5  UNL     1     -34.689   5.390   4.027  1.00 20.00    -0.039 C 
ENDROOT
BRANCH   4   5
HETATM    5  C4  UNL     1     -33.869   6.459   4.784  1.00 20.00     0.122 C 
HETATM    6 CL6  UNL     1     -34.097   6.436   6.552  1.00 20.00    -0.130 Cl
ENDBRANCH   4   5
TORSDOF 1
ENDMDL
MODEL 4
REMARK VINA RESULT:      -3.2      1.592      2.560
REMARK  1 active torsions:
REMARK  status: ('A' for Active; 'I' for Inactive)
REMARK    1  A    between atoms: C4_4  and  C5_5 
ROOT
HETATM    1  C1  UNL     1     -34.871   4.205   4.921  1.00 20.00     0.015 C 
HETATM    2  C2  UNL     1     -36.066   5.985   3.638  1.00 20.00     0.015 C 
HETATM    3  C3  UNL     1     -33.972   4.954   2.714  1.00 20.00     0.015 C 
HETATM    4  C5  UNL     1     -34.680   5.423   3.996  1.00 20.00    -0.039 C 
ENDROOT
BRANCH   4   5
HETATM    5  C4  UNL     1     -33.831   6.469   4.755  1.00 20.00     0.122 C 
HETATM    6 CL6  UNL     1     -34.103   6.487   6.517  1.00 20.00    -0.130 Cl
ENDBRANCH   4   5
TORSDOF 1
ENDMDL
MODEL 5
REMARK VINA RESULT:      -3.0      2.063      2.897
REMARK  1 active torsions:
REMARK  status: ('A' for Active; 'I' for Inactive)
REMARK    1  A    between atoms: C4_4  and  C5_5 
ROOT
HETATM    1  C1  UNL     1     -34.028   6.393   5.013  1.00 20.00     0.015 C 
HETATM    2  C2  UNL     1     -33.736   5.241   2.816  1.00 20.00     0.015 C 
HETATM    3  C3  UNL     1     -36.014   5.996   3.551  1.00 20.00     0.015 C 
HETATM    4  C5  UNL     1     -34.675   5.406   4.023  1.00 20.00    -0.039 C 
ENDROOT
BRANCH   4   5
HETATM    5  C4  UNL     1     -34.882   4.062   4.758  1.00 20.00     0.122 C 
HETATM    6 CL6  UNL     1     -35.185   4.227   6.507  1.00 20.00    -0.130 Cl
ENDBRANCH   4   5
TORSDOF 1
ENDMDL
MODEL 6
REMARK VINA RESULT:      -2.9     12.065     12.717
REMARK  1 active torsions:
REMARK  status: ('A' for Active; 'I' for Inactive)
REMARK    1  A    between atoms: C4_4  and  C5_5 
ROOT
HETATM    1  C1  UNL     1     -34.122  15.586  -5.305  1.00 20.00     0.015 C 
HETATM    2  C2  UNL     1     -33.488  13.693  -3.803  1.00 20.00     0.015 C 
HETATM    3  C3  UNL     1     -35.759  14.747  -3.615  1.00 20.00     0.015 C 
HETATM    4  C5  UNL     1     -34.269  15.017  -3.881  1.00 20.00    -0.039 C 
ENDROOT
BRANCH   4   5
HETATM    5  C4  UNL     1     -33.702  16.060  -2.890  1.00 20.00     0.122 C 
HETATM    6 CL6  UNL     1     -34.657  16.239  -1.396  1.00 20.00    -0.130 Cl
ENDBRANCH   4   5
TORSDOF 1
ENDMDL
MODEL 7
REMARK VINA RESULT:      -2.9     12.021     12.762
REMARK  1 active torsions:
REMARK  status: ('A' for Active; 'I' for Inactive)
REMARK    1  A    between atoms: C4_4  and  C5_5 
ROOT
HETATM    1  C1  UNL     1     -34.561  15.489  -5.452  1.00 20.00     0.015 C 
HETATM    2  C2  UNL     1     -32.964  14.934  -3.613  1.00 20.00     0.015 C 
HETATM    3  C3  UNL     1     -34.803  13.334  -4.212  1.00 20.00     0.015 C 
HETATM    4  C5  UNL     1     -34.428  14.819  -4.071  1.00 20.00    -0.039 C 
ENDROOT
BRANCH   4   5
HETATM    5  C4  UNL     1     -35.379  15.548  -3.095  1.00 20.00     0.122 C 
HETATM    6 CL6  UNL     1     -34.584  16.147  -1.616  1.00 20.00    -0.130 Cl
ENDBRANCH   4   5
TORSDOF 1
ENDMDL
MODEL 8
REMARK VINA RESULT:      -2.9     12.027     12.772
REMARK  1 active torsions:
REMARK  status: ('A' for Active; 'I' for Inactive)
REMARK    1  A    between atoms: C4_4  and  C5_5 
ROOT
HETATM    1  C1  UNL     1     -34.765  13.359  -4.177  1.00 20.00     0.015 C 
HETATM    2  C2  UNL     1     -34.578  15.490  -5.468  1.00 20.00     0.015 C 
HETATM    3  C3  UNL     1     -32.966  14.996  -3.608  1.00 20.00     0.015 C 
HETATM    4  C5  UNL     1     -34.425  14.858  -4.073  1.00 20.00    -0.039 C 
ENDROOT
BRANCH   4   5
HETATM    5  C4  UNL     1     -35.400  15.499  -3.059  1.00 20.00     0.122 C 
HETATM    6 CL6  UNL     1     -34.608  16.163  -1.607  1.00 20.00    -0.130 Cl
ENDBRANCH   4   5
TORSDOF 1
ENDMDL
MODEL 9
REMARK VINA RESULT:      -2.9     12.033     12.780
REMARK  1 active torsions:
REMARK  status: ('A' for Active; 'I' for Inactive)
REMARK    1  A    between atoms: C4_4  and  C5_5 
ROOT
HETATM    1  C1  UNL     1     -33.014  14.996  -3.592  1.00 20.00     0.015 C 
HETATM    2  C2  UNL     1     -34.765  13.328  -4.219  1.00 20.00     0.015 C 
HETATM    3  C3  UNL     1     -34.560  15.481  -5.494  1.00 20.00     0.015 C 
HETATM    4  C5  UNL     1     -34.458  14.831  -4.104  1.00 20.00    -0.039 C 
ENDROOT
BRANCH   4   5
HETATM    5  C4  UNL     1     -35.403  15.519  -3.092  1.00 20.00     0.122 C 
HETATM    6 CL6  UNL     1     -34.584  16.140  -1.636  1.00 20.00    -0.130 Cl
ENDBRANCH   4   5
TORSDOF 1
ENDMDL
