MODEL 1
REMARK VINA RESULT:      -4.6      0.000      0.000
REMARK  1 active torsions:
REMARK  status: ('A' for Active; 'I' for Inactive)
REMARK    1  A    between atoms: C2_2  and  C3_3 
ROOT
HETATM    1  C1  UNL     1     -33.993   6.560   6.417  1.00 20.00     0.023 C 
HETATM    2  C2  UNL     1     -34.324   5.612   5.528  1.00 20.00    -0.009 C 
HETATM    3  C4  UNL     1     -34.968   4.325   5.954  1.00 20.00     0.052 C 
ENDROOT
BRANCH   2   4
HETATM    4  C3  UNL     1     -34.068   5.781   4.051  1.00 20.00     0.247 C 
HETATM    5  O5  UNL     1     -34.937   5.394   3.269  1.00 20.00    -0.274 OA
HETATM    6 CL6  UNL     1     -32.570   6.508   3.499  1.00 20.00    -0.039 Cl
ENDBRANCH   2   4
TORSDOF 1
ENDMDL
MODEL 2
REMARK VINA RESULT:      -4.5      0.120      1.438
REMARK  1 active torsions:
REMARK  status: ('A' for Active; 'I' for Inactive)
REMARK    1  A    between atoms: C2_2  and  C3_3 
ROOT
HETATM    1  C1  UNL     1     -34.923   4.310   5.949  1.00 20.00     0.023 C 
HETATM    2  C2  UNL     1     -34.401   5.465   5.510  1.00 20.00    -0.009 C 
HETATM    3  C4  UNL     1     -34.013   6.563   6.458  1.00 20.00     0.052 C 
ENDROOT
BRANCH   2   4
HETATM    4  C3  UNL     1     -34.174   5.730   4.043  1.00 20.00     0.247 C 
HETATM    5  O5  UNL     1     -35.083   5.454   3.260  1.00 20.00    -0.274 OA
HETATM    6 CL6  UNL     1     -32.649   6.411   3.502  1.00 20.00    -0.039 Cl
ENDBRANCH   2   4
TORSDOF 1
ENDMDL
MODEL 3
REMARK VINA RESULT:      -4.3      1.516      1.516
REMARK  1 active torsions:
REMARK  status: ('A' for Active; 'I' for Inactive)
REMARK    1  A    between atoms: C2_2  and  C3_3 
ROOT
HETATM    1  C1  UNL     1     -33.899   6.776   6.570  1.00 20.00     0.023 C 
HETATM    2  C2  UNL     1     -34.167   5.871   5.617  1.00 20.00    -0.009 C 
HETATM    3  C4  UNL     1     -34.979   4.641   5.906  1.00 20.00     0.052 C 
ENDROOT
BRANCH   2   4
HETATM    4  C3  UNL     1     -33.672   6.033   4.201  1.00 20.00     0.247 C 
HETATM    5  O5  UNL     1     -32.662   6.713   4.020  1.00 20.00    -0.274 OA
HETATM    6 CL6  UNL     1     -34.533   5.265   2.879  1.00 20.00    -0.039 Cl
ENDBRANCH   2   4
TORSDOF 1
ENDMDL
MODEL 4
REMARK VINA RESULT:      -4.2      2.417      3.236
REMARK  1 active torsions:
REMARK  status: ('A' for Active; 'I' for Inactive)
REMARK    1  A    between atoms: C2_2  and  C3_3 
ROOT
HETATM    1  C1  UNL     1     -34.787   5.420   3.228  1.00 20.00     0.023 C 
HETATM    2  C2  UNL     1     -33.953   5.906   4.159  1.00 20.00    -0.009 C 
HETATM    3  C4  UNL     1     -32.680   6.608   3.785  1.00 20.00     0.052 C 
ENDROOT
BRANCH   2   4
HETATM    4  C3  UNL     1     -34.243   5.777   5.634  1.00 20.00     0.247 C 
HETATM    5  O5  UNL     1     -33.862   6.682   6.376  1.00 20.00    -0.274 OA
HETATM    6 CL6  UNL     1     -35.097   4.368   6.238  1.00 20.00    -0.039 Cl
ENDBRANCH   2   4
TORSDOF 1
ENDMDL
MODEL 5
REMARK VINA RESULT:      -4.1      1.926      2.290
REMARK  1 active torsions:
REMARK  status: ('A' for Active; 'I' for Inactive)
REMARK    1  A    between atoms: C2_2  and  C3_3 
ROOT
HETATM    1  C1  UNL     1     -35.532   5.334   3.703  1.00 20.00     0.023 C 
HETATM    2  C2  UNL     1     -34.769   5.275   4.804  1.00 20.00    -0.009 C 
HETATM    3  C4  UNL     1     -34.928   4.175   5.814  1.00 20.00     0.052 C 
ENDROOT
BRANCH   2   4
HETATM    4  C3  UNL     1     -33.707   6.306   5.094  1.00 20.00     0.247 C 
HETATM    5  O5  UNL     1     -32.929   6.602   4.187  1.00 20.00    -0.274 OA
HETATM    6 CL6  UNL     1     -33.612   7.041   6.685  1.00 20.00    -0.039 Cl
ENDBRANCH   2   4
TORSDOF 1
ENDMDL
MODEL 6
REMARK VINA RESULT:      -4.1      1.685      2.087
REMARK  1 active torsions:
REMARK  status: ('A' for Active; 'I' for Inactive)
REMARK    1  A    between atoms: C2_2  and  C3_3 
ROOT
HETATM    1  C1  UNL     1     -35.567   5.341   3.767  1.00 20.00     0.023 C 
HETATM    2  C2  UNL     1     -34.794   5.261   4.860  1.00 20.00    -0.009 C 
HETATM    3  C4  UNL     1     -34.960   4.155   5.862  1.00 20.00     0.052 C 
ENDROOT
BRANCH   2   4
HETATM    4  C3  UNL     1     -33.714   6.274   5.148  1.00 20.00     0.247 C 
HETATM    5  O5  UNL     1     -33.665   6.757   6.280  1.00 20.00    -0.274 OA
HETATM    6 CL6  UNL     1     -32.580   6.727   3.888  1.00 20.00    -0.039 Cl
ENDBRANCH   2   4
TORSDOF 1
ENDMDL
MODEL 7
REMARK VINA RESULT:      -4.1      2.061      2.919
REMARK  1 active torsions:
REMARK  status: ('A' for Active; 'I' for Inactive)
REMARK    1  A    between atoms: C2_2  and  C3_3 
ROOT
HETATM    1  C1  UNL     1     -35.113   5.448   3.481  1.00 20.00     0.023 C 
HETATM    2  C2  UNL     1     -34.143   5.897   4.292  1.00 20.00    -0.009 C 
HETATM    3  C4  UNL     1     -32.859   6.454   3.749  1.00 20.00     0.052 C 
ENDROOT
BRANCH   2   4
HETATM    4  C3  UNL     1     -34.284   5.870   5.794  1.00 20.00     0.247 C 
HETATM    5  O5  UNL     1     -34.906   4.934   6.297  1.00 20.00    -0.274 OA
HETATM    6 CL6  UNL     1     -33.572   7.148   6.763  1.00 20.00    -0.039 Cl
ENDBRANCH   2   4
TORSDOF 1
ENDMDL
MODEL 8
REMARK VINA RESULT:      -4.1      1.974      2.437
REMARK  1 active torsions:
REMARK  status: ('A' for Active; 'I' for Inactive)
REMARK    1  A    between atoms: C2_2  and  C3_3 
ROOT
HETATM    1  C1  UNL     1     -32.979   6.627   3.916  1.00 20.00     0.023 C 
HETATM    2  C2  UNL     1     -33.833   6.210   4.862  1.00 20.00    -0.009 C 
HETATM    3  C4  UNL     1     -33.761   6.724   6.270  1.00 20.00     0.052 C 
ENDROOT
BRANCH   2   4
HETATM    4  C3  UNL     1     -34.915   5.201   4.568  1.00 20.00     0.247 C 
HETATM    5  O5  UNL     1     -35.679   5.432   3.631  1.00 20.00    -0.274 OA
HETATM    6 CL6  UNL     1     -35.054   3.755   5.553  1.00 20.00    -0.039 Cl
ENDBRANCH   2   4
TORSDOF 1
ENDMDL
MODEL 9
REMARK VINA RESULT:      -3.6      1.975      2.374
REMARK  1 active torsions:
REMARK  status: ('A' for Active; 'I' for Inactive)
REMARK    1  A    between atoms: C2_2  and  C3_3 
ROOT
HETATM    1  C1  UNL     1     -33.898   6.492   6.367  1.00 20.00     0.023 C 
HETATM    2  C2  UNL     1     -33.958   6.063   5.098  1.00 20.00    -0.009 C 
HETATM    3  C4  UNL     1     -32.948   6.493   4.073  1.00 20.00     0.052 C 
ENDROOT
BRANCH   2   4
HETATM    4  C3  UNL     1     -35.040   5.126   4.624  1.00 20.00     0.247 C 
HETATM    5  O5  UNL     1     -35.070   3.992   5.103  1.00 20.00    -0.274 OA
HETATM    6 CL6  UNL     1     -36.203   5.665   3.425  1.00 20.00    -0.039 Cl
ENDBRANCH   2   4
TORSDOF 1
ENDMDL
