MODEL 1
REMARK VINA RESULT:      -2.9      0.000      0.000
REMARK  0 active torsions:
REMARK  status: ('A' for Active; 'I' for Inactive)
ROOT
HETATM    1  C1  UNL     1     -34.995   4.357   5.724  1.00 20.00     0.196 C 
HETATM    2  C2  UNL     1     -35.097   4.992   4.364  1.00 20.00     0.196 C 
HETATM    3  C3  UNL     1     -33.987   6.376   5.758  1.00 20.00     0.337 C 
HETATM    4  O4  UNL     1     -34.719   5.464   6.581  1.00 20.00    -0.365 OA
HETATM    5  O5  UNL     1     -34.068   5.980   4.385  1.00 20.00    -0.365 OA
ENDROOT
TORSDOF 0
ENDMDL
MODEL 2
REMARK VINA RESULT:      -2.9      0.444      1.765
REMARK  0 active torsions:
REMARK  status: ('A' for Active; 'I' for Inactive)
ROOT
HETATM    1  C1  UNL     1     -34.781   5.390   4.149  1.00 20.00     0.196 C 
HETATM    2  C2  UNL     1     -34.988   4.419   5.279  1.00 20.00     0.196 C 
HETATM    3  C3  UNL     1     -34.063   6.315   6.078  1.00 20.00     0.337 C 
HETATM    4  O4  UNL     1     -33.809   6.295   4.671  1.00 20.00    -0.365 OA
HETATM    5  O5  UNL     1     -34.949   5.250   6.438  1.00 20.00    -0.365 OA
ENDROOT
TORSDOF 0
ENDMDL
MODEL 3
REMARK VINA RESULT:      -2.8      0.859      2.354
REMARK  0 active torsions:
REMARK  status: ('A' for Active; 'I' for Inactive)
ROOT
HETATM    1  C1  UNL     1     -33.959   6.116   4.541  1.00 20.00     0.196 C 
HETATM    2  C2  UNL     1     -34.109   6.278   6.029  1.00 20.00     0.196 C 
HETATM    3  C3  UNL     1     -35.021   4.315   5.390  1.00 20.00     0.337 C 
HETATM    4  O4  UNL     1     -34.941   5.132   4.219  1.00 20.00    -0.365 OA
HETATM    5  O5  UNL     1     -34.343   4.945   6.482  1.00 20.00    -0.365 OA
ENDROOT
TORSDOF 0
ENDMDL
MODEL 4
REMARK VINA RESULT:      -2.8      0.860      1.705
REMARK  0 active torsions:
REMARK  status: ('A' for Active; 'I' for Inactive)
ROOT
HETATM    1  C1  UNL     1     -34.130   6.249   6.044  1.00 20.00     0.196 C 
HETATM    2  C2  UNL     1     -33.952   6.122   4.556  1.00 20.00     0.196 C 
HETATM    3  C3  UNL     1     -35.027   4.300   5.341  1.00 20.00     0.337 C 
HETATM    4  O4  UNL     1     -34.371   4.905   6.459  1.00 20.00    -0.365 OA
HETATM    5  O5  UNL     1     -34.926   5.145   4.190  1.00 20.00    -0.365 OA
ENDROOT
TORSDOF 0
ENDMDL
MODEL 5
REMARK VINA RESULT:      -2.7      1.368      1.835
REMARK  0 active torsions:
REMARK  status: ('A' for Active; 'I' for Inactive)
ROOT
HETATM    1  C1  UNL     1     -34.023   6.494   4.090  1.00 20.00     0.196 C 
HETATM    2  C2  UNL     1     -34.733   5.239   3.661  1.00 20.00     0.196 C 
HETATM    3  C3  UNL     1     -34.707   5.355   5.915  1.00 20.00     0.337 C 
HETATM    4  O4  UNL     1     -33.671   6.223   5.445  1.00 20.00    -0.365 OA
HETATM    5  O5  UNL     1     -35.491   4.880   4.815  1.00 20.00    -0.365 OA
ENDROOT
TORSDOF 0
ENDMDL
MODEL 6
REMARK VINA RESULT:      -2.5     12.328     12.733
REMARK  0 active torsions:
REMARK  status: ('A' for Active; 'I' for Inactive)
ROOT
HETATM    1  C1  UNL     1     -35.375  14.947  -3.413  1.00 20.00     0.196 C 
HETATM    2  C2  UNL     1     -35.854  13.851  -4.325  1.00 20.00     0.196 C 
HETATM    3  C3  UNL     1     -33.655  13.570  -3.903  1.00 20.00     0.337 C 
HETATM    4  O4  UNL     1     -33.961  14.935  -3.603  1.00 20.00    -0.365 OA
HETATM    5  O5  UNL     1     -34.857  12.842  -4.178  1.00 20.00    -0.365 OA
ENDROOT
TORSDOF 0
ENDMDL
MODEL 7
REMARK VINA RESULT:      -2.5     12.325     12.732
REMARK  0 active torsions:
REMARK  status: ('A' for Active; 'I' for Inactive)
ROOT
HETATM    1  C1  UNL     1     -35.821  13.856  -4.324  1.00 20.00     0.196 C 
HETATM    2  C2  UNL     1     -35.341  14.947  -3.407  1.00 20.00     0.196 C 
HETATM    3  C3  UNL     1     -33.624  13.568  -3.896  1.00 20.00     0.337 C 
HETATM    4  O4  UNL     1     -34.826  12.844  -4.176  1.00 20.00    -0.365 OA
HETATM    5  O5  UNL     1     -33.927  14.933  -3.592  1.00 20.00    -0.365 OA
ENDROOT
TORSDOF 0
ENDMDL
MODEL 8
REMARK VINA RESULT:      -2.5     12.334     13.049
REMARK  0 active torsions:
REMARK  status: ('A' for Active; 'I' for Inactive)
ROOT
HETATM    1  C1  UNL     1     -33.891  14.921  -4.459  1.00 20.00     0.196 C 
HETATM    2  C2  UNL     1     -33.655  13.545  -3.899  1.00 20.00     0.196 C 
HETATM    3  C3  UNL     1     -35.866  13.854  -4.229  1.00 20.00     0.337 C 
HETATM    4  O4  UNL     1     -35.271  15.154  -4.183  1.00 20.00    -0.365 OA
HETATM    5  O5  UNL     1     -34.851  12.844  -4.236  1.00 20.00    -0.365 OA
ENDROOT
TORSDOF 0
ENDMDL
MODEL 9
REMARK VINA RESULT:      -2.5     12.343     13.031
REMARK  0 active torsions:
REMARK  status: ('A' for Active; 'I' for Inactive)
ROOT
HETATM    1  C1  UNL     1     -33.660  13.581  -3.905  1.00 20.00     0.196 C 
HETATM    2  C2  UNL     1     -33.921  14.928  -4.523  1.00 20.00     0.196 C 
HETATM    3  C3  UNL     1     -35.877  13.840  -4.239  1.00 20.00     0.337 C 
HETATM    4  O4  UNL     1     -34.847  12.849  -4.207  1.00 20.00    -0.365 OA
HETATM    5  O5  UNL     1     -35.304  15.151  -4.252  1.00 20.00    -0.365 OA
ENDROOT
TORSDOF 0
ENDMDL
