MODEL 1
REMARK VINA RESULT:      -5.2      0.000      0.000
REMARK  0 active torsions:
REMARK  status: ('A' for Active; 'I' for Inactive)
ROOT
HETATM    1  C1  UNL     1     -34.727   5.294   5.129  1.00 20.00    -0.089 C 
HETATM    2  C2  UNL     1     -32.920   6.650   3.338  1.00 20.00    -0.089 C 
HETATM    3  C3  UNL     1     -35.137   4.302   5.934  1.00 20.00     0.014 C 
HETATM    4  C4  UNL     1     -32.511   7.642   2.535  1.00 20.00     0.014 C 
HETATM    5  C5  UNL     1     -33.919   6.466   5.632  1.00 20.00     0.037 C 
HETATM    6  C6  UNL     1     -35.019   5.311   3.648  1.00 20.00     0.037 C 
HETATM    7  C7  UNL     1     -32.629   6.632   4.820  1.00 20.00     0.037 C 
HETATM    8  C8  UNL     1     -33.729   5.478   2.835  1.00 20.00     0.037 C 
ENDROOT
TORSDOF 0
ENDMDL
MODEL 2
REMARK VINA RESULT:      -5.2      0.001      3.264
REMARK  0 active torsions:
REMARK  status: ('A' for Active; 'I' for Inactive)
ROOT
HETATM    1  C1  UNL     1     -32.920   6.650   3.339  1.00 20.00    -0.089 C 
HETATM    2  C2  UNL     1     -34.727   5.294   5.128  1.00 20.00    -0.089 C 
HETATM    3  C3  UNL     1     -32.510   7.643   2.535  1.00 20.00     0.014 C 
HETATM    4  C4  UNL     1     -35.136   4.302   5.932  1.00 20.00     0.014 C 
HETATM    5  C5  UNL     1     -32.629   6.632   4.820  1.00 20.00     0.037 C 
HETATM    6  C6  UNL     1     -33.728   5.478   2.835  1.00 20.00     0.037 C 
HETATM    7  C7  UNL     1     -33.919   6.466   5.631  1.00 20.00     0.037 C 
HETATM    8  C8  UNL     1     -35.018   5.311   3.647  1.00 20.00     0.037 C 
ENDROOT
TORSDOF 0
ENDMDL
MODEL 3
REMARK VINA RESULT:      -4.4      0.887      2.145
REMARK  0 active torsions:
REMARK  status: ('A' for Active; 'I' for Inactive)
ROOT
HETATM    1  C1  UNL     1     -34.793   4.713   6.026  1.00 20.00    -0.089 C 
HETATM    2  C2  UNL     1     -33.704   6.331   3.905  1.00 20.00    -0.089 C 
HETATM    3  C3  UNL     1     -35.696   4.355   6.951  1.00 20.00     0.014 C 
HETATM    4  C4  UNL     1     -32.801   6.688   2.980  1.00 20.00     0.014 C 
HETATM    5  C5  UNL     1     -34.846   4.210   4.604  1.00 20.00     0.037 C 
HETATM    6  C6  UNL     1     -33.660   5.666   6.323  1.00 20.00     0.037 C 
HETATM    7  C7  UNL     1     -34.836   5.377   3.609  1.00 20.00     0.037 C 
HETATM    8  C8  UNL     1     -33.650   6.833   5.328  1.00 20.00     0.037 C 
ENDROOT
TORSDOF 0
ENDMDL
MODEL 4
REMARK VINA RESULT:      -4.4      0.887      3.785
REMARK  0 active torsions:
REMARK  status: ('A' for Active; 'I' for Inactive)
ROOT
HETATM    1  C1  UNL     1     -33.701   6.328   3.905  1.00 20.00    -0.089 C 
HETATM    2  C2  UNL     1     -34.791   4.713   6.029  1.00 20.00    -0.089 C 
HETATM    3  C3  UNL     1     -32.798   6.684   2.979  1.00 20.00     0.014 C 
HETATM    4  C4  UNL     1     -35.694   4.358   6.954  1.00 20.00     0.014 C 
HETATM    5  C5  UNL     1     -34.834   5.377   3.611  1.00 20.00     0.037 C 
HETATM    6  C6  UNL     1     -33.646   6.832   5.328  1.00 20.00     0.037 C 
HETATM    7  C7  UNL     1     -34.845   4.210   4.606  1.00 20.00     0.037 C 
HETATM    8  C8  UNL     1     -33.658   5.666   6.324  1.00 20.00     0.037 C 
ENDROOT
TORSDOF 0
ENDMDL
MODEL 5
REMARK VINA RESULT:      -4.2     11.642     12.212
REMARK  0 active torsions:
REMARK  status: ('A' for Active; 'I' for Inactive)
ROOT
HETATM    1  C1  UNL     1     -34.685  16.114  -2.297  1.00 20.00    -0.089 C 
HETATM    2  C2  UNL     1     -34.934  14.236  -4.468  1.00 20.00    -0.089 C 
HETATM    3  C3  UNL     1     -34.634  16.501  -1.014  1.00 20.00     0.014 C 
HETATM    4  C4  UNL     1     -34.984  13.850  -5.752  1.00 20.00     0.014 C 
HETATM    5  C5  UNL     1     -33.456  15.703  -3.070  1.00 20.00     0.037 C 
HETATM    6  C6  UNL     1     -35.979  16.038  -3.071  1.00 20.00     0.037 C 
HETATM    7  C7  UNL     1     -33.640  14.314  -3.694  1.00 20.00     0.037 C 
HETATM    8  C8  UNL     1     -36.163  14.649  -3.696  1.00 20.00     0.037 C 
ENDROOT
TORSDOF 0
ENDMDL
MODEL 6
REMARK VINA RESULT:      -4.1     11.482     12.252
REMARK  0 active torsions:
REMARK  status: ('A' for Active; 'I' for Inactive)
ROOT
HETATM    1  C1  UNL     1     -34.913  14.124  -4.421  1.00 20.00    -0.089 C 
HETATM    2  C2  UNL     1     -34.492  16.149  -2.414  1.00 20.00    -0.089 C 
HETATM    3  C3  UNL     1     -34.987  13.633  -5.667  1.00 20.00     0.014 C 
HETATM    4  C4  UNL     1     -34.418  16.638  -1.168  1.00 20.00     0.014 C 
HETATM    5  C5  UNL     1     -33.630  14.130  -3.626  1.00 20.00     0.037 C 
HETATM    6  C6  UNL     1     -36.101  14.731  -3.715  1.00 20.00     0.037 C 
HETATM    7  C7  UNL     1     -33.304  15.540  -3.120  1.00 20.00     0.037 C 
HETATM    8  C8  UNL     1     -35.776  16.142  -3.208  1.00 20.00     0.037 C 
ENDROOT
TORSDOF 0
ENDMDL
MODEL 7
REMARK VINA RESULT:      -4.0     11.957     12.966
REMARK  0 active torsions:
REMARK  status: ('A' for Active; 'I' for Inactive)
ROOT
HETATM    1  C1  UNL     1     -34.544  15.694  -2.658  1.00 20.00    -0.089 C 
HETATM    2  C2  UNL     1     -34.545  15.544  -5.536  1.00 20.00    -0.089 C 
HETATM    3  C3  UNL     1     -34.640  16.299  -1.465  1.00 20.00     0.014 C 
HETATM    4  C4  UNL     1     -34.451  14.938  -6.729  1.00 20.00     0.014 C 
HETATM    5  C5  UNL     1     -35.741  15.117  -3.373  1.00 20.00     0.037 C 
HETATM    6  C6  UNL     1     -33.235  15.559  -3.398  1.00 20.00     0.037 C 
HETATM    7  C7  UNL     1     -35.855  15.678  -4.796  1.00 20.00     0.037 C 
HETATM    8  C8  UNL     1     -33.348  16.120  -4.820  1.00 20.00     0.037 C 
ENDROOT
TORSDOF 0
ENDMDL
MODEL 8
REMARK VINA RESULT:      -4.0     11.949     13.165
REMARK  0 active torsions:
REMARK  status: ('A' for Active; 'I' for Inactive)
ROOT
HETATM    1  C1  UNL     1     -34.545  15.504  -5.575  1.00 20.00    -0.089 C 
HETATM    2  C2  UNL     1     -34.545  15.659  -2.697  1.00 20.00    -0.089 C 
HETATM    3  C3  UNL     1     -34.448  14.899  -6.768  1.00 20.00     0.014 C 
HETATM    4  C4  UNL     1     -34.644  16.265  -1.506  1.00 20.00     0.014 C 
HETATM    5  C5  UNL     1     -35.855  15.635  -4.836  1.00 20.00     0.037 C 
HETATM    6  C6  UNL     1     -33.350  16.088  -4.861  1.00 20.00     0.037 C 
HETATM    7  C7  UNL     1     -35.740  15.076  -3.413  1.00 20.00     0.037 C 
HETATM    8  C8  UNL     1     -33.235  15.529  -3.437  1.00 20.00     0.037 C 
ENDROOT
TORSDOF 0
ENDMDL
MODEL 9
REMARK VINA RESULT:      -4.0      0.903      2.527
REMARK  0 active torsions:
REMARK  status: ('A' for Active; 'I' for Inactive)
ROOT
HETATM    1  C1  UNL     1     -33.820   6.390   5.977  1.00 20.00    -0.089 C 
HETATM    2  C2  UNL     1     -34.423   5.492   3.305  1.00 20.00    -0.089 C 
HETATM    3  C3  UNL     1     -33.964   7.147   7.074  1.00 20.00     0.014 C 
HETATM    4  C4  UNL     1     -34.279   4.734   2.209  1.00 20.00     0.014 C 
HETATM    5  C5  UNL     1     -34.574   5.098   5.778  1.00 20.00     0.037 C 
HETATM    6  C6  UNL     1     -32.909   6.777   4.837  1.00 20.00     0.037 C 
HETATM    7  C7  UNL     1     -35.334   5.105   4.446  1.00 20.00     0.037 C 
HETATM    8  C8  UNL     1     -33.668   6.784   3.505  1.00 20.00     0.037 C 
ENDROOT
TORSDOF 0
ENDMDL
