MODEL 1
REMARK VINA RESULT:      -4.3      0.000      0.000
REMARK  3 active torsions:
REMARK  status: ('A' for Active; 'I' for Inactive)
REMARK    1  A    between atoms: C2_2  and  C7_7 
REMARK    2  A    between atoms: C5_5  and  C6_6 
REMARK    3  A    between atoms: C6_6  and  C7_7 
ROOT
HETATM    1  C4  UNL     1     -34.994   5.581   3.367  1.00 20.00     0.012 C 
HETATM    2  C7  UNL     1     -34.029   6.495   4.121  1.00 20.00     0.012 C 
ENDROOT
BRANCH   2   3
HETATM    3  C2  UNL     1     -32.618   6.345   3.545  1.00 20.00     0.149 A 
HETATM    4  C1  UNL     1     -31.654   7.499   3.537  1.00 20.00     0.200 A 
HETATM    5  O8  UNL     1     -32.376   7.109   2.359  1.00 20.00    -0.381 OA
ENDBRANCH   2   3
BRANCH   2   6
HETATM    6  C6  UNL     1     -34.008   6.209   5.634  1.00 20.00     0.006 C 
BRANCH   6   7
HETATM    7  C5  UNL     1     -35.003   5.128   6.064  1.00 20.00    -0.004 C 
HETATM    8  C3  UNL     1     -34.373   3.745   6.018  1.00 20.00     0.005 C 
ENDBRANCH   6   7
ENDBRANCH   2   6
TORSDOF 3
ENDMDL
MODEL 2
REMARK VINA RESULT:      -4.2      0.814      1.352
REMARK  3 active torsions:
REMARK  status: ('A' for Active; 'I' for Inactive)
REMARK    1  A    between atoms: C2_2  and  C7_7 
REMARK    2  A    between atoms: C5_5  and  C6_6 
REMARK    3  A    between atoms: C6_6  and  C7_7 
ROOT
HETATM    1  C4  UNL     1     -35.193   5.752   2.952  1.00 20.00     0.012 C 
HETATM    2  C7  UNL     1     -34.133   6.084   4.002  1.00 20.00     0.012 C 
ENDROOT
BRANCH   2   3
HETATM    3  C2  UNL     1     -32.749   6.121   3.347  1.00 20.00     0.149 A 
HETATM    4  C1  UNL     1     -31.791   7.246   3.616  1.00 20.00     0.200 A 
HETATM    5  O8  UNL     1     -32.565   7.185   2.408  1.00 20.00    -0.381 OA
ENDBRANCH   2   3
BRANCH   2   6
HETATM    6  C6  UNL     1     -34.129   5.081   5.172  1.00 20.00     0.006 C 
BRANCH   6   7
HETATM    7  C5  UNL     1     -34.506   5.711   6.515  1.00 20.00    -0.004 C 
HETATM    8  C3  UNL     1     -33.781   7.031   6.731  1.00 20.00     0.005 C 
ENDBRANCH   6   7
ENDBRANCH   2   6
TORSDOF 3
ENDMDL
MODEL 3
REMARK VINA RESULT:      -4.2      2.110      3.974
REMARK  3 active torsions:
REMARK  status: ('A' for Active; 'I' for Inactive)
REMARK    1  A    between atoms: C2_2  and  C7_7 
REMARK    2  A    between atoms: C5_5  and  C6_6 
REMARK    3  A    between atoms: C6_6  and  C7_7 
ROOT
HETATM    1  C4  UNL     1     -34.403   5.142   2.307  1.00 20.00     0.012 C 
HETATM    2  C7  UNL     1     -33.916   5.346   3.742  1.00 20.00     0.012 C 
ENDROOT
BRANCH   2   3
HETATM    3  C2  UNL     1     -35.057   5.053   4.721  1.00 20.00     0.149 A 
HETATM    4  C1  UNL     1     -34.787   4.454   6.073  1.00 20.00     0.200 A 
HETATM    5  O8  UNL     1     -35.276   3.662   4.979  1.00 20.00    -0.381 OA
ENDBRANCH   2   3
BRANCH   2   6
HETATM    6  C6  UNL     1     -33.374   6.767   3.983  1.00 20.00     0.006 C 
BRANCH   6   7
HETATM    7  C5  UNL     1     -32.008   7.015   3.338  1.00 20.00    -0.004 C 
HETATM    8  C3  UNL     1     -32.097   8.060   2.237  1.00 20.00     0.005 C 
ENDBRANCH   6   7
ENDBRANCH   2   6
TORSDOF 3
ENDMDL
MODEL 4
REMARK VINA RESULT:      -4.2      2.143      3.662
REMARK  3 active torsions:
REMARK  status: ('A' for Active; 'I' for Inactive)
REMARK    1  A    between atoms: C2_2  and  C7_7 
REMARK    2  A    between atoms: C5_5  and  C6_6 
REMARK    3  A    between atoms: C6_6  and  C7_7 
ROOT
HETATM    1  C4  UNL     1     -35.183   4.252   4.653  1.00 20.00     0.012 C 
HETATM    2  C7  UNL     1     -34.036   5.262   4.624  1.00 20.00     0.012 C 
ENDROOT
BRANCH   2   3
HETATM    3  C2  UNL     1     -34.387   6.468   5.500  1.00 20.00     0.149 A 
HETATM    4  C1  UNL     1     -33.448   6.953   6.568  1.00 20.00     0.200 A 
HETATM    5  O8  UNL     1     -34.601   6.157   6.881  1.00 20.00    -0.381 OA
ENDBRANCH   2   3
BRANCH   2   6
HETATM    6  C6  UNL     1     -33.703   5.734   3.196  1.00 20.00     0.006 C 
BRANCH   6   7
HETATM    7  C5  UNL     1     -32.256   6.207   3.033  1.00 20.00    -0.004 C 
HETATM    8  C3  UNL     1     -32.195   7.656   2.576  1.00 20.00     0.005 C 
ENDBRANCH   6   7
ENDBRANCH   2   6
TORSDOF 3
ENDMDL
MODEL 5
REMARK VINA RESULT:      -3.9      2.152      4.063
REMARK  3 active torsions:
REMARK  status: ('A' for Active; 'I' for Inactive)
REMARK    1  A    between atoms: C2_2  and  C7_7 
REMARK    2  A    between atoms: C5_5  and  C6_6 
REMARK    3  A    between atoms: C6_6  and  C7_7 
ROOT
HETATM    1  C4  UNL     1     -33.721   6.926   6.604  1.00 20.00     0.012 C 
HETATM    2  C7  UNL     1     -33.825   6.580   5.118  1.00 20.00     0.012 C 
ENDROOT
BRANCH   2   3
HETATM    3  C2  UNL     1     -34.174   5.098   4.956  1.00 20.00     0.149 A 
HETATM    4  C1  UNL     1     -35.488   4.669   4.366  1.00 20.00     0.200 A 
HETATM    5  O8  UNL     1     -35.253   4.648   5.782  1.00 20.00    -0.381 OA
ENDBRANCH   2   3
BRANCH   2   6
HETATM    6  C6  UNL     1     -32.529   6.898   4.348  1.00 20.00     0.006 C 
BRANCH   6   7
HETATM    7  C5  UNL     1     -32.691   6.823   2.828  1.00 20.00    -0.004 C 
HETATM    8  C3  UNL     1     -32.078   8.036   2.145  1.00 20.00     0.005 C 
ENDBRANCH   6   7
ENDBRANCH   2   6
TORSDOF 3
ENDMDL
MODEL 6
REMARK VINA RESULT:      -3.9     11.495     12.084
REMARK  3 active torsions:
REMARK  status: ('A' for Active; 'I' for Inactive)
REMARK    1  A    between atoms: C2_2  and  C7_7 
REMARK    2  A    between atoms: C5_5  and  C6_6 
REMARK    3  A    between atoms: C6_6  and  C7_7 
ROOT
HETATM    1  C4  UNL     1     -37.266  14.710  -3.886  1.00 20.00     0.012 C 
HETATM    2  C7  UNL     1     -35.812  15.177  -3.937  1.00 20.00     0.012 C 
ENDROOT
BRANCH   2   3
HETATM    3  C2  UNL     1     -34.881  14.006  -3.608  1.00 20.00     0.149 A 
HETATM    4  C1  UNL     1     -33.974  13.417  -4.651  1.00 20.00     0.200 A 
HETATM    5  O8  UNL     1     -35.206  12.783  -4.276  1.00 20.00    -0.381 OA
ENDBRANCH   2   3
BRANCH   2   6
HETATM    6  C6  UNL     1     -35.536  16.348  -2.975  1.00 20.00     0.006 C 
BRANCH   6   7
HETATM    7  C5  UNL     1     -34.427  16.056  -1.961  1.00 20.00    -0.004 C 
HETATM    8  C3  UNL     1     -34.690  16.753  -0.635  1.00 20.00     0.005 C 
ENDBRANCH   6   7
ENDBRANCH   2   6
TORSDOF 3
ENDMDL
MODEL 7
REMARK VINA RESULT:      -3.8      1.075      1.454
REMARK  3 active torsions:
REMARK  status: ('A' for Active; 'I' for Inactive)
REMARK    1  A    between atoms: C2_2  and  C7_7 
REMARK    2  A    between atoms: C5_5  and  C6_6 
REMARK    3  A    between atoms: C6_6  and  C7_7 
ROOT
HETATM    1  C4  UNL     1     -34.421   5.015   2.191  1.00 20.00     0.012 C 
HETATM    2  C7  UNL     1     -34.460   5.754   3.529  1.00 20.00     0.012 C 
ENDROOT
BRANCH   2   3
HETATM    3  C2  UNL     1     -33.034   6.093   3.974  1.00 20.00     0.149 A 
HETATM    4  C1  UNL     1     -32.266   7.215   3.335  1.00 20.00     0.200 A 
HETATM    5  O8  UNL     1     -32.028   5.843   2.986  1.00 20.00    -0.381 OA
ENDBRANCH   2   3
BRANCH   2   6
HETATM    6  C6  UNL     1     -35.170   4.943   4.629  1.00 20.00     0.006 C 
BRANCH   6   7
HETATM    7  C5  UNL     1     -34.370   4.849   5.930  1.00 20.00    -0.004 C 
HETATM    8  C3  UNL     1     -34.419   6.157   6.706  1.00 20.00     0.005 C 
ENDBRANCH   6   7
ENDBRANCH   2   6
TORSDOF 3
ENDMDL
MODEL 8
REMARK VINA RESULT:      -3.7     11.885     12.467
REMARK  3 active torsions:
REMARK  status: ('A' for Active; 'I' for Inactive)
REMARK    1  A    between atoms: C2_2  and  C7_7 
REMARK    2  A    between atoms: C5_5  and  C6_6 
REMARK    3  A    between atoms: C6_6  and  C7_7 
ROOT
HETATM    1  C4  UNL     1     -33.511  16.732  -4.075  1.00 20.00     0.012 C 
HETATM    2  C7  UNL     1     -34.012  15.494  -3.331  1.00 20.00     0.012 C 
ENDROOT
BRANCH   2   3
HETATM    3  C2  UNL     1     -34.915  14.667  -4.252  1.00 20.00     0.149 A 
HETATM    4  C1  UNL     1     -34.549  13.264  -4.645  1.00 20.00     0.200 A 
HETATM    5  O8  UNL     1     -34.347  14.374  -5.533  1.00 20.00    -0.381 OA
ENDBRANCH   2   3
BRANCH   2   6
HETATM    6  C6  UNL     1     -34.772  15.851  -2.040  1.00 20.00     0.006 C 
BRANCH   6   7
HETATM    7  C5  UNL     1     -34.074  16.922  -1.199  1.00 20.00    -0.004 C 
HETATM    8  C3  UNL     1     -34.849  17.217   0.077  1.00 20.00     0.005 C 
ENDBRANCH   6   7
ENDBRANCH   2   6
TORSDOF 3
ENDMDL
MODEL 9
REMARK VINA RESULT:      -3.7      1.266      1.902
REMARK  3 active torsions:
REMARK  status: ('A' for Active; 'I' for Inactive)
REMARK    1  A    between atoms: C2_2  and  C7_7 
REMARK    2  A    between atoms: C5_5  and  C6_6 
REMARK    3  A    between atoms: C6_6  and  C7_7 
ROOT
HETATM    1  C4  UNL     1     -32.121   5.418   2.927  1.00 20.00     0.012 C 
HETATM    2  C7  UNL     1     -33.031   6.646   2.962  1.00 20.00     0.012 C 
ENDROOT
BRANCH   2   3
HETATM    3  C2  UNL     1     -32.187   7.918   2.832  1.00 20.00     0.149 A 
HETATM    4  C1  UNL     1     -32.570   9.011   1.874  1.00 20.00     0.200 A 
HETATM    5  O8  UNL     1     -31.530   8.069   1.569  1.00 20.00    -0.381 OA
ENDBRANCH   2   3
BRANCH   2   6
HETATM    6  C6  UNL     1     -33.880   6.713   4.245  1.00 20.00     0.006 C 
BRANCH   6   7
HETATM    7  C5  UNL     1     -34.671   5.432   4.519  1.00 20.00    -0.004 C 
HETATM    8  C3  UNL     1     -34.707   5.111   6.006  1.00 20.00     0.005 C 
ENDBRANCH   6   7
ENDBRANCH   2   6
TORSDOF 3
ENDMDL
