MODEL 1
REMARK VINA RESULT:      -4.4      0.000      0.000
REMARK  3 active torsions:
REMARK  status: ('A' for Active; 'I' for Inactive)
REMARK    1  A    between atoms: C2_2  and  C3_3 
REMARK    2  A    between atoms: C3_3  and  C5_5 
REMARK    3  A    between atoms: C4_4  and  C5_5 
ROOT
HETATM    1  C5  UNL     1     -34.240   6.190   4.242  1.00 20.00     0.096 C 
HETATM    2 CL7  UNL     1     -33.750   6.607   5.919  1.00 20.00    -0.124 Cl
ENDROOT
BRANCH   1   3
HETATM    3  C3  UNL     1     -32.996   6.008   3.356  1.00 20.00     0.021 C 
BRANCH   3   4
HETATM    4  C2  UNL     1     -32.015   7.182   3.436  1.00 20.00    -0.003 C 
HETATM    5  C1  UNL     1     -32.093   8.056   2.193  1.00 20.00     0.005 C 
ENDBRANCH   3   4
ENDBRANCH   1   3
BRANCH   1   6
HETATM    6  C4  UNL     1     -35.114   4.936   4.308  1.00 20.00     0.134 C 
HETATM    7 CL6  UNL     1     -35.019   4.141   5.900  1.00 20.00    -0.129 Cl
ENDBRANCH   1   6
TORSDOF 3
ENDMDL
MODEL 2
REMARK VINA RESULT:      -4.2      1.166      2.333
REMARK  3 active torsions:
REMARK  status: ('A' for Active; 'I' for Inactive)
REMARK    1  A    between atoms: C2_2  and  C3_3 
REMARK    2  A    between atoms: C3_3  and  C5_5 
REMARK    3  A    between atoms: C4_4  and  C5_5 
ROOT
HETATM    1  C5  UNL     1     -34.072   5.288   5.166  1.00 20.00     0.096 C 
HETATM    2 CL7  UNL     1     -35.211   3.912   4.968  1.00 20.00    -0.124 Cl
ENDROOT
BRANCH   1   3
HETATM    3  C3  UNL     1     -34.146   6.217   3.943  1.00 20.00     0.021 C 
BRANCH   3   4
HETATM    4  C2  UNL     1     -32.899   6.153   3.054  1.00 20.00    -0.003 C 
HETATM    5  C1  UNL     1     -31.926   7.276   3.382  1.00 20.00     0.005 C 
ENDBRANCH   3   4
ENDBRANCH   1   3
BRANCH   1   6
HETATM    6  C4  UNL     1     -34.419   5.998   6.476  1.00 20.00     0.134 C 
HETATM    7 CL6  UNL     1     -33.300   7.341   6.824  1.00 20.00    -0.129 Cl
ENDBRANCH   1   6
TORSDOF 3
ENDMDL
MODEL 3
REMARK VINA RESULT:      -4.1      2.369      4.221
REMARK  3 active torsions:
REMARK  status: ('A' for Active; 'I' for Inactive)
REMARK    1  A    between atoms: C2_2  and  C3_3 
REMARK    2  A    between atoms: C3_3  and  C5_5 
REMARK    3  A    between atoms: C4_4  and  C5_5 
ROOT
HETATM    1  C5  UNL     1     -33.674   6.541   3.656  1.00 20.00     0.096 C 
HETATM    2 CL7  UNL     1     -34.257   5.219   2.588  1.00 20.00    -0.124 Cl
ENDROOT
BRANCH   1   3
HETATM    3  C3  UNL     1     -33.940   6.188   5.129  1.00 20.00     0.021 C 
BRANCH   3   4
HETATM    4  C2  UNL     1     -35.111   5.217   5.321  1.00 20.00    -0.003 C 
HETATM    5  C1  UNL     1     -34.654   3.917   5.967  1.00 20.00     0.005 C 
ENDBRANCH   3   4
ENDBRANCH   1   3
BRANCH   1   6
HETATM    6  C4  UNL     1     -32.191   6.766   3.355  1.00 20.00     0.134 C 
HETATM    7 CL6  UNL     1     -31.944   8.051   2.146  1.00 20.00    -0.129 Cl
ENDBRANCH   1   6
TORSDOF 3
ENDMDL
MODEL 4
REMARK VINA RESULT:      -4.0      1.494      1.733
REMARK  3 active torsions:
REMARK  status: ('A' for Active; 'I' for Inactive)
REMARK    1  A    between atoms: C2_2  and  C3_3 
REMARK    2  A    between atoms: C3_3  and  C5_5 
REMARK    3  A    between atoms: C4_4  and  C5_5 
ROOT
HETATM    1  C5  UNL     1     -34.521   5.276   4.034  1.00 20.00     0.096 C 
HETATM    2 CL7  UNL     1     -36.091   5.817   3.346  1.00 20.00    -0.124 Cl
ENDROOT
BRANCH   1   3
HETATM    3  C3  UNL     1     -33.536   6.456   4.097  1.00 20.00     0.021 C 
BRANCH   3   4
HETATM    4  C2  UNL     1     -32.401   6.355   3.072  1.00 20.00    -0.003 C 
HETATM    5  C1  UNL     1     -32.079   7.713   2.465  1.00 20.00     0.005 C 
ENDBRANCH   3   4
ENDBRANCH   1   3
BRANCH   1   6
HETATM    6  C4  UNL     1     -34.801   4.659   5.406  1.00 20.00     0.134 C 
HETATM    7 CL6  UNL     1     -34.530   5.823   6.728  1.00 20.00    -0.129 Cl
ENDBRANCH   1   6
TORSDOF 3
ENDMDL
MODEL 5
REMARK VINA RESULT:      -4.0      1.305      1.673
REMARK  3 active torsions:
REMARK  status: ('A' for Active; 'I' for Inactive)
REMARK    1  A    between atoms: C2_2  and  C3_3 
REMARK    2  A    between atoms: C3_3  and  C5_5 
REMARK    3  A    between atoms: C4_4  and  C5_5 
ROOT
HETATM    1  C5  UNL     1     -33.859   5.550   4.043  1.00 20.00     0.096 C 
HETATM    2 CL7  UNL     1     -35.598   5.514   3.590  1.00 20.00    -0.124 Cl
ENDROOT
BRANCH   1   3
HETATM    3  C3  UNL     1     -33.013   6.037   2.855  1.00 20.00     0.021 C 
BRANCH   3   4
HETATM    4  C2  UNL     1     -32.097   7.216   3.203  1.00 20.00    -0.003 C 
HETATM    5  C1  UNL     1     -32.039   8.227   2.067  1.00 20.00     0.005 C 
ENDBRANCH   3   4
ENDBRANCH   1   3
BRANCH   1   6
HETATM    6  C4  UNL     1     -33.717   6.436   5.281  1.00 20.00     0.134 C 
HETATM    7 CL6  UNL     1     -34.606   5.778   6.679  1.00 20.00    -0.129 Cl
ENDBRANCH   1   6
TORSDOF 3
ENDMDL
MODEL 6
REMARK VINA RESULT:      -3.7      1.637      3.886
REMARK  3 active torsions:
REMARK  status: ('A' for Active; 'I' for Inactive)
REMARK    1  A    between atoms: C2_2  and  C3_3 
REMARK    2  A    between atoms: C3_3  and  C5_5 
REMARK    3  A    between atoms: C4_4  and  C5_5 
ROOT
HETATM    1  C5  UNL     1     -33.438   5.987   4.234  1.00 20.00     0.096 C 
HETATM    2 CL7  UNL     1     -33.395   6.991   5.724  1.00 20.00    -0.124 Cl
ENDROOT
BRANCH   1   3
HETATM    3  C3  UNL     1     -34.878   5.534   3.942  1.00 20.00     0.021 C 
BRANCH   3   4
HETATM    4  C2  UNL     1     -35.247   4.206   4.613  1.00 20.00    -0.003 C 
HETATM    5  C1  UNL     1     -35.076   4.282   6.123  1.00 20.00     0.005 C 
ENDBRANCH   3   4
ENDBRANCH   1   3
BRANCH   1   6
HETATM    6  C4  UNL     1     -32.829   6.811   3.098  1.00 20.00     0.134 C 
HETATM    7 CL6  UNL     1     -31.372   7.695   3.621  1.00 20.00    -0.129 Cl
ENDBRANCH   1   6
TORSDOF 3
ENDMDL
MODEL 7
REMARK VINA RESULT:      -3.7      2.345      3.435
REMARK  3 active torsions:
REMARK  status: ('A' for Active; 'I' for Inactive)
REMARK    1  A    between atoms: C2_2  and  C3_3 
REMARK    2  A    between atoms: C3_3  and  C5_5 
REMARK    3  A    between atoms: C4_4  and  C5_5 
ROOT
HETATM    1  C5  UNL     1     -33.400   5.789   4.085  1.00 20.00     0.096 C 
HETATM    2 CL7  UNL     1     -32.076   6.849   3.490  1.00 20.00    -0.124 Cl
ENDROOT
BRANCH   1   3
HETATM    3  C3  UNL     1     -34.109   6.449   5.280  1.00 20.00     0.021 C 
BRANCH   3   4
HETATM    4  C2  UNL     1     -34.344   5.491   6.453  1.00 20.00    -0.003 C 
HETATM    5  C1  UNL     1     -34.789   4.119   5.968  1.00 20.00     0.005 C 
ENDBRANCH   3   4
ENDBRANCH   1   3
BRANCH   1   6
HETATM    6  C4  UNL     1     -34.341   5.514   2.911  1.00 20.00     0.134 C 
HETATM    7 CL6  UNL     1     -36.044   5.829   3.333  1.00 20.00    -0.129 Cl
ENDBRANCH   1   6
TORSDOF 3
ENDMDL
MODEL 8
REMARK VINA RESULT:      -3.5      2.195      3.323
REMARK  3 active torsions:
REMARK  status: ('A' for Active; 'I' for Inactive)
REMARK    1  A    between atoms: C2_2  and  C3_3 
REMARK    2  A    between atoms: C3_3  and  C5_5 
REMARK    3  A    between atoms: C4_4  and  C5_5 
ROOT
HETATM    1  C5  UNL     1     -34.937   5.453   3.902  1.00 20.00     0.096 C 
HETATM    2 CL7  UNL     1     -35.078   3.954   4.884  1.00 20.00    -0.124 Cl
ENDROOT
BRANCH   1   3
HETATM    3  C3  UNL     1     -34.556   6.641   4.802  1.00 20.00     0.021 C 
BRANCH   3   4
HETATM    4  C2  UNL     1     -34.196   6.229   6.234  1.00 20.00    -0.003 C 
HETATM    5  C1  UNL     1     -33.389   7.312   6.935  1.00 20.00     0.005 C 
ENDBRANCH   3   4
ENDBRANCH   1   3
BRANCH   1   6
HETATM    6  C4  UNL     1     -33.915   5.191   2.794  1.00 20.00     0.134 C 
HETATM    7 CL6  UNL     1     -32.458   6.200   2.980  1.00 20.00    -0.129 Cl
ENDBRANCH   1   6
TORSDOF 3
ENDMDL
MODEL 9
REMARK VINA RESULT:      -3.4     11.301     12.181
REMARK  3 active torsions:
REMARK  status: ('A' for Active; 'I' for Inactive)
REMARK    1  A    between atoms: C2_2  and  C3_3 
REMARK    2  A    between atoms: C3_3  and  C5_5 
REMARK    3  A    between atoms: C4_4  and  C5_5 
ROOT
HETATM    1  C5  UNL     1     -33.249  15.282  -3.463  1.00 20.00     0.096 C 
HETATM    2 CL7  UNL     1     -33.193  16.264  -4.968  1.00 20.00    -0.124 Cl
ENDROOT
BRANCH   1   3
HETATM    3  C3  UNL     1     -34.356  15.804  -2.532  1.00 20.00     0.021 C 
BRANCH   3   4
HETATM    4  C2  UNL     1     -33.879  16.901  -1.574  1.00 20.00    -0.003 C 
HETATM    5  C1  UNL     1     -34.744  16.960  -0.324  1.00 20.00     0.005 C 
ENDBRANCH   3   4
ENDBRANCH   1   3
BRANCH   1   6
HETATM    6  C4  UNL     1     -33.447  13.820  -3.866  1.00 20.00     0.134 C 
HETATM    7 CL6  UNL     1     -35.166  13.427  -4.125  1.00 20.00    -0.129 Cl
ENDBRANCH   1   6
TORSDOF 3
ENDMDL
