MODEL 1
REMARK VINA RESULT:      -3.5      0.000      0.000
REMARK  2 active torsions:
REMARK  status: ('A' for Active; 'I' for Inactive)
REMARK    1  A    between atoms: C7_7  and  O9_9 
REMARK    2  A    between atoms: C8_8  and  O9_9 
ROOT
HETATM    1  O9  UNL     1     -35.119  15.124  -2.886  1.00 20.00    -0.371 OA
ENDROOT
BRANCH   1   2
HETATM    2  C7  UNL     1     -34.332  14.784  -4.029  1.00 20.00     0.051 C 
HETATM    3  C1  UNL     1     -32.855  14.924  -3.660  1.00 20.00     0.045 C 
HETATM    4  C2  UNL     1     -34.659  13.339  -4.398  1.00 20.00     0.045 C 
HETATM    5  C3  UNL     1     -34.700  15.728  -5.172  1.00 20.00     0.045 C 
ENDBRANCH   1   2
BRANCH   1   6
HETATM    6  C8  UNL     1     -34.946  16.487  -2.529  1.00 20.00     0.051 C 
HETATM    7  C4  UNL     1     -36.246  17.235  -2.820  1.00 20.00     0.045 C 
HETATM    8  C5  UNL     1     -34.620  16.534  -1.038  1.00 20.00     0.045 C 
HETATM    9  C6  UNL     1     -33.792  17.061  -3.351  1.00 20.00     0.045 C 
ENDBRANCH   1   6
TORSDOF 2
ENDMDL
MODEL 2
REMARK VINA RESULT:      -3.5      0.037      3.353
REMARK  2 active torsions:
REMARK  status: ('A' for Active; 'I' for Inactive)
REMARK    1  A    between atoms: C7_7  and  O9_9 
REMARK    2  A    between atoms: C8_8  and  O9_9 
ROOT
HETATM    1  O9  UNL     1     -35.074  15.100  -2.857  1.00 20.00    -0.371 OA
ENDROOT
BRANCH   1   2
HETATM    2  C7  UNL     1     -34.936  16.477  -2.505  1.00 20.00     0.051 C 
HETATM    3  C1  UNL     1     -36.254  17.190  -2.808  1.00 20.00     0.045 C 
HETATM    4  C2  UNL     1     -34.622  16.541  -1.012  1.00 20.00     0.045 C 
HETATM    5  C3  UNL     1     -33.792  17.076  -3.322  1.00 20.00     0.045 C 
ENDBRANCH   1   2
BRANCH   1   6
HETATM    6  C8  UNL     1     -34.311  14.784  -4.011  1.00 20.00     0.051 C 
HETATM    7  C4  UNL     1     -32.829  14.931  -3.669  1.00 20.00     0.045 C 
HETATM    8  C5  UNL     1     -34.633  13.342  -4.396  1.00 20.00     0.045 C 
HETATM    9  C6  UNL     1     -34.708  15.742  -5.133  1.00 20.00     0.045 C 
ENDBRANCH   1   6
TORSDOF 2
ENDMDL
MODEL 3
REMARK VINA RESULT:      -3.5      0.060      1.450
REMARK  2 active torsions:
REMARK  status: ('A' for Active; 'I' for Inactive)
REMARK    1  A    between atoms: C7_7  and  O9_9 
REMARK    2  A    between atoms: C8_8  and  O9_9 
ROOT
HETATM    1  O9  UNL     1     -35.182  15.140  -2.961  1.00 20.00    -0.371 OA
ENDROOT
BRANCH   1   2
HETATM    2  C7  UNL     1     -34.357  14.770  -4.066  1.00 20.00     0.051 C 
HETATM    3  C1  UNL     1     -32.893  14.906  -3.646  1.00 20.00     0.045 C 
HETATM    4  C2  UNL     1     -34.681  13.320  -4.417  1.00 20.00     0.045 C 
HETATM    5  C3  UNL     1     -34.675  15.693  -5.241  1.00 20.00     0.045 C 
ENDBRANCH   1   2
BRANCH   1   6
HETATM    6  C8  UNL     1     -34.953  16.485  -2.574  1.00 20.00     0.051 C 
HETATM    7  C4  UNL     1     -33.797  17.041  -3.406  1.00 20.00     0.045 C 
HETATM    8  C5  UNL     1     -36.235  17.268  -2.845  1.00 20.00     0.045 C 
HETATM    9  C6  UNL     1     -34.611  16.511  -1.085  1.00 20.00     0.045 C 
ENDBRANCH   1   6
TORSDOF 2
ENDMDL
MODEL 4
REMARK VINA RESULT:      -3.5     11.121     12.368
REMARK  2 active torsions:
REMARK  status: ('A' for Active; 'I' for Inactive)
REMARK    1  A    between atoms: C7_7  and  O9_9 
REMARK    2  A    between atoms: C8_8  and  O9_9 
ROOT
HETATM    1  O9  UNL     1     -41.271   6.605  -2.171  1.00 20.00    -0.371 OA
ENDROOT
BRANCH   1   2
HETATM    2  C7  UNL     1     -42.547   7.085  -2.597  1.00 20.00     0.051 C 
HETATM    3  C1  UNL     1     -43.175   7.877  -1.451  1.00 20.00     0.045 C 
HETATM    4  C2  UNL     1     -42.318   7.986  -3.809  1.00 20.00     0.045 C 
HETATM    5  C3  UNL     1     -43.417   5.887  -2.973  1.00 20.00     0.045 C 
ENDBRANCH   1   2
BRANCH   1   6
HETATM    6  C8  UNL     1     -41.396   5.716  -1.072  1.00 20.00     0.051 C 
HETATM    7  C4  UNL     1     -40.931   4.329  -1.513  1.00 20.00     0.045 C 
HETATM    8  C5  UNL     1     -40.511   6.248   0.053  1.00 20.00     0.045 C 
HETATM    9  C6  UNL     1     -42.860   5.686  -0.637  1.00 20.00     0.045 C 
ENDBRANCH   1   6
TORSDOF 2
ENDMDL
MODEL 5
REMARK VINA RESULT:      -3.5      1.375      2.581
REMARK  2 active torsions:
REMARK  status: ('A' for Active; 'I' for Inactive)
REMARK    1  A    between atoms: C7_7  and  O9_9 
REMARK    2  A    between atoms: C8_8  and  O9_9 
ROOT
HETATM    1  O9  UNL     1     -35.014  15.982  -4.489  1.00 20.00    -0.371 OA
ENDROOT
BRANCH   1   2
HETATM    2  C7  UNL     1     -35.369  14.600  -4.545  1.00 20.00     0.051 C 
HETATM    3  C1  UNL     1     -36.823  14.455  -4.096  1.00 20.00     0.045 C 
HETATM    4  C2  UNL     1     -35.207  14.141  -5.992  1.00 20.00     0.045 C 
HETATM    5  C3  UNL     1     -34.433  13.819  -3.624  1.00 20.00     0.045 C 
ENDBRANCH   1   2
BRANCH   1   6
HETATM    6  C8  UNL     1     -34.086  16.234  -3.446  1.00 20.00     0.051 C 
HETATM    7  C4  UNL     1     -32.851  15.361  -3.672  1.00 20.00     0.045 C 
HETATM    8  C5  UNL     1     -33.717  17.714  -3.505  1.00 20.00     0.045 C 
HETATM    9  C6  UNL     1     -34.752  15.898  -2.112  1.00 20.00     0.045 C 
ENDBRANCH   1   6
TORSDOF 2
ENDMDL
MODEL 6
REMARK VINA RESULT:      -3.5      0.035      3.325
REMARK  2 active torsions:
REMARK  status: ('A' for Active; 'I' for Inactive)
REMARK    1  A    between atoms: C7_7  and  O9_9 
REMARK    2  A    between atoms: C8_8  and  O9_9 
ROOT
HETATM    1  O9  UNL     1     -35.163  15.138  -2.931  1.00 20.00    -0.371 OA
ENDROOT
BRANCH   1   2
HETATM    2  C7  UNL     1     -34.951  16.496  -2.543  1.00 20.00     0.051 C 
HETATM    3  C1  UNL     1     -33.810  17.068  -3.384  1.00 20.00     0.045 C 
HETATM    4  C2  UNL     1     -36.247  17.258  -2.810  1.00 20.00     0.045 C 
HETATM    5  C3  UNL     1     -34.603  16.530  -1.057  1.00 20.00     0.045 C 
ENDBRANCH   1   2
BRANCH   1   6
HETATM    6  C8  UNL     1     -34.355  14.787  -4.042  1.00 20.00     0.051 C 
HETATM    7  C4  UNL     1     -32.887  14.936  -3.643  1.00 20.00     0.045 C 
HETATM    8  C5  UNL     1     -34.669  13.337  -4.401  1.00 20.00     0.045 C 
HETATM    9  C6  UNL     1     -34.699  15.716  -5.205  1.00 20.00     0.045 C 
ENDBRANCH   1   6
TORSDOF 2
ENDMDL
MODEL 7
REMARK VINA RESULT:      -3.5     11.144     12.359
REMARK  2 active torsions:
REMARK  status: ('A' for Active; 'I' for Inactive)
REMARK    1  A    between atoms: C7_7  and  O9_9 
REMARK    2  A    between atoms: C8_8  and  O9_9 
ROOT
HETATM    1  O9  UNL     1     -41.260   6.547  -2.173  1.00 20.00    -0.371 OA
ENDROOT
BRANCH   1   2
HETATM    2  C7  UNL     1     -42.538   7.039  -2.581  1.00 20.00     0.051 C 
HETATM    3  C1  UNL     1     -43.151   7.819  -1.419  1.00 20.00     0.045 C 
HETATM    4  C2  UNL     1     -42.316   7.953  -3.784  1.00 20.00     0.045 C 
HETATM    5  C3  UNL     1     -43.417   5.850  -2.964  1.00 20.00     0.045 C 
ENDBRANCH   1   2
BRANCH   1   6
HETATM    6  C8  UNL     1     -41.374   5.690  -1.048  1.00 20.00     0.051 C 
HETATM    7  C4  UNL     1     -42.842   5.629  -0.629  1.00 20.00     0.045 C 
HETATM    8  C5  UNL     1     -40.876   4.310  -1.469  1.00 20.00     0.045 C 
HETATM    9  C6  UNL     1     -40.509   6.253   0.080  1.00 20.00     0.045 C 
ENDBRANCH   1   6
TORSDOF 2
ENDMDL
MODEL 8
REMARK VINA RESULT:      -3.5      1.198      1.993
REMARK  2 active torsions:
REMARK  status: ('A' for Active; 'I' for Inactive)
REMARK    1  A    between atoms: C7_7  and  O9_9 
REMARK    2  A    between atoms: C8_8  and  O9_9 
ROOT
HETATM    1  O9  UNL     1     -35.237  15.542  -3.865  1.00 20.00    -0.371 OA
ENDROOT
BRANCH   1   2
HETATM    2  C7  UNL     1     -35.104  14.926  -5.147  1.00 20.00     0.051 C 
HETATM    3  C1  UNL     1     -34.715  13.462  -4.944  1.00 20.00     0.045 C 
HETATM    4  C2  UNL     1     -36.455  15.030  -5.850  1.00 20.00     0.045 C 
HETATM    5  C3  UNL     1     -34.028  15.672  -5.935  1.00 20.00     0.045 C 
ENDBRANCH   1   2
BRANCH   1   6
HETATM    6  C8  UNL     1     -34.003  16.083  -3.422  1.00 20.00     0.051 C 
HETATM    7  C4  UNL     1     -33.712  17.352  -4.222  1.00 20.00     0.045 C 
HETATM    8  C5  UNL     1     -34.147  16.404  -1.937  1.00 20.00     0.045 C 
HETATM    9  C6  UNL     1     -32.909  15.038  -3.643  1.00 20.00     0.045 C 
ENDBRANCH   1   6
TORSDOF 2
ENDMDL
MODEL 9
REMARK VINA RESULT:      -3.4      1.575      2.917
REMARK  2 active torsions:
REMARK  status: ('A' for Active; 'I' for Inactive)
REMARK    1  A    between atoms: C7_7  and  O9_9 
REMARK    2  A    between atoms: C8_8  and  O9_9 
ROOT
HETATM    1  O9  UNL     1     -34.365  15.744  -4.916  1.00 20.00    -0.371 OA
ENDROOT
BRANCH   1   2
HETATM    2  C7  UNL     1     -35.048  14.908  -5.851  1.00 20.00     0.051 C 
HETATM    3  C1  UNL     1     -36.506  15.359  -5.930  1.00 20.00     0.045 C 
HETATM    4  C2  UNL     1     -34.361  15.075  -7.204  1.00 20.00     0.045 C 
HETATM    5  C3  UNL     1     -34.950  13.461  -5.372  1.00 20.00     0.045 C 
ENDBRANCH   1   2
BRANCH   1   6
HETATM    6  C8  UNL     1     -34.470  15.234  -3.596  1.00 20.00     0.051 C 
HETATM    7  C4  UNL     1     -33.788  13.867  -3.547  1.00 20.00     0.045 C 
HETATM    8  C5  UNL     1     -33.769  16.219  -2.664  1.00 20.00     0.045 C 
HETATM    9  C6  UNL     1     -35.951  15.116  -3.238  1.00 20.00     0.045 C 
ENDBRANCH   1   6
TORSDOF 2
ENDMDL
