MODEL 1
REMARK VINA RESULT:      -4.3      0.000      0.000
REMARK  1 active torsions:
REMARK  status: ('A' for Active; 'I' for Inactive)
REMARK    1  A    between atoms: C4_4  and  C8_8 
ROOT
HETATM    1  C1  UNL     1     -34.600  13.628  -5.268  1.00 20.00    -0.007 C 
HETATM    2  C2  UNL     1     -34.506  14.794  -5.922  1.00 20.00     0.009 C 
HETATM    3  C5  UNL     1     -34.479  13.523  -3.776  1.00 20.00     0.029 C 
HETATM    4  C6  UNL     1     -34.236  16.108  -5.246  1.00 20.00     0.061 C 
HETATM    5  C7  UNL     1     -34.554  14.876  -3.063  1.00 20.00     0.014 C 
HETATM    6  C8  UNL     1     -33.730  15.942  -3.799  1.00 20.00     0.035 C 
HETATM    7 CL9  UNL     1     -34.676  14.853  -7.640  1.00 20.00    -0.089 Cl
ENDROOT
BRANCH   6   8
HETATM    8  C4  UNL     1     -33.762  17.252  -3.069  1.00 20.00     0.007 C 
HETATM    9  C3  UNL     1     -33.786  18.449  -3.666  1.00 20.00     0.032 C 
HETATM   10 CL10 UNL     1     -33.768  17.138  -1.344  1.00 20.00    -0.089 Cl
ENDBRANCH   6   8
TORSDOF 1
ENDMDL
MODEL 2
REMARK VINA RESULT:      -4.2      2.650      5.580
REMARK  1 active torsions:
REMARK  status: ('A' for Active; 'I' for Inactive)
REMARK    1  A    between atoms: C4_4  and  C8_8 
ROOT
HETATM    1  C1  UNL     1     -33.879  18.922   0.127  1.00 20.00    -0.007 C 
HETATM    2  C2  UNL     1     -34.563  17.803   0.407  1.00 20.00     0.009 C 
HETATM    3  C5  UNL     1     -33.239  19.167  -1.208  1.00 20.00     0.029 C 
HETATM    4  C6  UNL     1     -34.734  16.668  -0.560  1.00 20.00     0.061 C 
HETATM    5  C7  UNL     1     -33.699  18.188  -2.292  1.00 20.00     0.014 C 
HETATM    6  C8  UNL     1     -33.765  16.751  -1.756  1.00 20.00     0.035 C 
HETATM    7 CL9  UNL     1     -35.295  17.589   1.958  1.00 20.00    -0.089 Cl
ENDROOT
BRANCH   6   8
HETATM    8  C4  UNL     1     -34.164  15.788  -2.834  1.00 20.00     0.007 C 
HETATM    9  C3  UNL     1     -35.428  15.459  -3.122  1.00 20.00     0.032 C 
HETATM   10 CL10 UNL     1     -32.857  15.095  -3.729  1.00 20.00    -0.089 Cl
ENDBRANCH   6   8
TORSDOF 1
ENDMDL
MODEL 3
REMARK VINA RESULT:      -4.2      0.884      4.622
REMARK  1 active torsions:
REMARK  status: ('A' for Active; 'I' for Inactive)
REMARK    1  A    between atoms: C4_4  and  C8_8 
ROOT
HETATM    1  C1  UNL     1     -33.940  17.939  -2.657  1.00 20.00    -0.007 C 
HETATM    2  C2  UNL     1     -34.346  16.778  -2.124  1.00 20.00     0.009 C 
HETATM    3  C5  UNL     1     -33.660  18.104  -4.121  1.00 20.00     0.029 C 
HETATM    4  C6  UNL     1     -34.532  15.518  -2.918  1.00 20.00     0.061 C 
HETATM    5  C7  UNL     1     -34.175  16.941  -4.974  1.00 20.00     0.014 C 
HETATM    6  C8  UNL     1     -33.877  15.588  -4.312  1.00 20.00     0.035 C 
HETATM    7 CL9  UNL     1     -34.673  16.657  -0.431  1.00 20.00    -0.089 Cl
ENDROOT
BRANCH   6   8
HETATM    8  C4  UNL     1     -34.335  14.450  -5.175  1.00 20.00     0.007 C 
HETATM    9  C3  UNL     1     -34.675  13.242  -4.713  1.00 20.00     0.032 C 
HETATM   10 CL10 UNL     1     -34.409  14.788  -6.869  1.00 20.00    -0.089 Cl
ENDBRANCH   6   8
TORSDOF 1
ENDMDL
MODEL 4
REMARK VINA RESULT:      -4.2     12.134     14.038
REMARK  1 active torsions:
REMARK  status: ('A' for Active; 'I' for Inactive)
REMARK    1  A    between atoms: C4_4  and  C8_8 
ROOT
HETATM    1  C1  UNL     1     -41.353   6.891  -1.227  1.00 20.00    -0.007 C 
HETATM    2  C2  UNL     1     -42.145   6.685  -2.289  1.00 20.00     0.009 C 
HETATM    3  C5  UNL     1     -40.760   5.768  -0.428  1.00 20.00     0.029 C 
HETATM    4  C6  UNL     1     -42.551   5.324  -2.773  1.00 20.00     0.061 C 
HETATM    5  C7  UNL     1     -40.882   4.404  -1.114  1.00 20.00     0.014 C 
HETATM    6  C8  UNL     1     -42.272   4.215  -1.739  1.00 20.00     0.035 C 
HETATM    7 CL9  UNL     1     -42.781   8.022  -3.181  1.00 20.00    -0.089 Cl
ENDROOT
BRANCH   6   8
HETATM    8  C4  UNL     1     -42.405   2.857  -2.362  1.00 20.00     0.007 C 
HETATM    9  C3  UNL     1     -43.417   2.015  -2.128  1.00 20.00     0.032 C 
HETATM   10 CL10 UNL     1     -41.135   2.412  -3.448  1.00 20.00    -0.089 Cl
ENDBRANCH   6   8
TORSDOF 1
ENDMDL
MODEL 5
REMARK VINA RESULT:      -4.2     11.073     12.798
REMARK  1 active torsions:
REMARK  status: ('A' for Active; 'I' for Inactive)
REMARK    1  A    between atoms: C4_4  and  C8_8 
ROOT
HETATM    1  C1  UNL     1     -35.077   4.873   4.218  1.00 20.00    -0.007 C 
HETATM    2  C2  UNL     1     -34.443   5.567   5.172  1.00 20.00     0.009 C 
HETATM    3  C5  UNL     1     -34.720   4.979   2.764  1.00 20.00     0.029 C 
HETATM    4  C6  UNL     1     -33.339   6.546   4.895  1.00 20.00     0.061 C 
HETATM    5  C7  UNL     1     -33.389   5.695   2.517  1.00 20.00     0.014 C 
HETATM    6  C8  UNL     1     -33.248   6.938   3.407  1.00 20.00     0.035 C 
HETATM    7 CL9  UNL     1     -34.888   5.385   6.832  1.00 20.00    -0.089 Cl
ENDROOT
BRANCH   6   8
HETATM    8  C4  UNL     1     -31.968   7.666   3.123  1.00 20.00     0.007 C 
HETATM    9  C3  UNL     1     -30.965   7.797   3.999  1.00 20.00     0.032 C 
HETATM   10 CL10 UNL     1     -31.841   8.355   1.543  1.00 20.00    -0.089 Cl
ENDBRANCH   6   8
TORSDOF 1
ENDMDL
MODEL 6
REMARK VINA RESULT:      -4.1      2.066      2.620
REMARK  1 active torsions:
REMARK  status: ('A' for Active; 'I' for Inactive)
REMARK    1  A    between atoms: C4_4  and  C8_8 
ROOT
HETATM    1  C1  UNL     1     -34.376  15.829  -4.451  1.00 20.00    -0.007 C 
HETATM    2  C2  UNL     1     -33.939  17.094  -4.388  1.00 20.00     0.009 C 
HETATM    3  C5  UNL     1     -34.717  15.027  -3.230  1.00 20.00     0.029 C 
HETATM    4  C6  UNL     1     -33.711  17.833  -3.101  1.00 20.00     0.061 C 
HETATM    5  C7  UNL     1     -34.820  15.873  -1.957  1.00 20.00     0.014 C 
HETATM    6  C8  UNL     1     -33.683  16.900  -1.874  1.00 20.00     0.035 C 
HETATM    7 CL9  UNL     1     -33.582  17.972  -5.833  1.00 20.00    -0.089 Cl
ENDROOT
BRANCH   6   8
HETATM    8  C4  UNL     1     -33.757  17.689  -0.601  1.00 20.00     0.007 C 
HETATM    9  C3  UNL     1     -32.907  18.667  -0.268  1.00 20.00     0.032 C 
HETATM   10 CL10 UNL     1     -35.050  17.260   0.463  1.00 20.00    -0.089 Cl
ENDBRANCH   6   8
TORSDOF 1
ENDMDL
MODEL 7
REMARK VINA RESULT:      -4.1      1.664      2.540
REMARK  1 active torsions:
REMARK  status: ('A' for Active; 'I' for Inactive)
REMARK    1  A    between atoms: C4_4  and  C8_8 
ROOT
HETATM    1  C1  UNL     1     -34.186  15.500  -5.797  1.00 20.00    -0.007 C 
HETATM    2  C2  UNL     1     -34.388  14.739  -4.712  1.00 20.00     0.009 C 
HETATM    3  C5  UNL     1     -33.903  16.971  -5.713  1.00 20.00     0.029 C 
HETATM    4  C6  UNL     1     -34.389  15.273  -3.309  1.00 20.00     0.061 C 
HETATM    5  C7  UNL     1     -33.561  17.445  -4.298  1.00 20.00     0.014 C 
HETATM    6  C8  UNL     1     -34.492  16.810  -3.255  1.00 20.00     0.035 C 
HETATM    7 CL9  UNL     1     -34.689  13.045  -4.873  1.00 20.00    -0.089 Cl
ENDROOT
BRANCH   6   8
HETATM    8  C4  UNL     1     -34.189  17.318  -1.877  1.00 20.00     0.007 C 
HETATM    9  C3  UNL     1     -34.566  16.708  -0.748  1.00 20.00     0.032 C 
HETATM   10 CL10 UNL     1     -33.288  18.792  -1.812  1.00 20.00    -0.089 Cl
ENDBRANCH   6   8
TORSDOF 1
ENDMDL
MODEL 8
REMARK VINA RESULT:      -3.9      2.356      4.343
REMARK  1 active torsions:
REMARK  status: ('A' for Active; 'I' for Inactive)
REMARK    1  A    between atoms: C4_4  and  C8_8 
ROOT
HETATM    1  C1  UNL     1     -33.722  14.632  -3.243  1.00 20.00    -0.007 C 
HETATM    2  C2  UNL     1     -34.528  15.573  -2.731  1.00 20.00     0.009 C 
HETATM    3  C5  UNL     1     -34.172  13.671  -4.304  1.00 20.00     0.029 C 
HETATM    4  C6  UNL     1     -35.964  15.747  -3.131  1.00 20.00     0.061 C 
HETATM    5  C7  UNL     1     -35.501  14.062  -4.955  1.00 20.00     0.014 C 
HETATM    6  C8  UNL     1     -36.518  14.536  -3.908  1.00 20.00     0.035 C 
HETATM    7 CL9  UNL     1     -33.944  16.665  -1.525  1.00 20.00    -0.089 Cl
ENDROOT
BRANCH   6   8
HETATM    8  C4  UNL     1     -37.836  14.867  -4.543  1.00 20.00     0.007 C 
HETATM    9  C3  UNL     1     -39.011  14.836  -3.904  1.00 20.00     0.032 C 
HETATM   10 CL10 UNL     1     -37.763  15.314  -6.212  1.00 20.00    -0.089 Cl
ENDBRANCH   6   8
TORSDOF 1
ENDMDL
MODEL 9
REMARK VINA RESULT:      -3.9      2.224      2.634
REMARK  1 active torsions:
REMARK  status: ('A' for Active; 'I' for Inactive)
REMARK    1  A    between atoms: C4_4  and  C8_8 
ROOT
HETATM    1  C1  UNL     1     -36.367  14.424  -4.124  1.00 20.00    -0.007 C 
HETATM    2  C2  UNL     1     -35.045  14.334  -3.925  1.00 20.00     0.009 C 
HETATM    3  C5  UNL     1     -37.207  15.507  -3.515  1.00 20.00     0.029 C 
HETATM    4  C6  UNL     1     -34.269  15.277  -3.052  1.00 20.00     0.061 C 
HETATM    5  C7  UNL     1     -36.384  16.653  -2.920  1.00 20.00     0.014 C 
HETATM    6  C8  UNL     1     -35.175  16.124  -2.136  1.00 20.00     0.035 C 
HETATM    7 CL9  UNL     1     -34.128  13.074  -4.672  1.00 20.00    -0.089 Cl
ENDROOT
BRANCH   6   8
HETATM    8  C4  UNL     1     -34.401  17.247  -1.510  1.00 20.00     0.007 C 
HETATM    9  C3  UNL     1     -34.301  17.452  -0.192  1.00 20.00     0.032 C 
HETATM   10 CL10 UNL     1     -33.609  18.309  -2.620  1.00 20.00    -0.089 Cl
ENDBRANCH   6   8
TORSDOF 1
ENDMDL
