MODEL 1
REMARK VINA RESULT:      -4.7      0.000      0.000
REMARK  3 active torsions:
REMARK  status: ('A' for Active; 'I' for Inactive)
REMARK    1  A    between atoms: C3_3  and  C5_5 
REMARK    2  A    between atoms: C4_4  and  C6_6 
REMARK    3  A    between atoms: C5_5  and  C6_6 
ROOT
HETATM    1  C6  UNL     1     -34.426   6.099   4.307  1.00 20.00     0.082 C 
HETATM    2 CL7  UNL     1     -33.727   6.654   5.860  1.00 20.00    -0.125 Cl
ENDROOT
BRANCH   1   3
HETATM    3  C4  UNL     1     -35.163   4.764   4.499  1.00 20.00     0.016 C 
HETATM    4  C2  UNL     1     -34.960   4.147   5.878  1.00 20.00     0.006 C 
ENDBRANCH   1   3
BRANCH   1   5
HETATM    5  C5  UNL     1     -33.322   5.959   3.246  1.00 20.00     0.020 C 
BRANCH   5   6
HETATM    6  C3  UNL     1     -32.155   6.931   3.447  1.00 20.00    -0.003 C 
HETATM    7  C1  UNL     1     -32.072   7.939   2.311  1.00 20.00     0.005 C 
ENDBRANCH   5   6
ENDBRANCH   1   5
TORSDOF 3
ENDMDL
MODEL 2
REMARK VINA RESULT:      -4.4      1.902      2.163
REMARK  3 active torsions:
REMARK  status: ('A' for Active; 'I' for Inactive)
REMARK    1  A    between atoms: C3_3  and  C5_5 
REMARK    2  A    between atoms: C4_4  and  C6_6 
REMARK    3  A    between atoms: C5_5  and  C6_6 
ROOT
HETATM    1  C6  UNL     1     -34.034   5.291   5.156  1.00 20.00     0.082 C 
HETATM    2 CL7  UNL     1     -35.251   4.009   4.865  1.00 20.00    -0.125 Cl
ENDROOT
BRANCH   1   3
HETATM    3  C4  UNL     1     -34.370   6.066   6.440  1.00 20.00     0.016 C 
HETATM    4  C2  UNL     1     -33.462   7.265   6.686  1.00 20.00     0.006 C 
ENDBRANCH   1   3
BRANCH   1   5
HETATM    5  C5  UNL     1     -33.965   6.244   3.952  1.00 20.00     0.020 C 
BRANCH   5   6
HETATM    6  C3  UNL     1     -32.644   6.160   3.181  1.00 20.00    -0.003 C 
HETATM    7  C1  UNL     1     -32.206   7.529   2.681  1.00 20.00     0.005 C 
ENDBRANCH   5   6
ENDBRANCH   1   5
TORSDOF 3
ENDMDL
MODEL 3
REMARK VINA RESULT:      -4.3      1.469      3.955
REMARK  3 active torsions:
REMARK  status: ('A' for Active; 'I' for Inactive)
REMARK    1  A    between atoms: C3_3  and  C5_5 
REMARK    2  A    between atoms: C4_4  and  C6_6 
REMARK    3  A    between atoms: C5_5  and  C6_6 
ROOT
HETATM    1  C6  UNL     1     -33.969   6.562   4.100  1.00 20.00     0.082 C 
HETATM    2 CL7  UNL     1     -35.271   5.556   3.390  1.00 20.00    -0.125 Cl
ENDROOT
BRANCH   1   3
HETATM    3  C4  UNL     1     -32.637   6.300   3.380  1.00 20.00     0.016 C 
HETATM    4  C2  UNL     1     -32.086   7.519   2.652  1.00 20.00     0.006 C 
ENDBRANCH   1   3
BRANCH   1   5
HETATM    5  C5  UNL     1     -33.836   6.276   5.605  1.00 20.00     0.020 C 
BRANCH   5   6
HETATM    6  C3  UNL     1     -34.900   5.314   6.140  1.00 20.00    -0.003 C 
HETATM    7  C1  UNL     1     -34.450   3.866   6.015  1.00 20.00     0.005 C 
ENDBRANCH   5   6
ENDBRANCH   1   5
TORSDOF 3
ENDMDL
MODEL 4
REMARK VINA RESULT:      -4.3      1.670      1.709
REMARK  3 active torsions:
REMARK  status: ('A' for Active; 'I' for Inactive)
REMARK    1  A    between atoms: C3_3  and  C5_5 
REMARK    2  A    between atoms: C4_4  and  C6_6 
REMARK    3  A    between atoms: C5_5  and  C6_6 
ROOT
HETATM    1  C6  UNL     1     -34.367   5.289   4.240  1.00 20.00     0.082 C 
HETATM    2 CL7  UNL     1     -35.838   5.724   3.315  1.00 20.00    -0.125 Cl
ENDROOT
BRANCH   1   3
HETATM    3  C4  UNL     1     -34.730   4.943   5.692  1.00 20.00     0.016 C 
HETATM    4  C2  UNL     1     -34.354   6.030   6.692  1.00 20.00     0.006 C 
ENDBRANCH   1   3
BRANCH   1   5
HETATM    5  C5  UNL     1     -33.350   6.442   4.197  1.00 20.00     0.020 C 
BRANCH   5   6
HETATM    6  C3  UNL     1     -32.401   6.374   2.997  1.00 20.00    -0.003 C 
HETATM    7  C1  UNL     1     -32.097   7.762   2.452  1.00 20.00     0.005 C 
ENDBRANCH   5   6
ENDBRANCH   1   5
TORSDOF 3
ENDMDL
MODEL 5
REMARK VINA RESULT:      -4.3      0.919      1.187
REMARK  3 active torsions:
REMARK  status: ('A' for Active; 'I' for Inactive)
REMARK    1  A    between atoms: C3_3  and  C5_5 
REMARK    2  A    between atoms: C4_4  and  C6_6 
REMARK    3  A    between atoms: C5_5  and  C6_6 
ROOT
HETATM    1  C6  UNL     1     -34.424   6.267   5.689  1.00 20.00     0.082 C 
HETATM    2 CL7  UNL     1     -33.219   7.200   6.630  1.00 20.00    -0.125 Cl
ENDROOT
BRANCH   1   3
HETATM    3  C4  UNL     1     -34.445   4.802   6.150  1.00 20.00     0.016 C 
HETATM    4  C2  UNL     1     -35.067   3.850   5.135  1.00 20.00     0.006 C 
ENDBRANCH   1   3
BRANCH   1   5
HETATM    5  C5  UNL     1     -34.112   6.357   4.186  1.00 20.00     0.020 C 
BRANCH   5   6
HETATM    6  C3  UNL     1     -32.613   6.414   3.876  1.00 20.00    -0.003 C 
HETATM    7  C1  UNL     1     -32.321   7.368   2.728  1.00 20.00     0.005 C 
ENDBRANCH   5   6
ENDBRANCH   1   5
TORSDOF 3
ENDMDL
MODEL 6
REMARK VINA RESULT:      -4.2      1.799      3.606
REMARK  3 active torsions:
REMARK  status: ('A' for Active; 'I' for Inactive)
REMARK    1  A    between atoms: C3_3  and  C5_5 
REMARK    2  A    between atoms: C4_4  and  C6_6 
REMARK    3  A    between atoms: C5_5  and  C6_6 
ROOT
HETATM    1  C6  UNL     1     -34.829   5.683   3.930  1.00 20.00     0.082 C 
HETATM    2 CL7  UNL     1     -36.400   6.006   3.130  1.00 20.00    -0.125 Cl
ENDROOT
BRANCH   1   3
HETATM    3  C4  UNL     1     -33.732   5.451   2.879  1.00 20.00     0.016 C 
HETATM    4  C2  UNL     1     -32.450   6.227   3.154  1.00 20.00     0.006 C 
ENDBRANCH   1   3
BRANCH   1   5
HETATM    5  C5  UNL     1     -34.947   4.470   4.866  1.00 20.00     0.020 C 
BRANCH   5   6
HETATM    6  C3  UNL     1     -34.765   4.820   6.346  1.00 20.00    -0.003 C 
HETATM    7  C1  UNL     1     -34.200   6.222   6.517  1.00 20.00     0.005 C 
ENDBRANCH   5   6
ENDBRANCH   1   5
TORSDOF 3
ENDMDL
MODEL 7
REMARK VINA RESULT:      -3.9      0.817      3.752
REMARK  3 active torsions:
REMARK  status: ('A' for Active; 'I' for Inactive)
REMARK    1  A    between atoms: C3_3  and  C5_5 
REMARK    2  A    between atoms: C4_4  and  C6_6 
REMARK    3  A    between atoms: C5_5  and  C6_6 
ROOT
HETATM    1  C6  UNL     1     -33.295   5.952   4.056  1.00 20.00     0.082 C 
HETATM    2 CL7  UNL     1     -33.559   6.886   5.562  1.00 20.00    -0.125 Cl
ENDROOT
BRANCH   1   3
HETATM    3  C4  UNL     1     -32.632   6.835   2.988  1.00 20.00     0.016 C 
HETATM    4  C2  UNL     1     -31.496   7.696   3.527  1.00 20.00     0.006 C 
ENDBRANCH   1   3
BRANCH   1   5
HETATM    5  C5  UNL     1     -34.627   5.386   3.539  1.00 20.00     0.020 C 
BRANCH   5   6
HETATM    6  C3  UNL     1     -35.543   4.867   4.651  1.00 20.00    -0.003 C 
HETATM    7  C1  UNL     1     -34.821   3.864   5.540  1.00 20.00     0.005 C 
ENDBRANCH   5   6
ENDBRANCH   1   5
TORSDOF 3
ENDMDL
MODEL 8
REMARK VINA RESULT:      -3.7      1.888      3.403
REMARK  3 active torsions:
REMARK  status: ('A' for Active; 'I' for Inactive)
REMARK    1  A    between atoms: C3_3  and  C5_5 
REMARK    2  A    between atoms: C4_4  and  C6_6 
REMARK    3  A    between atoms: C5_5  and  C6_6 
ROOT
HETATM    1  C6  UNL     1     -33.335   5.834   4.047  1.00 20.00     0.082 C 
HETATM    2 CL7  UNL     1     -32.050   6.969   3.525  1.00 20.00    -0.125 Cl
ENDROOT
BRANCH   1   3
HETATM    3  C4  UNL     1     -34.271   5.510   2.872  1.00 20.00     0.016 C 
HETATM    4  C2  UNL     1     -35.729   5.863   3.137  1.00 20.00     0.006 C 
ENDBRANCH   1   3
BRANCH   1   5
HETATM    5  C5  UNL     1     -34.128   6.431   5.221  1.00 20.00     0.020 C 
BRANCH   5   6
HETATM    6  C3  UNL     1     -34.224   5.496   6.431  1.00 20.00    -0.003 C 
HETATM    7  C1  UNL     1     -34.926   4.195   6.071  1.00 20.00     0.005 C 
ENDBRANCH   5   6
ENDBRANCH   1   5
TORSDOF 3
ENDMDL
MODEL 9
REMARK VINA RESULT:      -3.6      1.623      4.267
REMARK  3 active torsions:
REMARK  status: ('A' for Active; 'I' for Inactive)
REMARK    1  A    between atoms: C3_3  and  C5_5 
REMARK    2  A    between atoms: C4_4  and  C6_6 
REMARK    3  A    between atoms: C5_5  and  C6_6 
ROOT
HETATM    1  C6  UNL     1     -33.017   6.528   3.099  1.00 20.00     0.082 C 
HETATM    2 CL7  UNL     1     -32.139   5.021   2.689  1.00 20.00    -0.125 Cl
ENDROOT
BRANCH   1   3
HETATM    3  C4  UNL     1     -32.056   7.726   3.093  1.00 20.00     0.016 C 
HETATM    4  C2  UNL     1     -32.017   8.471   1.764  1.00 20.00     0.006 C 
ENDBRANCH   1   3
BRANCH   1   5
HETATM    5  C5  UNL     1     -33.700   6.390   4.470  1.00 20.00     0.020 C 
BRANCH   5   6
HETATM    6  C3  UNL     1     -34.748   5.273   4.521  1.00 20.00    -0.003 C 
HETATM    7  C1  UNL     1     -34.895   4.716   5.929  1.00 20.00     0.005 C 
ENDBRANCH   5   6
ENDBRANCH   1   5
TORSDOF 3
ENDMDL
