MODEL 1
REMARK VINA RESULT:      -4.4      0.000      0.000
REMARK  3 active torsions:
REMARK  status: ('A' for Active; 'I' for Inactive)
REMARK    1  A    between atoms: C1_1  and  C5_5 
REMARK    2  A    between atoms: C2_2  and  C6_6 
REMARK    3  A    between atoms: C6_6  and  C7_7 
ROOT
HETATM    1  C1  UNL     1     -33.824   6.276   3.069  1.00 20.00     0.150 A 
HETATM    2  C2  UNL     1     -34.851   5.561   3.914  1.00 20.00     0.151 A 
HETATM    3  O8  UNL     1     -34.458   5.068   2.626  1.00 20.00    -0.376 OA
ENDROOT
BRANCH   2   4
HETATM    4  C6  UNL     1     -34.485   4.657   5.081  1.00 20.00     0.034 C 
BRANCH   4   5
HETATM    5  C7  UNL     1     -34.755   5.337   6.421  1.00 20.00    -0.002 C 
HETATM    6  C4  UNL     1     -33.967   6.629   6.559  1.00 20.00     0.005 C 
ENDBRANCH   4   5
ENDBRANCH   2   4
BRANCH   1   7
HETATM    7  C5  UNL     1     -32.359   6.163   3.297  1.00 20.00     0.030 C 
HETATM    8  C3  UNL     1     -31.657   7.498   3.317  1.00 20.00     0.007 C 
ENDBRANCH   1   7
TORSDOF 3
ENDMDL
MODEL 2
REMARK VINA RESULT:      -4.3      0.944      3.428
REMARK  3 active torsions:
REMARK  status: ('A' for Active; 'I' for Inactive)
REMARK    1  A    between atoms: C1_1  and  C5_5 
REMARK    2  A    between atoms: C2_2  and  C6_6 
REMARK    3  A    between atoms: C6_6  and  C7_7 
ROOT
HETATM    1  C1  UNL     1     -34.945   5.139   4.102  1.00 20.00     0.150 A 
HETATM    2  C2  UNL     1     -34.020   5.662   3.029  1.00 20.00     0.151 A 
HETATM    3  O8  UNL     1     -34.789   6.544   3.859  1.00 20.00    -0.376 OA
ENDROOT
BRANCH   2   4
HETATM    4  C6  UNL     1     -32.514   5.771   3.208  1.00 20.00     0.034 C 
BRANCH   4   5
HETATM    5  C7  UNL     1     -32.081   7.216   3.440  1.00 20.00    -0.002 C 
HETATM    6  C4  UNL     1     -32.042   8.002   2.140  1.00 20.00     0.005 C 
ENDBRANCH   4   5
ENDBRANCH   2   4
BRANCH   1   7
HETATM    7  C5  UNL     1     -34.470   4.681   5.434  1.00 20.00     0.030 C 
HETATM    8  C3  UNL     1     -34.438   5.784   6.464  1.00 20.00     0.007 C 
ENDBRANCH   1   7
TORSDOF 3
ENDMDL
MODEL 3
REMARK VINA RESULT:      -4.3      1.987      2.884
REMARK  3 active torsions:
REMARK  status: ('A' for Active; 'I' for Inactive)
REMARK    1  A    between atoms: C1_1  and  C5_5 
REMARK    2  A    between atoms: C2_2  and  C6_6 
REMARK    3  A    between atoms: C6_6  and  C7_7 
ROOT
HETATM    1  C1  UNL     1     -31.925   7.522   2.445  1.00 20.00     0.150 A 
HETATM    2  C2  UNL     1     -32.544   6.445   3.303  1.00 20.00     0.151 A 
HETATM    3  O8  UNL     1     -31.541   7.334   3.814  1.00 20.00    -0.376 OA
ENDROOT
BRANCH   2   4
HETATM    4  C6  UNL     1     -33.910   6.584   3.956  1.00 20.00     0.034 C 
BRANCH   4   5
HETATM    5  C7  UNL     1     -34.790   5.368   3.675  1.00 20.00    -0.002 C 
HETATM    6  C4  UNL     1     -35.112   4.606   4.949  1.00 20.00     0.005 C 
ENDBRANCH   4   5
ENDBRANCH   2   4
BRANCH   1   7
HETATM    7  C5  UNL     1     -32.593   8.819   2.157  1.00 20.00     0.030 C 
HETATM    8  C3  UNL     1     -32.239   9.381   0.802  1.00 20.00     0.007 C 
ENDBRANCH   1   7
TORSDOF 3
ENDMDL
MODEL 4
REMARK VINA RESULT:      -4.1      1.455      4.062
REMARK  3 active torsions:
REMARK  status: ('A' for Active; 'I' for Inactive)
REMARK    1  A    between atoms: C1_1  and  C5_5 
REMARK    2  A    between atoms: C2_2  and  C6_6 
REMARK    3  A    between atoms: C6_6  and  C7_7 
ROOT
HETATM    1  C1  UNL     1     -33.345   5.600   4.134  1.00 20.00     0.150 A 
HETATM    2  C2  UNL     1     -32.448   6.230   3.096  1.00 20.00     0.151 A 
HETATM    3  O8  UNL     1     -33.832   5.959   2.833  1.00 20.00    -0.376 OA
ENDROOT
BRANCH   2   4
HETATM    4  C6  UNL     1     -32.077   7.704   3.101  1.00 20.00     0.034 C 
BRANCH   4   5
HETATM    5  C7  UNL     1     -31.943   8.252   1.682  1.00 20.00    -0.002 C 
HETATM    6  C4  UNL     1     -32.499   9.663   1.575  1.00 20.00     0.005 C 
ENDBRANCH   4   5
ENDBRANCH   2   4
BRANCH   1   7
HETATM    7  C5  UNL     1     -33.952   6.362   5.257  1.00 20.00     0.030 C 
HETATM    8  C3  UNL     1     -34.601   5.476   6.293  1.00 20.00     0.007 C 
ENDBRANCH   1   7
TORSDOF 3
ENDMDL
MODEL 5
REMARK VINA RESULT:      -3.9      1.544      3.318
REMARK  3 active torsions:
REMARK  status: ('A' for Active; 'I' for Inactive)
REMARK    1  A    between atoms: C1_1  and  C5_5 
REMARK    2  A    between atoms: C2_2  and  C6_6 
REMARK    3  A    between atoms: C6_6  and  C7_7 
ROOT
HETATM    1  C1  UNL     1     -34.229   4.985   6.336  1.00 20.00     0.150 A 
HETATM    2  C2  UNL     1     -34.555   4.434   4.969  1.00 20.00     0.151 A 
HETATM    3  O8  UNL     1     -35.421   4.225   6.093  1.00 20.00    -0.376 OA
ENDROOT
BRANCH   2   4
HETATM    4  C6  UNL     1     -35.151   5.275   3.852  1.00 20.00     0.034 C 
BRANCH   4   5
HETATM    5  C7  UNL     1     -34.166   5.453   2.699  1.00 20.00    -0.002 C 
HETATM    6  C4  UNL     1     -32.931   6.225   3.135  1.00 20.00     0.005 C 
ENDBRANCH   4   5
ENDBRANCH   2   4
BRANCH   1   7
HETATM    7  C5  UNL     1     -34.461   6.403   6.719  1.00 20.00     0.030 C 
HETATM    8  C3  UNL     1     -33.208   7.243   6.672  1.00 20.00     0.007 C 
ENDBRANCH   1   7
TORSDOF 3
ENDMDL
MODEL 6
REMARK VINA RESULT:      -3.8     11.400     12.359
REMARK  3 active torsions:
REMARK  status: ('A' for Active; 'I' for Inactive)
REMARK    1  A    between atoms: C1_1  and  C5_5 
REMARK    2  A    between atoms: C2_2  and  C6_6 
REMARK    3  A    between atoms: C6_6  and  C7_7 
ROOT
HETATM    1  C1  UNL     1     -34.793  13.550  -5.045  1.00 20.00     0.150 A 
HETATM    2  C2  UNL     1     -34.588  13.880  -3.587  1.00 20.00     0.151 A 
HETATM    3  O8  UNL     1     -33.647  13.084  -4.320  1.00 20.00    -0.376 OA
ENDROOT
BRANCH   2   4
HETATM    4  C6  UNL     1     -34.051  15.218  -3.104  1.00 20.00     0.034 C 
BRANCH   4   5
HETATM    5  C7  UNL     1     -35.115  16.007  -2.344  1.00 20.00    -0.002 C 
HETATM    6  C4  UNL     1     -34.578  16.540  -1.026  1.00 20.00     0.005 C 
ENDBRANCH   4   5
ENDBRANCH   2   4
BRANCH   1   7
HETATM    7  C5  UNL     1     -34.489  14.501  -6.147  1.00 20.00     0.030 C 
HETATM    8  C3  UNL     1     -35.449  14.392  -7.307  1.00 20.00     0.007 C 
ENDBRANCH   1   7
TORSDOF 3
ENDMDL
MODEL 7
REMARK VINA RESULT:      -3.8     11.397     13.000
REMARK  3 active torsions:
REMARK  status: ('A' for Active; 'I' for Inactive)
REMARK    1  A    between atoms: C1_1  and  C5_5 
REMARK    2  A    between atoms: C2_2  and  C6_6 
REMARK    3  A    between atoms: C6_6  and  C7_7 
ROOT
HETATM    1  C1  UNL     1     -34.389  13.885  -3.655  1.00 20.00     0.150 A 
HETATM    2  C2  UNL     1     -34.358  13.514  -5.117  1.00 20.00     0.151 A 
HETATM    3  O8  UNL     1     -35.091  12.740  -4.158  1.00 20.00    -0.376 OA
ENDROOT
BRANCH   2   4
HETATM    4  C6  UNL     1     -35.214  14.202  -6.169  1.00 20.00     0.034 C 
BRANCH   4   5
HETATM    5  C7  UNL     1     -34.375  15.107  -7.069  1.00 20.00    -0.002 C 
HETATM    6  C4  UNL     1     -34.109  16.452  -6.412  1.00 20.00     0.005 C 
ENDBRANCH   4   5
ENDBRANCH   2   4
BRANCH   1   7
HETATM    7  C5  UNL     1     -35.260  14.957  -3.104  1.00 20.00     0.030 C 
HETATM    8  C3  UNL     1     -34.507  15.963  -2.267  1.00 20.00     0.007 C 
ENDBRANCH   1   7
TORSDOF 3
ENDMDL
MODEL 8
REMARK VINA RESULT:      -3.8     11.620     12.284
REMARK  3 active torsions:
REMARK  status: ('A' for Active; 'I' for Inactive)
REMARK    1  A    between atoms: C1_1  and  C5_5 
REMARK    2  A    between atoms: C2_2  and  C6_6 
REMARK    3  A    between atoms: C6_6  and  C7_7 
ROOT
HETATM    1  C1  UNL     1     -33.012  15.064  -3.772  1.00 20.00     0.150 A 
HETATM    2  C2  UNL     1     -33.635  16.184  -2.975  1.00 20.00     0.151 A 
HETATM    3  O8  UNL     1     -33.927  15.995  -4.367  1.00 20.00    -0.376 OA
ENDROOT
BRANCH   2   4
HETATM    4  C6  UNL     1     -34.818  15.985  -2.042  1.00 20.00     0.034 C 
BRANCH   4   5
HETATM    5  C7  UNL     1     -34.602  16.692  -0.706  1.00 20.00    -0.002 C 
HETATM    6  C4  UNL     1     -33.521  17.755  -0.807  1.00 20.00     0.005 C 
ENDBRANCH   4   5
ENDBRANCH   2   4
BRANCH   1   7
HETATM    7  C5  UNL     1     -33.499  13.659  -3.721  1.00 20.00     0.030 C 
HETATM    8  C3  UNL     1     -34.476  13.329  -4.822  1.00 20.00     0.007 C 
ENDBRANCH   1   7
TORSDOF 3
ENDMDL
MODEL 9
REMARK VINA RESULT:      -3.7      1.784      3.957
REMARK  3 active torsions:
REMARK  status: ('A' for Active; 'I' for Inactive)
REMARK    1  A    between atoms: C1_1  and  C5_5 
REMARK    2  A    between atoms: C2_2  and  C6_6 
REMARK    3  A    between atoms: C6_6  and  C7_7 
ROOT
HETATM    1  C1  UNL     1     -34.432   6.037   5.980  1.00 20.00     0.150 A 
HETATM    2  C2  UNL     1     -33.818   6.839   4.859  1.00 20.00     0.151 A 
HETATM    3  O8  UNL     1     -33.232   6.801   6.168  1.00 20.00    -0.376 OA
ENDROOT
BRANCH   2   4
HETATM    4  C6  UNL     1     -32.966   6.221   3.762  1.00 20.00     0.034 C 
BRANCH   4   5
HETATM    5  C7  UNL     1     -31.794   7.124   3.387  1.00 20.00    -0.002 C 
HETATM    6  C4  UNL     1     -32.140   8.028   2.215  1.00 20.00     0.005 C 
ENDBRANCH   4   5
ENDBRANCH   2   4
BRANCH   1   7
HETATM    7  C5  UNL     1     -34.262   4.567   6.118  1.00 20.00     0.030 C 
HETATM    8  C3  UNL     1     -35.169   3.776   5.207  1.00 20.00     0.007 C 
ENDBRANCH   1   7
TORSDOF 3
ENDMDL
