MODEL 1
REMARK VINA RESULT:      -4.8      0.000      0.000
REMARK  2 active torsions:
REMARK  status: ('A' for Active; 'I' for Inactive)
REMARK    1  A    between atoms: C2_2  and  C3_3 
REMARK    2  A    between atoms: C3_3  and  O4_4 
ROOT
HETATM    1  C3  UNL     1     -34.989   5.462   3.872  1.00 20.00     0.398 C 
HETATM    2  F6  UNL     1     -36.163   5.835   3.309  1.00 20.00    -0.171 F 
HETATM    3  F7  UNL     1     -34.411   4.551   3.048  1.00 20.00    -0.171 F 
ENDROOT
BRANCH   1   4
HETATM    4  C2  UNL     1     -35.227   4.827   5.224  1.00 20.00     0.367 C 
HETATM    5  F5  UNL     1     -34.774   3.545   5.187  1.00 20.00    -0.223 F 
HETATM    6 CL8  UNL     1     -34.367   5.695   6.515  1.00 20.00    -0.080 Cl
ENDBRANCH   1   4
BRANCH   1   7
HETATM    7  O4  UNL     1     -34.128   6.590   3.980  1.00 20.00    -0.328 OA
HETATM    8  C1  UNL     1     -32.892   6.399   3.305  1.00 20.00     0.208 C 
ENDBRANCH   1   7
TORSDOF 2
ENDMDL
MODEL 2
REMARK VINA RESULT:      -4.4      1.804      1.804
REMARK  2 active torsions:
REMARK  status: ('A' for Active; 'I' for Inactive)
REMARK    1  A    between atoms: C2_2  and  C3_3 
REMARK    2  A    between atoms: C3_3  and  O4_4 
ROOT
HETATM    1  C3  UNL     1     -34.035   5.897   4.062  1.00 20.00     0.398 C 
HETATM    2  F6  UNL     1     -34.546   7.143   3.917  1.00 20.00    -0.171 F 
HETATM    3  F7  UNL     1     -34.857   5.038   3.406  1.00 20.00    -0.171 F 
ENDROOT
BRANCH   1   4
HETATM    4  C2  UNL     1     -33.981   5.512   5.524  1.00 20.00     0.367 C 
HETATM    5  F5  UNL     1     -34.354   6.586   6.270  1.00 20.00    -0.223 F 
HETATM    6 CL8  UNL     1     -35.080   4.163   5.886  1.00 20.00    -0.080 Cl
ENDBRANCH   1   4
BRANCH   1   7
HETATM    7  O4  UNL     1     -32.743   5.834   3.468  1.00 20.00    -0.328 OA
HETATM    8  C1  UNL     1     -32.287   7.102   3.019  1.00 20.00     0.208 C 
ENDBRANCH   1   7
TORSDOF 2
ENDMDL
MODEL 3
REMARK VINA RESULT:      -4.2      1.716      2.776
REMARK  2 active torsions:
REMARK  status: ('A' for Active; 'I' for Inactive)
REMARK    1  A    between atoms: C2_2  and  C3_3 
REMARK    2  A    between atoms: C3_3  and  O4_4 
ROOT
HETATM    1  C3  UNL     1     -34.947   5.215   4.108  1.00 20.00     0.398 C 
HETATM    2  F6  UNL     1     -35.164   3.959   4.567  1.00 20.00    -0.171 F 
HETATM    3  F7  UNL     1     -36.112   5.662   3.572  1.00 20.00    -0.171 F 
ENDROOT
BRANCH   1   4
HETATM    4  C2  UNL     1     -33.878   5.213   3.038  1.00 20.00     0.367 C 
HETATM    5  F5  UNL     1     -34.482   5.227   1.821  1.00 20.00    -0.223 F 
HETATM    6 CL8  UNL     1     -32.824   6.639   3.164  1.00 20.00    -0.080 Cl
ENDBRANCH   1   4
BRANCH   1   7
HETATM    7  O4  UNL     1     -34.588   6.068   5.190  1.00 20.00    -0.328 OA
HETATM    8  C1  UNL     1     -34.554   5.384   6.435  1.00 20.00     0.208 C 
ENDBRANCH   1   7
TORSDOF 2
ENDMDL
MODEL 4
REMARK VINA RESULT:      -4.1      2.358      3.259
REMARK  2 active torsions:
REMARK  status: ('A' for Active; 'I' for Inactive)
REMARK    1  A    between atoms: C2_2  and  C3_3 
REMARK    2  A    between atoms: C3_3  and  O4_4 
ROOT
HETATM    1  C3  UNL     1     -33.813   6.045   3.713  1.00 20.00     0.398 C 
HETATM    2  F6  UNL     1     -34.356   5.299   2.722  1.00 20.00    -0.171 F 
HETATM    3  F7  UNL     1     -34.530   7.194   3.801  1.00 20.00    -0.171 F 
ENDROOT
BRANCH   1   4
HETATM    4  C2  UNL     1     -32.373   6.383   3.397  1.00 20.00     0.367 C 
HETATM    5  F5  UNL     1     -31.831   5.354   2.692  1.00 20.00    -0.223 F 
HETATM    6 CL8  UNL     1     -32.247   7.865   2.424  1.00 20.00    -0.080 Cl
ENDBRANCH   1   4
BRANCH   1   7
HETATM    7  O4  UNL     1     -33.916   5.350   4.951  1.00 20.00    -0.328 OA
HETATM    8  C1  UNL     1     -35.100   4.571   5.042  1.00 20.00     0.208 C 
ENDBRANCH   1   7
TORSDOF 2
ENDMDL
MODEL 5
REMARK VINA RESULT:      -4.1      1.775      2.050
REMARK  2 active torsions:
REMARK  status: ('A' for Active; 'I' for Inactive)
REMARK    1  A    between atoms: C2_2  and  C3_3 
REMARK    2  A    between atoms: C3_3  and  O4_4 
ROOT
HETATM    1  C3  UNL     1     -33.977   6.274   4.472  1.00 20.00     0.398 C 
HETATM    2  F6  UNL     1     -33.609   6.627   5.727  1.00 20.00    -0.171 F 
HETATM    3  F7  UNL     1     -34.523   7.369   3.883  1.00 20.00    -0.171 F 
ENDROOT
BRANCH   1   4
HETATM    4  C2  UNL     1     -35.007   5.167   4.512  1.00 20.00     0.367 C 
HETATM    5  F5  UNL     1     -34.764   4.312   3.484  1.00 20.00    -0.223 F 
HETATM    6 CL8  UNL     1     -34.932   4.258   6.037  1.00 20.00    -0.080 Cl
ENDBRANCH   1   4
BRANCH   1   7
HETATM    7  O4  UNL     1     -32.830   5.880   3.727  1.00 20.00    -0.328 OA
HETATM    8  C1  UNL     1     -32.164   6.983   3.129  1.00 20.00     0.208 C 
ENDBRANCH   1   7
TORSDOF 2
ENDMDL
MODEL 6
REMARK VINA RESULT:      -4.1      2.023      2.313
REMARK  2 active torsions:
REMARK  status: ('A' for Active; 'I' for Inactive)
REMARK    1  A    between atoms: C2_2  and  C3_3 
REMARK    2  A    between atoms: C3_3  and  O4_4 
ROOT
HETATM    1  C3  UNL     1     -33.211   6.014   3.378  1.00 20.00     0.398 C 
HETATM    2  F6  UNL     1     -33.901   5.400   2.387  1.00 20.00    -0.171 F 
HETATM    3  F7  UNL     1     -31.931   5.565   3.325  1.00 20.00    -0.171 F 
ENDROOT
BRANCH   1   4
HETATM    4  C2  UNL     1     -33.801   5.669   4.728  1.00 20.00     0.367 C 
HETATM    5  F5  UNL     1     -33.957   6.817   5.439  1.00 20.00    -0.223 F 
HETATM    6 CL8  UNL     1     -35.386   4.883   4.567  1.00 20.00    -0.080 Cl
ENDBRANCH   1   4
BRANCH   1   7
HETATM    7  O4  UNL     1     -33.210   7.421   3.164  1.00 20.00    -0.328 OA
HETATM    8  C1  UNL     1     -32.094   7.855   2.399  1.00 20.00     0.208 C 
ENDBRANCH   1   7
TORSDOF 2
ENDMDL
MODEL 7
REMARK VINA RESULT:      -4.1      2.044      2.930
REMARK  2 active torsions:
REMARK  status: ('A' for Active; 'I' for Inactive)
REMARK    1  A    between atoms: C2_2  and  C3_3 
REMARK    2  A    between atoms: C3_3  and  O4_4 
ROOT
HETATM    1  C3  UNL     1     -34.521   5.046   5.476  1.00 20.00     0.398 C 
HETATM    2  F6  UNL     1     -33.828   3.965   5.906  1.00 20.00    -0.171 F 
HETATM    3  F7  UNL     1     -35.529   5.265   6.359  1.00 20.00    -0.171 F 
ENDROOT
BRANCH   1   4
HETATM    4  C2  UNL     1     -35.110   4.790   4.106  1.00 20.00     0.367 C 
HETATM    5  F5  UNL     1     -36.297   5.446   4.014  1.00 20.00    -0.223 F 
HETATM    6 CL8  UNL     1     -34.038   5.374   2.814  1.00 20.00    -0.080 Cl
ENDBRANCH   1   4
BRANCH   1   7
HETATM    7  O4  UNL     1     -33.672   6.188   5.463  1.00 20.00    -0.328 OA
HETATM    8  C1  UNL     1     -33.789   6.968   6.644  1.00 20.00     0.208 C 
ENDBRANCH   1   7
TORSDOF 2
ENDMDL
MODEL 8
REMARK VINA RESULT:      -4.1      2.120      2.910
REMARK  2 active torsions:
REMARK  status: ('A' for Active; 'I' for Inactive)
REMARK    1  A    between atoms: C2_2  and  C3_3 
REMARK    2  A    between atoms: C3_3  and  O4_4 
ROOT
HETATM    1  C3  UNL     1     -34.914   5.402   4.050  1.00 20.00     0.398 C 
HETATM    2  F6  UNL     1     -36.054   5.782   3.424  1.00 20.00    -0.171 F 
HETATM    3  F7  UNL     1     -34.631   6.340   4.990  1.00 20.00    -0.171 F 
ENDROOT
BRANCH   1   4
HETATM    4  C2  UNL     1     -33.768   5.324   3.067  1.00 20.00     0.367 C 
HETATM    5  F5  UNL     1     -34.278   5.163   1.817  1.00 20.00    -0.223 F 
HETATM    6 CL8  UNL     1     -32.783   6.804   3.091  1.00 20.00    -0.080 Cl
ENDBRANCH   1   4
BRANCH   1   7
HETATM    7  O4  UNL     1     -35.117   4.152   4.701  1.00 20.00    -0.328 OA
HETATM    8  C1  UNL     1     -34.889   4.223   6.101  1.00 20.00     0.208 C 
ENDBRANCH   1   7
TORSDOF 2
ENDMDL
MODEL 9
REMARK VINA RESULT:      -3.8      2.401      2.892
REMARK  2 active torsions:
REMARK  status: ('A' for Active; 'I' for Inactive)
REMARK    1  A    between atoms: C2_2  and  C3_3 
REMARK    2  A    between atoms: C3_3  and  O4_4 
ROOT
HETATM    1  C3  UNL     1     -34.653   4.939   5.695  1.00 20.00     0.398 C 
HETATM    2  F6  UNL     1     -35.614   4.916   6.650  1.00 20.00    -0.171 F 
HETATM    3  F7  UNL     1     -33.661   4.102   6.092  1.00 20.00    -0.171 F 
ENDROOT
BRANCH   1   4
HETATM    4  C2  UNL     1     -34.091   6.335   5.540  1.00 20.00     0.367 C 
HETATM    5  F5  UNL     1     -33.535   6.712   6.722  1.00 20.00    -0.223 F 
HETATM    6 CL8  UNL     1     -32.841   6.400   4.279  1.00 20.00    -0.080 Cl
ENDBRANCH   1   4
BRANCH   1   7
HETATM    7  O4  UNL     1     -35.186   4.462   4.464  1.00 20.00    -0.328 OA
HETATM    8  C1  UNL     1     -35.819   5.487   3.711  1.00 20.00     0.208 C 
ENDBRANCH   1   7
TORSDOF 2
ENDMDL
