MODEL 1
REMARK VINA RESULT:      -4.0      0.000      0.000
REMARK  2 active torsions:
REMARK  status: ('A' for Active; 'I' for Inactive)
REMARK    1  A    between atoms: C1_1  and  C2_2 
REMARK    2  A    between atoms: C1_1  and  C3_3 
ROOT
HETATM    1  C1  UNL     1     -33.979   5.795   3.874  1.00 20.00     0.173 C 
HETATM    2  O4  UNL     1     -34.350   5.300   2.810  1.00 20.00    -0.294 OA
ENDROOT
BRANCH   1   3
HETATM    3  C2  UNL     1     -32.687   6.572   4.012  1.00 20.00     0.195 C 
HETATM    4 CL5  UNL     1     -32.326   7.458   2.522  1.00 20.00    -0.122 Cl
ENDBRANCH   1   3
BRANCH   1   5
HETATM    5  C3  UNL     1     -34.777   5.626   5.149  1.00 20.00     0.248 C 
HETATM    6 CL6  UNL     1     -33.970   6.553   6.418  1.00 20.00    -0.100 Cl
HETATM    7 CL7  UNL     1     -34.864   3.907   5.556  1.00 20.00    -0.100 Cl
ENDBRANCH   1   5
TORSDOF 2
ENDMDL
MODEL 2
REMARK VINA RESULT:      -3.9      1.041      1.869
REMARK  2 active torsions:
REMARK  status: ('A' for Active; 'I' for Inactive)
REMARK    1  A    between atoms: C1_1  and  C2_2 
REMARK    2  A    between atoms: C1_1  and  C3_3 
ROOT
HETATM    1  C1  UNL     1     -34.479   5.616   3.962  1.00 20.00     0.173 C 
HETATM    2  O4  UNL     1     -35.675   5.685   3.678  1.00 20.00    -0.294 OA
ENDROOT
BRANCH   1   3
HETATM    3  C2  UNL     1     -33.380   5.852   2.948  1.00 20.00     0.195 C 
HETATM    4 CL5  UNL     1     -32.137   6.927   3.606  1.00 20.00    -0.122 Cl
ENDBRANCH   1   3
BRANCH   1   5
HETATM    5  C3  UNL     1     -34.014   5.244   5.353  1.00 20.00     0.248 C 
HETATM    6 CL6  UNL     1     -35.083   3.974   5.958  1.00 20.00    -0.100 Cl
HETATM    7 CL7  UNL     1     -34.063   6.680   6.385  1.00 20.00    -0.100 Cl
ENDBRANCH   1   5
TORSDOF 2
ENDMDL
MODEL 3
REMARK VINA RESULT:      -3.7      1.987      2.177
REMARK  2 active torsions:
REMARK  status: ('A' for Active; 'I' for Inactive)
REMARK    1  A    between atoms: C1_1  and  C2_2 
REMARK    2  A    between atoms: C1_1  and  C3_3 
ROOT
HETATM    1  C1  UNL     1     -33.823   6.263   5.156  1.00 20.00     0.173 C 
HETATM    2  O4  UNL     1     -33.800   6.660   6.321  1.00 20.00    -0.294 OA
ENDROOT
BRANCH   1   3
HETATM    3  C2  UNL     1     -33.133   6.996   4.026  1.00 20.00     0.195 C 
HETATM    4 CL5  UNL     1     -32.134   5.887   3.074  1.00 20.00    -0.122 Cl
ENDBRANCH   1   3
BRANCH   1   5
HETATM    5  C3  UNL     1     -34.587   5.019   4.757  1.00 20.00     0.248 C 
HETATM    6 CL6  UNL     1     -35.875   5.509   3.651  1.00 20.00    -0.100 Cl
HETATM    7 CL7  UNL     1     -35.238   4.246   6.208  1.00 20.00    -0.100 Cl
ENDBRANCH   1   5
TORSDOF 2
ENDMDL
MODEL 4
REMARK VINA RESULT:      -3.6      0.822      3.049
REMARK  2 active torsions:
REMARK  status: ('A' for Active; 'I' for Inactive)
REMARK    1  A    between atoms: C1_1  and  C2_2 
REMARK    2  A    between atoms: C1_1  and  C3_3 
ROOT
HETATM    1  C1  UNL     1     -34.396   5.597   3.626  1.00 20.00     0.173 C 
HETATM    2  O4  UNL     1     -34.116   5.154   2.512  1.00 20.00    -0.294 OA
ENDROOT
BRANCH   1   3
HETATM    3  C2  UNL     1     -35.486   5.004   4.494  1.00 20.00     0.195 C 
HETATM    4 CL5  UNL     1     -34.840   3.712   5.517  1.00 20.00    -0.122 Cl
ENDBRANCH   1   3
BRANCH   1   5
HETATM    5  C3  UNL     1     -33.692   6.808   4.199  1.00 20.00     0.248 C 
HETATM    6 CL6  UNL     1     -32.048   6.833   3.552  1.00 20.00    -0.100 Cl
HETATM    7 CL7  UNL     1     -33.693   6.699   5.964  1.00 20.00    -0.100 Cl
ENDBRANCH   1   5
TORSDOF 2
ENDMDL
MODEL 5
REMARK VINA RESULT:      -3.5      1.847      3.799
REMARK  2 active torsions:
REMARK  status: ('A' for Active; 'I' for Inactive)
REMARK    1  A    between atoms: C1_1  and  C2_2 
REMARK    2  A    between atoms: C1_1  and  C3_3 
ROOT
HETATM    1  C1  UNL     1     -34.122   6.103   4.826  1.00 20.00     0.173 C 
HETATM    2  O4  UNL     1     -33.709   6.603   5.873  1.00 20.00    -0.294 OA
ENDROOT
BRANCH   1   3
HETATM    3  C2  UNL     1     -35.129   4.974   4.798  1.00 20.00     0.195 C 
HETATM    4 CL5  UNL     1     -35.183   4.140   6.359  1.00 20.00    -0.122 Cl
ENDBRANCH   1   3
BRANCH   1   5
HETATM    5  C3  UNL     1     -33.614   6.558   3.475  1.00 20.00     0.248 C 
HETATM    6 CL6  UNL     1     -33.865   5.236   2.330  1.00 20.00    -0.100 Cl
HETATM    7 CL7  UNL     1     -31.903   6.983   3.610  1.00 20.00    -0.100 Cl
ENDBRANCH   1   5
TORSDOF 2
ENDMDL
MODEL 6
REMARK VINA RESULT:      -3.5      2.087      2.205
REMARK  2 active torsions:
REMARK  status: ('A' for Active; 'I' for Inactive)
REMARK    1  A    between atoms: C1_1  and  C2_2 
REMARK    2  A    between atoms: C1_1  and  C3_3 
ROOT
HETATM    1  C1  UNL     1     -33.599   6.200   4.335  1.00 20.00     0.173 C 
HETATM    2  O4  UNL     1     -32.533   6.776   4.118  1.00 20.00    -0.294 OA
ENDROOT
BRANCH   1   3
HETATM    3  C2  UNL     1     -34.370   5.468   3.257  1.00 20.00     0.195 C 
HETATM    4 CL5  UNL     1     -36.114   5.671   3.483  1.00 20.00    -0.122 Cl
ENDBRANCH   1   3
BRANCH   1   5
HETATM    5  C3  UNL     1     -34.247   6.218   5.702  1.00 20.00     0.248 C 
HETATM    6 CL6  UNL     1     -33.240   7.209   6.763  1.00 20.00    -0.100 Cl
HETATM    7 CL7  UNL     1     -34.386   4.560   6.302  1.00 20.00    -0.100 Cl
ENDBRANCH   1   5
TORSDOF 2
ENDMDL
MODEL 7
REMARK VINA RESULT:      -3.5      1.966      3.167
REMARK  2 active torsions:
REMARK  status: ('A' for Active; 'I' for Inactive)
REMARK    1  A    between atoms: C1_1  and  C2_2 
REMARK    2  A    between atoms: C1_1  and  C3_3 
ROOT
HETATM    1  C1  UNL     1     -34.748   4.841   5.078  1.00 20.00     0.173 C 
HETATM    2  O4  UNL     1     -35.114   3.715   4.738  1.00 20.00    -0.294 OA
ENDROOT
BRANCH   1   3
HETATM    3  C2  UNL     1     -34.457   5.208   6.518  1.00 20.00     0.195 C 
HETATM    4 CL5  UNL     1     -33.866   6.873   6.634  1.00 20.00    -0.122 Cl
ENDBRANCH   1   3
BRANCH   1   5
HETATM    5  C3  UNL     1     -34.601   5.964   4.076  1.00 20.00     0.248 C 
HETATM    6 CL6  UNL     1     -36.027   5.945   3.032  1.00 20.00    -0.100 Cl
HETATM    7 CL7  UNL     1     -33.115   5.725   3.148  1.00 20.00    -0.100 Cl
ENDBRANCH   1   5
TORSDOF 2
ENDMDL
MODEL 8
REMARK VINA RESULT:      -3.5      1.828      2.224
REMARK  2 active torsions:
REMARK  status: ('A' for Active; 'I' for Inactive)
REMARK    1  A    between atoms: C1_1  and  C2_2 
REMARK    2  A    between atoms: C1_1  and  C3_3 
ROOT
HETATM    1  C1  UNL     1     -33.433   6.279   4.348  1.00 20.00     0.173 C 
HETATM    2  O4  UNL     1     -33.375   6.773   5.474  1.00 20.00    -0.294 OA
ENDROOT
BRANCH   1   3
HETATM    3  C2  UNL     1     -32.275   6.318   3.374  1.00 20.00     0.195 C 
HETATM    4 CL5  UNL     1     -32.233   7.863   2.510  1.00 20.00    -0.122 Cl
ENDBRANCH   1   3
BRANCH   1   5
HETATM    5  C3  UNL     1     -34.696   5.624   3.833  1.00 20.00     0.248 C 
HETATM    6 CL6  UNL     1     -35.127   4.327   4.953  1.00 20.00    -0.100 Cl
HETATM    7 CL7  UNL     1     -34.406   5.003   2.203  1.00 20.00    -0.100 Cl
ENDBRANCH   1   5
TORSDOF 2
ENDMDL
MODEL 9
REMARK VINA RESULT:      -3.4      2.090      2.689
REMARK  2 active torsions:
REMARK  status: ('A' for Active; 'I' for Inactive)
REMARK    1  A    between atoms: C1_1  and  C2_2 
REMARK    2  A    between atoms: C1_1  and  C3_3 
ROOT
HETATM    1  C1  UNL     1     -33.830   6.076   4.858  1.00 20.00     0.173 C 
HETATM    2  O4  UNL     1     -32.943   6.696   4.270  1.00 20.00    -0.294 OA
ENDROOT
BRANCH   1   3
HETATM    3  C2  UNL     1     -34.152   6.295   6.321  1.00 20.00     0.195 C 
HETATM    4 CL5  UNL     1     -33.142   7.580   7.001  1.00 20.00    -0.122 Cl
ENDBRANCH   1   3
BRANCH   1   5
HETATM    5  C3  UNL     1     -34.643   5.006   4.163  1.00 20.00     0.248 C 
HETATM    6 CL6  UNL     1     -36.076   5.779   3.475  1.00 20.00    -0.100 Cl
HETATM    7 CL7  UNL     1     -35.081   3.756   5.335  1.00 20.00    -0.100 Cl
ENDBRANCH   1   5
TORSDOF 2
ENDMDL
