MODEL 1
REMARK VINA RESULT:      -5.3      0.000      0.000
REMARK  0 active torsions:
REMARK  status: ('A' for Active; 'I' for Inactive)
ROOT
HETATM    1  C1  UNL     1     -33.533   6.275   4.349  1.00 20.00    -0.011 C 
HETATM    2  C2  UNL     1     -34.481   5.280   3.768  1.00 20.00     0.155 C 
HETATM    3  C3  UNL     1     -32.527   6.713   3.580  1.00 20.00    -0.078 C 
HETATM    4  C4  UNL     1     -33.751   6.699   5.769  1.00 20.00     0.042 C 
HETATM    5  C5  UNL     1     -35.014   4.215   4.703  1.00 20.00     0.083 C 
HETATM    6  C6  UNL     1     -34.112   5.517   6.666  1.00 20.00     0.005 C 
HETATM    7  C7  UNL     1     -35.304   4.753   6.100  1.00 20.00     0.008 C 
HETATM    8  C8  UNL     1     -31.524   7.713   4.077  1.00 20.00     0.043 C 
HETATM    9  C9  UNL     1     -32.337   6.234   2.171  1.00 20.00     0.043 C 
HETATM   10  O10 UNL     1     -34.760   5.277   2.570  1.00 20.00    -0.293 OA
ENDROOT
TORSDOF 0
ENDMDL
MODEL 2
REMARK VINA RESULT:      -4.5     12.165     13.385
REMARK  0 active torsions:
REMARK  status: ('A' for Active; 'I' for Inactive)
ROOT
HETATM    1  C1  UNL     1     -34.328  16.722  -2.542  1.00 20.00    -0.011 C 
HETATM    2  C2  UNL     1     -33.702  17.215  -3.803  1.00 20.00     0.155 C 
HETATM    3  C3  UNL     1     -34.143  17.434  -1.424  1.00 20.00    -0.078 C 
HETATM    4  C4  UNL     1     -35.104  15.442  -2.603  1.00 20.00     0.042 C 
HETATM    5  C5  UNL     1     -33.177  16.167  -4.762  1.00 20.00     0.083 C 
HETATM    6  C6  UNL     1     -34.397  14.389  -3.454  1.00 20.00     0.005 C 
HETATM    7  C7  UNL     1     -34.077  14.940  -4.839  1.00 20.00     0.008 C 
HETATM    8  C8  UNL     1     -34.733  17.018  -0.108  1.00 20.00     0.043 C 
HETATM    9  C9  UNL     1     -33.332  18.698  -1.411  1.00 20.00     0.043 C 
HETATM   10  O10 UNL     1     -33.550  18.415  -4.022  1.00 20.00    -0.293 OA
ENDROOT
TORSDOF 0
ENDMDL
MODEL 3
REMARK VINA RESULT:      -4.5     11.598     12.764
REMARK  0 active torsions:
REMARK  status: ('A' for Active; 'I' for Inactive)
ROOT
HETATM    1  C1  UNL     1     -35.725  15.686  -3.147  1.00 20.00    -0.011 C 
HETATM    2  C2  UNL     1     -36.187  14.433  -3.813  1.00 20.00     0.155 C 
HETATM    3  C3  UNL     1     -36.567  16.727  -3.104  1.00 20.00    -0.078 C 
HETATM    4  C4  UNL     1     -34.334  15.707  -2.590  1.00 20.00     0.042 C 
HETATM    5  C5  UNL     1     -35.152  13.649  -4.590  1.00 20.00     0.083 C 
HETATM    6  C6  UNL     1     -33.335  15.045  -3.536  1.00 20.00     0.005 C 
HETATM    7  C7  UNL     1     -33.790  13.637  -3.905  1.00 20.00     0.008 C 
HETATM    8  C8  UNL     1     -36.191  18.027  -2.456  1.00 20.00     0.043 C 
HETATM    9  C9  UNL     1     -37.942  16.663  -3.703  1.00 20.00     0.043 C 
HETATM   10  O10 UNL     1     -37.369  14.092  -3.797  1.00 20.00    -0.293 OA
ENDROOT
TORSDOF 0
ENDMDL
MODEL 4
REMARK VINA RESULT:      -4.4     12.184     13.492
REMARK  0 active torsions:
REMARK  status: ('A' for Active; 'I' for Inactive)
ROOT
HETATM    1  C1  UNL     1     -34.031  15.556  -4.138  1.00 20.00    -0.011 C 
HETATM    2  C2  UNL     1     -33.605  16.962  -4.396  1.00 20.00     0.155 C 
HETATM    3  C3  UNL     1     -34.373  14.796  -5.186  1.00 20.00    -0.078 C 
HETATM    4  C4  UNL     1     -34.076  15.092  -2.714  1.00 20.00     0.042 C 
HETATM    5  C5  UNL     1     -34.015  18.001  -3.374  1.00 20.00     0.083 C 
HETATM    6  C6  UNL     1     -34.672  16.152  -1.790  1.00 20.00     0.005 C 
HETATM    7  C7  UNL     1     -33.937  17.479  -1.944  1.00 20.00     0.008 C 
HETATM    8  C8  UNL     1     -34.815  13.371  -5.025  1.00 20.00     0.043 C 
HETATM    9  C9  UNL     1     -34.337  15.320  -6.593  1.00 20.00     0.043 C 
HETATM   10  O10 UNL     1     -33.014  17.279  -5.428  1.00 20.00    -0.293 OA
ENDROOT
TORSDOF 0
ENDMDL
MODEL 5
REMARK VINA RESULT:      -4.4     12.035     13.667
REMARK  0 active torsions:
REMARK  status: ('A' for Active; 'I' for Inactive)
ROOT
HETATM    1  C1  UNL     1     -33.961  16.180  -4.181  1.00 20.00    -0.011 C 
HETATM    2  C2  UNL     1     -34.345  14.741  -4.275  1.00 20.00     0.155 C 
HETATM    3  C3  UNL     1     -34.096  16.794  -2.998  1.00 20.00    -0.078 C 
HETATM    4  C4  UNL     1     -33.474  16.854  -5.427  1.00 20.00     0.042 C 
HETATM    5  C5  UNL     1     -34.988  14.288  -5.569  1.00 20.00     0.083 C 
HETATM    6  C6  UNL     1     -34.306  16.463  -6.646  1.00 20.00     0.005 C 
HETATM    7  C7  UNL     1     -34.368  14.947  -6.795  1.00 20.00     0.008 C 
HETATM    8  C8  UNL     1     -33.736  18.238  -2.807  1.00 20.00     0.043 C 
HETATM    9  C9  UNL     1     -34.616  16.078  -1.786  1.00 20.00     0.043 C 
HETATM   10  O10 UNL     1     -34.216  13.975  -3.322  1.00 20.00    -0.293 OA
ENDROOT
TORSDOF 0
ENDMDL
MODEL 6
REMARK VINA RESULT:      -4.3     12.398     14.003
REMARK  0 active torsions:
REMARK  status: ('A' for Active; 'I' for Inactive)
ROOT
HETATM    1  C1  UNL     1     -34.664  15.439  -5.769  1.00 20.00    -0.011 C 
HETATM    2  C2  UNL     1     -33.573  15.947  -4.888  1.00 20.00     0.155 C 
HETATM    3  C3  UNL     1     -35.396  16.332  -6.448  1.00 20.00    -0.078 C 
HETATM    4  C4  UNL     1     -34.889  13.959  -5.817  1.00 20.00     0.042 C 
HETATM    5  C5  UNL     1     -33.334  15.199  -3.593  1.00 20.00     0.083 C 
HETATM    6  C6  UNL     1     -34.802  13.327  -4.430  1.00 20.00     0.005 C 
HETATM    7  C7  UNL     1     -33.486  13.691  -3.751  1.00 20.00     0.008 C 
HETATM    8  C8  UNL     1     -36.514  15.916  -7.359  1.00 20.00     0.043 C 
HETATM    9  C9  UNL     1     -35.147  17.809  -6.343  1.00 20.00     0.043 C 
HETATM   10  O10 UNL     1     -32.946  16.970  -5.161  1.00 20.00    -0.293 OA
ENDROOT
TORSDOF 0
ENDMDL
MODEL 7
REMARK VINA RESULT:      -4.2     12.266     13.495
REMARK  0 active torsions:
REMARK  status: ('A' for Active; 'I' for Inactive)
ROOT
HETATM    1  C1  UNL     1     -34.727  16.073  -3.566  1.00 20.00    -0.011 C 
HETATM    2  C2  UNL     1     -34.508  16.558  -4.960  1.00 20.00     0.155 C 
HETATM    3  C3  UNL     1     -34.383  16.880  -2.554  1.00 20.00    -0.078 C 
HETATM    4  C4  UNL     1     -35.295  14.698  -3.388  1.00 20.00     0.042 C 
HETATM    5  C5  UNL     1     -34.082  15.528  -5.984  1.00 20.00     0.083 C 
HETATM    6  C6  UNL     1     -34.667  13.696  -4.354  1.00 20.00     0.005 C 
HETATM    7  C7  UNL     1     -34.780  14.187  -5.793  1.00 20.00     0.008 C 
HETATM    8  C8  UNL     1     -34.565  16.478  -1.120  1.00 20.00     0.043 C 
HETATM    9  C9  UNL     1     -33.791  18.239  -2.787  1.00 20.00     0.043 C 
HETATM   10  O10 UNL     1     -34.594  17.751  -5.249  1.00 20.00    -0.293 OA
ENDROOT
TORSDOF 0
ENDMDL
MODEL 8
REMARK VINA RESULT:      -4.2     12.315     13.897
REMARK  0 active torsions:
REMARK  status: ('A' for Active; 'I' for Inactive)
ROOT
HETATM    1  C1  UNL     1     -33.958  16.089  -5.227  1.00 20.00    -0.011 C 
HETATM    2  C2  UNL     1     -33.857  15.379  -3.919  1.00 20.00     0.155 C 
HETATM    3  C3  UNL     1     -33.891  17.427  -5.227  1.00 20.00    -0.078 C 
HETATM    4  C4  UNL     1     -34.157  15.258  -6.458  1.00 20.00     0.042 C 
HETATM    5  C5  UNL     1     -34.702  14.134  -3.749  1.00 20.00     0.083 C 
HETATM    6  C6  UNL     1     -35.165  14.135  -6.228  1.00 20.00     0.005 C 
HETATM    7  C7  UNL     1     -34.771  13.294  -5.018  1.00 20.00     0.008 C 
HETATM    8  C8  UNL     1     -33.984  18.228  -6.492  1.00 20.00     0.043 C 
HETATM    9  C9  UNL     1     -33.720  18.214  -3.960  1.00 20.00     0.043 C 
HETATM   10  O10 UNL     1     -33.179  15.823  -2.994  1.00 20.00    -0.293 OA
ENDROOT
TORSDOF 0
ENDMDL
MODEL 9
REMARK VINA RESULT:      -4.2     12.597     13.211
REMARK  0 active torsions:
REMARK  status: ('A' for Active; 'I' for Inactive)
ROOT
HETATM    1  C1  UNL     1     -33.297  18.510   1.716  1.00 20.00    -0.011 C 
HETATM    2  C2  UNL     1     -32.509  18.605   0.453  1.00 20.00     0.155 C 
HETATM    3  C3  UNL     1     -32.634  18.554   2.879  1.00 20.00    -0.078 C 
HETATM    4  C4  UNL     1     -34.781  18.344   1.601  1.00 20.00     0.042 C 
HETATM    5  C5  UNL     1     -32.994  17.780  -0.720  1.00 20.00     0.083 C 
HETATM    6  C6  UNL     1     -35.158  17.353   0.503  1.00 20.00     0.005 C 
HETATM    7  C7  UNL     1     -34.514  17.744  -0.823  1.00 20.00     0.008 C 
HETATM    8  C8  UNL     1     -33.339  18.465   4.201  1.00 20.00     0.043 C 
HETATM    9  C9  UNL     1     -31.140  18.693   2.938  1.00 20.00     0.043 C 
HETATM   10  O10 UNL     1     -31.471  19.263   0.387  1.00 20.00    -0.293 OA
ENDROOT
TORSDOF 0
ENDMDL
