MODEL 1
REMARK VINA RESULT:      -4.9      0.000      0.000
REMARK  5 active torsions:
REMARK  status: ('A' for Active; 'I' for Inactive)
REMARK    1  A    between atoms: C3_3  and  C7_7 
REMARK    2  A    between atoms: C4_4  and  C8_8 
REMARK    3  A    between atoms: C7_7  and  C9_9 
REMARK    4  A    between atoms: C8_8  and  C10_10 
REMARK    5  A    between atoms: C9_9  and  C10_10 
ROOT
HETATM    1  C1  UNL     1     -33.930   6.518   6.679  1.00 20.00    -0.111 C 
HETATM    2  C3  UNL     1     -34.486   5.493   6.391  1.00 20.00    -0.107 C 
HETATM    3  C5  UNL     1     -33.250   7.765   7.028  1.00 20.00     0.112 C 
ENDROOT
BRANCH   2   4
HETATM    4  C7  UNL     1     -35.167   4.239   6.039  1.00 20.00     0.094 C 
BRANCH   4   5
HETATM    5  C9  UNL     1     -35.227   4.018   4.526  1.00 20.00     0.013 C 
BRANCH   5   6
HETATM    6  C10 UNL     1     -35.258   5.334   3.735  1.00 20.00     0.013 C 
BRANCH   6   7
HETATM    7  C8  UNL     1     -34.153   5.418   2.681  1.00 20.00     0.094 C 
BRANCH   7   8
HETATM    8  C4  UNL     1     -33.042   6.279   3.108  1.00 20.00    -0.107 C 
HETATM    9  C2  UNL     1     -32.134   6.984   3.455  1.00 20.00    -0.111 C 
HETATM   10  C6  UNL     1     -31.030   7.842   3.882  1.00 20.00     0.112 C 
ENDBRANCH   7   8
ENDBRANCH   6   7
ENDBRANCH   5   6
ENDBRANCH   4   5
ENDBRANCH   2   4
TORSDOF 5
ENDMDL
MODEL 2
REMARK VINA RESULT:      -4.9      0.063      3.414
REMARK  5 active torsions:
REMARK  status: ('A' for Active; 'I' for Inactive)
REMARK    1  A    between atoms: C3_3  and  C7_7 
REMARK    2  A    between atoms: C4_4  and  C8_8 
REMARK    3  A    between atoms: C7_7  and  C9_9 
REMARK    4  A    between atoms: C8_8  and  C10_10 
REMARK    5  A    between atoms: C9_9  and  C10_10 
ROOT
HETATM    1  C1  UNL     1     -32.162   7.010   3.403  1.00 20.00    -0.111 C 
HETATM    2  C3  UNL     1     -33.041   6.258   3.084  1.00 20.00    -0.107 C 
HETATM    3  C5  UNL     1     -31.093   7.929   3.794  1.00 20.00     0.112 C 
ENDROOT
BRANCH   2   4
HETATM    4  C7  UNL     1     -34.117   5.336   2.692  1.00 20.00     0.094 C 
BRANCH   4   5
HETATM    5  C9  UNL     1     -35.243   5.289   3.727  1.00 20.00     0.013 C 
BRANCH   5   6
HETATM    6  C10 UNL     1     -35.240   3.992   4.548  1.00 20.00     0.013 C 
BRANCH   6   7
HETATM    7  C8  UNL     1     -35.194   4.246   6.056  1.00 20.00     0.094 C 
BRANCH   7   8
HETATM    8  C4  UNL     1     -34.491   5.492   6.390  1.00 20.00    -0.107 C 
HETATM    9  C2  UNL     1     -33.917   6.511   6.662  1.00 20.00    -0.111 C 
HETATM   10  C6  UNL     1     -33.215   7.749   6.996  1.00 20.00     0.112 C 
ENDBRANCH   7   8
ENDBRANCH   6   7
ENDBRANCH   5   6
ENDBRANCH   4   5
ENDBRANCH   2   4
TORSDOF 5
ENDMDL
MODEL 3
REMARK VINA RESULT:      -4.6      1.419      1.794
REMARK  5 active torsions:
REMARK  status: ('A' for Active; 'I' for Inactive)
REMARK    1  A    between atoms: C3_3  and  C7_7 
REMARK    2  A    between atoms: C4_4  and  C8_8 
REMARK    3  A    between atoms: C7_7  and  C9_9 
REMARK    4  A    between atoms: C8_8  and  C10_10 
REMARK    5  A    between atoms: C9_9  and  C10_10 
ROOT
HETATM    1  C1  UNL     1     -33.931   6.708   6.482  1.00 20.00    -0.111 C 
HETATM    2  C3  UNL     1     -34.396   5.910   5.715  1.00 20.00    -0.107 C 
HETATM    3  C5  UNL     1     -33.361   7.678   7.417  1.00 20.00     0.112 C 
ENDROOT
BRANCH   2   4
HETATM    4  C7  UNL     1     -34.966   4.934   4.775  1.00 20.00     0.094 C 
BRANCH   4   5
HETATM    5  C9  UNL     1     -34.935   5.436   3.330  1.00 20.00     0.013 C 
BRANCH   5   6
HETATM    6  C10 UNL     1     -33.585   5.188   2.644  1.00 20.00     0.013 C 
BRANCH   6   7
HETATM    7  C8  UNL     1     -32.466   6.071   3.200  1.00 20.00     0.094 C 
BRANCH   7   8
HETATM    8  C4  UNL     1     -32.395   7.373   2.522  1.00 20.00    -0.107 C 
HETATM    9  C2  UNL     1     -32.338   8.436   1.968  1.00 20.00    -0.111 C 
HETATM   10  C6  UNL     1     -32.267   9.732   1.295  1.00 20.00     0.112 C 
ENDBRANCH   7   8
ENDBRANCH   6   7
ENDBRANCH   5   6
ENDBRANCH   4   5
ENDBRANCH   2   4
TORSDOF 5
ENDMDL
MODEL 4
REMARK VINA RESULT:      -4.6      1.462      4.056
REMARK  5 active torsions:
REMARK  status: ('A' for Active; 'I' for Inactive)
REMARK    1  A    between atoms: C3_3  and  C7_7 
REMARK    2  A    between atoms: C4_4  and  C8_8 
REMARK    3  A    between atoms: C7_7  and  C9_9 
REMARK    4  A    between atoms: C8_8  and  C10_10 
REMARK    5  A    between atoms: C9_9  and  C10_10 
ROOT
HETATM    1  C1  UNL     1     -32.314   8.477   1.889  1.00 20.00    -0.111 C 
HETATM    2  C3  UNL     1     -32.374   7.437   2.484  1.00 20.00    -0.107 C 
HETATM    3  C5  UNL     1     -32.237   9.746   1.166  1.00 20.00     0.112 C 
ENDROOT
BRANCH   2   4
HETATM    4  C7  UNL     1     -32.448   6.162   3.212  1.00 20.00     0.094 C 
BRANCH   4   5
HETATM    5  C9  UNL     1     -33.545   5.246   2.663  1.00 20.00     0.013 C 
BRANCH   5   6
HETATM    6  C10 UNL     1     -34.899   5.462   3.352  1.00 20.00     0.013 C 
BRANCH   6   7
HETATM    7  C8  UNL     1     -34.920   4.946   4.792  1.00 20.00     0.094 C 
BRANCH   7   8
HETATM    8  C4  UNL     1     -34.371   5.924   5.742  1.00 20.00    -0.107 C 
HETATM    9  C2  UNL     1     -33.924   6.723   6.518  1.00 20.00    -0.111 C 
HETATM   10  C6  UNL     1     -33.379   7.695   7.465  1.00 20.00     0.112 C 
ENDBRANCH   7   8
ENDBRANCH   6   7
ENDBRANCH   5   6
ENDBRANCH   4   5
ENDBRANCH   2   4
TORSDOF 5
ENDMDL
MODEL 5
REMARK VINA RESULT:      -4.1      1.853      4.902
REMARK  5 active torsions:
REMARK  status: ('A' for Active; 'I' for Inactive)
REMARK    1  A    between atoms: C3_3  and  C7_7 
REMARK    2  A    between atoms: C4_4  and  C8_8 
REMARK    3  A    between atoms: C7_7  and  C9_9 
REMARK    4  A    between atoms: C8_8  and  C10_10 
REMARK    5  A    between atoms: C9_9  and  C10_10 
ROOT
HETATM    1  C1  UNL     1     -32.202   8.772   1.131  1.00 20.00    -0.111 C 
HETATM    2  C3  UNL     1     -31.910   8.280   2.187  1.00 20.00    -0.107 C 
HETATM    3  C5  UNL     1     -32.554   9.369  -0.156  1.00 20.00     0.112 C 
ENDROOT
BRANCH   2   4
HETATM    4  C7  UNL     1     -31.554   7.678   3.480  1.00 20.00     0.094 C 
BRANCH   4   5
HETATM    5  C9  UNL     1     -32.526   6.570   3.889  1.00 20.00     0.013 C 
BRANCH   5   6
HETATM    6  C10 UNL     1     -33.121   5.827   2.685  1.00 20.00     0.013 C 
BRANCH   6   7
HETATM    7  C8  UNL     1     -34.577   5.413   2.905  1.00 20.00     0.094 C 
BRANCH   7   8
HETATM    8  C4  UNL     1     -34.848   5.049   4.303  1.00 20.00    -0.107 C 
HETATM    9  C2  UNL     1     -35.069   4.753   5.444  1.00 20.00    -0.111 C 
HETATM   10  C6  UNL     1     -35.337   4.388   6.834  1.00 20.00     0.112 C 
ENDBRANCH   7   8
ENDBRANCH   6   7
ENDBRANCH   5   6
ENDBRANCH   4   5
ENDBRANCH   2   4
TORSDOF 5
ENDMDL
MODEL 6
REMARK VINA RESULT:      -4.0      1.884      3.321
REMARK  5 active torsions:
REMARK  status: ('A' for Active; 'I' for Inactive)
REMARK    1  A    between atoms: C3_3  and  C7_7 
REMARK    2  A    between atoms: C4_4  and  C8_8 
REMARK    3  A    between atoms: C7_7  and  C9_9 
REMARK    4  A    between atoms: C8_8  and  C10_10 
REMARK    5  A    between atoms: C9_9  and  C10_10 
ROOT
HETATM    1  C1  UNL     1     -35.036   4.693   5.352  1.00 20.00    -0.111 C 
HETATM    2  C3  UNL     1     -34.802   5.010   4.218  1.00 20.00    -0.107 C 
HETATM    3  C5  UNL     1     -35.324   4.311   6.734  1.00 20.00     0.112 C 
ENDROOT
BRANCH   2   4
HETATM    4  C7  UNL     1     -34.515   5.396   2.829  1.00 20.00     0.094 C 
BRANCH   4   5
HETATM    5  C9  UNL     1     -33.053   5.804   2.633  1.00 20.00     0.013 C 
BRANCH   5   6
HETATM    6  C10 UNL     1     -32.494   6.599   3.822  1.00 20.00     0.013 C 
BRANCH   6   7
HETATM    7  C8  UNL     1     -31.524   7.702   3.393  1.00 20.00     0.094 C 
BRANCH   7   8
HETATM    8  C4  UNL     1     -31.899   8.303   2.105  1.00 20.00    -0.107 C 
HETATM    9  C2  UNL     1     -32.205   8.795   1.054  1.00 20.00    -0.111 C 
HETATM   10  C6  UNL     1     -32.576   9.393  -0.227  1.00 20.00     0.112 C 
ENDBRANCH   7   8
ENDBRANCH   6   7
ENDBRANCH   5   6
ENDBRANCH   4   5
ENDBRANCH   2   4
TORSDOF 5
ENDMDL
MODEL 7
REMARK VINA RESULT:      -4.0     11.809     12.811
REMARK  5 active torsions:
REMARK  status: ('A' for Active; 'I' for Inactive)
REMARK    1  A    between atoms: C3_3  and  C7_7 
REMARK    2  A    between atoms: C4_4  and  C8_8 
REMARK    3  A    between atoms: C7_7  and  C9_9 
REMARK    4  A    between atoms: C8_8  and  C10_10 
REMARK    5  A    between atoms: C9_9  and  C10_10 
ROOT
HETATM    1  C1  UNL     1     -34.569  17.265  -0.066  1.00 20.00    -0.111 C 
HETATM    2  C3  UNL     1     -34.681  16.594  -1.055  1.00 20.00    -0.107 C 
HETATM    3  C5  UNL     1     -34.431  18.085   1.137  1.00 20.00     0.112 C 
ENDROOT
BRANCH   2   4
HETATM    4  C7  UNL     1     -34.819  15.772  -2.266  1.00 20.00     0.094 C 
BRANCH   4   5
HETATM    5  C9  UNL     1     -33.599  15.884  -3.183  1.00 20.00     0.013 C 
BRANCH   5   6
HETATM    6  C10 UNL     1     -33.048  14.516  -3.609  1.00 20.00     0.013 C 
BRANCH   6   7
HETATM    7  C8  UNL     1     -34.141  13.564  -4.098  1.00 20.00     0.094 C 
BRANCH   7   8
HETATM    8  C4  UNL     1     -34.649  13.935  -5.426  1.00 20.00    -0.107 C 
HETATM    9  C2  UNL     1     -35.063  14.239  -6.511  1.00 20.00    -0.111 C 
HETATM   10  C6  UNL     1     -35.567  14.607  -7.833  1.00 20.00     0.112 C 
ENDBRANCH   7   8
ENDBRANCH   6   7
ENDBRANCH   5   6
ENDBRANCH   4   5
ENDBRANCH   2   4
TORSDOF 5
ENDMDL
MODEL 8
REMARK VINA RESULT:      -4.0     11.861     13.315
REMARK  5 active torsions:
REMARK  status: ('A' for Active; 'I' for Inactive)
REMARK    1  A    between atoms: C3_3  and  C7_7 
REMARK    2  A    between atoms: C4_4  and  C8_8 
REMARK    3  A    between atoms: C7_7  and  C9_9 
REMARK    4  A    between atoms: C8_8  and  C10_10 
REMARK    5  A    between atoms: C9_9  and  C10_10 
ROOT
HETATM    1  C1  UNL     1     -35.146  14.349  -6.545  1.00 20.00    -0.111 C 
HETATM    2  C3  UNL     1     -34.733  14.011  -5.469  1.00 20.00    -0.107 C 
HETATM    3  C5  UNL     1     -35.647  14.757  -7.857  1.00 20.00     0.112 C 
ENDROOT
BRANCH   2   4
HETATM    4  C7  UNL     1     -34.229  13.599  -4.151  1.00 20.00     0.094 C 
BRANCH   4   5
HETATM    5  C9  UNL     1     -33.130  14.531  -3.636  1.00 20.00     0.013 C 
BRANCH   5   6
HETATM    6  C10 UNL     1     -33.666  15.905  -3.212  1.00 20.00     0.013 C 
BRANCH   6   7
HETATM    7  C8  UNL     1     -34.882  15.807  -2.289  1.00 20.00     0.094 C 
BRANCH   7   8
HETATM    8  C4  UNL     1     -34.726  16.619  -1.073  1.00 20.00    -0.107 C 
HETATM    9  C2  UNL     1     -34.597  17.282  -0.081  1.00 20.00    -0.111 C 
HETATM   10  C6  UNL     1     -34.444  18.090   1.127  1.00 20.00     0.112 C 
ENDBRANCH   7   8
ENDBRANCH   6   7
ENDBRANCH   5   6
ENDBRANCH   4   5
ENDBRANCH   2   4
TORSDOF 5
ENDMDL
MODEL 9
REMARK VINA RESULT:      -3.9     11.465     12.678
REMARK  5 active torsions:
REMARK  status: ('A' for Active; 'I' for Inactive)
REMARK    1  A    between atoms: C3_3  and  C7_7 
REMARK    2  A    between atoms: C4_4  and  C8_8 
REMARK    3  A    between atoms: C7_7  and  C9_9 
REMARK    4  A    between atoms: C8_8  and  C10_10 
REMARK    5  A    between atoms: C9_9  and  C10_10 
ROOT
HETATM    1  C1  UNL     1     -34.291  16.716  -1.348  1.00 20.00    -0.111 C 
HETATM    2  C3  UNL     1     -33.855  16.409  -2.423  1.00 20.00    -0.107 C 
HETATM    3  C5  UNL     1     -34.825  17.093  -0.039  1.00 20.00     0.112 C 
ENDROOT
BRANCH   2   4
HETATM    4  C7  UNL     1     -33.320  16.032  -3.739  1.00 20.00     0.094 C 
BRANCH   4   5
HETATM    5  C9  UNL     1     -32.831  14.583  -3.771  1.00 20.00     0.013 C 
BRANCH   5   6
HETATM    6  C10 UNL     1     -33.962  13.569  -3.544  1.00 20.00     0.013 C 
BRANCH   6   7
HETATM    7  C8  UNL     1     -34.991  13.566  -4.676  1.00 20.00     0.094 C 
BRANCH   7   8
HETATM    8  C4  UNL     1     -36.269  14.165  -4.268  1.00 20.00    -0.107 C 
HETATM    9  C2  UNL     1     -37.313  14.655  -3.936  1.00 20.00    -0.111 C 
HETATM   10  C6  UNL     1     -38.586  15.248  -3.529  1.00 20.00     0.112 C 
ENDBRANCH   7   8
ENDBRANCH   6   7
ENDBRANCH   5   6
ENDBRANCH   4   5
ENDBRANCH   2   4
TORSDOF 5
ENDMDL
