MODEL 1
REMARK VINA RESULT:      -3.9      0.000      0.000
REMARK  2 active torsions:
REMARK  status: ('A' for Active; 'I' for Inactive)
REMARK    1  A    between atoms: C1_1  and  C2_2 
REMARK    2  A    between atoms: C1_1  and  C3_3 
ROOT
HETATM    1  C1  UNL     1     -34.148   6.340   4.280  1.00 20.00     0.148 C 
HETATM    2 CL4  UNL     1     -35.681   5.618   3.651  1.00 20.00    -0.119 Cl
ENDROOT
BRANCH   1   3
HETATM    3  C2  UNL     1     -33.001   6.045   3.289  1.00 20.00     0.199 C 
HETATM    4 CL5  UNL     1     -33.560   5.034   1.917  1.00 20.00    -0.106 Cl
HETATM    5 CL6  UNL     1     -32.309   7.544   2.601  1.00 20.00    -0.106 Cl
ENDBRANCH   1   3
BRANCH   1   6
HETATM    6  C3  UNL     1     -33.885   5.861   5.726  1.00 20.00     0.199 C 
HETATM    7 CL7  UNL     1     -35.091   4.679   6.302  1.00 20.00    -0.106 Cl
HETATM    8 CL8  UNL     1     -33.802   7.232   6.874  1.00 20.00    -0.106 Cl
ENDBRANCH   1   6
TORSDOF 2
ENDMDL
MODEL 2
REMARK VINA RESULT:      -3.7      0.989      1.760
REMARK  2 active torsions:
REMARK  status: ('A' for Active; 'I' for Inactive)
REMARK    1  A    between atoms: C1_1  and  C2_2 
REMARK    2  A    between atoms: C1_1  and  C3_3 
ROOT
HETATM    1  C1  UNL     1     -34.078   6.521   4.081  1.00 20.00     0.148 C 
HETATM    2 CL4  UNL     1     -34.781   5.203   3.062  1.00 20.00    -0.119 Cl
ENDROOT
BRANCH   1   3
HETATM    3  C2  UNL     1     -32.583   6.691   3.736  1.00 20.00     0.199 C 
HETATM    4 CL5  UNL     1     -31.909   5.209   2.983  1.00 20.00    -0.106 Cl
HETATM    5 CL6  UNL     1     -32.307   8.041   2.597  1.00 20.00    -0.106 Cl
ENDBRANCH   1   3
BRANCH   1   6
HETATM    6  C3  UNL     1     -34.364   6.252   5.576  1.00 20.00     0.199 C 
HETATM    7 CL7  UNL     1     -33.239   7.104   6.668  1.00 20.00    -0.106 Cl
HETATM    8 CL8  UNL     1     -34.344   4.501   5.950  1.00 20.00    -0.106 Cl
ENDBRANCH   1   6
TORSDOF 2
ENDMDL
MODEL 3
REMARK VINA RESULT:      -3.7      1.016      3.790
REMARK  2 active torsions:
REMARK  status: ('A' for Active; 'I' for Inactive)
REMARK    1  A    between atoms: C1_1  and  C2_2 
REMARK    2  A    between atoms: C1_1  and  C3_3 
ROOT
HETATM    1  C1  UNL     1     -33.824   6.599   4.419  1.00 20.00     0.148 C 
HETATM    2 CL4  UNL     1     -33.610   6.751   6.208  1.00 20.00    -0.119 Cl
ENDROOT
BRANCH   1   3
HETATM    3  C2  UNL     1     -34.647   5.330   4.110  1.00 20.00     0.199 C 
HETATM    4 CL5  UNL     1     -34.916   4.344   5.584  1.00 20.00    -0.106 Cl
HETATM    5 CL6  UNL     1     -36.255   5.723   3.431  1.00 20.00    -0.106 Cl
ENDBRANCH   1   3
BRANCH   1   6
HETATM    6  C3  UNL     1     -32.453   6.662   3.709  1.00 20.00     0.199 C 
HETATM    7 CL7  UNL     1     -32.297   8.060   2.611  1.00 20.00    -0.106 Cl
HETATM    8 CL8  UNL     1     -32.104   5.156   2.806  1.00 20.00    -0.106 Cl
ENDBRANCH   1   6
TORSDOF 2
ENDMDL
MODEL 4
REMARK VINA RESULT:      -3.6      1.031      2.639
REMARK  2 active torsions:
REMARK  status: ('A' for Active; 'I' for Inactive)
REMARK    1  A    between atoms: C1_1  and  C2_2 
REMARK    2  A    between atoms: C1_1  and  C3_3 
ROOT
HETATM    1  C1  UNL     1     -33.426   5.835   4.964  1.00 20.00     0.148 C 
HETATM    2 CL4  UNL     1     -33.786   6.912   6.371  1.00 20.00    -0.119 Cl
ENDROOT
BRANCH   1   3
HETATM    3  C2  UNL     1     -33.036   6.701   3.746  1.00 20.00     0.199 C 
HETATM    4 CL5  UNL     1     -31.520   7.611   4.043  1.00 20.00    -0.106 Cl
HETATM    5 CL6  UNL     1     -32.787   5.714   2.275  1.00 20.00    -0.106 Cl
ENDBRANCH   1   3
BRANCH   1   6
HETATM    6  C3  UNL     1     -34.607   4.870   4.713  1.00 20.00     0.199 C 
HETATM    7 CL7  UNL     1     -35.912   5.600   3.738  1.00 20.00    -0.106 Cl
HETATM    8 CL8  UNL     1     -35.289   4.245   6.246  1.00 20.00    -0.106 Cl
ENDBRANCH   1   6
TORSDOF 2
ENDMDL
MODEL 5
REMARK VINA RESULT:      -3.5     11.912     13.402
REMARK  2 active torsions:
REMARK  status: ('A' for Active; 'I' for Inactive)
REMARK    1  A    between atoms: C1_1  and  C2_2 
REMARK    2  A    between atoms: C1_1  and  C3_3 
ROOT
HETATM    1  C1  UNL     1     -33.445  15.724  -3.640  1.00 20.00     0.148 C 
HETATM    2 CL4  UNL     1     -33.406  13.920  -3.767  1.00 20.00    -0.119 Cl
ENDROOT
BRANCH   1   3
HETATM    3  C2  UNL     1     -34.774  16.161  -2.987  1.00 20.00     0.199 C 
HETATM    4 CL5  UNL     1     -36.088  14.987  -3.319  1.00 20.00    -0.106 Cl
HETATM    5 CL6  UNL     1     -34.630  16.312  -1.211  1.00 20.00    -0.106 Cl
ENDBRANCH   1   3
BRANCH   1   6
HETATM    6  C3  UNL     1     -33.168  16.363  -5.020  1.00 20.00     0.199 C 
HETATM    7 CL7  UNL     1     -33.475  18.120  -5.051  1.00 20.00    -0.106 Cl
HETATM    8 CL8  UNL     1     -34.113  15.572  -6.318  1.00 20.00    -0.106 Cl
ENDBRANCH   1   6
TORSDOF 2
ENDMDL
MODEL 6
REMARK VINA RESULT:      -3.5     11.856     13.227
REMARK  2 active torsions:
REMARK  status: ('A' for Active; 'I' for Inactive)
REMARK    1  A    between atoms: C1_1  and  C2_2 
REMARK    2  A    between atoms: C1_1  and  C3_3 
ROOT
HETATM    1  C1  UNL     1     -34.597  15.751  -4.610  1.00 20.00     0.148 C 
HETATM    2 CL4  UNL     1     -33.339  16.814  -5.356  1.00 20.00    -0.119 Cl
ENDROOT
BRANCH   1   3
HETATM    3  C2  UNL     1     -34.041  15.141  -3.305  1.00 20.00     0.199 C 
HETATM    4 CL5  UNL     1     -32.304  14.720  -3.464  1.00 20.00    -0.106 Cl
HETATM    5 CL6  UNL     1     -34.194  16.264  -1.922  1.00 20.00    -0.106 Cl
ENDBRANCH   1   3
BRANCH   1   6
HETATM    6  C3  UNL     1     -35.100  14.713  -5.639  1.00 20.00     0.199 C 
HETATM    7 CL7  UNL     1     -34.853  13.027  -5.110  1.00 20.00    -0.106 Cl
HETATM    8 CL8  UNL     1     -34.342  14.950  -7.244  1.00 20.00    -0.106 Cl
ENDBRANCH   1   6
TORSDOF 2
ENDMDL
MODEL 7
REMARK VINA RESULT:      -3.4     12.011     13.245
REMARK  2 active torsions:
REMARK  status: ('A' for Active; 'I' for Inactive)
REMARK    1  A    between atoms: C1_1  and  C2_2 
REMARK    2  A    between atoms: C1_1  and  C3_3 
ROOT
HETATM    1  C1  UNL     1     -34.446  15.828  -4.826  1.00 20.00     0.148 C 
HETATM    2 CL4  UNL     1     -33.942  17.009  -6.099  1.00 20.00    -0.119 Cl
ENDROOT
BRANCH   1   3
HETATM    3  C2  UNL     1     -33.526  15.980  -3.596  1.00 20.00     0.199 C 
HETATM    4 CL5  UNL     1     -34.458  15.928  -2.064  1.00 20.00    -0.106 Cl
HETATM    5 CL6  UNL     1     -32.295  14.685  -3.515  1.00 20.00    -0.106 Cl
ENDBRANCH   1   3
BRANCH   1   6
HETATM    6  C3  UNL     1     -34.500  14.399  -5.413  1.00 20.00     0.199 C 
HETATM    7 CL7  UNL     1     -35.248  14.335  -7.031  1.00 20.00    -0.106 Cl
HETATM    8 CL8  UNL     1     -35.352  13.265  -4.320  1.00 20.00    -0.106 Cl
ENDBRANCH   1   6
TORSDOF 2
ENDMDL
MODEL 8
REMARK VINA RESULT:      -3.4     11.597     12.373
REMARK  2 active torsions:
REMARK  status: ('A' for Active; 'I' for Inactive)
REMARK    1  A    between atoms: C1_1  and  C2_2 
REMARK    2  A    between atoms: C1_1  and  C3_3 
ROOT
HETATM    1  C1  UNL     1     -34.375  14.528  -3.144  1.00 20.00     0.148 C 
HETATM    2 CL4  UNL     1     -32.656  14.374  -3.685  1.00 20.00    -0.119 Cl
ENDROOT
BRANCH   1   3
HETATM    3  C2  UNL     1     -35.298  13.854  -4.182  1.00 20.00     0.199 C 
HETATM    4 CL5  UNL     1     -36.982  14.458  -4.055  1.00 20.00    -0.106 Cl
HETATM    5 CL6  UNL     1     -34.750  14.149  -5.858  1.00 20.00    -0.106 Cl
ENDBRANCH   1   3
BRANCH   1   6
HETATM    6  C3  UNL     1     -34.713  16.007  -2.851  1.00 20.00     0.199 C 
HETATM    7 CL7  UNL     1     -33.674  17.152  -3.741  1.00 20.00    -0.106 Cl
HETATM    8 CL8  UNL     1     -34.634  16.371  -1.100  1.00 20.00    -0.106 Cl
ENDBRANCH   1   6
TORSDOF 2
ENDMDL
MODEL 9
REMARK VINA RESULT:      -3.4     11.443     12.415
REMARK  2 active torsions:
REMARK  status: ('A' for Active; 'I' for Inactive)
REMARK    1  A    between atoms: C1_1  and  C2_2 
REMARK    2  A    between atoms: C1_1  and  C3_3 
ROOT
HETATM    1  C1  UNL     1     -34.470  14.734  -3.202  1.00 20.00     0.148 C 
HETATM    2 CL4  UNL     1     -33.121  13.648  -3.724  1.00 20.00    -0.119 Cl
ENDROOT
BRANCH   1   3
HETATM    3  C2  UNL     1     -35.438  14.949  -4.385  1.00 20.00     0.199 C 
HETATM    4 CL5  UNL     1     -35.013  13.906  -5.781  1.00 20.00    -0.106 Cl
HETATM    5 CL6  UNL     1     -37.131  14.581  -3.940  1.00 20.00    -0.106 Cl
ENDBRANCH   1   3
BRANCH   1   6
HETATM    6  C3  UNL     1     -33.903  16.037  -2.594  1.00 20.00     0.199 C 
HETATM    7 CL7  UNL     1     -34.638  16.454  -1.023  1.00 20.00    -0.106 Cl
HETATM    8 CL8  UNL     1     -34.075  17.422  -3.716  1.00 20.00    -0.106 Cl
ENDBRANCH   1   6
TORSDOF 2
ENDMDL
