MODEL 1
REMARK VINA RESULT:      -3.8      0.000      0.000
REMARK  2 active torsions:
REMARK  status: ('A' for Active; 'I' for Inactive)
REMARK    1  A    between atoms: C2_2  and  C3_3 
REMARK    2  A    between atoms: C2_2  and  C4_4 
ROOT
HETATM    1  C1  UNL     1     -35.145   4.365   4.511  1.00 20.00     0.016 C 
HETATM    2  C2  UNL     1     -34.537   5.477   4.957  1.00 20.00    -0.062 C 
ENDROOT
BRANCH   2   3
HETATM    3  C3  UNL     1     -34.368   5.727   6.430  1.00 20.00     0.149 C 
HETATM    4 CL5  UNL     1     -33.455   7.227   6.715  1.00 20.00    -0.126 Cl
ENDBRANCH   2   3
BRANCH   2   5
HETATM    5  C4  UNL     1     -34.010   6.508   3.999  1.00 20.00     0.149 C 
HETATM    6 CL6  UNL     1     -32.420   6.026   3.367  1.00 20.00    -0.126 Cl
ENDBRANCH   2   5
TORSDOF 2
ENDMDL
MODEL 2
REMARK VINA RESULT:      -3.8      0.007      2.608
REMARK  2 active torsions:
REMARK  status: ('A' for Active; 'I' for Inactive)
REMARK    1  A    between atoms: C2_2  and  C3_3 
REMARK    2  A    between atoms: C2_2  and  C4_4 
ROOT
HETATM    1  C1  UNL     1     -35.140   4.365   4.510  1.00 20.00     0.016 C 
HETATM    2  C2  UNL     1     -34.538   5.478   4.960  1.00 20.00    -0.062 C 
ENDROOT
BRANCH   2   3
HETATM    3  C3  UNL     1     -34.007   6.510   4.004  1.00 20.00     0.149 C 
HETATM    4 CL5  UNL     1     -32.418   6.024   3.370  1.00 20.00    -0.126 Cl
ENDBRANCH   2   3
BRANCH   2   5
HETATM    5  C4  UNL     1     -34.373   5.726   6.434  1.00 20.00     0.149 C 
HETATM    6 CL6  UNL     1     -33.463   7.226   6.722  1.00 20.00    -0.126 Cl
ENDBRANCH   2   5
TORSDOF 2
ENDMDL
MODEL 3
REMARK VINA RESULT:      -3.8      1.769      2.381
REMARK  2 active torsions:
REMARK  status: ('A' for Active; 'I' for Inactive)
REMARK    1  A    between atoms: C2_2  and  C3_3 
REMARK    2  A    between atoms: C2_2  and  C4_4 
ROOT
HETATM    1  C1  UNL     1     -33.604   7.117   6.516  1.00 20.00     0.016 C 
HETATM    2  C2  UNL     1     -34.074   6.182   5.674  1.00 20.00    -0.062 C 
ENDROOT
BRANCH   2   3
HETATM    3  C3  UNL     1     -34.650   4.894   6.193  1.00 20.00     0.149 C 
HETATM    4 CL5  UNL     1     -35.132   3.831   4.850  1.00 20.00    -0.126 Cl
ENDBRANCH   2   3
BRANCH   2   5
HETATM    5  C4  UNL     1     -34.037   6.393   4.186  1.00 20.00     0.149 C 
HETATM    6 CL6  UNL     1     -32.367   6.324   3.581  1.00 20.00    -0.126 Cl
ENDBRANCH   2   5
TORSDOF 2
ENDMDL
MODEL 4
REMARK VINA RESULT:      -3.8      1.696      3.037
REMARK  2 active torsions:
REMARK  status: ('A' for Active; 'I' for Inactive)
REMARK    1  A    between atoms: C2_2  and  C3_3 
REMARK    2  A    between atoms: C2_2  and  C4_4 
ROOT
HETATM    1  C1  UNL     1     -34.709   5.439   3.304  1.00 20.00     0.016 C 
HETATM    2  C2  UNL     1     -33.671   5.980   3.963  1.00 20.00    -0.062 C 
ENDROOT
BRANCH   2   3
HETATM    3  C3  UNL     1     -32.346   6.184   3.282  1.00 20.00     0.149 C 
HETATM    4 CL5  UNL     1     -32.277   7.780   2.501  1.00 20.00    -0.126 Cl
ENDBRANCH   2   3
BRANCH   2   5
HETATM    5  C4  UNL     1     -33.800   6.397   5.402  1.00 20.00     0.149 C 
HETATM    6 CL6  UNL     1     -34.772   5.220   6.314  1.00 20.00    -0.126 Cl
ENDBRANCH   2   5
TORSDOF 2
ENDMDL
MODEL 5
REMARK VINA RESULT:      -3.8      1.689      1.807
REMARK  2 active torsions:
REMARK  status: ('A' for Active; 'I' for Inactive)
REMARK    1  A    between atoms: C2_2  and  C3_3 
REMARK    2  A    between atoms: C2_2  and  C4_4 
ROOT
HETATM    1  C1  UNL     1     -34.722   5.444   3.321  1.00 20.00     0.016 C 
HETATM    2  C2  UNL     1     -33.673   5.980   3.967  1.00 20.00    -0.062 C 
ENDROOT
BRANCH   2   3
HETATM    3  C3  UNL     1     -33.787   6.406   5.405  1.00 20.00     0.149 C 
HETATM    4 CL5  UNL     1     -34.764   5.243   6.332  1.00 20.00    -0.126 Cl
ENDBRANCH   2   3
BRANCH   2   5
HETATM    5  C4  UNL     1     -32.354   6.175   3.273  1.00 20.00     0.149 C 
HETATM    6 CL6  UNL     1     -32.277   7.776   2.504  1.00 20.00    -0.126 Cl
ENDBRANCH   2   5
TORSDOF 2
ENDMDL
MODEL 6
REMARK VINA RESULT:      -3.7      1.828      3.064
REMARK  2 active torsions:
REMARK  status: ('A' for Active; 'I' for Inactive)
REMARK    1  A    between atoms: C2_2  and  C3_3 
REMARK    2  A    between atoms: C2_2  and  C4_4 
ROOT
HETATM    1  C1  UNL     1     -33.705   6.651   5.569  1.00 20.00     0.016 C 
HETATM    2  C2  UNL     1     -34.000   5.953   4.460  1.00 20.00    -0.062 C 
ENDROOT
BRANCH   2   3
HETATM    3  C3  UNL     1     -33.209   6.141   3.195  1.00 20.00     0.149 C 
HETATM    4 CL5  UNL     1     -31.856   7.265   3.459  1.00 20.00    -0.126 Cl
ENDBRANCH   2   3
BRANCH   2   5
HETATM    5  C4  UNL     1     -35.131   4.962   4.448  1.00 20.00     0.149 C 
HETATM    6 CL6  UNL     1     -35.141   3.999   5.942  1.00 20.00    -0.126 Cl
ENDBRANCH   2   5
TORSDOF 2
ENDMDL
MODEL 7
REMARK VINA RESULT:      -3.5      1.874      2.362
REMARK  2 active torsions:
REMARK  status: ('A' for Active; 'I' for Inactive)
REMARK    1  A    between atoms: C2_2  and  C3_3 
REMARK    2  A    between atoms: C2_2  and  C4_4 
ROOT
HETATM    1  C1  UNL     1     -33.988   5.441   2.653  1.00 20.00     0.016 C 
HETATM    2  C2  UNL     1     -34.242   5.700   3.946  1.00 20.00    -0.062 C 
ENDROOT
BRANCH   2   3
HETATM    3  C3  UNL     1     -33.367   6.635   4.734  1.00 20.00     0.149 C 
HETATM    4 CL5  UNL     1     -33.914   6.738   6.423  1.00 20.00    -0.126 Cl
ENDBRANCH   2   3
BRANCH   2   5
HETATM    5  C4  UNL     1     -35.409   5.062   4.647  1.00 20.00     0.149 C 
HETATM    6 CL6  UNL     1     -34.866   3.723   5.682  1.00 20.00    -0.126 Cl
ENDBRANCH   2   5
TORSDOF 2
ENDMDL
MODEL 8
REMARK VINA RESULT:      -3.4      1.876      2.591
REMARK  2 active torsions:
REMARK  status: ('A' for Active; 'I' for Inactive)
REMARK    1  A    between atoms: C2_2  and  C3_3 
REMARK    2  A    between atoms: C2_2  and  C4_4 
ROOT
HETATM    1  C1  UNL     1     -34.126   5.538   2.634  1.00 20.00     0.016 C 
HETATM    2  C2  UNL     1     -34.285   5.690   3.959  1.00 20.00    -0.062 C 
ENDROOT
BRANCH   2   3
HETATM    3  C3  UNL     1     -35.424   5.026   4.682  1.00 20.00     0.149 C 
HETATM    4 CL5  UNL     1     -34.834   3.693   5.701  1.00 20.00    -0.126 Cl
ENDBRANCH   2   3
BRANCH   2   5
HETATM    5  C4  UNL     1     -33.331   6.530   4.762  1.00 20.00     0.149 C 
HETATM    6 CL6  UNL     1     -33.923   6.742   6.425  1.00 20.00    -0.126 Cl
ENDBRANCH   2   5
TORSDOF 2
ENDMDL
MODEL 9
REMARK VINA RESULT:      -3.3      2.154      3.221
REMARK  2 active torsions:
REMARK  status: ('A' for Active; 'I' for Inactive)
REMARK    1  A    between atoms: C2_2  and  C3_3 
REMARK    2  A    between atoms: C2_2  and  C4_4 
ROOT
HETATM    1  C1  UNL     1     -32.428   6.623   3.540  1.00 20.00     0.016 C 
HETATM    2  C2  UNL     1     -33.537   6.093   4.083  1.00 20.00    -0.062 C 
ENDROOT
BRANCH   2   3
HETATM    3  C3  UNL     1     -34.474   5.254   3.260  1.00 20.00     0.149 C 
HETATM    4 CL5  UNL     1     -36.155   5.796   3.469  1.00 20.00    -0.126 Cl
ENDBRANCH   2   3
BRANCH   2   5
HETATM    5  C4  UNL     1     -33.877   6.325   5.529  1.00 20.00     0.149 C 
HETATM    6 CL6  UNL     1     -34.456   4.825   6.288  1.00 20.00    -0.126 Cl
ENDBRANCH   2   5
TORSDOF 2
ENDMDL
