MODEL 1
REMARK VINA RESULT:      -4.4      0.000      0.000
REMARK  1 active torsions:
REMARK  status: ('A' for Active; 'I' for Inactive)
REMARK    1  A    between atoms: C6_6  and  C8_8 
ROOT
HETATM    1  C1  UNL     1     -34.481   4.728   6.779  1.00 20.00     0.000 C 
HETATM    2  C2  UNL     1     -35.124   3.860   5.702  1.00 20.00     0.002 C 
HETATM    3  C3  UNL     1     -34.456   6.199   6.381  1.00 20.00     0.002 C 
HETATM    4  C4  UNL     1     -34.455   4.060   4.341  1.00 20.00     0.026 C 
HETATM    5  C5  UNL     1     -33.783   6.405   5.022  1.00 20.00     0.026 C 
HETATM    6  C6  UNL     1     -34.388   5.534   3.903  1.00 20.00     0.037 C 
HETATM    7 CL9  UNL     1     -36.054   6.121   3.526  1.00 20.00    -0.119 Cl
ENDROOT
BRANCH   6   8
HETATM    8  C8  UNL     1     -33.555   5.668   2.624  1.00 20.00     0.021 C 
HETATM    9  C7  UNL     1     -32.343   6.509   2.846  1.00 20.00     0.007 C 
ENDBRANCH   6   8
TORSDOF 1
ENDMDL
MODEL 2
REMARK VINA RESULT:      -4.3      1.644      2.340
REMARK  1 active torsions:
REMARK  status: ('A' for Active; 'I' for Inactive)
REMARK    1  A    between atoms: C6_6  and  C8_8 
ROOT
HETATM    1  C1  UNL     1     -35.131   4.754   5.947  1.00 20.00     0.000 C 
HETATM    2  C2  UNL     1     -33.889   5.550   6.331  1.00 20.00     0.002 C 
HETATM    3  C3  UNL     1     -35.083   4.295   4.494  1.00 20.00     0.002 C 
HETATM    4  C4  UNL     1     -33.655   6.726   5.382  1.00 20.00     0.026 C 
HETATM    5  C5  UNL     1     -34.855   5.469   3.539  1.00 20.00     0.026 C 
HETATM    6  C6  UNL     1     -33.619   6.316   3.898  1.00 20.00     0.037 C 
HETATM    7 CL9  UNL     1     -32.123   5.353   3.582  1.00 20.00    -0.119 Cl
ENDROOT
BRANCH   6   8
HETATM    8  C8  UNL     1     -33.557   7.561   3.008  1.00 20.00     0.021 C 
HETATM    9  C7  UNL     1     -32.181   7.785   2.474  1.00 20.00     0.007 C 
ENDBRANCH   6   8
TORSDOF 1
ENDMDL
MODEL 3
REMARK VINA RESULT:      -4.2     12.317     13.004
REMARK  1 active torsions:
REMARK  status: ('A' for Active; 'I' for Inactive)
REMARK    1  A    between atoms: C6_6  and  C8_8 
ROOT
HETATM    1  C1  UNL     1     -35.267  13.331  -4.176  1.00 20.00     0.000 C 
HETATM    2  C2  UNL     1     -33.828  13.756  -4.446  1.00 20.00     0.002 C 
HETATM    3  C3  UNL     1     -36.199  14.530  -4.055  1.00 20.00     0.002 C 
HETATM    4  C4  UNL     1     -33.326  14.750  -3.396  1.00 20.00     0.026 C 
HETATM    5  C5  UNL     1     -35.705  15.525  -3.002  1.00 20.00     0.026 C 
HETATM    6  C6  UNL     1     -34.247  15.972  -3.222  1.00 20.00     0.037 C 
HETATM    7 CL9  UNL     1     -34.155  17.003  -4.702  1.00 20.00    -0.119 Cl
ENDROOT
BRANCH   6   8
HETATM    8  C8  UNL     1     -33.774  16.825  -2.041  1.00 20.00     0.021 C 
HETATM    9  C7  UNL     1     -34.631  16.617  -0.837  1.00 20.00     0.007 C 
ENDBRANCH   6   8
TORSDOF 1
ENDMDL
MODEL 4
REMARK VINA RESULT:      -4.2     12.355     13.422
REMARK  1 active torsions:
REMARK  status: ('A' for Active; 'I' for Inactive)
REMARK    1  A    between atoms: C6_6  and  C8_8 
ROOT
HETATM    1  C1  UNL     1     -35.363  14.384  -5.889  1.00 20.00     0.000 C 
HETATM    2  C2  UNL     1     -35.237  13.635  -4.567  1.00 20.00     0.002 C 
HETATM    3  C3  UNL     1     -34.159  15.282  -6.148  1.00 20.00     0.002 C 
HETATM    4  C4  UNL     1     -34.991  14.590  -3.398  1.00 20.00     0.026 C 
HETATM    5  C5  UNL     1     -33.911  16.243  -4.984  1.00 20.00     0.026 C 
HETATM    6  C6  UNL     1     -33.795  15.533  -3.621  1.00 20.00     0.037 C 
HETATM    7 CL9  UNL     1     -32.264  14.576  -3.575  1.00 20.00    -0.119 Cl
ENDROOT
BRANCH   6   8
HETATM    8  C8  UNL     1     -33.720  16.568  -2.494  1.00 20.00     0.021 C 
HETATM    9  C7  UNL     1     -34.739  16.300  -1.437  1.00 20.00     0.007 C 
ENDBRANCH   6   8
TORSDOF 1
ENDMDL
MODEL 5
REMARK VINA RESULT:      -4.1     11.935     13.362
REMARK  1 active torsions:
REMARK  status: ('A' for Active; 'I' for Inactive)
REMARK    1  A    between atoms: C6_6  and  C8_8 
ROOT
HETATM    1  C1  UNL     1     -34.623  13.367  -4.478  1.00 20.00     0.000 C 
HETATM    2  C2  UNL     1     -35.813  14.252  -4.120  1.00 20.00     0.002 C 
HETATM    3  C3  UNL     1     -33.382  13.733  -3.672  1.00 20.00     0.002 C 
HETATM    4  C4  UNL     1     -35.474  15.737  -4.259  1.00 20.00     0.026 C 
HETATM    5  C5  UNL     1     -33.036  15.217  -3.812  1.00 20.00     0.026 C 
HETATM    6  C6  UNL     1     -34.214  16.153  -3.478  1.00 20.00     0.037 C 
HETATM    7 CL9  UNL     1     -34.556  16.071  -1.706  1.00 20.00    -0.119 Cl
ENDROOT
BRANCH   6   8
HETATM    8  C8  UNL     1     -33.843  17.602  -3.805  1.00 20.00     0.021 C 
HETATM    9  C7  UNL     1     -33.556  17.779  -5.259  1.00 20.00     0.007 C 
ENDBRANCH   6   8
TORSDOF 1
ENDMDL
MODEL 6
REMARK VINA RESULT:      -4.0      9.521     10.345
REMARK  1 active torsions:
REMARK  status: ('A' for Active; 'I' for Inactive)
REMARK    1  A    between atoms: C6_6  and  C8_8 
ROOT
HETATM    1  C1  UNL     1     -41.143   7.092  -1.089  1.00 20.00     0.000 C 
HETATM    2  C2  UNL     1     -40.733   5.879  -0.262  1.00 20.00     0.002 C 
HETATM    3  C3  UNL     1     -42.485   6.879  -1.780  1.00 20.00     0.002 C 
HETATM    4  C4  UNL     1     -40.734   4.598  -1.098  1.00 20.00     0.026 C 
HETATM    5  C5  UNL     1     -42.491   5.601  -2.621  1.00 20.00     0.026 C 
HETATM    6  C6  UNL     1     -42.064   4.349  -1.832  1.00 20.00     0.037 C 
HETATM    7 CL9  UNL     1     -43.345   3.940  -0.625  1.00 20.00    -0.119 Cl
ENDROOT
BRANCH   6   8
HETATM    8  C8  UNL     1     -41.929   3.151  -2.778  1.00 20.00     0.021 C 
HETATM    9  C7  UNL     1     -43.095   3.051  -3.704  1.00 20.00     0.007 C 
ENDBRANCH   6   8
TORSDOF 1
ENDMDL
MODEL 7
REMARK VINA RESULT:      -4.0     12.111     13.405
REMARK  1 active torsions:
REMARK  status: ('A' for Active; 'I' for Inactive)
REMARK    1  A    between atoms: C6_6  and  C8_8 
ROOT
HETATM    1  C1  UNL     1     -34.673  14.110  -6.029  1.00 20.00     0.000 C 
HETATM    2  C2  UNL     1     -35.088  15.577  -5.975  1.00 20.00     0.002 C 
HETATM    3  C3  UNL     1     -34.939  13.397  -4.708  1.00 20.00     0.002 C 
HETATM    4  C4  UNL     1     -34.430  16.307  -4.803  1.00 20.00     0.026 C 
HETATM    5  C5  UNL     1     -34.278  14.121  -3.534  1.00 20.00     0.026 C 
HETATM    6  C6  UNL     1     -34.653  15.613  -3.447  1.00 20.00     0.037 C 
HETATM    7 CL9  UNL     1     -36.391  15.765  -2.978  1.00 20.00    -0.119 Cl
ENDROOT
BRANCH   6   8
HETATM    8  C8  UNL     1     -33.824  16.302  -2.358  1.00 20.00     0.021 C 
HETATM    9  C7  UNL     1     -34.620  16.509  -1.113  1.00 20.00     0.007 C 
ENDBRANCH   6   8
TORSDOF 1
ENDMDL
MODEL 8
REMARK VINA RESULT:      -3.9     12.261     13.589
REMARK  1 active torsions:
REMARK  status: ('A' for Active; 'I' for Inactive)
REMARK    1  A    between atoms: C6_6  and  C8_8 
ROOT
HETATM    1  C1  UNL     1     -32.944  15.019  -3.587  1.00 20.00     0.000 C 
HETATM    2  C2  UNL     1     -33.261  16.081  -4.634  1.00 20.00     0.002 C 
HETATM    3  C3  UNL     1     -33.611  13.687  -3.912  1.00 20.00     0.002 C 
HETATM    4  C4  UNL     1     -34.768  16.245  -4.835  1.00 20.00     0.026 C 
HETATM    5  C5  UNL     1     -35.120  13.844  -4.110  1.00 20.00     0.026 C 
HETATM    6  C6  UNL     1     -35.491  14.922  -5.147  1.00 20.00     0.037 C 
HETATM    7 CL9  UNL     1     -35.012  14.354  -6.794  1.00 20.00    -0.119 Cl
ENDROOT
BRANCH   6   8
HETATM    8  C8  UNL     1     -37.007  15.139  -5.162  1.00 20.00     0.021 C 
HETATM    9  C7  UNL     1     -37.618  14.823  -3.837  1.00 20.00     0.007 C 
ENDBRANCH   6   8
TORSDOF 1
ENDMDL
MODEL 9
REMARK VINA RESULT:      -3.9     11.928     13.459
REMARK  1 active torsions:
REMARK  status: ('A' for Active; 'I' for Inactive)
REMARK    1  A    between atoms: C6_6  and  C8_8 
ROOT
HETATM    1  C1  UNL     1     -32.767  14.924  -3.648  1.00 20.00     0.000 C 
HETATM    2  C2  UNL     1     -33.543  13.619  -3.790  1.00 20.00     0.002 C 
HETATM    3  C3  UNL     1     -33.690  16.137  -3.662  1.00 20.00     0.002 C 
HETATM    4  C4  UNL     1     -34.437  13.626  -5.032  1.00 20.00     0.026 C 
HETATM    5  C5  UNL     1     -34.583  16.151  -4.904  1.00 20.00     0.026 C 
HETATM    6  C6  UNL     1     -35.376  14.844  -5.102  1.00 20.00     0.037 C 
HETATM    7 CL9  UNL     1     -36.630  14.706  -3.809  1.00 20.00    -0.119 Cl
ENDROOT
BRANCH   6   8
HETATM    8  C8  UNL     1     -36.108  14.871  -6.447  1.00 20.00     0.021 C 
HETATM    9  C7  UNL     1     -35.169  14.645  -7.585  1.00 20.00     0.007 C 
ENDBRANCH   6   8
TORSDOF 1
ENDMDL
