MODEL 1
REMARK VINA RESULT:      -5.2      0.000      0.000
REMARK  5 active torsions:
REMARK  status: ('A' for Active; 'I' for Inactive)
REMARK    1  A    between atoms: C1_1  and  C9_9 
REMARK    2  A    between atoms: C6_6  and  C7_7 
REMARK    3  A    between atoms: C6_6  and  C8_8 
REMARK    4  A    between atoms: C7_7  and  C9_9 
REMARK    5  A    between atoms: C8_8  and  C10_10 
ROOT
HETATM    1  C7  UNL     1     -33.374   6.637   4.287  1.00 20.00     0.011 C 
ENDROOT
BRANCH   1   2
HETATM    2  C6  UNL     1     -32.221   6.516   3.280  1.00 20.00     0.001 C 
BRANCH   2   3
HETATM    3  C8  UNL     1     -31.660   7.896   2.920  1.00 20.00     0.004 C 
BRANCH   3   4
HETATM    4  C10 UNL     1     -32.401   8.573   1.751  1.00 20.00    -0.023 C 
HETATM    5  C4  UNL     1     -32.765  10.027   2.052  1.00 20.00     0.009 C 
HETATM    6  C5  UNL     1     -31.540   8.508   0.487  1.00 20.00     0.009 C 
ENDBRANCH   3   4
ENDBRANCH   2   3
ENDBRANCH   1   2
BRANCH   1   7
HETATM    7  C9  UNL     1     -34.601   5.769   3.962  1.00 20.00     0.051 C 
HETATM    8  C3  UNL     1     -34.499   5.113   2.585  1.00 20.00     0.018 C 
BRANCH   7   9
HETATM    9  C1  UNL     1     -34.869   4.734   5.055  1.00 20.00     0.126 C 
HETATM   10  C2  UNL     1     -34.722   5.191   6.485  1.00 20.00     0.091 C 
HETATM   11  O11 UNL     1     -35.209   3.578   4.800  1.00 20.00    -0.298 OA
ENDBRANCH   7   9
ENDBRANCH   1   7
TORSDOF 5
ENDMDL
MODEL 2
REMARK VINA RESULT:      -5.1      2.319      5.191
REMARK  5 active torsions:
REMARK  status: ('A' for Active; 'I' for Inactive)
REMARK    1  A    between atoms: C1_1  and  C9_9 
REMARK    2  A    between atoms: C6_6  and  C7_7 
REMARK    3  A    between atoms: C6_6  and  C8_8 
REMARK    4  A    between atoms: C7_7  and  C9_9 
REMARK    5  A    between atoms: C8_8  and  C10_10 
ROOT
HETATM    1  C7  UNL     1     -32.449   6.116   2.561  1.00 20.00     0.011 C 
ENDROOT
BRANCH   1   2
HETATM    2  C6  UNL     1     -33.835   5.506   2.815  1.00 20.00     0.001 C 
BRANCH   2   3
HETATM    3  C8  UNL     1     -34.508   6.162   4.027  1.00 20.00     0.004 C 
BRANCH   3   4
HETATM    4  C10 UNL     1     -34.089   5.538   5.372  1.00 20.00    -0.023 C 
HETATM    5  C4  UNL     1     -34.001   6.574   6.494  1.00 20.00     0.009 C 
HETATM    6  C5  UNL     1     -35.078   4.438   5.763  1.00 20.00     0.009 C 
ENDBRANCH   3   4
ENDBRANCH   2   3
ENDBRANCH   1   2
BRANCH   1   7
HETATM    7  C9  UNL     1     -32.312   7.589   2.978  1.00 20.00     0.051 C 
HETATM    8  C3  UNL     1     -31.215   7.797   4.022  1.00 20.00     0.018 C 
BRANCH   7   9
HETATM    9  C1  UNL     1     -32.111   8.505   1.770  1.00 20.00     0.126 C 
HETATM   10  C2  UNL     1     -32.709   9.887   1.849  1.00 20.00     0.091 C 
HETATM   11  O11 UNL     1     -31.477   8.154   0.774  1.00 20.00    -0.298 OA
ENDBRANCH   7   9
ENDBRANCH   1   7
TORSDOF 5
ENDMDL
MODEL 3
REMARK VINA RESULT:      -5.0      1.065      1.500
REMARK  5 active torsions:
REMARK  status: ('A' for Active; 'I' for Inactive)
REMARK    1  A    between atoms: C1_1  and  C9_9 
REMARK    2  A    between atoms: C6_6  and  C7_7 
REMARK    3  A    between atoms: C6_6  and  C8_8 
REMARK    4  A    between atoms: C7_7  and  C9_9 
REMARK    5  A    between atoms: C8_8  and  C10_10 
ROOT
HETATM    1  C7  UNL     1     -33.594   6.704   3.790  1.00 20.00     0.011 C 
ENDROOT
BRANCH   1   2
HETATM    2  C6  UNL     1     -32.199   6.553   3.168  1.00 20.00     0.001 C 
BRANCH   2   3
HETATM    3  C8  UNL     1     -31.610   7.921   2.804  1.00 20.00     0.004 C 
BRANCH   3   4
HETATM    4  C10 UNL     1     -32.346   8.616   1.642  1.00 20.00    -0.023 C 
HETATM    5  C4  UNL     1     -32.711  10.066   1.964  1.00 20.00     0.009 C 
HETATM    6  C5  UNL     1     -31.481   8.570   0.380  1.00 20.00     0.009 C 
ENDBRANCH   3   4
ENDBRANCH   2   3
ENDBRANCH   1   2
BRANCH   1   7
HETATM    7  C9  UNL     1     -33.815   5.884   5.072  1.00 20.00     0.051 C 
HETATM    8  C3  UNL     1     -33.889   6.765   6.319  1.00 20.00     0.018 C 
BRANCH   7   9
HETATM    9  C1  UNL     1     -35.039   4.974   4.959  1.00 20.00     0.126 C 
HETATM   10  C2  UNL     1     -35.209   3.916   6.020  1.00 20.00     0.091 C 
HETATM   11  O11 UNL     1     -35.871   5.096   4.059  1.00 20.00    -0.298 OA
ENDBRANCH   7   9
ENDBRANCH   1   7
TORSDOF 5
ENDMDL
MODEL 4
REMARK VINA RESULT:      -4.6      1.299      2.105
REMARK  5 active torsions:
REMARK  status: ('A' for Active; 'I' for Inactive)
REMARK    1  A    between atoms: C1_1  and  C9_9 
REMARK    2  A    between atoms: C6_6  and  C7_7 
REMARK    3  A    between atoms: C6_6  and  C8_8 
REMARK    4  A    between atoms: C7_7  and  C9_9 
REMARK    5  A    between atoms: C8_8  and  C10_10 
ROOT
HETATM    1  C7  UNL     1     -34.633   6.183   3.808  1.00 20.00     0.011 C 
ENDROOT
BRANCH   1   2
HETATM    2  C6  UNL     1     -33.735   5.446   2.805  1.00 20.00     0.001 C 
BRANCH   2   3
HETATM    3  C8  UNL     1     -32.296   5.974   2.867  1.00 20.00     0.004 C 
BRANCH   3   4
HETATM    4  C10 UNL     1     -32.210   7.488   3.141  1.00 20.00    -0.023 C 
HETATM    5  C4  UNL     1     -31.092   7.841   4.123  1.00 20.00     0.009 C 
HETATM    6  C5  UNL     1     -31.998   8.240   1.825  1.00 20.00     0.009 C 
ENDBRANCH   3   4
ENDBRANCH   2   3
ENDBRANCH   1   2
BRANCH   1   7
HETATM    7  C9  UNL     1     -35.095   5.330   5.001  1.00 20.00     0.051 C 
HETATM    8  C3  UNL     1     -35.200   3.846   4.647  1.00 20.00     0.018 C 
BRANCH   7   9
HETATM    9  C1  UNL     1     -34.214   5.549   6.231  1.00 20.00     0.126 C 
HETATM   10  C2  UNL     1     -33.821   6.970   6.550  1.00 20.00     0.091 C 
HETATM   11  O11 UNL     1     -33.846   4.621   6.952  1.00 20.00    -0.298 OA
ENDBRANCH   7   9
ENDBRANCH   1   7
TORSDOF 5
ENDMDL
MODEL 5
REMARK VINA RESULT:      -4.6     10.535     11.444
REMARK  5 active torsions:
REMARK  status: ('A' for Active; 'I' for Inactive)
REMARK    1  A    between atoms: C1_1  and  C9_9 
REMARK    2  A    between atoms: C6_6  and  C7_7 
REMARK    3  A    between atoms: C6_6  and  C8_8 
REMARK    4  A    between atoms: C7_7  and  C9_9 
REMARK    5  A    between atoms: C8_8  and  C10_10 
ROOT
HETATM    1  C7  UNL     1     -34.366  16.107  -3.692  1.00 20.00     0.011 C 
ENDROOT
BRANCH   1   2
HETATM    2  C6  UNL     1     -33.716  16.428  -2.339  1.00 20.00     0.001 C 
BRANCH   2   3
HETATM    3  C8  UNL     1     -34.765  16.459  -1.222  1.00 20.00     0.004 C 
BRANCH   3   4
HETATM    4  C10 UNL     1     -34.689  17.725  -0.346  1.00 20.00    -0.023 C 
HETATM    5  C4  UNL     1     -35.157  17.472   1.088  1.00 20.00     0.009 C 
HETATM    6  C5  UNL     1     -33.256  18.261  -0.333  1.00 20.00     0.009 C 
ENDBRANCH   3   4
ENDBRANCH   2   3
ENDBRANCH   1   2
BRANCH   1   7
HETATM    7  C9  UNL     1     -34.026  14.715  -4.251  1.00 20.00     0.051 C 
HETATM    8  C3  UNL     1     -32.818  14.089  -3.554  1.00 20.00     0.018 C 
BRANCH   7   9
HETATM    9  C1  UNL     1     -35.235  13.780  -4.218  1.00 20.00     0.126 C 
HETATM   10  C2  UNL     1     -36.581  14.406  -3.952  1.00 20.00     0.091 C 
HETATM   11  O11 UNL     1     -35.138  12.568  -4.417  1.00 20.00    -0.298 OA
ENDBRANCH   7   9
ENDBRANCH   1   7
TORSDOF 5
ENDMDL
MODEL 6
REMARK VINA RESULT:      -4.5     11.022     12.260
REMARK  5 active torsions:
REMARK  status: ('A' for Active; 'I' for Inactive)
REMARK    1  A    between atoms: C1_1  and  C9_9 
REMARK    2  A    between atoms: C6_6  and  C7_7 
REMARK    3  A    between atoms: C6_6  and  C8_8 
REMARK    4  A    between atoms: C7_7  and  C9_9 
REMARK    5  A    between atoms: C8_8  and  C10_10 
ROOT
HETATM    1  C7  UNL     1     -33.565  17.535  -1.140  1.00 20.00     0.011 C 
ENDROOT
BRANCH   1   2
HETATM    2  C6  UNL     1     -34.597  16.399  -1.203  1.00 20.00     0.001 C 
BRANCH   2   3
HETATM    3  C8  UNL     1     -34.793  15.916  -2.644  1.00 20.00     0.004 C 
BRANCH   3   4
HETATM    4  C10 UNL     1     -33.489  15.443  -3.315  1.00 20.00    -0.023 C 
HETATM    5  C4  UNL     1     -33.520  13.955  -3.667  1.00 20.00     0.009 C 
HETATM    6  C5  UNL     1     -33.227  16.266  -4.577  1.00 20.00     0.009 C 
ENDBRANCH   3   4
ENDBRANCH   2   3
ENDBRANCH   1   2
BRANCH   1   7
HETATM    7  C9  UNL     1     -33.738  18.492   0.051  1.00 20.00     0.051 C 
HETATM    8  C3  UNL     1     -34.674  17.926   1.119  1.00 20.00     0.018 C 
BRANCH   7   9
HETATM    9  C1  UNL     1     -32.392  18.902   0.649  1.00 20.00     0.126 C 
HETATM   10  C2  UNL     1     -32.271  18.874   2.152  1.00 20.00     0.091 C 
HETATM   11  O11 UNL     1     -31.431  19.226  -0.050  1.00 20.00    -0.298 OA
ENDBRANCH   7   9
ENDBRANCH   1   7
TORSDOF 5
ENDMDL
MODEL 7
REMARK VINA RESULT:      -4.5     10.997     11.689
REMARK  5 active torsions:
REMARK  status: ('A' for Active; 'I' for Inactive)
REMARK    1  A    between atoms: C1_1  and  C9_9 
REMARK    2  A    between atoms: C6_6  and  C7_7 
REMARK    3  A    between atoms: C6_6  and  C8_8 
REMARK    4  A    between atoms: C7_7  and  C9_9 
REMARK    5  A    between atoms: C8_8  and  C10_10 
ROOT
HETATM    1  C7  UNL     1     -34.793  16.113  -3.618  1.00 20.00     0.011 C 
ENDROOT
BRANCH   1   2
HETATM    2  C6  UNL     1     -33.870  16.371  -2.419  1.00 20.00     0.001 C 
BRANCH   2   3
HETATM    3  C8  UNL     1     -34.665  16.379  -1.108  1.00 20.00     0.004 C 
BRANCH   3   4
HETATM    4  C10 UNL     1     -34.580  17.717  -0.348  1.00 20.00    -0.023 C 
HETATM    5  C4  UNL     1     -35.097  17.608   1.087  1.00 20.00     0.009 C 
HETATM    6  C5  UNL     1     -33.134  18.217  -0.339  1.00 20.00     0.009 C 
ENDBRANCH   3   4
ENDBRANCH   2   3
ENDBRANCH   1   2
BRANCH   1   7
HETATM    7  C9  UNL     1     -35.539  14.769  -3.574  1.00 20.00     0.051 C 
HETATM    8  C3  UNL     1     -37.056  14.945  -3.644  1.00 20.00     0.018 C 
BRANCH   7   9
HETATM    9  C1  UNL     1     -35.039  13.807  -4.653  1.00 20.00     0.126 C 
HETATM   10  C2  UNL     1     -34.766  14.388  -6.018  1.00 20.00     0.091 C 
HETATM   11  O11 UNL     1     -34.842  12.612  -4.431  1.00 20.00    -0.298 OA
ENDBRANCH   7   9
ENDBRANCH   1   7
TORSDOF 5
ENDMDL
MODEL 8
REMARK VINA RESULT:      -4.5     10.249     11.900
REMARK  5 active torsions:
REMARK  status: ('A' for Active; 'I' for Inactive)
REMARK    1  A    between atoms: C1_1  and  C9_9 
REMARK    2  A    between atoms: C6_6  and  C7_7 
REMARK    3  A    between atoms: C6_6  and  C8_8 
REMARK    4  A    between atoms: C7_7  and  C9_9 
REMARK    5  A    between atoms: C8_8  and  C10_10 
ROOT
HETATM    1  C7  UNL     1     -33.329  16.011  -4.814  1.00 20.00     0.011 C 
ENDROOT
BRANCH   1   2
HETATM    2  C6  UNL     1     -33.836  17.172  -3.948  1.00 20.00     0.001 C 
BRANCH   2   3
HETATM    3  C8  UNL     1     -33.543  16.918  -2.465  1.00 20.00     0.004 C 
BRANCH   3   4
HETATM    4  C10 UNL     1     -34.776  16.453  -1.667  1.00 20.00    -0.023 C 
HETATM    5  C4  UNL     1     -34.783  16.991  -0.235  1.00 20.00     0.009 C 
HETATM    6  C5  UNL     1     -36.053  16.887  -2.388  1.00 20.00     0.009 C 
ENDBRANCH   3   4
ENDBRANCH   2   3
ENDBRANCH   1   2
BRANCH   1   7
HETATM    7  C9  UNL     1     -34.407  14.990  -5.213  1.00 20.00     0.051 C 
HETATM    8  C3  UNL     1     -34.520  14.827  -6.729  1.00 20.00     0.018 C 
BRANCH   7   9
HETATM    9  C1  UNL     1     -34.197  13.643  -4.521  1.00 20.00     0.126 C 
HETATM   10  C2  UNL     1     -33.034  13.535  -3.568  1.00 20.00     0.091 C 
HETATM   11  O11 UNL     1     -34.945  12.682  -4.706  1.00 20.00    -0.298 OA
ENDBRANCH   7   9
ENDBRANCH   1   7
TORSDOF 5
ENDMDL
MODEL 9
REMARK VINA RESULT:      -4.3     10.870     12.263
REMARK  5 active torsions:
REMARK  status: ('A' for Active; 'I' for Inactive)
REMARK    1  A    between atoms: C1_1  and  C9_9 
REMARK    2  A    between atoms: C6_6  and  C7_7 
REMARK    3  A    between atoms: C6_6  and  C8_8 
REMARK    4  A    between atoms: C7_7  and  C9_9 
REMARK    5  A    between atoms: C8_8  and  C10_10 
ROOT
HETATM    1  C7  UNL     1     -35.122  15.898  -2.677  1.00 20.00     0.011 C 
ENDROOT
BRANCH   1   2
HETATM    2  C6  UNL     1     -34.681  16.329  -1.272  1.00 20.00     0.001 C 
BRANCH   2   3
HETATM    3  C8  UNL     1     -33.558  17.370  -1.345  1.00 20.00     0.004 C 
BRANCH   3   4
HETATM    4  C10 UNL     1     -33.649  18.448  -0.247  1.00 20.00    -0.023 C 
HETATM    5  C4  UNL     1     -34.477  17.989   0.955  1.00 20.00     0.009 C 
HETATM    6  C5  UNL     1     -32.243  18.836   0.214  1.00 20.00     0.009 C 
ENDBRANCH   3   4
ENDBRANCH   2   3
ENDBRANCH   1   2
BRANCH   1   7
HETATM    7  C9  UNL     1     -34.067  15.101  -3.462  1.00 20.00     0.051 C 
HETATM    8  C3  UNL     1     -34.486  13.648  -3.688  1.00 20.00     0.018 C 
BRANCH   7   9
HETATM    9  C1  UNL     1     -33.702  15.787  -4.780  1.00 20.00     0.126 C 
HETATM   10  C2  UNL     1     -34.361  15.265  -6.031  1.00 20.00     0.091 C 
HETATM   11  O11 UNL     1     -32.921  16.737  -4.834  1.00 20.00    -0.298 OA
ENDBRANCH   7   9
ENDBRANCH   1   7
TORSDOF 5
ENDMDL
