MODEL 1
REMARK VINA RESULT:      -4.5      0.000      0.000
REMARK  4 active torsions:
REMARK  status: ('A' for Active; 'I' for Inactive)
REMARK    1  A    between atoms: C5_5  and  O8_8 
REMARK    2  A    between atoms: C6_6  and  O9_9 
REMARK    3  A    between atoms: C7_7  and  O8_8 
REMARK    4  A    between atoms: C7_7  and  O9_9 
ROOT
HETATM    1  C1  UNL     1     -32.104   8.756   1.477  1.00 20.00     0.014 C 
HETATM    2  C2  UNL     1     -32.148   7.911   2.329  1.00 20.00    -0.091 C 
HETATM    3  C5  UNL     1     -32.200   6.882   3.368  1.00 20.00     0.263 C 
ENDROOT
BRANCH   3   4
HETATM    4  O8  UNL     1     -33.067   5.825   2.978  1.00 20.00    -0.350 OA
BRANCH   4   5
HETATM    5  C7  UNL     1     -34.078   5.545   3.950  1.00 20.00     0.256 C 
HETATM    6  C4  UNL     1     -35.448   5.840   3.351  1.00 20.00     0.070 C 
BRANCH   5   7
HETATM    7  O9  UNL     1     -33.938   6.391   5.099  1.00 20.00    -0.362 OA
BRANCH   7   8
HETATM    8  C6  UNL     1     -34.446   5.783   6.280  1.00 20.00     0.166 C 
HETATM    9  C3  UNL     1     -34.548   4.289   6.060  1.00 20.00     0.033 C 
ENDBRANCH   7   8
ENDBRANCH   5   7
ENDBRANCH   4   5
ENDBRANCH   3   4
TORSDOF 4
ENDMDL
MODEL 2
REMARK VINA RESULT:      -4.4      1.113      1.222
REMARK  4 active torsions:
REMARK  status: ('A' for Active; 'I' for Inactive)
REMARK    1  A    between atoms: C5_5  and  O8_8 
REMARK    2  A    between atoms: C6_6  and  O9_9 
REMARK    3  A    between atoms: C7_7  and  O8_8 
REMARK    4  A    between atoms: C7_7  and  O9_9 
ROOT
HETATM    1  C1  UNL     1     -32.307   9.551   0.756  1.00 20.00     0.014 C 
HETATM    2  C2  UNL     1     -32.118   8.681   1.561  1.00 20.00    -0.091 C 
HETATM    3  C5  UNL     1     -31.886   7.621   2.542  1.00 20.00     0.263 C 
ENDROOT
BRANCH   3   4
HETATM    4  O8  UNL     1     -33.027   7.453   3.373  1.00 20.00    -0.350 OA
BRANCH   4   5
HETATM    5  C7  UNL     1     -33.245   6.092   3.752  1.00 20.00     0.256 C 
HETATM    6  C4  UNL     1     -34.071   5.396   2.676  1.00 20.00     0.070 C 
BRANCH   5   7
HETATM    7  O9  UNL     1     -33.999   6.009   4.969  1.00 20.00    -0.362 OA
BRANCH   7   8
HETATM    8  C6  UNL     1     -35.054   5.060   4.885  1.00 20.00     0.166 C 
HETATM    9  C3  UNL     1     -35.116   4.276   6.179  1.00 20.00     0.033 C 
ENDBRANCH   7   8
ENDBRANCH   5   7
ENDBRANCH   4   5
ENDBRANCH   3   4
TORSDOF 4
ENDMDL
MODEL 3
REMARK VINA RESULT:      -4.2      1.008      3.792
REMARK  4 active torsions:
REMARK  status: ('A' for Active; 'I' for Inactive)
REMARK    1  A    between atoms: C5_5  and  O8_8 
REMARK    2  A    between atoms: C6_6  and  O9_9 
REMARK    3  A    between atoms: C7_7  and  O8_8 
REMARK    4  A    between atoms: C7_7  and  O9_9 
ROOT
HETATM    1  C1  UNL     1     -33.544   7.310   6.791  1.00 20.00     0.014 C 
HETATM    2  C2  UNL     1     -34.081   6.273   6.511  1.00 20.00    -0.091 C 
HETATM    3  C5  UNL     1     -34.738   5.010   6.172  1.00 20.00     0.263 C 
ENDROOT
BRANCH   3   4
HETATM    4  O8  UNL     1     -34.476   4.661   4.820  1.00 20.00    -0.350 OA
BRANCH   4   5
HETATM    5  C7  UNL     1     -34.511   5.785   3.936  1.00 20.00     0.256 C 
HETATM    6  C4  UNL     1     -35.883   5.864   3.277  1.00 20.00     0.070 C 
BRANCH   5   7
HETATM    7  O9  UNL     1     -33.552   5.641   2.880  1.00 20.00    -0.362 OA
BRANCH   7   8
HETATM    8  C6  UNL     1     -32.295   6.215   3.212  1.00 20.00     0.166 C 
HETATM    9  C3  UNL     1     -32.218   7.608   2.623  1.00 20.00     0.033 C 
ENDBRANCH   7   8
ENDBRANCH   5   7
ENDBRANCH   4   5
ENDBRANCH   3   4
TORSDOF 4
ENDMDL
MODEL 4
REMARK VINA RESULT:      -4.1      1.110      4.554
REMARK  4 active torsions:
REMARK  status: ('A' for Active; 'I' for Inactive)
REMARK    1  A    between atoms: C5_5  and  O8_8 
REMARK    2  A    between atoms: C6_6  and  O9_9 
REMARK    3  A    between atoms: C7_7  and  O8_8 
REMARK    4  A    between atoms: C7_7  and  O9_9 
ROOT
HETATM    1  C1  UNL     1     -35.190   4.256   6.210  1.00 20.00     0.014 C 
HETATM    2  C2  UNL     1     -34.618   5.282   5.958  1.00 20.00    -0.091 C 
HETATM    3  C5  UNL     1     -33.923   6.532   5.653  1.00 20.00     0.263 C 
ENDROOT
BRANCH   3   4
HETATM    4  O8  UNL     1     -32.916   6.316   4.673  1.00 20.00    -0.350 OA
BRANCH   4   5
HETATM    5  C7  UNL     1     -33.332   6.682   3.355  1.00 20.00     0.256 C 
HETATM    6  C4  UNL     1     -33.957   5.472   2.671  1.00 20.00     0.070 C 
BRANCH   5   7
HETATM    7  O9  UNL     1     -32.213   7.079   2.552  1.00 20.00    -0.362 OA
BRANCH   7   8
HETATM    8  C6  UNL     1     -32.185   8.483   2.325  1.00 20.00     0.166 C 
HETATM    9  C3  UNL     1     -31.911   8.739   0.858  1.00 20.00     0.033 C 
ENDBRANCH   7   8
ENDBRANCH   5   7
ENDBRANCH   4   5
ENDBRANCH   3   4
TORSDOF 4
ENDMDL
MODEL 5
REMARK VINA RESULT:      -4.1      1.034      4.826
REMARK  4 active torsions:
REMARK  status: ('A' for Active; 'I' for Inactive)
REMARK    1  A    between atoms: C5_5  and  O8_8 
REMARK    2  A    between atoms: C6_6  and  O9_9 
REMARK    3  A    between atoms: C7_7  and  O8_8 
REMARK    4  A    between atoms: C7_7  and  O9_9 
ROOT
HETATM    1  C1  UNL     1     -35.111   4.275   5.969  1.00 20.00     0.014 C 
HETATM    2  C2  UNL     1     -34.809   4.869   4.970  1.00 20.00    -0.091 C 
HETATM    3  C5  UNL     1     -34.443   5.591   3.752  1.00 20.00     0.263 C 
ENDROOT
BRANCH   3   4
HETATM    4  O8  UNL     1     -33.615   6.704   4.063  1.00 20.00    -0.350 OA
BRANCH   4   5
HETATM    5  C7  UNL     1     -32.381   6.701   3.341  1.00 20.00     0.256 C 
HETATM    6  C4  UNL     1     -31.366   7.569   4.076  1.00 20.00     0.070 C 
BRANCH   5   7
HETATM    7  O9  UNL     1     -32.545   7.272   2.036  1.00 20.00    -0.362 OA
BRANCH   7   8
HETATM    8  C6  UNL     1     -32.130   8.631   1.987  1.00 20.00     0.166 C 
HETATM    9  C3  UNL     1     -32.208   9.119   0.556  1.00 20.00     0.033 C 
ENDBRANCH   7   8
ENDBRANCH   5   7
ENDBRANCH   4   5
ENDBRANCH   3   4
TORSDOF 4
ENDMDL
MODEL 6
REMARK VINA RESULT:      -3.9     10.971     12.153
REMARK  4 active torsions:
REMARK  status: ('A' for Active; 'I' for Inactive)
REMARK    1  A    between atoms: C5_5  and  O8_8 
REMARK    2  A    between atoms: C6_6  and  O9_9 
REMARK    3  A    between atoms: C7_7  and  O8_8 
REMARK    4  A    between atoms: C7_7  and  O9_9 
ROOT
HETATM    1  C1  UNL     1     -34.767  16.871  -0.454  1.00 20.00     0.014 C 
HETATM    2  C2  UNL     1     -34.395  16.421  -1.504  1.00 20.00    -0.091 C 
HETATM    3  C5  UNL     1     -33.940  15.872  -2.781  1.00 20.00     0.263 C 
ENDROOT
BRANCH   3   4
HETATM    4  O8  UNL     1     -34.997  15.176  -3.429  1.00 20.00    -0.350 OA
BRANCH   4   5
HETATM    5  C7  UNL     1     -34.662  13.823  -3.746  1.00 20.00     0.256 C 
HETATM    6  C4  UNL     1     -33.149  13.650  -3.678  1.00 20.00     0.070 C 
BRANCH   5   7
HETATM    7  O9  UNL     1     -35.056  13.493  -5.085  1.00 20.00    -0.362 OA
BRANCH   7   8
HETATM    8  C6  UNL     1     -35.491  14.634  -5.814  1.00 20.00     0.166 C 
HETATM    9  C3  UNL     1     -34.540  14.872  -6.968  1.00 20.00     0.033 C 
ENDBRANCH   7   8
ENDBRANCH   5   7
ENDBRANCH   4   5
ENDBRANCH   3   4
TORSDOF 4
ENDMDL
MODEL 7
REMARK VINA RESULT:      -3.8     10.986     11.749
REMARK  4 active torsions:
REMARK  status: ('A' for Active; 'I' for Inactive)
REMARK    1  A    between atoms: C5_5  and  O8_8 
REMARK    2  A    between atoms: C6_6  and  O9_9 
REMARK    3  A    between atoms: C7_7  and  O8_8 
REMARK    4  A    between atoms: C7_7  and  O9_9 
ROOT
HETATM    1  C1  UNL     1     -34.054  16.577  -1.918  1.00 20.00     0.014 C 
HETATM    2  C2  UNL     1     -33.779  15.732  -2.725  1.00 20.00    -0.091 C 
HETATM    3  C5  UNL     1     -33.442  14.702  -3.708  1.00 20.00     0.263 C 
ENDROOT
BRANCH   3   4
HETATM    4  O8  UNL     1     -34.157  13.504  -3.439  1.00 20.00    -0.350 OA
BRANCH   4   5
HETATM    5  C7  UNL     1     -35.206  13.257  -4.379  1.00 20.00     0.256 C 
HETATM    6  C4  UNL     1     -34.924  14.030  -5.662  1.00 20.00     0.070 C 
BRANCH   5   7
HETATM    7  O9  UNL     1     -36.466  13.727  -3.881  1.00 20.00    -0.362 OA
BRANCH   7   8
HETATM    8  C6  UNL     1     -36.934  14.866  -4.592  1.00 20.00     0.166 C 
HETATM    9  C3  UNL     1     -37.522  15.854  -3.607  1.00 20.00     0.033 C 
ENDBRANCH   7   8
ENDBRANCH   5   7
ENDBRANCH   4   5
ENDBRANCH   3   4
TORSDOF 4
ENDMDL
MODEL 8
REMARK VINA RESULT:      -3.7     10.976     12.811
REMARK  4 active torsions:
REMARK  status: ('A' for Active; 'I' for Inactive)
REMARK    1  A    between atoms: C5_5  and  O8_8 
REMARK    2  A    between atoms: C6_6  and  O9_9 
REMARK    3  A    between atoms: C7_7  and  O8_8 
REMARK    4  A    between atoms: C7_7  and  O9_9 
ROOT
HETATM    1  C1  UNL     1     -34.667  14.878  -7.423  1.00 20.00     0.014 C 
HETATM    2  C2  UNL     1     -34.276  15.833  -6.808  1.00 20.00    -0.091 C 
HETATM    3  C5  UNL     1     -33.801  16.998  -6.061  1.00 20.00     0.263 C 
ENDROOT
BRANCH   3   4
HETATM    4  O8  UNL     1     -32.932  16.595  -5.011  1.00 20.00    -0.350 OA
BRANCH   4   5
HETATM    5  C7  UNL     1     -33.613  15.915  -3.953  1.00 20.00     0.256 C 
HETATM    6  C4  UNL     1     -33.784  16.865  -2.773  1.00 20.00     0.070 C 
BRANCH   5   7
HETATM    7  O9  UNL     1     -32.846  14.800  -3.478  1.00 20.00    -0.362 OA
BRANCH   7   8
HETATM    8  C6  UNL     1     -33.387  13.556  -3.903  1.00 20.00     0.166 C 
HETATM    9  C3  UNL     1     -34.897  13.647  -3.897  1.00 20.00     0.033 C 
ENDBRANCH   7   8
ENDBRANCH   5   7
ENDBRANCH   4   5
ENDBRANCH   3   4
TORSDOF 4
ENDMDL
MODEL 9
REMARK VINA RESULT:      -3.7     11.022     12.458
REMARK  4 active torsions:
REMARK  status: ('A' for Active; 'I' for Inactive)
REMARK    1  A    between atoms: C5_5  and  O8_8 
REMARK    2  A    between atoms: C6_6  and  O9_9 
REMARK    3  A    between atoms: C7_7  and  O8_8 
REMARK    4  A    between atoms: C7_7  and  O9_9 
ROOT
HETATM    1  C1  UNL     1     -34.726  17.008  -0.196  1.00 20.00     0.014 C 
HETATM    2  C2  UNL     1     -34.342  16.995  -1.334  1.00 20.00    -0.091 C 
HETATM    3  C5  UNL     1     -33.874  16.980  -2.720  1.00 20.00     0.263 C 
ENDROOT
BRANCH   3   4
HETATM    4  O8  UNL     1     -33.297  15.721  -3.037  1.00 20.00    -0.350 OA
BRANCH   4   5
HETATM    5  C7  UNL     1     -34.266  14.748  -3.437  1.00 20.00     0.256 C 
HETATM    6  C4  UNL     1     -33.550  13.470  -3.859  1.00 20.00     0.070 C 
BRANCH   5   7
HETATM    7  O9  UNL     1     -35.012  15.199  -4.575  1.00 20.00    -0.362 OA
BRANCH   7   8
HETATM    8  C6  UNL     1     -34.583  14.579  -5.780  1.00 20.00     0.166 C 
HETATM    9  C3  UNL     1     -34.208  15.653  -6.779  1.00 20.00     0.033 C 
ENDBRANCH   7   8
ENDBRANCH   5   7
ENDBRANCH   4   5
ENDBRANCH   3   4
TORSDOF 4
ENDMDL
