MODEL 1
REMARK VINA RESULT:      -5.1      0.000      0.000
REMARK  3 active torsions:
REMARK  status: ('A' for Active; 'I' for Inactive)
REMARK    1  A    between atoms: C3_3  and  C4_4 
REMARK    2  A    between atoms: C5_5  and  C8_8 
REMARK    3  A    between atoms: C6_6  and  C8_8 
ROOT
HETATM    1  C4  UNL     1     -32.979   5.862   3.653  1.00 20.00    -0.004 C 
HETATM    2  C6  UNL     1     -34.236   6.163   4.014  1.00 20.00    -0.019 C 
ENDROOT
BRANCH   2   3
HETATM    3  C8  UNL     1     -34.982   5.450   5.115  1.00 20.00     0.026 C 
HETATM    4  C7  UNL     1     -34.903   3.936   4.907  1.00 20.00     0.018 C 
BRANCH   3   5
HETATM    5  C5  UNL     1     -34.418   5.818   6.465  1.00 20.00    -0.029 C 
HETATM    6  C2  UNL     1     -33.801   6.977   6.726  1.00 20.00     0.007 C 
ENDBRANCH   3   5
ENDBRANCH   2   3
BRANCH   1   7
HETATM    7  C3  UNL     1     -32.274   6.551   2.599  1.00 20.00    -0.011 C 
HETATM    8  C1  UNL     1     -32.169   7.884   2.533  1.00 20.00     0.011 C 
ENDBRANCH   1   7
TORSDOF 3
ENDMDL
MODEL 2
REMARK VINA RESULT:      -5.0      0.936      2.112
REMARK  3 active torsions:
REMARK  status: ('A' for Active; 'I' for Inactive)
REMARK    1  A    between atoms: C3_3  and  C4_4 
REMARK    2  A    between atoms: C5_5  and  C8_8 
REMARK    3  A    between atoms: C6_6  and  C8_8 
ROOT
HETATM    1  C4  UNL     1     -32.230   7.177   3.243  1.00 20.00    -0.004 C 
HETATM    2  C6  UNL     1     -33.376   6.560   3.569  1.00 20.00    -0.019 C 
ENDROOT
BRANCH   2   3
HETATM    3  C8  UNL     1     -33.586   5.822   4.869  1.00 20.00     0.026 C 
HETATM    4  C7  UNL     1     -33.688   6.816   6.027  1.00 20.00     0.018 C 
BRANCH   3   5
HETATM    5  C5  UNL     1     -34.831   4.972   4.804  1.00 20.00    -0.029 C 
HETATM    6  C2  UNL     1     -35.223   4.146   5.781  1.00 20.00     0.007 C 
ENDBRANCH   3   5
ENDBRANCH   2   3
BRANCH   1   7
HETATM    7  C3  UNL     1     -32.040   7.881   1.996  1.00 20.00    -0.011 C 
HETATM    8  C1  UNL     1     -32.351   9.172   1.826  1.00 20.00     0.011 C 
ENDBRANCH   1   7
TORSDOF 3
ENDMDL
MODEL 3
REMARK VINA RESULT:      -4.7      1.143      1.622
REMARK  3 active torsions:
REMARK  status: ('A' for Active; 'I' for Inactive)
REMARK    1  A    between atoms: C3_3  and  C4_4 
REMARK    2  A    between atoms: C5_5  and  C8_8 
REMARK    3  A    between atoms: C6_6  and  C8_8 
ROOT
HETATM    1  C4  UNL     1     -33.095   6.849   3.079  1.00 20.00    -0.004 C 
HETATM    2  C6  UNL     1     -33.399   6.712   4.379  1.00 20.00    -0.019 C 
ENDROOT
BRANCH   2   3
HETATM    3  C8  UNL     1     -34.669   6.063   4.875  1.00 20.00     0.026 C 
HETATM    4  C7  UNL     1     -35.379   5.349   3.722  1.00 20.00     0.018 C 
BRANCH   3   5
HETATM    5  C5  UNL     1     -34.370   5.086   5.984  1.00 20.00    -0.029 C 
HETATM    6  C2  UNL     1     -34.773   3.810   5.984  1.00 20.00     0.007 C 
ENDBRANCH   3   5
ENDBRANCH   2   3
BRANCH   1   7
HETATM    7  C3  UNL     1     -31.877   7.470   2.615  1.00 20.00    -0.011 C 
HETATM    8  C1  UNL     1     -31.845   8.401   1.654  1.00 20.00     0.011 C 
ENDBRANCH   1   7
TORSDOF 3
ENDMDL
MODEL 4
REMARK VINA RESULT:      -4.5      1.303      4.491
REMARK  3 active torsions:
REMARK  status: ('A' for Active; 'I' for Inactive)
REMARK    1  A    between atoms: C3_3  and  C4_4 
REMARK    2  A    between atoms: C5_5  and  C8_8 
REMARK    3  A    between atoms: C6_6  and  C8_8 
ROOT
HETATM    1  C4  UNL     1     -34.095   6.235   4.289  1.00 20.00    -0.004 C 
HETATM    2  C6  UNL     1     -33.191   6.433   3.317  1.00 20.00    -0.019 C 
ENDROOT
BRANCH   2   3
HETATM    3  C8  UNL     1     -32.396   7.707   3.165  1.00 20.00     0.026 C 
HETATM    4  C7  UNL     1     -31.122   7.635   4.010  1.00 20.00     0.018 C 
BRANCH   3   5
HETATM    5  C5  UNL     1     -32.044   7.945   1.717  1.00 20.00    -0.029 C 
HETATM    6  C2  UNL     1     -32.173   9.127   1.102  1.00 20.00     0.007 C 
ENDBRANCH   3   5
ENDBRANCH   2   3
BRANCH   1   7
HETATM    7  C3  UNL     1     -34.850   5.011   4.426  1.00 20.00    -0.011 C 
HETATM    8  C1  UNL     1     -34.938   4.325   5.572  1.00 20.00     0.011 C 
ENDBRANCH   1   7
TORSDOF 3
ENDMDL
MODEL 5
REMARK VINA RESULT:      -4.2      1.254      4.233
REMARK  3 active torsions:
REMARK  status: ('A' for Active; 'I' for Inactive)
REMARK    1  A    between atoms: C3_3  and  C4_4 
REMARK    2  A    between atoms: C5_5  and  C8_8 
REMARK    3  A    between atoms: C6_6  and  C8_8 
ROOT
HETATM    1  C4  UNL     1     -34.114   5.497   4.198  1.00 20.00    -0.004 C 
HETATM    2  C6  UNL     1     -33.246   6.519   4.274  1.00 20.00    -0.019 C 
ENDROOT
BRANCH   2   3
HETATM    3  C8  UNL     1     -32.176   6.782   3.243  1.00 20.00     0.026 C 
HETATM    4  C7  UNL     1     -32.189   5.683   2.179  1.00 20.00     0.018 C 
BRANCH   3   5
HETATM    5  C5  UNL     1     -32.379   8.130   2.597  1.00 20.00    -0.029 C 
HETATM    6  C2  UNL     1     -31.891   8.464   1.396  1.00 20.00     0.007 C 
ENDBRANCH   3   5
ENDBRANCH   2   3
BRANCH   1   7
HETATM    7  C3  UNL     1     -35.135   5.255   5.190  1.00 20.00    -0.011 C 
HETATM    8  C1  UNL     1     -35.059   4.276   6.100  1.00 20.00     0.011 C 
ENDBRANCH   1   7
TORSDOF 3
ENDMDL
MODEL 6
REMARK VINA RESULT:      -4.0     11.451     12.735
REMARK  3 active torsions:
REMARK  status: ('A' for Active; 'I' for Inactive)
REMARK    1  A    between atoms: C3_3  and  C4_4 
REMARK    2  A    between atoms: C5_5  and  C8_8 
REMARK    3  A    between atoms: C6_6  and  C8_8 
ROOT
HETATM    1  C4  UNL     1     -34.806  16.282  -1.559  1.00 20.00    -0.004 C 
HETATM    2  C6  UNL     1     -33.953  16.428  -2.585  1.00 20.00    -0.019 C 
ENDROOT
BRANCH   2   3
HETATM    3  C8  UNL     1     -34.115  15.724  -3.910  1.00 20.00     0.026 C 
HETATM    4  C7  UNL     1     -33.156  16.321  -4.942  1.00 20.00     0.018 C 
BRANCH   3   5
HETATM    5  C5  UNL     1     -33.860  14.244  -3.761  1.00 20.00    -0.029 C 
HETATM    6  C2  UNL     1     -34.723  13.295  -4.143  1.00 20.00     0.007 C 
ENDBRANCH   3   5
ENDBRANCH   2   3
BRANCH   1   7
HETATM    7  C3  UNL     1     -34.642  16.962  -0.295  1.00 20.00    -0.011 C 
HETATM    8  C1  UNL     1     -33.767  17.956  -0.102  1.00 20.00     0.011 C 
ENDBRANCH   1   7
TORSDOF 3
ENDMDL
MODEL 7
REMARK VINA RESULT:      -3.9     11.473     12.906
REMARK  3 active torsions:
REMARK  status: ('A' for Active; 'I' for Inactive)
REMARK    1  A    between atoms: C3_3  and  C4_4 
REMARK    2  A    between atoms: C5_5  and  C8_8 
REMARK    3  A    between atoms: C6_6  and  C8_8 
ROOT
HETATM    1  C4  UNL     1     -34.659  15.906  -2.043  1.00 20.00    -0.004 C 
HETATM    2  C6  UNL     1     -33.627  15.829  -2.897  1.00 20.00    -0.019 C 
ENDROOT
BRANCH   2   3
HETATM    3  C8  UNL     1     -33.617  14.935  -4.114  1.00 20.00     0.026 C 
HETATM    4  C7  UNL     1     -34.414  13.659  -3.834  1.00 20.00     0.018 C 
BRANCH   3   5
HETATM    5  C5  UNL     1     -34.192  15.654  -5.308  1.00 20.00    -0.029 C 
HETATM    6  C2  UNL     1     -34.408  15.076  -6.496  1.00 20.00     0.007 C 
ENDBRANCH   3   5
ENDBRANCH   2   3
BRANCH   1   7
HETATM    7  C3  UNL     1     -34.659  16.766  -0.882  1.00 20.00    -0.011 C 
HETATM    8  C1  UNL     1     -33.710  17.679  -0.643  1.00 20.00     0.011 C 
ENDBRANCH   1   7
TORSDOF 3
ENDMDL
MODEL 8
REMARK VINA RESULT:      -3.9     11.783     12.394
REMARK  3 active torsions:
REMARK  status: ('A' for Active; 'I' for Inactive)
REMARK    1  A    between atoms: C3_3  and  C4_4 
REMARK    2  A    between atoms: C5_5  and  C8_8 
REMARK    3  A    between atoms: C6_6  and  C8_8 
ROOT
HETATM    1  C4  UNL     1     -35.372  15.056  -3.356  1.00 20.00    -0.004 C 
HETATM    2  C6  UNL     1     -34.138  15.372  -2.934  1.00 20.00    -0.019 C 
ENDROOT
BRANCH   2   3
HETATM    3  C8  UNL     1     -33.833  16.575  -2.075  1.00 20.00     0.026 C 
HETATM    4  C7  UNL     1     -34.039  17.860  -2.880  1.00 20.00     0.018 C 
BRANCH   3   5
HETATM    5  C5  UNL     1     -34.707  16.588  -0.846  1.00 20.00    -0.029 C 
HETATM    6  C2  UNL     1     -34.596  17.486   0.140  1.00 20.00     0.007 C 
ENDBRANCH   3   5
ENDBRANCH   2   3
BRANCH   1   7
HETATM    7  C3  UNL     1     -35.654  13.902  -4.177  1.00 20.00    -0.011 C 
HETATM    8  C1  UNL     1     -34.708  13.214  -4.828  1.00 20.00     0.011 C 
ENDBRANCH   1   7
TORSDOF 3
ENDMDL
MODEL 9
REMARK VINA RESULT:      -3.7     11.565     12.508
REMARK  3 active torsions:
REMARK  status: ('A' for Active; 'I' for Inactive)
REMARK    1  A    between atoms: C3_3  and  C4_4 
REMARK    2  A    between atoms: C5_5  and  C8_8 
REMARK    3  A    between atoms: C6_6  and  C8_8 
ROOT
HETATM    1  C4  UNL     1     -33.846  16.115  -2.767  1.00 20.00    -0.004 C 
HETATM    2  C6  UNL     1     -34.472  16.263  -1.589  1.00 20.00    -0.019 C 
ENDROOT
BRANCH   2   3
HETATM    3  C8  UNL     1     -34.640  17.593  -0.895  1.00 20.00     0.026 C 
HETATM    4  C7  UNL     1     -35.006  17.376   0.575  1.00 20.00     0.018 C 
BRANCH   3   5
HETATM    5  C5  UNL     1     -33.377  18.411  -1.000  1.00 20.00    -0.029 C 
HETATM    6  C2  UNL     1     -32.566  18.668   0.034  1.00 20.00     0.007 C 
ENDBRANCH   3   5
ENDBRANCH   2   3
BRANCH   1   7
HETATM    7  C3  UNL     1     -33.692  14.837  -3.422  1.00 20.00    -0.011 C 
HETATM    8  C1  UNL     1     -34.715  14.013  -3.679  1.00 20.00     0.011 C 
ENDBRANCH   1   7
TORSDOF 3
ENDMDL
