MODEL 1
REMARK VINA RESULT:      -4.8      0.000      0.000
REMARK  2 active torsions:
REMARK  status: ('A' for Active; 'I' for Inactive)
REMARK    1  A    between atoms: C5_5  and  C7_7 
REMARK    2  A    between atoms: C6_6  and  O8_8 
ROOT
HETATM    1  C1  UNL     1     -34.110  16.242  -2.315  1.00 20.00     0.003 C 
HETATM    2  C2  UNL     1     -35.449  15.644  -2.738  1.00 20.00     0.014 C 
HETATM    3  C3  UNL     1     -33.664  17.347  -3.272  1.00 20.00     0.032 C 
HETATM    4  C4  UNL     1     -34.935  16.216  -5.153  1.00 20.00     0.045 C 
HETATM    5  C5  UNL     1     -35.451  15.136  -4.186  1.00 20.00     0.096 C 
HETATM    6  C6  UNL     1     -33.620  16.875  -4.723  1.00 20.00     0.118 C 
ENDROOT
BRANCH   5   7
HETATM    7  C7  UNL     1     -34.692  13.814  -4.322  1.00 20.00     0.391 C 
HETATM    8  F9  UNL     1     -34.139  13.724  -5.542  1.00 20.00    -0.171 F 
HETATM    9  F10 UNL     1     -33.721  13.743  -3.399  1.00 20.00    -0.171 F 
HETATM   10  F11 UNL     1     -35.533  12.781  -4.149  1.00 20.00    -0.171 F 
ENDBRANCH   5   7
BRANCH   6  11
HETATM   11  O8  UNL     1     -32.531  15.973  -4.884  1.00 20.00    -0.396 OA
HETATM   12  H22 UNL     1     -32.344  15.603  -4.006  1.00 20.00     0.210 HD
ENDBRANCH   6  11
TORSDOF 2
ENDMDL
MODEL 2
REMARK VINA RESULT:      -4.6      1.271      1.909
REMARK  2 active torsions:
REMARK  status: ('A' for Active; 'I' for Inactive)
REMARK    1  A    between atoms: C5_5  and  C7_7 
REMARK    2  A    between atoms: C6_6  and  O8_8 
ROOT
HETATM    1  C1  UNL     1     -34.651  14.725  -3.134  1.00 20.00     0.003 C 
HETATM    2  C2  UNL     1     -35.842  14.969  -4.058  1.00 20.00     0.014 C 
HETATM    3  C3  UNL     1     -33.840  16.002  -2.920  1.00 20.00     0.032 C 
HETATM    4  C4  UNL     1     -34.563  16.833  -5.204  1.00 20.00     0.045 C 
HETATM    5  C5  UNL     1     -35.442  15.585  -5.405  1.00 20.00     0.096 C 
HETATM    6  C6  UNL     1     -33.393  16.634  -4.236  1.00 20.00     0.118 C 
ENDROOT
BRANCH   5   7
HETATM    7  C7  UNL     1     -34.794  14.552  -6.330  1.00 20.00     0.391 C 
HETATM    8  F9  UNL     1     -35.725  13.989  -7.115  1.00 20.00    -0.171 F 
HETATM    9  F10 UNL     1     -33.872  15.142  -7.105  1.00 20.00    -0.171 F 
HETATM   10  F11 UNL     1     -34.202  13.592  -5.603  1.00 20.00    -0.171 F 
ENDBRANCH   5   7
BRANCH   6  11
HETATM   11  O8  UNL     1     -32.388  15.815  -4.825  1.00 20.00    -0.396 OA
HETATM   12  H22 UNL     1     -31.583  15.940  -4.298  1.00 20.00     0.210 HD
ENDBRANCH   6  11
TORSDOF 2
ENDMDL
MODEL 3
REMARK VINA RESULT:      -4.5      2.153      3.180
REMARK  2 active torsions:
REMARK  status: ('A' for Active; 'I' for Inactive)
REMARK    1  A    between atoms: C5_5  and  C7_7 
REMARK    2  A    between atoms: C6_6  and  O8_8 
ROOT
HETATM    1  C1  UNL     1     -34.786  13.663  -4.730  1.00 20.00     0.003 C 
HETATM    2  C2  UNL     1     -33.760  13.966  -3.641  1.00 20.00     0.014 C 
HETATM    3  C3  UNL     1     -34.496  14.450  -6.007  1.00 20.00     0.032 C 
HETATM    4  C4  UNL     1     -33.414  16.277  -4.622  1.00 20.00     0.045 C 
HETATM    5  C5  UNL     1     -33.634  15.464  -3.333  1.00 20.00     0.096 C 
HETATM    6  C6  UNL     1     -34.394  15.952  -5.753  1.00 20.00     0.118 C 
ENDROOT
BRANCH   5   7
HETATM    7  C7  UNL     1     -34.821  15.974  -2.512  1.00 20.00     0.391 C 
HETATM    8  F9  UNL     1     -35.087  17.250  -2.832  1.00 20.00    -0.171 F 
HETATM    9  F10 UNL     1     -35.908  15.228  -2.761  1.00 20.00    -0.171 F 
HETATM   10  F11 UNL     1     -34.536  15.905  -1.202  1.00 20.00    -0.171 F 
ENDBRANCH   5   7
BRANCH   6  11
HETATM   11  O8  UNL     1     -35.690  16.459  -5.455  1.00 20.00    -0.396 OA
HETATM   12  H22 UNL     1     -35.725  16.586  -4.493  1.00 20.00     0.210 HD
ENDBRANCH   6  11
TORSDOF 2
ENDMDL
MODEL 4
REMARK VINA RESULT:      -4.5      2.011      3.015
REMARK  2 active torsions:
REMARK  status: ('A' for Active; 'I' for Inactive)
REMARK    1  A    between atoms: C5_5  and  C7_7 
REMARK    2  A    between atoms: C6_6  and  O8_8 
ROOT
HETATM    1  C1  UNL     1     -36.288  15.921  -4.830  1.00 20.00     0.003 C 
HETATM    2  C2  UNL     1     -35.992  15.378  -3.435  1.00 20.00     0.014 C 
HETATM    3  C3  UNL     1     -36.187  14.826  -5.891  1.00 20.00     0.032 C 
HETATM    4  C4  UNL     1     -34.492  13.606  -4.452  1.00 20.00     0.045 C 
HETATM    5  C5  UNL     1     -34.637  14.663  -3.343  1.00 20.00     0.096 C 
HETATM    6  C6  UNL     1     -34.839  14.108  -5.856  1.00 20.00     0.118 C 
ENDROOT
BRANCH   5   7
HETATM    7  C7  UNL     1     -33.474  15.658  -3.323  1.00 20.00     0.391 C 
HETATM    8  F9  UNL     1     -32.335  15.041  -3.673  1.00 20.00    -0.171 F 
HETATM    9  F10 UNL     1     -33.709  16.658  -4.185  1.00 20.00    -0.171 F 
HETATM   10  F11 UNL     1     -33.329  16.171  -2.091  1.00 20.00    -0.171 F 
ENDBRANCH   5   7
BRANCH   6  11
HETATM   11  O8  UNL     1     -33.832  14.992  -6.336  1.00 20.00    -0.396 OA
HETATM   12  H22 UNL     1     -34.279  15.646  -6.897  1.00 20.00     0.210 HD
ENDBRANCH   6  11
TORSDOF 2
ENDMDL
MODEL 5
REMARK VINA RESULT:      -4.5      2.234      3.310
REMARK  2 active torsions:
REMARK  status: ('A' for Active; 'I' for Inactive)
REMARK    1  A    between atoms: C5_5  and  C7_7 
REMARK    2  A    between atoms: C6_6  and  O8_8 
ROOT
HETATM    1  C1  UNL     1     -36.103  14.857  -3.631  1.00 20.00     0.003 C 
HETATM    2  C2  UNL     1     -35.178  15.546  -2.630  1.00 20.00     0.014 C 
HETATM    3  C3  UNL     1     -35.518  13.530  -4.112  1.00 20.00     0.032 C 
HETATM    4  C4  UNL     1     -33.180  14.432  -3.721  1.00 20.00     0.045 C 
HETATM    5  C5  UNL     1     -33.755  15.748  -3.166  1.00 20.00     0.096 C 
HETATM    6  C6  UNL     1     -34.111  13.689  -4.684  1.00 20.00     0.118 C 
ENDROOT
BRANCH   5   7
HETATM    7  C7  UNL     1     -33.690  16.891  -4.181  1.00 20.00     0.391 C 
HETATM    8  F9  UNL     1     -34.872  17.024  -4.802  1.00 20.00    -0.171 F 
HETATM    9  F10 UNL     1     -33.395  18.043  -3.559  1.00 20.00    -0.171 F 
HETATM   10  F11 UNL     1     -32.743  16.638  -5.099  1.00 20.00    -0.171 F 
ENDBRANCH   5   7
BRANCH   6  11
HETATM   11  O8  UNL     1     -34.193  14.374  -5.930  1.00 20.00    -0.396 OA
HETATM   12  H22 UNL     1     -34.328  13.696  -6.611  1.00 20.00     0.210 HD
ENDBRANCH   6  11
TORSDOF 2
ENDMDL
MODEL 6
REMARK VINA RESULT:      -4.5      2.438      3.146
REMARK  2 active torsions:
REMARK  status: ('A' for Active; 'I' for Inactive)
REMARK    1  A    between atoms: C5_5  and  C7_7 
REMARK    2  A    between atoms: C6_6  and  O8_8 
ROOT
HETATM    1  C1  UNL     1     -33.904  15.007  -3.046  1.00 20.00     0.003 C 
HETATM    2  C2  UNL     1     -34.369  16.110  -3.993  1.00 20.00     0.014 C 
HETATM    3  C3  UNL     1     -33.389  13.790  -3.815  1.00 20.00     0.032 C 
HETATM    4  C4  UNL     1     -34.940  14.363  -5.738  1.00 20.00     0.045 C 
HETATM    5  C5  UNL     1     -35.416  15.631  -5.007  1.00 20.00     0.096 C 
HETATM    6  C6  UNL     1     -34.414  13.260  -4.815  1.00 20.00     0.118 C 
ENDROOT
BRANCH   5   7
HETATM    7  C7  UNL     1     -36.791  15.456  -4.359  1.00 20.00     0.391 C 
HETATM    8  F9  UNL     1     -36.654  14.997  -3.105  1.00 20.00    -0.171 F 
HETATM    9  F10 UNL     1     -37.437  16.631  -4.323  1.00 20.00    -0.171 F 
HETATM   10  F11 UNL     1     -37.523  14.579  -5.064  1.00 20.00    -0.171 F 
ENDBRANCH   5   7
BRANCH   6  11
HETATM   11  O8  UNL     1     -35.484  12.650  -4.101  1.00 20.00    -0.396 OA
HETATM   12  H22 UNL     1     -35.099  12.267  -3.296  1.00 20.00     0.210 HD
ENDBRANCH   6  11
TORSDOF 2
ENDMDL
MODEL 7
REMARK VINA RESULT:      -4.4      2.086      3.402
REMARK  2 active torsions:
REMARK  status: ('A' for Active; 'I' for Inactive)
REMARK    1  A    between atoms: C5_5  and  C7_7 
REMARK    2  A    between atoms: C6_6  and  O8_8 
ROOT
HETATM    1  C1  UNL     1     -34.077  15.210  -5.749  1.00 20.00     0.003 C 
HETATM    2  C2  UNL     1     -34.782  16.425  -5.151  1.00 20.00     0.014 C 
HETATM    3  C3  UNL     1     -34.944  13.955  -5.649  1.00 20.00     0.032 C 
HETATM    4  C4  UNL     1     -36.056  14.902  -3.576  1.00 20.00     0.045 C 
HETATM    5  C5  UNL     1     -35.243  16.202  -3.705  1.00 20.00     0.096 C 
HETATM    6  C6  UNL     1     -35.399  13.677  -4.218  1.00 20.00     0.118 C 
ENDROOT
BRANCH   5   7
HETATM    7  C7  UNL     1     -34.070  16.261  -2.723  1.00 20.00     0.391 C 
HETATM    8  F9  UNL     1     -33.709  17.537  -2.513  1.00 20.00    -0.171 F 
HETATM    9  F10 UNL     1     -34.422  15.711  -1.551  1.00 20.00    -0.171 F 
HETATM   10  F11 UNL     1     -33.019  15.590  -3.221  1.00 20.00    -0.171 F 
ENDBRANCH   5   7
BRANCH   6  11
HETATM   11  O8  UNL     1     -34.278  13.249  -3.451  1.00 20.00    -0.396 OA
HETATM   12  H22 UNL     1     -33.792  14.050  -3.198  1.00 20.00     0.210 HD
ENDBRANCH   6  11
TORSDOF 2
ENDMDL
MODEL 8
REMARK VINA RESULT:      -4.4      1.025      1.531
REMARK  2 active torsions:
REMARK  status: ('A' for Active; 'I' for Inactive)
REMARK    1  A    between atoms: C5_5  and  C7_7 
REMARK    2  A    between atoms: C6_6  and  O8_8 
ROOT
HETATM    1  C1  UNL     1     -34.892  16.939  -3.505  1.00 20.00     0.003 C 
HETATM    2  C2  UNL     1     -35.950  16.103  -4.221  1.00 20.00     0.014 C 
HETATM    3  C3  UNL     1     -33.894  17.543  -4.492  1.00 20.00     0.032 C 
HETATM    4  C4  UNL     1     -34.288  15.594  -6.066  1.00 20.00     0.045 C 
HETATM    5  C5  UNL     1     -35.349  15.011  -5.115  1.00 20.00     0.096 C 
HETATM    6  C6  UNL     1     -33.247  16.485  -5.383  1.00 20.00     0.118 C 
ENDROOT
BRANCH   5   7
HETATM    7  C7  UNL     1     -34.818  13.835  -4.292  1.00 20.00     0.391 C 
HETATM    8  F9  UNL     1     -34.376  14.268  -3.102  1.00 20.00    -0.171 F 
HETATM    9  F10 UNL     1     -35.792  12.934  -4.093  1.00 20.00    -0.171 F 
HETATM   10  F11 UNL     1     -33.803  13.241  -4.941  1.00 20.00    -0.171 F 
ENDBRANCH   5   7
BRANCH   6  11
HETATM   11  O8  UNL     1     -32.354  15.702  -4.598  1.00 20.00    -0.396 OA
HETATM   12  H22 UNL     1     -32.867  15.367  -3.844  1.00 20.00     0.210 HD
ENDBRANCH   6  11
TORSDOF 2
ENDMDL
MODEL 9
REMARK VINA RESULT:      -4.4      2.606      3.621
REMARK  2 active torsions:
REMARK  status: ('A' for Active; 'I' for Inactive)
REMARK    1  A    between atoms: C5_5  and  C7_7 
REMARK    2  A    between atoms: C6_6  and  O8_8 
ROOT
HETATM    1  C1  UNL     1     -34.090  13.756  -3.446  1.00 20.00     0.003 C 
HETATM    2  C2  UNL     1     -33.285  15.020  -3.737  1.00 20.00     0.014 C 
HETATM    3  C3  UNL     1     -35.307  13.645  -4.364  1.00 20.00     0.032 C 
HETATM    4  C4  UNL     1     -35.397  16.174  -4.533  1.00 20.00     0.045 C 
HETATM    5  C5  UNL     1     -34.128  16.300  -3.669  1.00 20.00     0.096 C 
HETATM    6  C6  UNL     1     -36.194  14.887  -4.304  1.00 20.00     0.118 C 
ENDROOT
BRANCH   5   7
HETATM    7  C7  UNL     1     -34.439  16.697  -2.224  1.00 20.00     0.391 C 
HETATM    8  F9  UNL     1     -34.706  15.603  -1.494  1.00 20.00    -0.171 F 
HETATM    9  F10 UNL     1     -33.388  17.332  -1.685  1.00 20.00    -0.171 F 
HETATM   10  F11 UNL     1     -35.504  17.513  -2.190  1.00 20.00    -0.171 F 
ENDBRANCH   5   7
BRANCH   6  11
HETATM   11  O8  UNL     1     -36.854  14.923  -3.043  1.00 20.00    -0.396 OA
HETATM   12  H22 UNL     1     -36.889  15.855  -2.774  1.00 20.00     0.210 HD
ENDBRANCH   6  11
TORSDOF 2
ENDMDL
