MODEL 1
REMARK VINA RESULT:      -4.3      0.000      0.000
REMARK  1 active torsions:
REMARK  status: ('A' for Active; 'I' for Inactive)
REMARK    1  A    between atoms: C1_1  and  C3_3 
ROOT
HETATM    1  C2  UNL     1     -33.236  15.824  -4.389  1.00 20.00     0.067 A 
HETATM    2  C3  UNL     1     -34.364  14.928  -3.916  1.00 20.00     0.083 A 
HETATM    3  C4  UNL     1     -34.476  15.697  -5.234  1.00 20.00     0.132 A 
HETATM    4  C5  UNL     1     -35.146  15.388  -2.710  1.00 20.00     0.030 C 
HETATM    5 CL8  UNL     1     -34.315  14.847  -6.776  1.00 20.00    -0.100 Cl
HETATM    6 CL9  UNL     1     -35.535  17.103  -5.356  1.00 20.00    -0.100 Cl
ENDROOT
BRANCH   2   7
HETATM    7  C1  UNL     1     -34.124  13.491  -4.004  1.00 20.00     0.184 C 
HETATM    8  O6  UNL     1     -35.141  12.789  -4.268  1.00 20.00    -0.647 OA
HETATM    9  O7  UNL     1     -32.928  13.140  -3.804  1.00 20.00    -0.647 OA
ENDBRANCH   2   7
TORSDOF 1
ENDMDL
MODEL 2
REMARK VINA RESULT:      -4.3      1.224      1.674
REMARK  1 active torsions:
REMARK  status: ('A' for Active; 'I' for Inactive)
REMARK    1  A    between atoms: C1_1  and  C3_3 
ROOT
HETATM    1  C2  UNL     1     -33.203  14.610  -3.951  1.00 20.00     0.067 A 
HETATM    2  C3  UNL     1     -34.677  14.862  -3.699  1.00 20.00     0.083 A 
HETATM    3  C4  UNL     1     -33.946  15.569  -4.841  1.00 20.00     0.132 A 
HETATM    4  C5  UNL     1     -35.038  15.630  -2.450  1.00 20.00     0.030 C 
HETATM    5 CL8  UNL     1     -34.217  15.068  -6.516  1.00 20.00    -0.100 Cl
HETATM    6 CL9  UNL     1     -33.547  17.283  -4.717  1.00 20.00    -0.100 Cl
ENDROOT
BRANCH   2   7
HETATM    7  C1  UNL     1     -35.586  13.780  -4.061  1.00 20.00     0.184 C 
HETATM    8  O6  UNL     1     -35.035  12.668  -4.298  1.00 20.00    -0.647 OA
HETATM    9  O7  UNL     1     -36.807  14.101  -4.088  1.00 20.00    -0.647 OA
ENDBRANCH   2   7
TORSDOF 1
ENDMDL
MODEL 3
REMARK VINA RESULT:      -4.3      1.898      2.789
REMARK  1 active torsions:
REMARK  status: ('A' for Active; 'I' for Inactive)
REMARK    1  A    between atoms: C1_1  and  C3_3 
ROOT
HETATM    1  C2  UNL     1     -35.887  16.214  -4.818  1.00 20.00     0.067 A 
HETATM    2  C3  UNL     1     -35.259  14.863  -5.100  1.00 20.00     0.083 A 
HETATM    3  C4  UNL     1     -34.500  15.929  -4.308  1.00 20.00     0.132 A 
HETATM    4  C5  UNL     1     -34.871  14.572  -6.530  1.00 20.00     0.030 C 
HETATM    5 CL8  UNL     1     -34.303  15.765  -2.558  1.00 20.00    -0.100 Cl
HETATM    6 CL9  UNL     1     -33.157  16.800  -5.050  1.00 20.00    -0.100 Cl
ENDROOT
BRANCH   2   7
HETATM    7  C1  UNL     1     -35.796  13.733  -4.348  1.00 20.00     0.184 C 
HETATM    8  O6  UNL     1     -35.046  12.718  -4.290  1.00 20.00    -0.647 OA
HETATM    9  O7  UNL     1     -36.943  13.922  -3.855  1.00 20.00    -0.647 OA
ENDBRANCH   2   7
TORSDOF 1
ENDMDL
MODEL 4
REMARK VINA RESULT:      -4.3      2.011      2.565
REMARK  1 active torsions:
REMARK  status: ('A' for Active; 'I' for Inactive)
REMARK    1  A    between atoms: C1_1  and  C3_3 
ROOT
HETATM    1  C2  UNL     1     -34.419  16.135  -4.442  1.00 20.00     0.067 A 
HETATM    2  C3  UNL     1     -34.142  14.685  -4.096  1.00 20.00     0.083 A 
HETATM    3  C4  UNL     1     -35.104  15.520  -3.251  1.00 20.00     0.132 A 
HETATM    4  C5  UNL     1     -32.767  14.358  -3.565  1.00 20.00     0.030 C 
HETATM    5 CL8  UNL     1     -36.850  15.260  -3.372  1.00 20.00    -0.100 Cl
HETATM    6 CL9  UNL     1     -34.625  16.080  -1.648  1.00 20.00    -0.100 Cl
ENDROOT
BRANCH   2   7
HETATM    7  C1  UNL     1     -34.730  13.687  -4.984  1.00 20.00     0.184 C 
HETATM    8  O6  UNL     1     -34.965  12.565  -4.454  1.00 20.00    -0.647 OA
HETATM    9  O7  UNL     1     -34.928  14.081  -6.167  1.00 20.00    -0.647 OA
ENDBRANCH   2   7
TORSDOF 1
ENDMDL
MODEL 5
REMARK VINA RESULT:      -4.0      1.350      1.797
REMARK  1 active torsions:
REMARK  status: ('A' for Active; 'I' for Inactive)
REMARK    1  A    between atoms: C1_1  and  C3_3 
ROOT
HETATM    1  C2  UNL     1     -34.664  15.527  -2.703  1.00 20.00     0.067 A 
HETATM    2  C3  UNL     1     -35.270  14.688  -3.811  1.00 20.00     0.083 A 
HETATM    3  C4  UNL     1     -34.620  16.038  -4.118  1.00 20.00     0.132 A 
HETATM    4  C5  UNL     1     -36.773  14.557  -3.828  1.00 20.00     0.030 C 
HETATM    5 CL8  UNL     1     -33.036  16.106  -4.901  1.00 20.00    -0.100 Cl
HETATM    6 CL9  UNL     1     -35.620  17.436  -4.518  1.00 20.00    -0.100 Cl
ENDROOT
BRANCH   2   7
HETATM    7  C1  UNL     1     -34.527  13.491  -4.193  1.00 20.00     0.184 C 
HETATM    8  O6  UNL     1     -33.573  13.181  -3.426  1.00 20.00    -0.647 OA
HETATM    9  O7  UNL     1     -34.940  12.924  -5.243  1.00 20.00    -0.647 OA
ENDBRANCH   2   7
TORSDOF 1
ENDMDL
MODEL 6
REMARK VINA RESULT:      -4.0      2.245      3.156
REMARK  1 active torsions:
REMARK  status: ('A' for Active; 'I' for Inactive)
REMARK    1  A    between atoms: C1_1  and  C3_3 
ROOT
HETATM    1  C2  UNL     1     -34.508  13.611  -3.683  1.00 20.00     0.067 A 
HETATM    2  C3  UNL     1     -34.227  14.793  -4.590  1.00 20.00     0.083 A 
HETATM    3  C4  UNL     1     -35.290  14.883  -3.494  1.00 20.00     0.132 A 
HETATM    4  C5  UNL     1     -34.648  14.663  -6.034  1.00 20.00     0.030 C 
HETATM    5 CL8  UNL     1     -34.972  15.812  -2.023  1.00 20.00    -0.100 Cl
HETATM    6 CL9  UNL     1     -37.003  14.864  -3.912  1.00 20.00    -0.100 Cl
ENDROOT
BRANCH   2   7
HETATM    7  C1  UNL     1     -32.971  15.499  -4.359  1.00 20.00     0.184 C 
HETATM    8  O6  UNL     1     -32.136  14.890  -3.633  1.00 20.00    -0.647 OA
HETATM    9  O7  UNL     1     -32.887  16.628  -4.917  1.00 20.00    -0.647 OA
ENDBRANCH   2   7
TORSDOF 1
ENDMDL
MODEL 7
REMARK VINA RESULT:      -3.9      1.822      2.762
REMARK  1 active torsions:
REMARK  status: ('A' for Active; 'I' for Inactive)
REMARK    1  A    between atoms: C1_1  and  C3_3 
ROOT
HETATM    1  C2  UNL     1     -35.904  15.037  -3.774  1.00 20.00     0.067 A 
HETATM    2  C3  UNL     1     -34.468  15.184  -4.239  1.00 20.00     0.083 A 
HETATM    3  C4  UNL     1     -35.077  16.182  -3.253  1.00 20.00     0.132 A 
HETATM    4  C5  UNL     1     -34.250  15.587  -5.677  1.00 20.00     0.030 C 
HETATM    5 CL8  UNL     1     -34.623  16.135  -1.544  1.00 20.00    -0.100 Cl
HETATM    6 CL9  UNL     1     -35.502  17.810  -3.783  1.00 20.00    -0.100 Cl
ENDROOT
BRANCH   2   7
HETATM    7  C1  UNL     1     -33.515  14.217  -3.702  1.00 20.00     0.184 C 
HETATM    8  O6  UNL     1     -32.326  14.630  -3.603  1.00 20.00    -0.647 OA
HETATM    9  O7  UNL     1     -34.010  13.093  -3.408  1.00 20.00    -0.647 OA
ENDBRANCH   2   7
TORSDOF 1
ENDMDL
MODEL 8
REMARK VINA RESULT:      -3.7      1.904      2.324
REMARK  1 active torsions:
REMARK  status: ('A' for Active; 'I' for Inactive)
REMARK    1  A    between atoms: C1_1  and  C3_3 
ROOT
HETATM    1  C2  UNL     1     -35.389  16.569  -4.652  1.00 20.00     0.067 A 
HETATM    2  C3  UNL     1     -34.536  15.727  -3.722  1.00 20.00     0.083 A 
HETATM    3  C4  UNL     1     -35.587  15.077  -4.624  1.00 20.00     0.132 A 
HETATM    4  C5  UNL     1     -34.798  15.862  -2.241  1.00 20.00     0.030 C 
HETATM    5 CL8  UNL     1     -35.090  14.172  -6.059  1.00 20.00    -0.100 Cl
HETATM    6 CL9  UNL     1     -37.090  14.461  -3.937  1.00 20.00    -0.100 Cl
ENDROOT
BRANCH   2   7
HETATM    7  C1  UNL     1     -33.137  15.561  -4.104  1.00 20.00     0.184 C 
HETATM    8  O6  UNL     1     -32.693  16.421  -4.914  1.00 20.00    -0.647 OA
HETATM    9  O7  UNL     1     -32.557  14.574  -3.571  1.00 20.00    -0.647 OA
ENDBRANCH   2   7
TORSDOF 1
ENDMDL
MODEL 9
REMARK VINA RESULT:      -3.7      1.736      2.407
REMARK  1 active torsions:
REMARK  status: ('A' for Active; 'I' for Inactive)
REMARK    1  A    between atoms: C1_1  and  C3_3 
ROOT
HETATM    1  C2  UNL     1     -35.530  15.532  -4.813  1.00 20.00     0.067 A 
HETATM    2  C3  UNL     1     -34.287  14.698  -4.572  1.00 20.00     0.083 A 
HETATM    3  C4  UNL     1     -34.372  15.647  -5.768  1.00 20.00     0.132 A 
HETATM    4  C5  UNL     1     -34.408  13.208  -4.784  1.00 20.00     0.030 C 
HETATM    5 CL8  UNL     1     -33.472  17.169  -5.763  1.00 20.00    -0.100 Cl
HETATM    6 CL9  UNL     1     -34.586  15.006  -7.398  1.00 20.00    -0.100 Cl
ENDROOT
BRANCH   2   7
HETATM    7  C1  UNL     1     -33.441  15.110  -3.456  1.00 20.00     0.184 C 
HETATM    8  O6  UNL     1     -34.016  15.802  -2.570  1.00 20.00    -0.647 OA
HETATM    9  O7  UNL     1     -32.243  14.717  -3.526  1.00 20.00    -0.647 OA
ENDBRANCH   2   7
TORSDOF 1
ENDMDL
