MODEL 1
REMARK VINA RESULT:      -4.7      0.000      0.000
REMARK  1 active torsions:
REMARK  status: ('A' for Active; 'I' for Inactive)
REMARK    1  A    between atoms: C1_1  and  C7_7 
ROOT
HETATM    1  C2  UNL     1     -33.719  17.697  -3.536  1.00 20.00     0.000 C 
HETATM    2  C3  UNL     1     -33.799  16.766  -2.331  1.00 20.00     0.001 C 
HETATM    3  C4  UNL     1     -33.322  16.943  -4.799  1.00 20.00     0.001 C 
HETATM    4  C5  UNL     1     -34.744  15.592  -2.585  1.00 20.00     0.018 C 
HETATM    5  C6  UNL     1     -34.263  15.770  -5.078  1.00 20.00     0.018 C 
HETATM    6  C7  UNL     1     -34.419  14.835  -3.876  1.00 20.00     0.032 C 
HETATM    7  C8  UNL     1     -33.137  14.027  -3.686  1.00 20.00     0.025 C 
ENDROOT
BRANCH   6   8
HETATM    8  C1  UNL     1     -35.459  13.749  -4.155  1.00 20.00     0.227 C 
HETATM    9  O9  UNL     1     -35.134  12.599  -4.430  1.00 20.00    -0.279 OA
HETATM   10 CL10 UNL     1     -37.083  14.355  -4.032  1.00 20.00    -0.043 Cl
ENDBRANCH   6   8
TORSDOF 1
ENDMDL
MODEL 2
REMARK VINA RESULT:      -4.5      1.556      2.290
REMARK  1 active torsions:
REMARK  status: ('A' for Active; 'I' for Inactive)
REMARK    1  A    between atoms: C1_1  and  C7_7 
ROOT
HETATM    1  C2  UNL     1     -34.684  16.263  -1.765  1.00 20.00     0.000 C 
HETATM    2  C3  UNL     1     -33.448  16.186  -2.654  1.00 20.00     0.001 C 
HETATM    3  C4  UNL     1     -35.964  16.317  -2.592  1.00 20.00     0.001 C 
HETATM    4  C5  UNL     1     -33.521  15.008  -3.625  1.00 20.00     0.018 C 
HETATM    5  C6  UNL     1     -36.062  15.138  -3.562  1.00 20.00     0.018 C 
HETATM    6  C7  UNL     1     -34.817  14.987  -4.440  1.00 20.00     0.032 C 
HETATM    7  C8  UNL     1     -34.786  16.106  -5.479  1.00 20.00     0.025 C 
ENDROOT
BRANCH   6   8
HETATM    8  C1  UNL     1     -34.904  13.729  -5.305  1.00 20.00     0.227 C 
HETATM    9  O9  UNL     1     -34.727  12.609  -4.835  1.00 20.00    -0.279 OA
HETATM   10 CL10 UNL     1     -35.269  14.100  -6.962  1.00 20.00    -0.043 Cl
ENDBRANCH   6   8
TORSDOF 1
ENDMDL
MODEL 3
REMARK VINA RESULT:      -4.4      2.707      3.821
REMARK  1 active torsions:
REMARK  status: ('A' for Active; 'I' for Inactive)
REMARK    1  A    between atoms: C1_1  and  C7_7 
ROOT
HETATM    1  C2  UNL     1     -34.606  13.357  -4.522  1.00 20.00     0.000 C 
HETATM    2  C3  UNL     1     -33.376  13.681  -3.682  1.00 20.00     0.001 C 
HETATM    3  C4  UNL     1     -35.788  14.243  -4.146  1.00 20.00     0.001 C 
HETATM    4  C5  UNL     1     -33.000  15.159  -3.774  1.00 20.00     0.018 C 
HETATM    5  C6  UNL     1     -35.436  15.728  -4.245  1.00 20.00     0.018 C 
HETATM    6  C7  UNL     1     -34.173  16.092  -3.460  1.00 20.00     0.032 C 
HETATM    7  C8  UNL     1     -34.472  16.051  -1.963  1.00 20.00     0.025 C 
ENDROOT
BRANCH   6   8
HETATM    8  C1  UNL     1     -33.789  17.555  -3.685  1.00 20.00     0.227 C 
HETATM    9  O9  UNL     1     -33.719  18.354  -2.756  1.00 20.00    -0.279 OA
HETATM   10 CL10 UNL     1     -33.483  17.900  -5.360  1.00 20.00    -0.043 Cl
ENDBRANCH   6   8
TORSDOF 1
ENDMDL
MODEL 4
REMARK VINA RESULT:      -4.4      2.420      3.653
REMARK  1 active torsions:
REMARK  status: ('A' for Active; 'I' for Inactive)
REMARK    1  A    between atoms: C1_1  and  C7_7 
ROOT
HETATM    1  C2  UNL     1     -35.303  14.003  -5.874  1.00 20.00     0.000 C 
HETATM    2  C3  UNL     1     -34.236  15.024  -6.250  1.00 20.00     0.001 C 
HETATM    3  C4  UNL     1     -35.070  13.442  -4.476  1.00 20.00     0.001 C 
HETATM    4  C5  UNL     1     -34.140  16.150  -5.220  1.00 20.00     0.018 C 
HETATM    5  C6  UNL     1     -34.983  14.552  -3.427  1.00 20.00     0.018 C 
HETATM    6  C7  UNL     1     -33.961  15.632  -3.790  1.00 20.00     0.032 C 
HETATM    7  C8  UNL     1     -32.548  15.078  -3.619  1.00 20.00     0.025 C 
ENDROOT
BRANCH   6   8
HETATM    8  C1  UNL     1     -33.994  16.781  -2.781  1.00 20.00     0.227 C 
HETATM    9  O9  UNL     1     -33.607  17.908  -3.073  1.00 20.00    -0.279 OA
HETATM   10 CL10 UNL     1     -34.625  16.280  -1.242  1.00 20.00    -0.043 Cl
ENDBRANCH   6   8
TORSDOF 1
ENDMDL
MODEL 5
REMARK VINA RESULT:      -4.4      1.801      2.414
REMARK  1 active torsions:
REMARK  status: ('A' for Active; 'I' for Inactive)
REMARK    1  A    between atoms: C1_1  and  C7_7 
ROOT
HETATM    1  C2  UNL     1     -32.790  15.088  -3.617  1.00 20.00     0.000 C 
HETATM    2  C3  UNL     1     -33.367  13.697  -3.850  1.00 20.00     0.001 C 
HETATM    3  C4  UNL     1     -33.330  16.093  -4.628  1.00 20.00     0.001 C 
HETATM    4  C5  UNL     1     -34.896  13.709  -3.843  1.00 20.00     0.018 C 
HETATM    5  C6  UNL     1     -34.859  16.130  -4.628  1.00 20.00     0.018 C 
HETATM    6  C7  UNL     1     -35.486  14.745  -4.804  1.00 20.00     0.032 C 
HETATM    7  C8  UNL     1     -35.293  14.275  -6.244  1.00 20.00     0.025 C 
ENDROOT
BRANCH   6   8
HETATM    8  C1  UNL     1     -37.009  14.811  -4.675  1.00 20.00     0.227 C 
HETATM    9  O9  UNL     1     -37.612  14.174  -3.817  1.00 20.00    -0.279 OA
HETATM   10 CL10 UNL     1     -37.720  15.863  -5.860  1.00 20.00    -0.043 Cl
ENDBRANCH   6   8
TORSDOF 1
ENDMDL
MODEL 6
REMARK VINA RESULT:      -4.3      1.540      2.324
REMARK  1 active torsions:
REMARK  status: ('A' for Active; 'I' for Inactive)
REMARK    1  A    between atoms: C1_1  and  C7_7 
ROOT
HETATM    1  C2  UNL     1     -34.171  17.412  -2.850  1.00 20.00     0.000 C 
HETATM    2  C3  UNL     1     -35.149  17.525  -4.014  1.00 20.00     0.001 C 
HETATM    3  C4  UNL     1     -34.372  16.113  -2.077  1.00 20.00     0.001 C 
HETATM    4  C5  UNL     1     -35.063  16.317  -4.947  1.00 20.00     0.018 C 
HETATM    5  C6  UNL     1     -34.277  14.890  -2.991  1.00 20.00     0.018 C 
HETATM    6  C7  UNL     1     -35.203  14.984  -4.207  1.00 20.00     0.032 C 
HETATM    7  C8  UNL     1     -36.651  14.795  -3.762  1.00 20.00     0.025 C 
ENDROOT
BRANCH   6   8
HETATM    8  C1  UNL     1     -34.987  13.803  -5.154  1.00 20.00     0.227 C 
HETATM    9  O9  UNL     1     -34.874  12.654  -4.738  1.00 20.00    -0.279 OA
HETATM   10 CL10 UNL     1     -34.926  14.303  -6.817  1.00 20.00    -0.043 Cl
ENDBRANCH   6   8
TORSDOF 1
ENDMDL
MODEL 7
REMARK VINA RESULT:      -4.3      1.696      2.028
REMARK  1 active torsions:
REMARK  status: ('A' for Active; 'I' for Inactive)
REMARK    1  A    between atoms: C1_1  and  C7_7 
ROOT
HETATM    1  C2  UNL     1     -33.134  16.336  -4.760  1.00 20.00     0.000 C 
HETATM    2  C3  UNL     1     -33.308  15.590  -3.441  1.00 20.00     0.001 C 
HETATM    3  C4  UNL     1     -34.007  15.739  -5.858  1.00 20.00     0.001 C 
HETATM    4  C5  UNL     1     -34.773  15.541  -3.007  1.00 20.00     0.018 C 
HETATM    5  C6  UNL     1     -35.480  15.693  -5.448  1.00 20.00     0.018 C 
HETATM    6  C7  UNL     1     -35.699  15.000  -4.100  1.00 20.00     0.032 C 
HETATM    7  C8  UNL     1     -35.483  13.497  -4.256  1.00 20.00     0.025 C 
ENDROOT
BRANCH   6   8
HETATM    8  C1  UNL     1     -37.164  15.085  -3.671  1.00 20.00     0.227 C 
HETATM    9  O9  UNL     1     -37.910  14.112  -3.725  1.00 20.00    -0.279 OA
HETATM   10 CL10 UNL     1     -37.595  16.678  -3.127  1.00 20.00    -0.043 Cl
ENDBRANCH   6   8
TORSDOF 1
ENDMDL
MODEL 8
REMARK VINA RESULT:      -4.3      1.991      2.475
REMARK  1 active torsions:
REMARK  status: ('A' for Active; 'I' for Inactive)
REMARK    1  A    between atoms: C1_1  and  C7_7 
ROOT
HETATM    1  C2  UNL     1     -34.962  17.898  -4.500  1.00 20.00     0.000 C 
HETATM    2  C3  UNL     1     -33.625  17.434  -5.068  1.00 20.00     0.001 C 
HETATM    3  C4  UNL     1     -36.096  16.966  -4.910  1.00 20.00     0.001 C 
HETATM    4  C5  UNL     1     -33.313  15.990  -4.675  1.00 20.00     0.018 C 
HETATM    5  C6  UNL     1     -35.809  15.516  -4.513  1.00 20.00     0.018 C 
HETATM    6  C7  UNL     1     -34.450  15.022  -5.016  1.00 20.00     0.032 C 
HETATM    7  C8  UNL     1     -34.508  14.813  -6.527  1.00 20.00     0.025 C 
ENDROOT
BRANCH   6   8
HETATM    8  C1  UNL     1     -34.150  13.616  -4.495  1.00 20.00     0.227 C 
HETATM    9  O9  UNL     1     -34.854  12.655  -4.789  1.00 20.00    -0.279 OA
HETATM   10 CL10 UNL     1     -32.741  13.582  -3.479  1.00 20.00    -0.043 Cl
ENDBRANCH   6   8
TORSDOF 1
ENDMDL
MODEL 9
REMARK VINA RESULT:      -4.3      2.102      3.183
REMARK  1 active torsions:
REMARK  status: ('A' for Active; 'I' for Inactive)
REMARK    1  A    between atoms: C1_1  and  C7_7 
ROOT
HETATM    1  C2  UNL     1     -34.418  16.996  -7.252  1.00 20.00     0.000 C 
HETATM    2  C3  UNL     1     -35.244  15.775  -7.640  1.00 20.00     0.001 C 
HETATM    3  C4  UNL     1     -34.528  17.292  -5.761  1.00 20.00     0.001 C 
HETATM    4  C5  UNL     1     -34.866  14.547  -6.811  1.00 20.00     0.018 C 
HETATM    5  C6  UNL     1     -34.142  16.080  -4.912  1.00 20.00     0.018 C 
HETATM    6  C7  UNL     1     -34.907  14.813  -5.303  1.00 20.00     0.032 C 
HETATM    7  C8  UNL     1     -36.359  14.930  -4.844  1.00 20.00     0.025 C 
ENDROOT
BRANCH   6   8
HETATM    8  C1  UNL     1     -34.404  13.602  -4.517  1.00 20.00     0.227 C 
HETATM    9  O9  UNL     1     -35.007  12.533  -4.522  1.00 20.00    -0.279 OA
HETATM   10 CL10 UNL     1     -32.933  13.945  -3.660  1.00 20.00    -0.043 Cl
ENDBRANCH   6   8
TORSDOF 1
ENDMDL
