MODEL 1
REMARK VINA RESULT:      -4.2      0.000      0.000
REMARK  0 active torsions:
REMARK  status: ('A' for Active; 'I' for Inactive)
ROOT
HETATM    1  C1  UNL     1     -34.502  16.208  -2.349  1.00 20.00     0.132 C 
HETATM    2  C2  UNL     1     -33.769  15.322  -4.818  1.00 20.00     0.064 C 
HETATM    3  C3  UNL     1     -33.360  16.732  -4.412  1.00 20.00     0.128 C 
HETATM    4  C4  UNL     1     -35.110  14.873  -4.225  1.00 20.00     0.051 C 
HETATM    5  C5  UNL     1     -34.595  16.623  -0.915  1.00 20.00     0.099 C 
HETATM    6  C6  UNL     1     -34.018  17.858  -5.195  1.00 20.00     0.040 C 
HETATM    7  C7  UNL     1     -35.186  13.337  -4.280  1.00 20.00     0.040 C 
HETATM    8  C8  UNL     1     -36.324  15.436  -4.974  1.00 20.00     0.040 C 
HETATM    9  N9  UNL     1     -35.224  15.255  -2.817  1.00 20.00    -0.261 NA
HETATM   10  O10 UNL     1     -33.576  16.949  -3.007  1.00 20.00    -0.333 OA
ENDROOT
TORSDOF 0
ENDMDL
MODEL 2
REMARK VINA RESULT:      -4.2      1.382      2.922
REMARK  0 active torsions:
REMARK  status: ('A' for Active; 'I' for Inactive)
ROOT
HETATM    1  C1  UNL     1     -34.135  16.786  -4.842  1.00 20.00     0.132 C 
HETATM    2  C2  UNL     1     -35.565  14.898  -3.498  1.00 20.00     0.064 C 
HETATM    3  C3  UNL     1     -35.375  16.257  -2.838  1.00 20.00     0.128 C 
HETATM    4  C4  UNL     1     -34.382  14.465  -4.373  1.00 20.00     0.051 C 
HETATM    5  C5  UNL     1     -33.644  17.943  -5.654  1.00 20.00     0.099 C 
HETATM    6  C6  UNL     1     -34.518  16.263  -1.581  1.00 20.00     0.040 C 
HETATM    7  C7  UNL     1     -34.859  13.371  -5.345  1.00 20.00     0.040 C 
HETATM    8  C8  UNL     1     -33.205  13.903  -3.567  1.00 20.00     0.040 C 
HETATM    9  N9  UNL     1     -33.889  15.575  -5.189  1.00 20.00    -0.261 NA
HETATM   10  O10 UNL     1     -34.846  17.216  -3.770  1.00 20.00    -0.333 OA
ENDROOT
TORSDOF 0
ENDMDL
MODEL 3
REMARK VINA RESULT:      -4.0      2.099      3.722
REMARK  0 active torsions:
REMARK  status: ('A' for Active; 'I' for Inactive)
ROOT
HETATM    1  C1  UNL     1     -34.634  15.565  -5.885  1.00 20.00     0.132 C 
HETATM    2  C2  UNL     1     -34.687  13.830  -3.787  1.00 20.00     0.064 C 
HETATM    3  C3  UNL     1     -35.996  14.121  -4.509  1.00 20.00     0.128 C 
HETATM    4  C4  UNL     1     -33.721  15.020  -3.755  1.00 20.00     0.051 C 
HETATM    5  C5  UNL     1     -34.611  16.246  -7.217  1.00 20.00     0.099 C 
HETATM    6  C6  UNL     1     -37.040  14.873  -3.697  1.00 20.00     0.040 C 
HETATM    7  C7  UNL     1     -32.302  14.498  -3.464  1.00 20.00     0.040 C 
HETATM    8  C8  UNL     1     -34.074  16.059  -2.684  1.00 20.00     0.040 C 
HETATM    9  N9  UNL     1     -33.667  15.698  -5.050  1.00 20.00    -0.261 NA
HETATM   10  O10 UNL     1     -35.763  14.827  -5.740  1.00 20.00    -0.333 OA
ENDROOT
TORSDOF 0
ENDMDL
MODEL 4
REMARK VINA RESULT:      -4.0      1.577      2.984
REMARK  0 active torsions:
REMARK  status: ('A' for Active; 'I' for Inactive)
ROOT
HETATM    1  C1  UNL     1     -34.473  16.297  -5.536  1.00 20.00     0.132 C 
HETATM    2  C2  UNL     1     -34.748  15.417  -2.973  1.00 20.00     0.064 C 
HETATM    3  C3  UNL     1     -33.357  15.818  -3.448  1.00 20.00     0.128 C 
HETATM    4  C4  UNL     1     -35.626  14.812  -4.075  1.00 20.00     0.051 C 
HETATM    5  C5  UNL     1     -34.318  17.076  -6.804  1.00 20.00     0.099 C 
HETATM    6  C6  UNL     1     -32.346  14.685  -3.552  1.00 20.00     0.040 C 
HETATM    7  C7  UNL     1     -37.099  14.902  -3.640  1.00 20.00     0.040 C 
HETATM    8  C8  UNL     1     -35.307  13.340  -4.366  1.00 20.00     0.040 C 
HETATM    9  N9  UNL     1     -35.505  15.562  -5.325  1.00 20.00    -0.261 NA
HETATM   10  O10 UNL     1     -33.419  16.507  -4.708  1.00 20.00    -0.333 OA
ENDROOT
TORSDOF 0
ENDMDL
MODEL 5
REMARK VINA RESULT:      -4.0      2.523      3.626
REMARK  0 active torsions:
REMARK  status: ('A' for Active; 'I' for Inactive)
ROOT
HETATM    1  C1  UNL     1     -37.059  14.717  -4.593  1.00 20.00     0.132 C 
HETATM    2  C2  UNL     1     -34.929  13.495  -5.771  1.00 20.00     0.064 C 
HETATM    3  C3  UNL     1     -35.109  13.330  -4.267  1.00 20.00     0.128 C 
HETATM    4  C4  UNL     1     -35.410  14.850  -6.304  1.00 20.00     0.051 C 
HETATM    5  C5  UNL     1     -38.361  15.090  -3.957  1.00 20.00     0.099 C 
HETATM    6  C6  UNL     1     -34.042  13.985  -3.402  1.00 20.00     0.040 C 
HETATM    7  C7  UNL     1     -35.640  14.730  -7.822  1.00 20.00     0.040 C 
HETATM    8  C8  UNL     1     -34.408  15.986  -6.065  1.00 20.00     0.040 C 
HETATM    9  N9  UNL     1     -36.689  15.234  -5.709  1.00 20.00    -0.261 NA
HETATM   10  O10 UNL     1     -36.403  13.794  -3.846  1.00 20.00    -0.333 OA
ENDROOT
TORSDOF 0
ENDMDL
MODEL 6
REMARK VINA RESULT:      -4.0      0.974      1.404
REMARK  0 active torsions:
REMARK  status: ('A' for Active; 'I' for Inactive)
ROOT
HETATM    1  C1  UNL     1     -34.802  16.164  -2.186  1.00 20.00     0.132 C 
HETATM    2  C2  UNL     1     -34.991  14.728  -4.492  1.00 20.00     0.064 C 
HETATM    3  C3  UNL     1     -33.643  15.346  -4.141  1.00 20.00     0.128 C 
HETATM    4  C4  UNL     1     -36.192  15.556  -4.021  1.00 20.00     0.051 C 
HETATM    5  C5  UNL     1     -34.561  16.680  -0.802  1.00 20.00     0.099 C 
HETATM    6  C6  UNL     1     -33.169  16.456  -5.068  1.00 20.00     0.040 C 
HETATM    7  C7  UNL     1     -37.433  14.647  -3.979  1.00 20.00     0.040 C 
HETATM    8  C8  UNL     1     -36.505  16.746  -4.937  1.00 20.00     0.040 C 
HETATM    9  N9  UNL     1     -35.989  16.064  -2.664  1.00 20.00    -0.261 NA
HETATM   10  O10 UNL     1     -33.632  15.830  -2.787  1.00 20.00    -0.333 OA
ENDROOT
TORSDOF 0
ENDMDL
MODEL 7
REMARK VINA RESULT:      -4.0      1.620      2.925
REMARK  0 active torsions:
REMARK  status: ('A' for Active; 'I' for Inactive)
ROOT
HETATM    1  C1  UNL     1     -33.670  17.905  -4.240  1.00 20.00     0.132 C 
HETATM    2  C2  UNL     1     -33.589  15.420  -3.129  1.00 20.00     0.064 C 
HETATM    3  C3  UNL     1     -33.255  15.555  -4.610  1.00 20.00     0.128 C 
HETATM    4  C4  UNL     1     -34.632  16.430  -2.637  1.00 20.00     0.051 C 
HETATM    5  C5  UNL     1     -33.390  19.257  -4.816  1.00 20.00     0.099 C 
HETATM    6  C6  UNL     1     -34.246  14.912  -5.568  1.00 20.00     0.040 C 
HETATM    7  C7  UNL     1     -34.531  16.538  -1.105  1.00 20.00     0.040 C 
HETATM    8  C8  UNL     1     -36.071  16.038  -2.992  1.00 20.00     0.040 C 
HETATM    9  N9  UNL     1     -34.375  17.766  -3.175  1.00 20.00    -0.261 NA
HETATM   10  O10 UNL     1     -33.076  16.934  -4.977  1.00 20.00    -0.333 OA
ENDROOT
TORSDOF 0
ENDMDL
MODEL 8
REMARK VINA RESULT:      -3.9      1.981      3.237
REMARK  0 active torsions:
REMARK  status: ('A' for Active; 'I' for Inactive)
ROOT
HETATM    1  C1  UNL     1     -37.002  15.069  -4.236  1.00 20.00     0.132 C 
HETATM    2  C2  UNL     1     -34.556  16.117  -4.813  1.00 20.00     0.064 C 
HETATM    3  C3  UNL     1     -35.451  15.706  -5.975  1.00 20.00     0.128 C 
HETATM    4  C4  UNL     1     -34.725  15.245  -3.564  1.00 20.00     0.051 C 
HETATM    5  C5  UNL     1     -38.453  14.794  -3.992  1.00 20.00     0.099 C 
HETATM    6  C6  UNL     1     -34.956  14.527  -6.800  1.00 20.00     0.040 C 
HETATM    7  C7  UNL     1     -34.177  16.012  -2.347  1.00 20.00     0.040 C 
HETATM    8  C8  UNL     1     -33.983  13.906  -3.653  1.00 20.00     0.040 C 
HETATM    9  N9  UNL     1     -36.136  14.970  -3.293  1.00 20.00    -0.261 NA
HETATM   10  O10 UNL     1     -36.790  15.433  -5.525  1.00 20.00    -0.333 OA
ENDROOT
TORSDOF 0
ENDMDL
MODEL 9
REMARK VINA RESULT:      -3.9      2.432      3.471
REMARK  0 active torsions:
REMARK  status: ('A' for Active; 'I' for Inactive)
ROOT
HETATM    1  C1  UNL     1     -36.549  15.007  -4.431  1.00 20.00     0.132 C 
HETATM    2  C2  UNL     1     -34.513  14.386  -6.130  1.00 20.00     0.064 C 
HETATM    3  C3  UNL     1     -34.698  13.524  -4.887  1.00 20.00     0.128 C 
HETATM    4  C4  UNL     1     -34.901  15.855  -5.926  1.00 20.00     0.051 C 
HETATM    5  C5  UNL     1     -37.820  15.101  -3.647  1.00 20.00     0.099 C 
HETATM    6  C6  UNL     1     -33.585  13.615  -3.853  1.00 20.00     0.040 C 
HETATM    7  C7  UNL     1     -35.145  16.498  -7.303  1.00 20.00     0.040 C 
HETATM    8  C8  UNL     1     -33.823  16.673  -5.205  1.00 20.00     0.040 C 
HETATM    9  N9  UNL     1     -36.149  15.977  -5.172  1.00 20.00    -0.261 NA
HETATM   10  O10 UNL     1     -35.956  13.802  -4.247  1.00 20.00    -0.333 OA
ENDROOT
TORSDOF 0
ENDMDL
