MODEL 1
REMARK VINA RESULT:      -5.2      0.000      0.000
REMARK  0 active torsions:
REMARK  status: ('A' for Active; 'I' for Inactive)
ROOT
HETATM    1  C1  UNL     1     -34.368  16.864  -2.814  1.00 20.00    -0.077 C 
HETATM    2  C2  UNL     1     -34.085  15.847  -3.641  1.00 20.00    -0.077 C 
HETATM    3  C3  UNL     1     -34.810  16.650  -1.391  1.00 20.00     0.034 C 
HETATM    4  C4  UNL     1     -34.243  18.306  -3.233  1.00 20.00     0.034 C 
HETATM    5  C5  UNL     1     -33.643  16.063  -5.065  1.00 20.00     0.034 C 
HETATM    6  C6  UNL     1     -34.210  14.406  -3.221  1.00 20.00     0.034 C 
HETATM    7  C7  UNL     1     -33.922  17.432  -0.423  1.00 20.00     0.004 C 
HETATM    8  C8  UNL     1     -33.358  19.081  -2.256  1.00 20.00     0.004 C 
HETATM    9  C9  UNL     1     -34.530  15.280  -6.033  1.00 20.00     0.004 C 
HETATM   10  C10 UNL     1     -35.095  13.632  -4.198  1.00 20.00     0.004 C 
HETATM   11  C11 UNL     1     -33.822  18.908  -0.809  1.00 20.00     0.001 C 
HETATM   12  C12 UNL     1     -34.631  13.803  -5.646  1.00 20.00     0.001 C 
ENDROOT
TORSDOF 0
ENDMDL
MODEL 2
REMARK VINA RESULT:      -5.2      0.023      4.647
REMARK  0 active torsions:
REMARK  status: ('A' for Active; 'I' for Inactive)
ROOT
HETATM    1  C1  UNL     1     -34.104  15.834  -3.646  1.00 20.00    -0.077 C 
HETATM    2  C2  UNL     1     -34.384  16.853  -2.821  1.00 20.00    -0.077 C 
HETATM    3  C3  UNL     1     -34.234  14.394  -3.226  1.00 20.00     0.034 C 
HETATM    4  C4  UNL     1     -33.658  16.045  -5.070  1.00 20.00     0.034 C 
HETATM    5  C5  UNL     1     -34.253  18.294  -3.243  1.00 20.00     0.034 C 
HETATM    6  C6  UNL     1     -34.830  16.642  -1.398  1.00 20.00     0.034 C 
HETATM    7  C7  UNL     1     -35.121  13.622  -4.202  1.00 20.00     0.004 C 
HETATM    8  C8  UNL     1     -34.547  15.264  -6.038  1.00 20.00     0.004 C 
HETATM    9  C9  UNL     1     -33.366  19.066  -2.265  1.00 20.00     0.004 C 
HETATM   10  C10 UNL     1     -33.940  17.422  -0.430  1.00 20.00     0.004 C 
HETATM   11  C11 UNL     1     -34.653  13.789  -5.649  1.00 20.00     0.001 C 
HETATM   12  C12 UNL     1     -33.834  18.898  -0.818  1.00 20.00     0.001 C 
ENDROOT
TORSDOF 0
ENDMDL
MODEL 3
REMARK VINA RESULT:      -4.9      0.847      4.642
REMARK  0 active torsions:
REMARK  status: ('A' for Active; 'I' for Inactive)
ROOT
HETATM    1  C1  UNL     1     -34.181  16.089  -4.363  1.00 20.00    -0.077 C 
HETATM    2  C2  UNL     1     -34.542  16.839  -3.311  1.00 20.00    -0.077 C 
HETATM    3  C3  UNL     1     -34.459  14.612  -4.436  1.00 20.00     0.034 C 
HETATM    4  C4  UNL     1     -33.488  16.669  -5.569  1.00 20.00     0.034 C 
HETATM    5  C5  UNL     1     -34.263  18.318  -3.239  1.00 20.00     0.034 C 
HETATM    6  C6  UNL     1     -35.234  16.259  -2.106  1.00 20.00     0.034 C 
HETATM    7  C7  UNL     1     -35.207  14.263  -5.723  1.00 20.00     0.004 C 
HETATM    8  C8  UNL     1     -34.240  16.310  -6.851  1.00 20.00     0.004 C 
HETATM    9  C9  UNL     1     -33.516  18.667  -1.951  1.00 20.00     0.004 C 
HETATM   10  C10 UNL     1     -34.482  16.618  -0.824  1.00 20.00     0.004 C 
HETATM   11  C11 UNL     1     -34.491  14.805  -6.961  1.00 20.00     0.001 C 
HETATM   12  C12 UNL     1     -34.231  18.123  -0.713  1.00 20.00     0.001 C 
ENDROOT
TORSDOF 0
ENDMDL
MODEL 4
REMARK VINA RESULT:      -4.8      1.319      4.795
REMARK  0 active torsions:
REMARK  status: ('A' for Active; 'I' for Inactive)
ROOT
HETATM    1  C1  UNL     1     -34.807  15.974  -3.405  1.00 20.00    -0.077 C 
HETATM    2  C2  UNL     1     -35.203  16.668  -2.328  1.00 20.00    -0.077 C 
HETATM    3  C3  UNL     1     -33.730  14.924  -3.339  1.00 20.00     0.034 C 
HETATM    4  C4  UNL     1     -35.425  16.172  -4.765  1.00 20.00     0.034 C 
HETATM    5  C5  UNL     1     -36.280  17.719  -2.395  1.00 20.00     0.034 C 
HETATM    6  C6  UNL     1     -34.586  16.471  -0.968  1.00 20.00     0.034 C 
HETATM    7  C7  UNL     1     -34.229  13.599  -3.917  1.00 20.00     0.004 C 
HETATM    8  C8  UNL     1     -35.914  14.840  -5.337  1.00 20.00     0.004 C 
HETATM    9  C9  UNL     1     -35.783  19.044  -1.816  1.00 20.00     0.004 C 
HETATM   10  C10 UNL     1     -34.096  17.802  -0.397  1.00 20.00     0.004 C 
HETATM   11  C11 UNL     1     -34.817  13.776  -5.318  1.00 20.00     0.001 C 
HETATM   12  C12 UNL     1     -35.194  18.868  -0.415  1.00 20.00     0.001 C 
ENDROOT
TORSDOF 0
ENDMDL
MODEL 5
REMARK VINA RESULT:      -4.8      1.329      1.390
REMARK  0 active torsions:
REMARK  status: ('A' for Active; 'I' for Inactive)
ROOT
HETATM    1  C1  UNL     1     -35.203  16.675  -2.299  1.00 20.00    -0.077 C 
HETATM    2  C2  UNL     1     -34.810  15.980  -3.377  1.00 20.00    -0.077 C 
HETATM    3  C3  UNL     1     -34.575  16.485  -0.943  1.00 20.00     0.034 C 
HETATM    4  C4  UNL     1     -36.288  17.718  -2.360  1.00 20.00     0.034 C 
HETATM    5  C5  UNL     1     -35.439  16.170  -4.733  1.00 20.00     0.034 C 
HETATM    6  C6  UNL     1     -33.725  14.938  -3.316  1.00 20.00     0.034 C 
HETATM    7  C7  UNL     1     -34.090  17.821  -0.379  1.00 20.00     0.004 C 
HETATM    8  C8  UNL     1     -35.795  19.047  -1.788  1.00 20.00     0.004 C 
HETATM    9  C9  UNL     1     -35.923  14.834  -5.298  1.00 20.00     0.004 C 
HETATM   10  C10 UNL     1     -34.219  13.608  -3.887  1.00 20.00     0.004 C 
HETATM   11  C11 UNL     1     -35.195  18.878  -0.392  1.00 20.00     0.001 C 
HETATM   12  C12 UNL     1     -34.819  13.776  -5.284  1.00 20.00     0.001 C 
ENDROOT
TORSDOF 0
ENDMDL
MODEL 6
REMARK VINA RESULT:      -4.8      1.524      2.256
REMARK  0 active torsions:
REMARK  status: ('A' for Active; 'I' for Inactive)
ROOT
HETATM    1  C1  UNL     1     -35.227  16.594  -2.549  1.00 20.00    -0.077 C 
HETATM    2  C2  UNL     1     -35.415  15.505  -3.309  1.00 20.00    -0.077 C 
HETATM    3  C3  UNL     1     -36.090  17.822  -2.671  1.00 20.00     0.034 C 
HETATM    4  C4  UNL     1     -34.153  16.670  -1.495  1.00 20.00     0.034 C 
HETATM    5  C5  UNL     1     -34.551  14.277  -3.186  1.00 20.00     0.034 C 
HETATM    6  C6  UNL     1     -36.488  15.429  -4.362  1.00 20.00     0.034 C 
HETATM    7  C7  UNL     1     -36.675  18.210  -1.313  1.00 20.00     0.004 C 
HETATM    8  C8  UNL     1     -34.748  17.065  -0.142  1.00 20.00     0.004 C 
HETATM    9  C9  UNL     1     -33.966  13.887  -4.545  1.00 20.00     0.004 C 
HETATM   10  C10 UNL     1     -35.893  15.035  -5.714  1.00 20.00     0.004 C 
HETATM   11  C11 UNL     1     -35.591  18.336  -0.241  1.00 20.00     0.001 C 
HETATM   12  C12 UNL     1     -35.050  13.762  -5.616  1.00 20.00     0.001 C 
ENDROOT
TORSDOF 0
ENDMDL
MODEL 7
REMARK VINA RESULT:      -4.8      1.530      5.047
REMARK  0 active torsions:
REMARK  status: ('A' for Active; 'I' for Inactive)
ROOT
HETATM    1  C1  UNL     1     -35.384  15.462  -3.269  1.00 20.00    -0.077 C 
HETATM    2  C2  UNL     1     -35.219  16.571  -2.533  1.00 20.00    -0.077 C 
HETATM    3  C3  UNL     1     -36.465  15.336  -4.309  1.00 20.00     0.034 C 
HETATM    4  C4  UNL     1     -34.486  14.259  -3.131  1.00 20.00     0.034 C 
HETATM    5  C5  UNL     1     -34.137  16.696  -1.492  1.00 20.00     0.034 C 
HETATM    6  C6  UNL     1     -36.116  17.773  -2.671  1.00 20.00     0.034 C 
HETATM    7  C7  UNL     1     -35.874  14.931  -5.659  1.00 20.00     0.004 C 
HETATM    8  C8  UNL     1     -33.905  13.859  -4.488  1.00 20.00     0.004 C 
HETATM    9  C9  UNL     1     -34.728  17.103  -0.142  1.00 20.00     0.004 C 
HETATM   10  C10 UNL     1     -36.697  18.173  -1.314  1.00 20.00     0.004 C 
HETATM   11  C11 UNL     1     -34.997  13.683  -5.544  1.00 20.00     0.001 C 
HETATM   12  C12 UNL     1     -35.606  18.350  -0.256  1.00 20.00     0.001 C 
ENDROOT
TORSDOF 0
ENDMDL
MODEL 8
REMARK VINA RESULT:      -4.8      1.110      5.061
REMARK  0 active torsions:
REMARK  status: ('A' for Active; 'I' for Inactive)
ROOT
HETATM    1  C1  UNL     1     -34.889  16.120  -4.666  1.00 20.00    -0.077 C 
HETATM    2  C2  UNL     1     -34.273  16.579  -3.567  1.00 20.00    -0.077 C 
HETATM    3  C3  UNL     1     -35.009  16.936  -5.925  1.00 20.00     0.034 C 
HETATM    4  C4  UNL     1     -35.489  14.740  -4.740  1.00 20.00     0.034 C 
HETATM    5  C5  UNL     1     -34.153  15.761  -2.307  1.00 20.00     0.034 C 
HETATM    6  C6  UNL     1     -33.672  17.958  -3.493  1.00 20.00     0.034 C 
HETATM    7  C7  UNL     1     -34.468  16.162  -7.128  1.00 20.00     0.004 C 
HETATM    8  C8  UNL     1     -34.947  13.976  -5.949  1.00 20.00     0.004 C 
HETATM    9  C9  UNL     1     -34.693  16.536  -1.104  1.00 20.00     0.004 C 
HETATM   10  C10 UNL     1     -34.215  18.721  -2.285  1.00 20.00     0.004 C 
HETATM   11  C11 UNL     1     -35.103  14.776  -7.243  1.00 20.00     0.001 C 
HETATM   12  C12 UNL     1     -34.058  17.922  -0.989  1.00 20.00     0.001 C 
ENDROOT
TORSDOF 0
ENDMDL
MODEL 9
REMARK VINA RESULT:      -4.8      1.112      2.490
REMARK  0 active torsions:
REMARK  status: ('A' for Active; 'I' for Inactive)
ROOT
HETATM    1  C1  UNL     1     -34.273  16.548  -3.600  1.00 20.00    -0.077 C 
HETATM    2  C2  UNL     1     -34.889  16.089  -4.699  1.00 20.00    -0.077 C 
HETATM    3  C3  UNL     1     -33.673  17.927  -3.526  1.00 20.00     0.034 C 
HETATM    4  C4  UNL     1     -34.151  15.730  -2.341  1.00 20.00     0.034 C 
HETATM    5  C5  UNL     1     -35.489  14.709  -4.773  1.00 20.00     0.034 C 
HETATM    6  C6  UNL     1     -35.011  16.907  -5.958  1.00 20.00     0.034 C 
HETATM    7  C7  UNL     1     -34.216  18.690  -2.318  1.00 20.00     0.004 C 
HETATM    8  C8  UNL     1     -34.690  16.504  -1.137  1.00 20.00     0.004 C 
HETATM    9  C9  UNL     1     -34.948  13.946  -5.982  1.00 20.00     0.004 C 
HETATM   10  C10 UNL     1     -34.471  16.132  -7.161  1.00 20.00     0.004 C 
HETATM   11  C11 UNL     1     -34.057  17.891  -1.023  1.00 20.00     0.001 C 
HETATM   12  C12 UNL     1     -35.106  14.745  -7.277  1.00 20.00     0.001 C 
ENDROOT
TORSDOF 0
ENDMDL
