MODEL 1
REMARK VINA RESULT:      -4.4      0.000      0.000
REMARK  2 active torsions:
REMARK  status: ('A' for Active; 'I' for Inactive)
REMARK    1  A    between atoms: C6_6  and  C7_7 
REMARK    2  A    between atoms: C6_6  and  C8_8 
ROOT
HETATM    1  C1  UNL     1     -34.504  13.692  -4.328  1.00 20.00     0.068 C 
HETATM    2  C4  UNL     1     -32.473  14.808  -3.565  1.00 20.00     0.031 C 
HETATM    3  C5  UNL     1     -33.877  15.846  -5.352  1.00 20.00     0.031 C 
HETATM    4  C8  UNL     1     -33.921  15.026  -4.054  1.00 20.00     0.042 C 
HETATM    5  N9  UNL     1     -34.951  12.642  -4.541  1.00 20.00    -0.196 NA
ENDROOT
BRANCH   4   6
HETATM    6  C6  UNL     1     -34.709  15.754  -2.929  1.00 20.00     0.027 C 
BRANCH   6   7
HETATM    7  C7  UNL     1     -33.929  16.675  -1.960  1.00 20.00    -0.021 C 
HETATM    8  C2  UNL     1     -34.650  16.709  -0.606  1.00 20.00     0.009 C 
HETATM    9  C3  UNL     1     -33.756  18.105  -2.470  1.00 20.00     0.009 C 
ENDBRANCH   6   7
ENDBRANCH   4   6
TORSDOF 2
ENDMDL
MODEL 2
REMARK VINA RESULT:      -4.1      1.496      2.132
REMARK  2 active torsions:
REMARK  status: ('A' for Active; 'I' for Inactive)
REMARK    1  A    between atoms: C6_6  and  C7_7 
REMARK    2  A    between atoms: C6_6  and  C8_8 
ROOT
HETATM    1  C1  UNL     1     -36.495  14.452  -3.996  1.00 20.00     0.068 C 
HETATM    2  C4  UNL     1     -34.526  13.169  -4.651  1.00 20.00     0.031 C 
HETATM    3  C5  UNL     1     -34.909  15.447  -5.602  1.00 20.00     0.031 C 
HETATM    4  C8  UNL     1     -35.060  14.583  -4.341  1.00 20.00     0.042 C 
HETATM    5  N9  UNL     1     -37.618  14.339  -3.729  1.00 20.00    -0.196 NA
ENDROOT
BRANCH   4   6
HETATM    6  C6  UNL     1     -34.252  15.154  -3.142  1.00 20.00     0.027 C 
BRANCH   6   7
HETATM    7  C7  UNL     1     -34.715  16.489  -2.509  1.00 20.00    -0.021 C 
HETATM    8  C2  UNL     1     -33.829  17.628  -3.030  1.00 20.00     0.009 C 
HETATM    9  C3  UNL     1     -34.687  16.492  -0.981  1.00 20.00     0.009 C 
ENDBRANCH   6   7
ENDBRANCH   4   6
TORSDOF 2
ENDMDL
MODEL 3
REMARK VINA RESULT:      -4.1     10.777     11.613
REMARK  2 active torsions:
REMARK  status: ('A' for Active; 'I' for Inactive)
REMARK    1  A    between atoms: C6_6  and  C7_7 
REMARK    2  A    between atoms: C6_6  and  C8_8 
ROOT
HETATM    1  C1  UNL     1     -32.276   8.033   2.146  1.00 20.00     0.068 C 
HETATM    2  C4  UNL     1     -31.840   5.732   2.831  1.00 20.00     0.031 C 
HETATM    3  C5  UNL     1     -31.313   7.621   4.378  1.00 20.00     0.031 C 
HETATM    4  C8  UNL     1     -32.303   7.123   3.315  1.00 20.00     0.042 C 
HETATM    5  N9  UNL     1     -32.251   8.738   1.225  1.00 20.00    -0.196 NA
ENDROOT
BRANCH   4   6
HETATM    6  C6  UNL     1     -33.745   6.986   3.878  1.00 20.00     0.027 C 
BRANCH   6   7
HETATM    7  C7  UNL     1     -34.068   5.782   4.796  1.00 20.00    -0.021 C 
HETATM    8  C2  UNL     1     -35.353   5.104   4.306  1.00 20.00     0.009 C 
HETATM    9  C3  UNL     1     -34.228   6.153   6.269  1.00 20.00     0.009 C 
ENDBRANCH   6   7
ENDBRANCH   4   6
TORSDOF 2
ENDMDL
MODEL 4
REMARK VINA RESULT:      -4.0      1.345      1.972
REMARK  2 active torsions:
REMARK  status: ('A' for Active; 'I' for Inactive)
REMARK    1  A    between atoms: C6_6  and  C7_7 
REMARK    2  A    between atoms: C6_6  and  C8_8 
ROOT
HETATM    1  C1  UNL     1     -34.204  15.218  -5.388  1.00 20.00     0.068 C 
HETATM    2  C4  UNL     1     -35.193  13.327  -4.206  1.00 20.00     0.031 C 
HETATM    3  C5  UNL     1     -32.896  14.112  -3.614  1.00 20.00     0.031 C 
HETATM    4  C8  UNL     1     -34.293  14.572  -4.058  1.00 20.00     0.042 C 
HETATM    5  N9  UNL     1     -34.139  15.715  -6.434  1.00 20.00    -0.196 NA
ENDROOT
BRANCH   4   6
HETATM    6  C6  UNL     1     -34.951  15.526  -3.022  1.00 20.00     0.027 C 
BRANCH   6   7
HETATM    7  C7  UNL     1     -34.034  16.443  -2.177  1.00 20.00    -0.021 C 
HETATM    8  C2  UNL     1     -34.630  16.598  -0.772  1.00 20.00     0.009 C 
HETATM    9  C3  UNL     1     -33.816  17.829  -2.784  1.00 20.00     0.009 C 
ENDBRANCH   6   7
ENDBRANCH   4   6
TORSDOF 2
ENDMDL
MODEL 5
REMARK VINA RESULT:      -4.0      1.061      2.103
REMARK  2 active torsions:
REMARK  status: ('A' for Active; 'I' for Inactive)
REMARK    1  A    between atoms: C6_6  and  C7_7 
REMARK    2  A    between atoms: C6_6  and  C8_8 
ROOT
HETATM    1  C1  UNL     1     -35.066  13.721  -4.236  1.00 20.00     0.068 C 
HETATM    2  C4  UNL     1     -35.176  15.997  -5.109  1.00 20.00     0.031 C 
HETATM    3  C5  UNL     1     -36.836  15.225  -3.408  1.00 20.00     0.031 C 
HETATM    4  C8  UNL     1     -35.370  15.120  -3.853  1.00 20.00     0.042 C 
HETATM    5  N9  UNL     1     -34.827  12.629  -4.546  1.00 20.00    -0.196 NA
ENDROOT
BRANCH   4   6
HETATM    6  C6  UNL     1     -34.389  15.620  -2.756  1.00 20.00     0.027 C 
BRANCH   6   7
HETATM    7  C7  UNL     1     -34.735  16.922  -1.995  1.00 20.00    -0.021 C 
HETATM    8  C2  UNL     1     -33.757  18.027  -2.414  1.00 20.00     0.009 C 
HETATM    9  C3  UNL     1     -34.703  16.777  -0.474  1.00 20.00     0.009 C 
ENDBRANCH   6   7
ENDBRANCH   4   6
TORSDOF 2
ENDMDL
MODEL 6
REMARK VINA RESULT:      -3.9      1.474      3.618
REMARK  2 active torsions:
REMARK  status: ('A' for Active; 'I' for Inactive)
REMARK    1  A    between atoms: C6_6  and  C7_7 
REMARK    2  A    between atoms: C6_6  and  C8_8 
ROOT
HETATM    1  C1  UNL     1     -34.757  13.795  -4.198  1.00 20.00     0.068 C 
HETATM    2  C4  UNL     1     -35.163  15.669  -2.690  1.00 20.00     0.031 C 
HETATM    3  C5  UNL     1     -32.948  15.427  -3.819  1.00 20.00     0.031 C 
HETATM    4  C8  UNL     1     -34.461  15.232  -3.994  1.00 20.00     0.042 C 
HETATM    5  N9  UNL     1     -34.994  12.669  -4.348  1.00 20.00    -0.196 NA
ENDROOT
BRANCH   4   6
HETATM    6  C6  UNL     1     -35.030  16.086  -5.161  1.00 20.00     0.027 C 
BRANCH   6   7
HETATM    7  C7  UNL     1     -34.250  16.122  -6.497  1.00 20.00    -0.021 C 
HETATM    8  C2  UNL     1     -34.451  17.490  -7.163  1.00 20.00     0.009 C 
HETATM    9  C3  UNL     1     -34.655  15.023  -7.479  1.00 20.00     0.009 C 
ENDBRANCH   6   7
ENDBRANCH   4   6
TORSDOF 2
ENDMDL
MODEL 7
REMARK VINA RESULT:      -3.7      1.857      3.725
REMARK  2 active torsions:
REMARK  status: ('A' for Active; 'I' for Inactive)
REMARK    1  A    between atoms: C6_6  and  C7_7 
REMARK    2  A    between atoms: C6_6  and  C8_8 
ROOT
HETATM    1  C1  UNL     1     -36.337  14.592  -3.791  1.00 20.00     0.068 C 
HETATM    2  C4  UNL     1     -34.705  15.743  -2.390  1.00 20.00     0.031 C 
HETATM    3  C5  UNL     1     -34.043  13.695  -3.658  1.00 20.00     0.031 C 
HETATM    4  C8  UNL     1     -34.905  14.965  -3.708  1.00 20.00     0.042 C 
HETATM    5  N9  UNL     1     -37.459  14.303  -3.847  1.00 20.00    -0.196 NA
ENDROOT
BRANCH   4   6
HETATM    6  C6  UNL     1     -34.506  15.896  -4.887  1.00 20.00     0.027 C 
BRANCH   6   7
HETATM    7  C7  UNL     1     -35.299  15.790  -6.212  1.00 20.00    -0.021 C 
HETATM    8  C2  UNL     1     -34.504  14.937  -7.210  1.00 20.00     0.009 C 
HETATM    9  C3  UNL     1     -35.619  17.140  -6.852  1.00 20.00     0.009 C 
ENDBRANCH   6   7
ENDBRANCH   4   6
TORSDOF 2
ENDMDL
MODEL 8
REMARK VINA RESULT:      -3.7      1.378      2.945
REMARK  2 active torsions:
REMARK  status: ('A' for Active; 'I' for Inactive)
REMARK    1  A    between atoms: C6_6  and  C7_7 
REMARK    2  A    between atoms: C6_6  and  C8_8 
ROOT
HETATM    1  C1  UNL     1     -34.677  13.767  -4.156  1.00 20.00     0.068 C 
HETATM    2  C4  UNL     1     -34.741  15.423  -2.365  1.00 20.00     0.031 C 
HETATM    3  C5  UNL     1     -32.682  15.161  -3.756  1.00 20.00     0.031 C 
HETATM    4  C8  UNL     1     -34.218  15.127  -3.787  1.00 20.00     0.042 C 
HETATM    5  N9  UNL     1     -35.040  12.702  -4.436  1.00 20.00    -0.196 NA
ENDROOT
BRANCH   4   6
HETATM    6  C6  UNL     1     -34.807  16.192  -4.752  1.00 20.00     0.027 C 
BRANCH   6   7
HETATM    7  C7  UNL     1     -33.841  16.945  -5.699  1.00 20.00    -0.021 C 
HETATM    8  C2  UNL     1     -33.706  18.400  -5.231  1.00 20.00     0.009 C 
HETATM    9  C3  UNL     1     -34.273  16.929  -7.164  1.00 20.00     0.009 C 
ENDBRANCH   6   7
ENDBRANCH   4   6
TORSDOF 2
ENDMDL
MODEL 9
REMARK VINA RESULT:      -3.7      1.727      2.500
REMARK  2 active torsions:
REMARK  status: ('A' for Active; 'I' for Inactive)
REMARK    1  A    between atoms: C6_6  and  C7_7 
REMARK    2  A    between atoms: C6_6  and  C8_8 
ROOT
HETATM    1  C1  UNL     1     -35.946  15.409  -3.147  1.00 20.00     0.068 C 
HETATM    2  C4  UNL     1     -33.564  15.831  -3.465  1.00 20.00     0.031 C 
HETATM    3  C5  UNL     1     -35.163  17.743  -3.297  1.00 20.00     0.031 C 
HETATM    4  C8  UNL     1     -34.849  16.333  -2.774  1.00 20.00     0.042 C 
HETATM    5  N9  UNL     1     -36.798  14.681  -3.445  1.00 20.00    -0.196 NA
ENDROOT
BRANCH   4   6
HETATM    6  C6  UNL     1     -34.611  16.320  -1.238  1.00 20.00     0.027 C 
BRANCH   6   7
HETATM    7  C7  UNL     1     -34.608  17.669  -0.480  1.00 20.00    -0.021 C 
HETATM    8  C2  UNL     1     -33.164  18.168  -0.343  1.00 20.00     0.009 C 
HETATM    9  C3  UNL     1     -35.248  17.602   0.906  1.00 20.00     0.009 C 
ENDBRANCH   6   7
ENDBRANCH   4   6
TORSDOF 2
ENDMDL
