MODEL 1
REMARK VINA RESULT:      -5.3      0.000      0.000
REMARK  0 active torsions:
REMARK  status: ('A' for Active; 'I' for Inactive)
ROOT
HETATM    1  C1  UNL     1     -36.014  14.384  -4.071  1.00 20.00     0.127 C 
HETATM    2  C2  UNL     1     -34.985  13.343  -4.436  1.00 20.00     0.078 C 
HETATM    3  C3  UNL     1     -35.586  15.831  -4.200  1.00 20.00     0.087 C 
HETATM    4  C4  UNL     1     -33.676  13.611  -3.708  1.00 20.00     0.008 C 
HETATM    5  C5  UNL     1     -34.732  18.561  -1.772  1.00 20.00     0.000 C 
HETATM    6  C6  UNL     1     -35.291  17.207  -1.351  1.00 20.00     0.001 C 
HETATM    7  C7  UNL     1     -34.571  18.660  -3.283  1.00 20.00     0.001 C 
HETATM    8  C8  UNL     1     -33.209  15.055  -3.893  1.00 20.00     0.010 C 
HETATM    9  C9  UNL     1     -34.463  16.049  -1.912  1.00 20.00     0.010 C 
HETATM   10  C10 UNL     1     -33.725  17.512  -3.832  1.00 20.00     0.010 C 
HETATM   11  C11 UNL     1     -34.262  16.108  -3.451  1.00 20.00    -0.034 C 
HETATM   12  O12 UNL     1     -37.168  14.076  -3.774  1.00 20.00    -0.298 OA
ENDROOT
TORSDOF 0
ENDMDL
MODEL 2
REMARK VINA RESULT:      -5.2      2.212      3.442
REMARK  0 active torsions:
REMARK  status: ('A' for Active; 'I' for Inactive)
ROOT
HETATM    1  C1  UNL     1     -34.409  13.549  -4.633  1.00 20.00     0.127 C 
HETATM    2  C2  UNL     1     -33.247  13.919  -3.744  1.00 20.00     0.078 C 
HETATM    3  C3  UNL     1     -34.544  14.326  -5.926  1.00 20.00     0.087 C 
HETATM    4  C4  UNL     1     -33.219  15.421  -3.505  1.00 20.00     0.008 C 
HETATM    5  C5  UNL     1     -36.881  16.978  -7.183  1.00 20.00     0.000 C 
HETATM    6  C6  UNL     1     -37.074  16.246  -5.860  1.00 20.00     0.001 C 
HETATM    7  C7  UNL     1     -35.636  16.497  -7.917  1.00 20.00     0.001 C 
HETATM    8  C8  UNL     1     -33.288  16.207  -4.815  1.00 20.00     0.010 C 
HETATM    9  C9  UNL     1     -35.828  16.325  -4.977  1.00 20.00     0.010 C 
HETATM   10  C10 UNL     1     -34.393  16.600  -7.035  1.00 20.00     0.010 C 
HETATM   11  C11 UNL     1     -34.527  15.853  -5.683  1.00 20.00    -0.034 C 
HETATM   12  O12 UNL     1     -35.151  12.604  -4.367  1.00 20.00    -0.298 OA
ENDROOT
TORSDOF 0
ENDMDL
MODEL 3
REMARK VINA RESULT:      -4.9      1.599      2.186
REMARK  0 active torsions:
REMARK  status: ('A' for Active; 'I' for Inactive)
ROOT
HETATM    1  C1  UNL     1     -35.199  13.810  -4.992  1.00 20.00     0.127 C 
HETATM    2  C2  UNL     1     -34.978  14.074  -6.461  1.00 20.00     0.078 C 
HETATM    3  C3  UNL     1     -35.869  14.915  -4.201  1.00 20.00     0.087 C 
HETATM    4  C4  UNL     1     -34.284  15.412  -6.662  1.00 20.00     0.008 C 
HETATM    5  C5  UNL     1     -34.716  17.404  -1.642  1.00 20.00     0.000 C 
HETATM    6  C6  UNL     1     -33.837  16.279  -2.174  1.00 20.00     0.001 C 
HETATM    7  C7  UNL     1     -36.103  17.383  -2.272  1.00 20.00     0.001 C 
HETATM    8  C8  UNL     1     -34.998  16.540  -5.918  1.00 20.00     0.010 C 
HETATM    9  C9  UNL     1     -33.767  16.285  -3.702  1.00 20.00     0.010 C 
HETATM   10  C10 UNL     1     -36.023  17.412  -3.798  1.00 20.00     0.010 C 
HETATM   11  C11 UNL     1     -35.157  16.273  -4.395  1.00 20.00    -0.034 C 
HETATM   12  O12 UNL     1     -34.934  12.721  -4.483  1.00 20.00    -0.298 OA
ENDROOT
TORSDOF 0
ENDMDL
MODEL 4
REMARK VINA RESULT:      -4.9      1.931      3.433
REMARK  0 active torsions:
REMARK  status: ('A' for Active; 'I' for Inactive)
ROOT
HETATM    1  C1  UNL     1     -37.692  14.943  -4.510  1.00 20.00     0.127 C 
HETATM    2  C2  UNL     1     -38.194  15.368  -5.868  1.00 20.00     0.078 C 
HETATM    3  C3  UNL     1     -36.384  15.555  -4.052  1.00 20.00     0.087 C 
HETATM    4  C4  UNL     1     -37.101  15.209  -6.913  1.00 20.00     0.008 C 
HETATM    5  C5  UNL     1     -32.875  14.292  -3.647  1.00 20.00     0.000 C 
HETATM    6  C6  UNL     1     -34.056  13.394  -3.992  1.00 20.00     0.001 C 
HETATM    7  C7  UNL     1     -33.299  15.746  -3.488  1.00 20.00     0.001 C 
HETATM    8  C8  UNL     1     -35.799  15.884  -6.481  1.00 20.00     0.010 C 
HETATM    9  C9  UNL     1     -34.819  13.900  -5.217  1.00 20.00     0.010 C 
HETATM   10  C10 UNL     1     -34.042  16.250  -4.725  1.00 20.00     0.010 C 
HETATM   11  C11 UNL     1     -35.268  15.383  -5.109  1.00 20.00    -0.034 C 
HETATM   12  O12 UNL     1     -38.354  14.211  -3.775  1.00 20.00    -0.298 OA
ENDROOT
TORSDOF 0
ENDMDL
MODEL 5
REMARK VINA RESULT:      -4.9      2.531      4.331
REMARK  0 active torsions:
REMARK  status: ('A' for Active; 'I' for Inactive)
ROOT
HETATM    1  C1  UNL     1     -33.576  16.093  -4.575  1.00 20.00     0.127 C 
HETATM    2  C2  UNL     1     -33.028  15.067  -3.615  1.00 20.00     0.078 C 
HETATM    3  C3  UNL     1     -35.083  16.149  -4.718  1.00 20.00     0.087 C 
HETATM    4  C4  UNL     1     -33.618  13.696  -3.910  1.00 20.00     0.008 C 
HETATM    5  C5  UNL     1     -37.524  15.134  -7.379  1.00 20.00     0.000 C 
HETATM    6  C6  UNL     1     -36.013  15.100  -7.569  1.00 20.00     0.001 C 
HETATM    7  C7  UNL     1     -37.907  15.629  -5.990  1.00 20.00     0.001 C 
HETATM    8  C8  UNL     1     -35.144  13.739  -3.988  1.00 20.00     0.010 C 
HETATM    9  C9  UNL     1     -35.318  14.298  -6.467  1.00 20.00     0.010 C 
HETATM   10  C10 UNL     1     -37.226  14.809  -4.896  1.00 20.00     0.010 C 
HETATM   11  C11 UNL     1     -35.682  14.759  -5.029  1.00 20.00    -0.034 C 
HETATM   12  O12 UNL     1     -32.843  16.905  -5.142  1.00 20.00    -0.298 OA
ENDROOT
TORSDOF 0
ENDMDL
MODEL 6
REMARK VINA RESULT:      -4.9      1.996      4.257
REMARK  0 active torsions:
REMARK  status: ('A' for Active; 'I' for Inactive)
ROOT
HETATM    1  C1  UNL     1     -33.846  18.092  -3.682  1.00 20.00     0.127 C 
HETATM    2  C2  UNL     1     -33.653  18.602  -2.275  1.00 20.00     0.078 C 
HETATM    3  C3  UNL     1     -34.987  17.119  -3.897  1.00 20.00     0.087 C 
HETATM    4  C4  UNL     1     -33.598  17.442  -1.293  1.00 20.00     0.008 C 
HETATM    5  C5  UNL     1     -35.229  13.434  -4.554  1.00 20.00     0.000 C 
HETATM    6  C6  UNL     1     -33.911  14.197  -4.528  1.00 20.00     0.001 C 
HETATM    7  C7  UNL     1     -36.416  14.349  -4.285  1.00 20.00     0.001 C 
HETATM    8  C8  UNL     1     -34.786  16.495  -1.465  1.00 20.00     0.010 C 
HETATM    9  C9  UNL     1     -33.736  14.990  -3.231  1.00 20.00     0.010 C 
HETATM   10  C10 UNL     1     -36.244  15.120  -2.978  1.00 20.00     0.010 C 
HETATM   11  C11 UNL     1     -34.926  15.934  -2.907  1.00 20.00    -0.034 C 
HETATM   12  O12 UNL     1     -33.172  18.514  -4.622  1.00 20.00    -0.298 OA
ENDROOT
TORSDOF 0
ENDMDL
MODEL 7
REMARK VINA RESULT:      -4.7      1.205      1.275
REMARK  0 active torsions:
REMARK  status: ('A' for Active; 'I' for Inactive)
ROOT
HETATM    1  C1  UNL     1     -36.574  14.909  -4.323  1.00 20.00     0.127 C 
HETATM    2  C2  UNL     1     -35.848  14.472  -5.571  1.00 20.00     0.078 C 
HETATM    3  C3  UNL     1     -36.324  16.329  -3.858  1.00 20.00     0.087 C 
HETATM    4  C4  UNL     1     -34.362  14.774  -5.454  1.00 20.00     0.008 C 
HETATM    5  C5  UNL     1     -34.429  17.883  -1.017  1.00 20.00     0.000 C 
HETATM    6  C6  UNL     1     -34.644  16.382  -1.161  1.00 20.00     0.001 C 
HETATM    7  C7  UNL     1     -35.077  18.658  -2.157  1.00 20.00     0.001 C 
HETATM    8  C8  UNL     1     -34.106  16.226  -5.049  1.00 20.00     0.010 C 
HETATM    9  C9  UNL     1     -34.187  15.869  -2.528  1.00 20.00     0.010 C 
HETATM   10  C10 UNL     1     -34.598  18.154  -3.518  1.00 20.00     0.010 C 
HETATM   11  C11 UNL     1     -34.813  16.633  -3.727  1.00 20.00    -0.034 C 
HETATM   12  O12 UNL     1     -37.396  14.183  -3.765  1.00 20.00    -0.298 OA
ENDROOT
TORSDOF 0
ENDMDL
MODEL 8
REMARK VINA RESULT:      -4.7      2.231      3.532
REMARK  0 active torsions:
REMARK  status: ('A' for Active; 'I' for Inactive)
ROOT
HETATM    1  C1  UNL     1     -37.305  15.492  -5.845  1.00 20.00     0.127 C 
HETATM    2  C2  UNL     1     -37.359  15.471  -7.352  1.00 20.00     0.078 C 
HETATM    3  C3  UNL     1     -36.021  16.001  -5.222  1.00 20.00     0.087 C 
HETATM    4  C4  UNL     1     -36.139  14.762  -7.918  1.00 20.00     0.008 C 
HETATM    5  C5  UNL     1     -33.148  14.404  -3.414  1.00 20.00     0.000 C 
HETATM    6  C6  UNL     1     -34.414  13.653  -3.809  1.00 20.00     0.001 C 
HETATM    7  C7  UNL     1     -33.203  15.865  -3.840  1.00 20.00     0.001 C 
HETATM    8  C8  UNL     1     -34.838  15.320  -7.340  1.00 20.00     0.010 C 
HETATM    9  C9  UNL     1     -34.722  13.799  -5.300  1.00 20.00     0.010 C 
HETATM   10  C10 UNL     1     -33.489  16.001  -5.335  1.00 20.00     0.010 C 
HETATM   11  C11 UNL     1     -34.780  15.272  -5.788  1.00 20.00    -0.034 C 
HETATM   12  O12 UNL     1     -38.284  15.201  -5.158  1.00 20.00    -0.298 OA
ENDROOT
TORSDOF 0
ENDMDL
MODEL 9
REMARK VINA RESULT:      -4.7      2.107      3.944
REMARK  0 active torsions:
REMARK  status: ('A' for Active; 'I' for Inactive)
ROOT
HETATM    1  C1  UNL     1     -36.024  16.859  -3.122  1.00 20.00     0.127 C 
HETATM    2  C2  UNL     1     -35.157  16.660  -1.904  1.00 20.00     0.078 C 
HETATM    3  C3  UNL     1     -36.023  15.739  -4.143  1.00 20.00     0.087 C 
HETATM    4  C4  UNL     1     -33.745  16.273  -2.314  1.00 20.00     0.008 C 
HETATM    5  C5  UNL     1     -34.583  15.299  -7.578  1.00 20.00     0.000 C 
HETATM    6  C6  UNL     1     -34.558  16.621  -6.821  1.00 20.00     0.001 C 
HETATM    7  C7  UNL     1     -35.260  14.199  -6.772  1.00 20.00     0.001 C 
HETATM    8  C8  UNL     1     -33.739  15.099  -3.294  1.00 20.00     0.010 C 
HETATM    9  C9  UNL     1     -33.937  16.470  -5.431  1.00 20.00     0.010 C 
HETATM   10  C10 UNL     1     -34.619  14.041  -5.394  1.00 20.00     0.010 C 
HETATM   11  C11 UNL     1     -34.588  15.354  -4.570  1.00 20.00    -0.034 C 
HETATM   12  O12 UNL     1     -36.765  17.835  -3.237  1.00 20.00    -0.298 OA
ENDROOT
TORSDOF 0
ENDMDL
