MODEL 1
REMARK VINA RESULT:      -5.1      0.000      0.000
REMARK  3 active torsions:
REMARK  status: ('A' for Active; 'I' for Inactive)
REMARK    1  A    between atoms: C5_5  and  C8_8 
REMARK    2  A    between atoms: C6_6  and  O10_10 
REMARK    3  A    between atoms: C8_8  and  C9_9 
ROOT
HETATM    1  C1  UNL     1     -33.527   6.028   2.809  1.00 20.00     0.007 C 
HETATM    2  C2  UNL     1     -33.343   6.849   5.195  1.00 20.00     0.007 C 
HETATM    3  C3  UNL     1     -34.275   4.791   3.296  1.00 20.00     0.032 C 
HETATM    4  C4  UNL     1     -34.091   5.609   5.675  1.00 20.00     0.032 C 
HETATM    5  C5  UNL     1     -32.583   6.580   3.887  1.00 20.00    -0.014 C 
HETATM    6  C6  UNL     1     -35.025   5.062   4.598  1.00 20.00     0.118 C 
ENDROOT
BRANCH   5   7
HETATM    7  C8  UNL     1     -31.888   7.848   3.398  1.00 20.00     0.004 C 
BRANCH   7   8
HETATM    8  C9  UNL     1     -32.076   8.038   1.896  1.00 20.00    -0.004 C 
HETATM    9  C7  UNL     1     -32.404   9.484   1.561  1.00 20.00     0.005 C 
ENDBRANCH   7   8
ENDBRANCH   5   7
BRANCH   6  10
HETATM   10  O10 UNL     1     -35.609   3.854   5.075  1.00 20.00    -0.396 OA
HETATM   11  H28 UNL     1     -36.190   3.529   4.368  1.00 20.00     0.210 HD
ENDBRANCH   6  10
TORSDOF 3
ENDMDL
MODEL 2
REMARK VINA RESULT:      -5.1      0.880      1.792
REMARK  3 active torsions:
REMARK  status: ('A' for Active; 'I' for Inactive)
REMARK    1  A    between atoms: C5_5  and  C8_8 
REMARK    2  A    between atoms: C6_6  and  O10_10 
REMARK    3  A    between atoms: C8_8  and  C9_9 
ROOT
HETATM    1  C1  UNL     1     -32.935   6.680   5.026  1.00 20.00     0.007 C 
HETATM    2  C2  UNL     1     -33.945   5.387   3.100  1.00 20.00     0.007 C 
HETATM    3  C3  UNL     1     -34.035   6.160   5.947  1.00 20.00     0.032 C 
HETATM    4  C4  UNL     1     -35.042   4.872   4.027  1.00 20.00     0.032 C 
HETATM    5  C5  UNL     1     -33.405   6.748   3.566  1.00 20.00    -0.014 C 
HETATM    6  C6  UNL     1     -34.572   4.810   5.478  1.00 20.00     0.118 C 
ENDROOT
BRANCH   5   7
HETATM    7  C8  UNL     1     -32.272   7.217   2.656  1.00 20.00     0.004 C 
BRANCH   7   8
HETATM    8  C9  UNL     1     -32.434   8.688   2.286  1.00 20.00    -0.004 C 
HETATM    9  C7  UNL     1     -32.039   8.938   0.840  1.00 20.00     0.005 C 
ENDBRANCH   7   8
ENDBRANCH   5   7
BRANCH   6  10
HETATM   10  O10 UNL     1     -35.670   4.421   6.296  1.00 20.00    -0.396 OA
HETATM   11  H28 UNL     1     -35.719   3.453   6.254  1.00 20.00     0.210 HD
ENDBRANCH   6  10
TORSDOF 3
ENDMDL
MODEL 3
REMARK VINA RESULT:      -4.7     10.838     11.639
REMARK  3 active torsions:
REMARK  status: ('A' for Active; 'I' for Inactive)
REMARK    1  A    between atoms: C5_5  and  C8_8 
REMARK    2  A    between atoms: C6_6  and  O10_10 
REMARK    3  A    between atoms: C8_8  and  C9_9 
ROOT
HETATM    1  C1  UNL     1     -32.996  15.370  -3.372  1.00 20.00     0.007 C 
HETATM    2  C2  UNL     1     -35.467  15.914  -3.379  1.00 20.00     0.007 C 
HETATM    3  C3  UNL     1     -33.315  13.932  -3.769  1.00 20.00     0.032 C 
HETATM    4  C4  UNL     1     -35.778  14.474  -3.775  1.00 20.00     0.032 C 
HETATM    5  C5  UNL     1     -34.152  16.011  -2.591  1.00 20.00    -0.014 C 
HETATM    6  C6  UNL     1     -34.625  13.840  -4.549  1.00 20.00     0.118 C 
ENDROOT
BRANCH   5   7
HETATM    7  C8  UNL     1     -33.833  17.466  -2.252  1.00 20.00     0.004 C 
BRANCH   7   8
HETATM    8  C9  UNL     1     -33.632  17.653  -0.752  1.00 20.00    -0.004 C 
HETATM    9  C7  UNL     1     -34.833  17.147   0.031  1.00 20.00     0.005 C 
ENDBRANCH   7   8
ENDBRANCH   5   7
BRANCH   6  10
HETATM   10  O10 UNL     1     -34.940  12.474  -4.795  1.00 20.00    -0.396 OA
HETATM   11  H28 UNL     1     -35.017  12.375  -5.758  1.00 20.00     0.210 HD
ENDBRANCH   6  10
TORSDOF 3
ENDMDL
MODEL 4
REMARK VINA RESULT:      -4.5     10.788     11.728
REMARK  3 active torsions:
REMARK  status: ('A' for Active; 'I' for Inactive)
REMARK    1  A    between atoms: C5_5  and  C8_8 
REMARK    2  A    between atoms: C6_6  and  O10_10 
REMARK    3  A    between atoms: C8_8  and  C9_9 
ROOT
HETATM    1  C1  UNL     1     -35.967  15.705  -3.109  1.00 20.00     0.007 C 
HETATM    2  C2  UNL     1     -33.440  15.580  -3.111  1.00 20.00     0.007 C 
HETATM    3  C3  UNL     1     -36.024  14.488  -4.028  1.00 20.00     0.032 C 
HETATM    4  C4  UNL     1     -33.505  14.364  -4.030  1.00 20.00     0.032 C 
HETATM    5  C5  UNL     1     -34.662  16.493  -3.294  1.00 20.00    -0.014 C 
HETATM    6  C6  UNL     1     -34.805  13.587  -3.845  1.00 20.00     0.118 C 
ENDROOT
BRANCH   5   7
HETATM    7  C8  UNL     1     -34.602  17.673  -2.326  1.00 20.00     0.004 C 
BRANCH   7   8
HETATM    8  C9  UNL     1     -33.892  17.291  -1.032  1.00 20.00    -0.004 C 
HETATM    9  C7  UNL     1     -34.867  17.221   0.132  1.00 20.00     0.005 C 
ENDBRANCH   7   8
ENDBRANCH   5   7
BRANCH   6  10
HETATM   10  O10 UNL     1     -34.843  12.532  -4.801  1.00 20.00    -0.396 OA
HETATM   11  H28 UNL     1     -35.002  11.713  -4.304  1.00 20.00     0.210 HD
ENDBRANCH   6  10
TORSDOF 3
ENDMDL
MODEL 5
REMARK VINA RESULT:      -4.4     11.703     12.674
REMARK  3 active torsions:
REMARK  status: ('A' for Active; 'I' for Inactive)
REMARK    1  A    between atoms: C5_5  and  C8_8 
REMARK    2  A    between atoms: C6_6  and  O10_10 
REMARK    3  A    between atoms: C8_8  and  C9_9 
ROOT
HETATM    1  C1  UNL     1     -33.857  17.094  -3.662  1.00 20.00     0.007 C 
HETATM    2  C2  UNL     1     -34.984  14.848  -3.369  1.00 20.00     0.007 C 
HETATM    3  C3  UNL     1     -33.366  16.663  -5.041  1.00 20.00     0.032 C 
HETATM    4  C4  UNL     1     -34.489  14.424  -4.749  1.00 20.00     0.032 C 
HETATM    5  C5  UNL     1     -34.054  15.890  -2.730  1.00 20.00    -0.014 C 
HETATM    6  C6  UNL     1     -34.292  15.625  -5.670  1.00 20.00     0.118 C 
ENDROOT
BRANCH   5   7
HETATM    7  C8  UNL     1     -34.598  16.339  -1.375  1.00 20.00     0.004 C 
BRANCH   7   8
HETATM    8  C9  UNL     1     -33.795  17.509  -0.818  1.00 20.00    -0.004 C 
HETATM    9  C7  UNL     1     -34.343  17.963   0.525  1.00 20.00     0.005 C 
ENDBRANCH   7   8
ENDBRANCH   5   7
BRANCH   6  10
HETATM   10  O10 UNL     1     -33.734  15.168  -6.898  1.00 20.00    -0.396 OA
HETATM   11  H28 UNL     1     -34.441  15.222  -7.561  1.00 20.00     0.210 HD
ENDBRANCH   6  10
TORSDOF 3
ENDMDL
MODEL 6
REMARK VINA RESULT:      -4.2     11.494     12.502
REMARK  3 active torsions:
REMARK  status: ('A' for Active; 'I' for Inactive)
REMARK    1  A    between atoms: C5_5  and  C8_8 
REMARK    2  A    between atoms: C6_6  and  O10_10 
REMARK    3  A    between atoms: C8_8  and  C9_9 
ROOT
HETATM    1  C1  UNL     1     -34.124  16.639  -4.808  1.00 20.00     0.007 C 
HETATM    2  C2  UNL     1     -34.605  14.487  -3.569  1.00 20.00     0.007 C 
HETATM    3  C3  UNL     1     -34.300  15.908  -6.137  1.00 20.00     0.032 C 
HETATM    4  C4  UNL     1     -34.780  13.763  -4.901  1.00 20.00     0.032 C 
HETATM    5  C5  UNL     1     -33.656  15.688  -3.698  1.00 20.00    -0.014 C 
HETATM    6  C6  UNL     1     -35.242  14.714  -6.002  1.00 20.00     0.118 C 
ENDROOT
BRANCH   5   7
HETATM    7  C8  UNL     1     -33.539  16.428  -2.367  1.00 20.00     0.004 C 
BRANCH   7   8
HETATM    8  C9  UNL     1     -34.803  16.263  -1.531  1.00 20.00    -0.004 C 
HETATM    9  C7  UNL     1     -34.713  17.054  -0.236  1.00 20.00     0.005 C 
ENDBRANCH   7   8
ENDBRANCH   5   7
BRANCH   6  10
HETATM   10  O10 UNL     1     -35.284  13.997  -7.232  1.00 20.00    -0.396 OA
HETATM   11  H28 UNL     1     -34.364  13.802  -7.472  1.00 20.00     0.210 HD
ENDBRANCH   6  10
TORSDOF 3
ENDMDL
MODEL 7
REMARK VINA RESULT:      -4.2      9.657     11.109
REMARK  3 active torsions:
REMARK  status: ('A' for Active; 'I' for Inactive)
REMARK    1  A    between atoms: C5_5  and  C8_8 
REMARK    2  A    between atoms: C6_6  and  O10_10 
REMARK    3  A    between atoms: C8_8  and  C9_9 
ROOT
HETATM    1  C1  UNL     1     -42.865   5.404  -2.887  1.00 20.00     0.007 C 
HETATM    2  C2  UNL     1     -41.070   4.335  -1.459  1.00 20.00     0.007 C 
HETATM    3  C3  UNL     1     -42.624   6.737  -2.185  1.00 20.00     0.032 C 
HETATM    4  C4  UNL     1     -40.835   5.671  -0.762  1.00 20.00     0.032 C 
HETATM    5  C5  UNL     1     -42.510   4.216  -1.982  1.00 20.00    -0.014 C 
HETATM    6  C6  UNL     1     -41.193   6.849  -1.664  1.00 20.00     0.118 C 
ENDROOT
BRANCH   5   7
HETATM    7  C8  UNL     1     -42.706   2.895  -2.724  1.00 20.00     0.004 C 
BRANCH   7   8
HETATM    8  C9  UNL     1     -41.395   2.397  -3.322  1.00 20.00    -0.004 C 
HETATM    9  C7  UNL     1     -41.574   1.044  -3.991  1.00 20.00     0.005 C 
ENDBRANCH   7   8
ENDBRANCH   5   7
BRANCH   6  10
HETATM   10  O10 UNL     1     -41.048   8.053  -0.918  1.00 20.00    -0.396 OA
HETATM   11  H28 UNL     1     -41.944   8.364  -0.715  1.00 20.00     0.210 HD
ENDBRANCH   6  10
TORSDOF 3
ENDMDL
MODEL 8
REMARK VINA RESULT:      -4.0     10.988     12.752
REMARK  3 active torsions:
REMARK  status: ('A' for Active; 'I' for Inactive)
REMARK    1  A    between atoms: C5_5  and  C8_8 
REMARK    2  A    between atoms: C6_6  and  O10_10 
REMARK    3  A    between atoms: C8_8  and  C9_9 
ROOT
HETATM    1  C1  UNL     1     -35.035  15.951  -5.705  1.00 20.00     0.007 C 
HETATM    2  C2  UNL     1     -33.295  15.758  -3.879  1.00 20.00     0.007 C 
HETATM    3  C3  UNL     1     -35.312  14.454  -5.593  1.00 20.00     0.032 C 
HETATM    4  C4  UNL     1     -33.578  14.262  -3.773  1.00 20.00     0.032 C 
HETATM    5  C5  UNL     1     -33.597  16.292  -5.286  1.00 20.00    -0.014 C 
HETATM    6  C6  UNL     1     -35.006  13.927  -4.193  1.00 20.00     0.118 C 
ENDROOT
BRANCH   5   7
HETATM    7  C8  UNL     1     -33.359  17.799  -5.353  1.00 20.00     0.004 C 
BRANCH   7   8
HETATM    8  C9  UNL     1     -33.668  18.467  -4.018  1.00 20.00    -0.004 C 
HETATM    9  C7  UNL     1     -34.980  19.232  -4.075  1.00 20.00     0.005 C 
ENDBRANCH   7   8
ENDBRANCH   5   7
BRANCH   6  10
HETATM   10  O10 UNL     1     -35.167  12.513  -4.168  1.00 20.00    -0.396 OA
HETATM   11  H28 UNL     1     -35.066  12.238  -3.243  1.00 20.00     0.210 HD
ENDBRANCH   6  10
TORSDOF 3
ENDMDL
MODEL 9
REMARK VINA RESULT:      -4.0     11.206     12.480
REMARK  3 active torsions:
REMARK  status: ('A' for Active; 'I' for Inactive)
REMARK    1  A    between atoms: C5_5  and  C8_8 
REMARK    2  A    between atoms: C6_6  and  O10_10 
REMARK    3  A    between atoms: C8_8  and  C9_9 
ROOT
HETATM    1  C1  UNL     1     -34.749  16.021  -1.725  1.00 20.00     0.007 C 
HETATM    2  C2  UNL     1     -33.742  17.853  -3.149  1.00 20.00     0.007 C 
HETATM    3  C3  UNL     1     -34.650  16.925  -0.499  1.00 20.00     0.032 C 
HETATM    4  C4  UNL     1     -33.646  18.751  -1.919  1.00 20.00     0.032 C 
HETATM    5  C5  UNL     1     -33.679  16.366  -2.770  1.00 20.00    -0.014 C 
HETATM    6  C6  UNL     1     -34.709  18.402  -0.881  1.00 20.00     0.118 C 
ENDROOT
BRANCH   5   7
HETATM    7  C8  UNL     1     -33.833  15.487  -4.009  1.00 20.00     0.004 C 
BRANCH   7   8
HETATM    8  C9  UNL     1     -33.906  14.011  -3.634  1.00 20.00    -0.004 C 
HETATM    9  C7  UNL     1     -35.080  13.327  -4.316  1.00 20.00     0.005 C 
ENDBRANCH   7   8
ENDBRANCH   5   7
BRANCH   6  10
HETATM   10  O10 UNL     1     -34.496  19.205   0.275  1.00 20.00    -0.396 OA
HETATM   11  H28 UNL     1     -35.357  19.585   0.512  1.00 20.00     0.210 HD
ENDBRANCH   6  10
TORSDOF 3
ENDMDL
