MODEL 1
REMARK VINA RESULT:      -3.3      0.000      0.000
REMARK  3 active torsions:
REMARK  status: ('A' for Active; 'I' for Inactive)
REMARK    1  A    between atoms: C3_3  and  C4_4 
REMARK    2  A    between atoms: C3_3  and  N5_5 
REMARK    3  A    between atoms: C4_4  and  O6_6 
ROOT
HETATM    1  C1  UNL     1     -32.335   7.139   2.795  1.00 20.00     0.157 C 
HETATM    2  N5  UNL     1     -32.526   6.169   3.428  1.00 20.00    -0.273 NA
HETATM    3  S7  UNL     1     -32.052   8.440   1.922  1.00 20.00    -0.055 SA
ENDROOT
BRANCH   2   4
HETATM    4  C3  UNL     1     -33.702   6.225   4.302  1.00 20.00     0.176 C 
BRANCH   4   5
HETATM    5  C4  UNL     1     -34.814   5.392   3.691  1.00 20.00     0.189 C 
BRANCH   5   6
HETATM    6  O6  UNL     1     -35.210   4.386   4.615  1.00 20.00    -0.394 OA
HETATM    7  C2  UNL     1     -34.906   4.759   5.953  1.00 20.00     0.201 C 
ENDBRANCH   5   6
ENDBRANCH   4   5
ENDBRANCH   2   4
TORSDOF 3
ENDMDL
MODEL 2
REMARK VINA RESULT:      -3.2      1.573      1.825
REMARK  3 active torsions:
REMARK  status: ('A' for Active; 'I' for Inactive)
REMARK    1  A    between atoms: C3_3  and  C4_4 
REMARK    2  A    between atoms: C3_3  and  N5_5 
REMARK    3  A    between atoms: C4_4  and  O6_6 
ROOT
HETATM    1  C1  UNL     1     -33.339   6.014   3.067  1.00 20.00     0.157 C 
HETATM    2  N5  UNL     1     -34.219   5.243   2.970  1.00 20.00    -0.273 NA
HETATM    3  S7  UNL     1     -32.132   7.048   3.172  1.00 20.00    -0.055 SA
ENDROOT
BRANCH   2   4
HETATM    4  C3  UNL     1     -35.262   5.368   3.992  1.00 20.00     0.176 C 
BRANCH   4   5
HETATM    5  C4  UNL     1     -34.897   4.503   5.184  1.00 20.00     0.189 C 
BRANCH   5   6
HETATM    6  O6  UNL     1     -35.049   5.259   6.379  1.00 20.00    -0.394 OA
HETATM    7  C2  UNL     1     -34.120   6.333   6.437  1.00 20.00     0.201 C 
ENDBRANCH   5   6
ENDBRANCH   4   5
ENDBRANCH   2   4
TORSDOF 3
ENDMDL
MODEL 3
REMARK VINA RESULT:      -3.0      3.253      4.474
REMARK  3 active torsions:
REMARK  status: ('A' for Active; 'I' for Inactive)
REMARK    1  A    between atoms: C3_3  and  C4_4 
REMARK    2  A    between atoms: C3_3  and  N5_5 
REMARK    3  A    between atoms: C4_4  and  O6_6 
ROOT
HETATM    1  C1  UNL     1     -34.253   5.771   4.684  1.00 20.00     0.157 C 
HETATM    2  N5  UNL     1     -33.891   6.447   3.796  1.00 20.00    -0.273 NA
HETATM    3  S7  UNL     1     -34.772   4.867   5.889  1.00 20.00    -0.055 SA
ENDROOT
BRANCH   2   4
HETATM    4  C3  UNL     1     -32.546   6.143   3.298  1.00 20.00     0.176 C 
BRANCH   4   5
HETATM    5  C4  UNL     1     -31.795   7.443   3.070  1.00 20.00     0.189 C 
BRANCH   5   6
HETATM    6  O6  UNL     1     -32.560   8.285   2.217  1.00 20.00    -0.394 OA
HETATM    7  C2  UNL     1     -31.790   8.743   1.113  1.00 20.00     0.201 C 
ENDBRANCH   5   6
ENDBRANCH   4   5
ENDBRANCH   2   4
TORSDOF 3
ENDMDL
MODEL 4
REMARK VINA RESULT:      -3.0     11.298     11.705
REMARK  3 active torsions:
REMARK  status: ('A' for Active; 'I' for Inactive)
REMARK    1  A    between atoms: C3_3  and  C4_4 
REMARK    2  A    between atoms: C3_3  and  N5_5 
REMARK    3  A    between atoms: C4_4  and  O6_6 
ROOT
HETATM    1  C1  UNL     1     -33.791  16.219  -2.552  1.00 20.00     0.157 C 
HETATM    2  N5  UNL     1     -33.172  15.953  -3.514  1.00 20.00    -0.273 NA
HETATM    3  S7  UNL     1     -34.610  16.597  -1.240  1.00 20.00    -0.055 SA
ENDROOT
BRANCH   2   4
HETATM    4  C3  UNL     1     -33.839  15.038  -4.444  1.00 20.00     0.176 C 
BRANCH   4   5
HETATM    5  C4  UNL     1     -33.668  13.614  -3.947  1.00 20.00     0.189 C 
BRANCH   5   6
HETATM    6  O6  UNL     1     -34.887  12.903  -4.127  1.00 20.00    -0.394 OA
HETATM    7  C2  UNL     1     -35.984  13.789  -4.305  1.00 20.00     0.201 C 
ENDBRANCH   5   6
ENDBRANCH   4   5
ENDBRANCH   2   4
TORSDOF 3
ENDMDL
MODEL 5
REMARK VINA RESULT:      -2.9     11.530     12.013
REMARK  3 active torsions:
REMARK  status: ('A' for Active; 'I' for Inactive)
REMARK    1  A    between atoms: C3_3  and  C4_4 
REMARK    2  A    between atoms: C3_3  and  N5_5 
REMARK    3  A    between atoms: C4_4  and  O6_6 
ROOT
HETATM    1  C1  UNL     1     -34.928  13.612  -5.622  1.00 20.00     0.157 C 
HETATM    2  N5  UNL     1     -34.640  12.947  -4.698  1.00 20.00    -0.273 NA
HETATM    3  S7  UNL     1     -35.324  14.490  -6.891  1.00 20.00    -0.055 SA
ENDROOT
BRANCH   2   4
HETATM    4  C3  UNL     1     -34.318  13.692  -3.478  1.00 20.00     0.176 C 
BRANCH   4   5
HETATM    5  C4  UNL     1     -33.139  14.607  -3.752  1.00 20.00     0.189 C 
BRANCH   5   6
HETATM    6  O6  UNL     1     -33.400  15.891  -3.198  1.00 20.00    -0.394 OA
HETATM    7  C2  UNL     1     -34.551  15.873  -2.363  1.00 20.00     0.201 C 
ENDBRANCH   5   6
ENDBRANCH   4   5
ENDBRANCH   2   4
TORSDOF 3
ENDMDL
MODEL 6
REMARK VINA RESULT:      -2.9      2.754      3.518
REMARK  3 active torsions:
REMARK  status: ('A' for Active; 'I' for Inactive)
REMARK    1  A    between atoms: C3_3  and  C4_4 
REMARK    2  A    between atoms: C3_3  and  N5_5 
REMARK    3  A    between atoms: C4_4  and  O6_6 
ROOT
HETATM    1  C1  UNL     1     -34.479   5.790   6.351  1.00 20.00     0.157 C 
HETATM    2  N5  UNL     1     -35.123   4.833   6.135  1.00 20.00    -0.273 NA
HETATM    3  S7  UNL     1     -33.615   7.089   6.672  1.00 20.00    -0.055 SA
ENDROOT
BRANCH   2   4
HETATM    4  C3  UNL     1     -34.987   4.290   4.781  1.00 20.00     0.176 C 
BRANCH   4   5
HETATM    5  C4  UNL     1     -35.145   5.417   3.776  1.00 20.00     0.189 C 
BRANCH   5   6
HETATM    6  O6  UNL     1     -34.134   5.308   2.783  1.00 20.00    -0.394 OA
HETATM    7  C2  UNL     1     -33.025   6.149   3.073  1.00 20.00     0.201 C 
ENDBRANCH   5   6
ENDBRANCH   4   5
ENDBRANCH   2   4
TORSDOF 3
ENDMDL
MODEL 7
REMARK VINA RESULT:      -2.9     11.896     12.454
REMARK  3 active torsions:
REMARK  status: ('A' for Active; 'I' for Inactive)
REMARK    1  A    between atoms: C3_3  and  C4_4 
REMARK    2  A    between atoms: C3_3  and  N5_5 
REMARK    3  A    between atoms: C4_4  and  O6_6 
ROOT
HETATM    1  C1  UNL     1     -33.610  16.436  -5.602  1.00 20.00     0.157 C 
HETATM    2  N5  UNL     1     -32.888  16.330  -4.682  1.00 20.00    -0.273 NA
HETATM    3  S7  UNL     1     -34.567  16.595  -6.865  1.00 20.00    -0.055 SA
ENDROOT
BRANCH   2   4
HETATM    4  C3  UNL     1     -33.435  15.573  -3.554  1.00 20.00     0.176 C 
BRANCH   4   5
HETATM    5  C4  UNL     1     -33.067  14.109  -3.712  1.00 20.00     0.189 C 
BRANCH   5   6
HETATM    6  O6  UNL     1     -34.189  13.302  -3.376  1.00 20.00    -0.394 OA
HETATM    7  C2  UNL     1     -35.157  13.296  -4.417  1.00 20.00     0.201 C 
ENDBRANCH   5   6
ENDBRANCH   4   5
ENDBRANCH   2   4
TORSDOF 3
ENDMDL
MODEL 8
REMARK VINA RESULT:      -2.8     11.339     11.829
REMARK  3 active torsions:
REMARK  status: ('A' for Active; 'I' for Inactive)
REMARK    1  A    between atoms: C3_3  and  C4_4 
REMARK    2  A    between atoms: C3_3  and  N5_5 
REMARK    3  A    between atoms: C4_4  and  O6_6 
ROOT
HETATM    1  C1  UNL     1     -33.802  15.931  -2.663  1.00 20.00     0.157 C 
HETATM    2  N5  UNL     1     -33.236  15.506  -3.600  1.00 20.00    -0.273 NA
HETATM    3  S7  UNL     1     -34.564  16.535  -1.402  1.00 20.00    -0.055 SA
ENDROOT
BRANCH   2   4
HETATM    4  C3  UNL     1     -33.262  14.046  -3.726  1.00 20.00     0.176 C 
BRANCH   4   5
HETATM    5  C4  UNL     1     -34.702  13.584  -3.855  1.00 20.00     0.189 C 
BRANCH   5   6
HETATM    6  O6  UNL     1     -34.894  12.992  -5.133  1.00 20.00    -0.394 OA
HETATM    7  C2  UNL     1     -35.101  13.977  -6.137  1.00 20.00     0.201 C 
ENDBRANCH   5   6
ENDBRANCH   4   5
ENDBRANCH   2   4
TORSDOF 3
ENDMDL
MODEL 9
REMARK VINA RESULT:      -2.8     11.801     12.401
REMARK  3 active torsions:
REMARK  status: ('A' for Active; 'I' for Inactive)
REMARK    1  A    between atoms: C3_3  and  C4_4 
REMARK    2  A    between atoms: C3_3  and  N5_5 
REMARK    3  A    between atoms: C4_4  and  O6_6 
ROOT
HETATM    1  C1  UNL     1     -35.908  13.834  -4.128  1.00 20.00     0.157 C 
HETATM    2  N5  UNL     1     -35.022  13.064  -4.097  1.00 20.00    -0.273 NA
HETATM    3  S7  UNL     1     -37.127  14.858  -4.161  1.00 20.00    -0.055 SA
ENDROOT
BRANCH   2   4
HETATM    4  C3  UNL     1     -33.706  13.623  -4.415  1.00 20.00     0.176 C 
BRANCH   4   5
HETATM    5  C4  UNL     1     -33.480  14.869  -3.578  1.00 20.00     0.189 C 
BRANCH   5   6
HETATM    6  O6  UNL     1     -32.627  15.762  -4.283  1.00 20.00    -0.394 OA
HETATM    7  C2  UNL     1     -33.366  16.611  -5.152  1.00 20.00     0.201 C 
ENDBRANCH   5   6
ENDBRANCH   4   5
ENDBRANCH   2   4
TORSDOF 3
ENDMDL
