MODEL 1
REMARK VINA RESULT:      -4.8      0.000      0.000
REMARK  5 active torsions:
REMARK  status: ('A' for Active; 'I' for Inactive)
REMARK    1  A    between atoms: C1_1  and  C8_8 
REMARK    2  A    between atoms: C4_4  and  C6_6 
REMARK    3  A    between atoms: C5_5  and  C8_8 
REMARK    4  A    between atoms: C6_6  and  C7_7 
REMARK    5  A    between atoms: C7_7  and  C8_8 
ROOT
HETATM    1  C8  UNL     1     -33.994   6.361   4.494  1.00 20.00     0.072 C 
ENDROOT
BRANCH   1   2
HETATM    2  C1  UNL     1     -35.114   5.391   4.122  1.00 20.00     0.223 C 
HETATM    3  O9  UNL     1     -35.935   5.649   3.244  1.00 20.00    -0.279 OA
HETATM    4 CL10 UNL     1     -35.079   3.929   5.068  1.00 20.00    -0.043 Cl
ENDBRANCH   1   2
BRANCH   1   5
HETATM    5  C5  UNL     1     -33.546   6.106   5.944  1.00 20.00     0.009 C 
HETATM    6  C3  UNL     1     -33.593   7.361   6.805  1.00 20.00     0.006 C 
ENDBRANCH   1   5
BRANCH   1   7
HETATM    7  C7  UNL     1     -32.806   6.177   3.529  1.00 20.00     0.013 C 
BRANCH   7   8
HETATM    8  C6  UNL     1     -32.006   7.470   3.329  1.00 20.00     0.000 C 
BRANCH   8   9
HETATM    9  C4  UNL     1     -31.996   7.954   1.877  1.00 20.00    -0.005 C 
HETATM   10  C2  UNL     1     -32.441   9.399   1.717  1.00 20.00     0.005 C 
ENDBRANCH   8   9
ENDBRANCH   7   8
ENDBRANCH   1   7
TORSDOF 5
ENDMDL
MODEL 2
REMARK VINA RESULT:      -4.5     11.048     11.812
REMARK  5 active torsions:
REMARK  status: ('A' for Active; 'I' for Inactive)
REMARK    1  A    between atoms: C1_1  and  C8_8 
REMARK    2  A    between atoms: C4_4  and  C6_6 
REMARK    3  A    between atoms: C5_5  and  C8_8 
REMARK    4  A    between atoms: C6_6  and  C7_7 
REMARK    5  A    between atoms: C7_7  and  C8_8 
ROOT
HETATM    1  C8  UNL     1     -34.262  14.701  -3.081  1.00 20.00     0.072 C 
ENDROOT
BRANCH   1   2
HETATM    2  C1  UNL     1     -35.169  13.817  -3.934  1.00 20.00     0.223 C 
HETATM    3  O9  UNL     1     -34.770  12.772  -4.443  1.00 20.00    -0.279 OA
HETATM    4 CL10 UNL     1     -36.782  14.458  -4.086  1.00 20.00    -0.043 Cl
ENDBRANCH   1   2
BRANCH   1   5
HETATM    5  C5  UNL     1     -33.017  15.104  -3.892  1.00 20.00     0.009 C 
HETATM    6  C3  UNL     1     -33.273  16.290  -4.813  1.00 20.00     0.006 C 
ENDBRANCH   1   5
BRANCH   1   7
HETATM    7  C7  UNL     1     -35.034  15.957  -2.630  1.00 20.00     0.013 C 
BRANCH   7   8
HETATM    8  C6  UNL     1     -34.690  16.374  -1.195  1.00 20.00     0.000 C 
BRANCH   8   9
HETATM    9  C4  UNL     1     -33.653  17.498  -1.125  1.00 20.00    -0.005 C 
HETATM   10  C2  UNL     1     -33.674  18.262   0.189  1.00 20.00     0.005 C 
ENDBRANCH   8   9
ENDBRANCH   7   8
ENDBRANCH   1   7
TORSDOF 5
ENDMDL
MODEL 3
REMARK VINA RESULT:      -4.5      1.953      2.625
REMARK  5 active torsions:
REMARK  status: ('A' for Active; 'I' for Inactive)
REMARK    1  A    between atoms: C1_1  and  C8_8 
REMARK    2  A    between atoms: C4_4  and  C6_6 
REMARK    3  A    between atoms: C5_5  and  C8_8 
REMARK    4  A    between atoms: C6_6  and  C7_7 
REMARK    5  A    between atoms: C7_7  and  C8_8 
ROOT
HETATM    1  C8  UNL     1     -33.962   5.499   4.789  1.00 20.00     0.072 C 
ENDROOT
BRANCH   1   2
HETATM    2  C1  UNL     1     -34.320   5.852   6.231  1.00 20.00     0.223 C 
HETATM    3  O9  UNL     1     -35.154   5.215   6.870  1.00 20.00    -0.279 OA
HETATM    4 CL10 UNL     1     -33.428   7.224   6.828  1.00 20.00    -0.043 Cl
ENDBRANCH   1   2
BRANCH   1   5
HETATM    5  C5  UNL     1     -35.155   4.801   4.113  1.00 20.00     0.009 C 
HETATM    6  C3  UNL     1     -36.089   5.778   3.411  1.00 20.00     0.006 C 
ENDBRANCH   1   5
BRANCH   1   7
HETATM    7  C7  UNL     1     -33.587   6.780   4.018  1.00 20.00     0.013 C 
BRANCH   7   8
HETATM    8  C6  UNL     1     -32.403   6.567   3.066  1.00 20.00     0.000 C 
BRANCH   8   9
HETATM    9  C4  UNL     1     -31.643   7.857   2.751  1.00 20.00    -0.005 C 
HETATM   10  C2  UNL     1     -32.035   8.483   1.421  1.00 20.00     0.005 C 
ENDBRANCH   8   9
ENDBRANCH   7   8
ENDBRANCH   1   7
TORSDOF 5
ENDMDL
MODEL 4
REMARK VINA RESULT:      -4.5      1.596      2.233
REMARK  5 active torsions:
REMARK  status: ('A' for Active; 'I' for Inactive)
REMARK    1  A    between atoms: C1_1  and  C8_8 
REMARK    2  A    between atoms: C4_4  and  C6_6 
REMARK    3  A    between atoms: C5_5  and  C8_8 
REMARK    4  A    between atoms: C6_6  and  C7_7 
REMARK    5  A    between atoms: C7_7  and  C8_8 
ROOT
HETATM    1  C8  UNL     1     -33.504   5.577   4.348  1.00 20.00     0.072 C 
ENDROOT
BRANCH   1   2
HETATM    2  C1  UNL     1     -34.229   5.612   5.692  1.00 20.00     0.223 C 
HETATM    3  O9  UNL     1     -34.232   6.612   6.405  1.00 20.00    -0.279 OA
HETATM    4 CL10 UNL     1     -35.021   4.106   6.066  1.00 20.00    -0.043 Cl
ENDBRANCH   1   2
BRANCH   1   5
HETATM    5  C5  UNL     1     -34.521   5.361   3.213  1.00 20.00     0.009 C 
HETATM    6  C3  UNL     1     -35.909   5.884   3.559  1.00 20.00     0.006 C 
ENDBRANCH   1   5
BRANCH   1   7
HETATM    7  C7  UNL     1     -32.740   6.899   4.134  1.00 20.00     0.013 C 
BRANCH   7   8
HETATM    8  C6  UNL     1     -32.241   7.064   2.694  1.00 20.00     0.000 C 
BRANCH   8   9
HETATM    9  C4  UNL     1     -32.231   8.519   2.221  1.00 20.00    -0.005 C 
HETATM   10  C2  UNL     1     -31.869   8.677   0.753  1.00 20.00     0.005 C 
ENDBRANCH   8   9
ENDBRANCH   7   8
ENDBRANCH   1   7
TORSDOF 5
ENDMDL
MODEL 5
REMARK VINA RESULT:      -4.5     10.799     12.071
REMARK  5 active torsions:
REMARK  status: ('A' for Active; 'I' for Inactive)
REMARK    1  A    between atoms: C1_1  and  C8_8 
REMARK    2  A    between atoms: C4_4  and  C6_6 
REMARK    3  A    between atoms: C5_5  and  C8_8 
REMARK    4  A    between atoms: C6_6  and  C7_7 
REMARK    5  A    between atoms: C7_7  and  C8_8 
ROOT
HETATM    1  C8  UNL     1     -35.064  14.985  -3.521  1.00 20.00     0.072 C 
ENDROOT
BRANCH   1   2
HETATM    2  C1  UNL     1     -34.431  13.630  -3.831  1.00 20.00     0.223 C 
HETATM    3  O9  UNL     1     -35.088  12.691  -4.275  1.00 20.00    -0.279 OA
HETATM    4 CL10 UNL     1     -32.725  13.591  -3.484  1.00 20.00    -0.043 Cl
ENDBRANCH   1   2
BRANCH   1   5
HETATM    5  C5  UNL     1     -34.077  15.847  -2.714  1.00 20.00     0.009 C 
HETATM    6  C3  UNL     1     -34.674  16.365  -1.411  1.00 20.00     0.006 C 
ENDBRANCH   1   5
BRANCH   1   7
HETATM    7  C7  UNL     1     -35.440  15.696  -4.836  1.00 20.00     0.013 C 
BRANCH   7   8
HETATM    8  C6  UNL     1     -34.215  16.028  -5.696  1.00 20.00     0.000 C 
BRANCH   8   9
HETATM    9  C4  UNL     1     -34.328  15.512  -7.132  1.00 20.00    -0.005 C 
HETATM   10  C2  UNL     1     -35.415  14.464  -7.316  1.00 20.00     0.005 C 
ENDBRANCH   8   9
ENDBRANCH   7   8
ENDBRANCH   1   7
TORSDOF 5
ENDMDL
MODEL 6
REMARK VINA RESULT:      -4.3     11.259     12.265
REMARK  5 active torsions:
REMARK  status: ('A' for Active; 'I' for Inactive)
REMARK    1  A    between atoms: C1_1  and  C8_8 
REMARK    2  A    between atoms: C4_4  and  C6_6 
REMARK    3  A    between atoms: C5_5  and  C8_8 
REMARK    4  A    between atoms: C6_6  and  C7_7 
REMARK    5  A    between atoms: C7_7  and  C8_8 
ROOT
HETATM    1  C8  UNL     1     -34.087  14.772  -4.736  1.00 20.00     0.072 C 
ENDROOT
BRANCH   1   2
HETATM    2  C1  UNL     1     -35.199  13.764  -4.452  1.00 20.00     0.223 C 
HETATM    3  O9  UNL     1     -35.005  12.551  -4.492  1.00 20.00    -0.279 OA
HETATM    4 CL10 UNL     1     -36.719  14.528  -4.080  1.00 20.00    -0.043 Cl
ENDBRANCH   1   2
BRANCH   1   5
HETATM    5  C5  UNL     1     -34.687  16.046  -5.358  1.00 20.00     0.009 C 
HETATM    6  C3  UNL     1     -34.388  16.171  -6.847  1.00 20.00     0.006 C 
ENDBRANCH   1   5
BRANCH   1   7
HETATM    7  C7  UNL     1     -33.349  15.116  -3.427  1.00 20.00     0.013 C 
BRANCH   7   8
HETATM    8  C6  UNL     1     -33.841  16.427  -2.802  1.00 20.00     0.000 C 
BRANCH   8   9
HETATM    9  C4  UNL     1     -34.787  16.214  -1.618  1.00 20.00    -0.005 C 
HETATM   10  C2  UNL     1     -34.440  17.063  -0.405  1.00 20.00     0.005 C 
ENDBRANCH   8   9
ENDBRANCH   7   8
ENDBRANCH   1   7
TORSDOF 5
ENDMDL
MODEL 7
REMARK VINA RESULT:      -4.3     11.721     12.413
REMARK  5 active torsions:
REMARK  status: ('A' for Active; 'I' for Inactive)
REMARK    1  A    between atoms: C1_1  and  C8_8 
REMARK    2  A    between atoms: C4_4  and  C6_6 
REMARK    3  A    between atoms: C5_5  and  C8_8 
REMARK    4  A    between atoms: C6_6  and  C7_7 
REMARK    5  A    between atoms: C7_7  and  C8_8 
ROOT
HETATM    1  C8  UNL     1     -33.590  15.997  -3.035  1.00 20.00     0.072 C 
ENDROOT
BRANCH   1   2
HETATM    2  C1  UNL     1     -33.879  16.924  -4.215  1.00 20.00     0.223 C 
HETATM    3  O9  UNL     1     -33.036  17.163  -5.077  1.00 20.00    -0.279 OA
HETATM    4 CL10 UNL     1     -35.495  17.572  -4.180  1.00 20.00    -0.043 Cl
ENDBRANCH   1   2
BRANCH   1   5
HETATM    5  C5  UNL     1     -34.800  15.975  -2.084  1.00 20.00     0.009 C 
HETATM    6  C3  UNL     1     -34.540  16.722  -0.782  1.00 20.00     0.006 C 
ENDBRANCH   1   5
BRANCH   1   7
HETATM    7  C7  UNL     1     -33.292  14.575  -3.551  1.00 20.00     0.013 C 
BRANCH   7   8
HETATM    8  C6  UNL     1     -34.567  13.751  -3.772  1.00 20.00     0.000 C 
BRANCH   8   9
HETATM    9  C4  UNL     1     -34.688  13.198  -5.194  1.00 20.00    -0.005 C 
HETATM   10  C2  UNL     1     -35.205  14.215  -6.199  1.00 20.00     0.005 C 
ENDBRANCH   8   9
ENDBRANCH   7   8
ENDBRANCH   1   7
TORSDOF 5
ENDMDL
MODEL 8
REMARK VINA RESULT:      -4.2     11.391     12.106
REMARK  5 active torsions:
REMARK  status: ('A' for Active; 'I' for Inactive)
REMARK    1  A    between atoms: C1_1  and  C8_8 
REMARK    2  A    between atoms: C4_4  and  C6_6 
REMARK    3  A    between atoms: C5_5  and  C8_8 
REMARK    4  A    between atoms: C6_6  and  C7_7 
REMARK    5  A    between atoms: C7_7  and  C8_8 
ROOT
HETATM    1  C8  UNL     1     -35.278  14.902  -4.232  1.00 20.00     0.072 C 
ENDROOT
BRANCH   1   2
HETATM    2  C1  UNL     1     -34.932  13.798  -5.230  1.00 20.00     0.223 C 
HETATM    3  O9  UNL     1     -34.764  12.632  -4.879  1.00 20.00    -0.279 OA
HETATM    4 CL10 UNL     1     -34.810  14.385  -6.865  1.00 20.00    -0.043 Cl
ENDBRANCH   1   2
BRANCH   1   5
HETATM    5  C5  UNL     1     -36.724  14.721  -3.738  1.00 20.00     0.009 C 
HETATM    6  C3  UNL     1     -37.758  15.117  -4.784  1.00 20.00     0.006 C 
ENDBRANCH   1   5
BRANCH   1   7
HETATM    7  C7  UNL     1     -34.298  14.854  -3.043  1.00 20.00     0.013 C 
BRANCH   7   8
HETATM    8  C6  UNL     1     -34.001  16.245  -2.470  1.00 20.00     0.000 C 
BRANCH   8   9
HETATM    9  C4  UNL     1     -34.658  16.490  -1.110  1.00 20.00    -0.005 C 
HETATM   10  C2  UNL     1     -34.036  17.641  -0.334  1.00 20.00     0.005 C 
ENDBRANCH   8   9
ENDBRANCH   7   8
ENDBRANCH   1   7
TORSDOF 5
ENDMDL
MODEL 9
REMARK VINA RESULT:      -4.1     11.078     12.421
REMARK  5 active torsions:
REMARK  status: ('A' for Active; 'I' for Inactive)
REMARK    1  A    between atoms: C1_1  and  C8_8 
REMARK    2  A    between atoms: C4_4  and  C6_6 
REMARK    3  A    between atoms: C5_5  and  C8_8 
REMARK    4  A    between atoms: C6_6  and  C7_7 
REMARK    5  A    between atoms: C7_7  and  C8_8 
ROOT
HETATM    1  C8  UNL     1     -34.623  14.866  -5.211  1.00 20.00     0.072 C 
ENDROOT
BRANCH   1   2
HETATM    2  C1  UNL     1     -34.276  13.545  -4.526  1.00 20.00     0.223 C 
HETATM    3  O9  UNL     1     -34.967  12.539  -4.664  1.00 20.00    -0.279 OA
HETATM    4 CL10 UNL     1     -32.831  13.649  -3.560  1.00 20.00    -0.043 Cl
ENDBRANCH   1   2
BRANCH   1   5
HETATM    5  C5  UNL     1     -34.789  14.638  -6.724  1.00 20.00     0.009 C 
HETATM    6  C3  UNL     1     -36.086  15.223  -7.269  1.00 20.00     0.006 C 
ENDBRANCH   1   5
BRANCH   1   7
HETATM    7  C7  UNL     1     -35.923  15.437  -4.612  1.00 20.00     0.013 C 
BRANCH   7   8
HETATM    8  C6  UNL     1     -35.872  15.535  -3.083  1.00 20.00     0.000 C 
BRANCH   8   9
HETATM    9  C4  UNL     1     -34.862  16.567  -2.577  1.00 20.00    -0.005 C 
HETATM   10  C2  UNL     1     -34.624  16.499  -1.077  1.00 20.00     0.005 C 
ENDBRANCH   8   9
ENDBRANCH   7   8
ENDBRANCH   1   7
TORSDOF 5
ENDMDL
