MODEL 1
REMARK VINA RESULT:      -5.2      0.000      0.000
REMARK  4 active torsions:
REMARK  status: ('A' for Active; 'I' for Inactive)
REMARK    1  A    between atoms: C3_3  and  C4_4 
REMARK    2  A    between atoms: C4_4  and  C5_5 
REMARK    3  A    between atoms: C5_5  and  C6_6 
REMARK    4  A    between atoms: C6_6  and  C7_7 
ROOT
HETATM    1  C1  UNL     1     -32.078   7.991   2.194  1.00 20.00    -0.176 C 
HETATM    2  C2  UNL     1     -32.050   8.872   1.241  1.00 20.00     0.091 C 
HETATM    3  C3  UNL     1     -32.105   7.108   3.151  1.00 20.00     0.066 C 
ENDROOT
BRANCH   3   4
HETATM    4  C4  UNL     1     -33.016   5.917   3.191  1.00 20.00     0.017 C 
BRANCH   4   5
HETATM    5  C5  UNL     1     -34.342   6.254   3.875  1.00 20.00     0.002 C 
BRANCH   5   6
HETATM    6  C6  UNL     1     -34.949   5.021   4.548  1.00 20.00     0.015 C 
BRANCH   6   7
HETATM    7  C7  UNL     1     -34.786   5.085   6.061  1.00 20.00     0.114 C 
HETATM    8 CL8  UNL     1     -34.008   6.610   6.539  1.00 20.00    -0.130 Cl
ENDBRANCH   6   7
ENDBRANCH   5   6
ENDBRANCH   4   5
ENDBRANCH   3   4
TORSDOF 4
ENDMDL
MODEL 2
REMARK VINA RESULT:      -5.2      2.230      4.065
REMARK  4 active torsions:
REMARK  status: ('A' for Active; 'I' for Inactive)
REMARK    1  A    between atoms: C3_3  and  C4_4 
REMARK    2  A    between atoms: C4_4  and  C5_5 
REMARK    3  A    between atoms: C5_5  and  C6_6 
REMARK    4  A    between atoms: C6_6  and  C7_7 
ROOT
HETATM    1  C1  UNL     1     -34.238   6.043   6.412  1.00 20.00    -0.176 C 
HETATM    2  C2  UNL     1     -33.667   7.154   6.766  1.00 20.00     0.091 C 
HETATM    3  C3  UNL     1     -34.811   4.929   6.059  1.00 20.00     0.066 C 
ENDROOT
BRANCH   3   4
HETATM    4  C4  UNL     1     -35.162   4.556   4.649  1.00 20.00     0.017 C 
BRANCH   4   5
HETATM    5  C5  UNL     1     -34.924   5.722   3.689  1.00 20.00     0.002 C 
BRANCH   5   6
HETATM    6  C6  UNL     1     -33.720   5.459   2.783  1.00 20.00     0.015 C 
BRANCH   6   7
HETATM    7  C7  UNL     1     -32.478   6.176   3.297  1.00 20.00     0.114 C 
HETATM    8 CL8  UNL     1     -32.252   7.719   2.444  1.00 20.00    -0.130 Cl
ENDBRANCH   6   7
ENDBRANCH   5   6
ENDBRANCH   4   5
ENDBRANCH   3   4
TORSDOF 4
ENDMDL
MODEL 3
REMARK VINA RESULT:      -5.1      1.239      1.303
REMARK  4 active torsions:
REMARK  status: ('A' for Active; 'I' for Inactive)
REMARK    1  A    between atoms: C3_3  and  C4_4 
REMARK    2  A    between atoms: C4_4  and  C5_5 
REMARK    3  A    between atoms: C5_5  and  C6_6 
REMARK    4  A    between atoms: C6_6  and  C7_7 
ROOT
HETATM    1  C1  UNL     1     -32.129   8.170   2.115  1.00 20.00    -0.176 C 
HETATM    2  C2  UNL     1     -32.128   9.004   1.120  1.00 20.00     0.091 C 
HETATM    3  C3  UNL     1     -32.130   7.336   3.115  1.00 20.00     0.066 C 
ENDROOT
BRANCH   3   4
HETATM    4  C4  UNL     1     -32.757   5.973   3.092  1.00 20.00     0.017 C 
BRANCH   4   5
HETATM    5  C5  UNL     1     -34.063   5.948   3.888  1.00 20.00     0.002 C 
BRANCH   5   6
HETATM    6  C6  UNL     1     -33.839   6.383   5.337  1.00 20.00     0.015 C 
BRANCH   6   7
HETATM    7  C7  UNL     1     -34.560   5.456   6.307  1.00 20.00     0.114 C 
HETATM    8 CL8  UNL     1     -35.046   3.955   5.487  1.00 20.00    -0.130 Cl
ENDBRANCH   6   7
ENDBRANCH   5   6
ENDBRANCH   4   5
ENDBRANCH   3   4
TORSDOF 4
ENDMDL
MODEL 4
REMARK VINA RESULT:      -4.8      2.208      4.681
REMARK  4 active torsions:
REMARK  status: ('A' for Active; 'I' for Inactive)
REMARK    1  A    between atoms: C3_3  and  C4_4 
REMARK    2  A    between atoms: C4_4  and  C5_5 
REMARK    3  A    between atoms: C5_5  and  C6_6 
REMARK    4  A    between atoms: C6_6  and  C7_7 
ROOT
HETATM    1  C1  UNL     1     -34.808   5.023   4.860  1.00 20.00    -0.176 C 
HETATM    2  C2  UNL     1     -34.851   4.301   5.939  1.00 20.00     0.091 C 
HETATM    3  C3  UNL     1     -34.766   5.747   3.779  1.00 20.00     0.066 C 
ENDROOT
BRANCH   3   4
HETATM    4  C4  UNL     1     -33.659   5.711   2.767  1.00 20.00     0.017 C 
BRANCH   4   5
HETATM    5  C5  UNL     1     -32.317   6.088   3.396  1.00 20.00     0.002 C 
BRANCH   5   6
HETATM    6  C6  UNL     1     -32.051   7.590   3.281  1.00 20.00     0.015 C 
BRANCH   6   7
HETATM    7  C7  UNL     1     -31.997   8.029   1.824  1.00 20.00     0.114 C 
HETATM    8 CL8  UNL     1     -32.484   9.731   1.668  1.00 20.00    -0.130 Cl
ENDBRANCH   6   7
ENDBRANCH   5   6
ENDBRANCH   4   5
ENDBRANCH   3   4
TORSDOF 4
ENDMDL
MODEL 5
REMARK VINA RESULT:      -4.6      2.282      4.725
REMARK  4 active torsions:
REMARK  status: ('A' for Active; 'I' for Inactive)
REMARK    1  A    between atoms: C3_3  and  C4_4 
REMARK    2  A    between atoms: C4_4  and  C5_5 
REMARK    3  A    between atoms: C5_5  and  C6_6 
REMARK    4  A    between atoms: C6_6  and  C7_7 
ROOT
HETATM    1  C1  UNL     1     -35.002   4.663   5.582  1.00 20.00    -0.176 C 
HETATM    2  C2  UNL     1     -34.792   4.797   6.856  1.00 20.00     0.091 C 
HETATM    3  C3  UNL     1     -35.214   4.528   4.304  1.00 20.00     0.066 C 
ENDROOT
BRANCH   3   4
HETATM    4  C4  UNL     1     -34.729   5.479   3.250  1.00 20.00     0.017 C 
BRANCH   4   5
HETATM    5  C5  UNL     1     -33.718   6.474   3.821  1.00 20.00     0.002 C 
BRANCH   5   6
HETATM    6  C6  UNL     1     -32.386   6.403   3.073  1.00 20.00     0.015 C 
BRANCH   6   7
HETATM    7  C7  UNL     1     -31.724   7.773   2.999  1.00 20.00     0.114 C 
HETATM    8 CL8  UNL     1     -32.009   8.517   1.409  1.00 20.00    -0.130 Cl
ENDBRANCH   6   7
ENDBRANCH   5   6
ENDBRANCH   4   5
ENDBRANCH   3   4
TORSDOF 4
ENDMDL
MODEL 6
REMARK VINA RESULT:      -4.4      2.418      4.780
REMARK  4 active torsions:
REMARK  status: ('A' for Active; 'I' for Inactive)
REMARK    1  A    between atoms: C3_3  and  C4_4 
REMARK    2  A    between atoms: C4_4  and  C5_5 
REMARK    3  A    between atoms: C5_5  and  C6_6 
REMARK    4  A    between atoms: C6_6  and  C7_7 
ROOT
HETATM    1  C1  UNL     1     -34.635   5.137   6.011  1.00 20.00    -0.176 C 
HETATM    2  C2  UNL     1     -35.199   3.968   5.978  1.00 20.00     0.091 C 
HETATM    3  C3  UNL     1     -34.070   6.309   6.045  1.00 20.00     0.066 C 
ENDROOT
BRANCH   3   4
HETATM    4  C4  UNL     1     -33.352   6.948   4.893  1.00 20.00     0.017 C 
BRANCH   4   5
HETATM    5  C5  UNL     1     -33.384   6.054   3.653  1.00 20.00     0.002 C 
BRANCH   5   6
HETATM    6  C6  UNL     1     -32.319   6.474   2.638  1.00 20.00     0.015 C 
BRANCH   6   7
HETATM    7  C7  UNL     1     -32.090   7.979   2.673  1.00 20.00     0.114 C 
HETATM    8 CL8  UNL     1     -31.721   8.590   1.045  1.00 20.00    -0.130 Cl
ENDBRANCH   6   7
ENDBRANCH   5   6
ENDBRANCH   4   5
ENDBRANCH   3   4
TORSDOF 4
ENDMDL
MODEL 7
REMARK VINA RESULT:      -3.9     11.067     11.825
REMARK  4 active torsions:
REMARK  status: ('A' for Active; 'I' for Inactive)
REMARK    1  A    between atoms: C3_3  and  C4_4 
REMARK    2  A    between atoms: C4_4  and  C5_5 
REMARK    3  A    between atoms: C5_5  and  C6_6 
REMARK    4  A    between atoms: C6_6  and  C7_7 
ROOT
HETATM    1  C1  UNL     1     -34.686  16.652  -0.869  1.00 20.00    -0.176 C 
HETATM    2  C2  UNL     1     -34.774  17.335   0.232  1.00 20.00     0.091 C 
HETATM    3  C3  UNL     1     -34.600  15.967  -1.972  1.00 20.00     0.066 C 
ENDROOT
BRANCH   3   4
HETATM    4  C4  UNL     1     -33.601  16.221  -3.062  1.00 20.00     0.017 C 
BRANCH   4   5
HETATM    5  C5  UNL     1     -33.156  14.916  -3.724  1.00 20.00     0.002 C 
BRANCH   5   6
HETATM    6  C6  UNL     1     -34.217  13.825  -3.573  1.00 20.00     0.015 C 
BRANCH   6   7
HETATM    7  C7  UNL     1     -34.640  13.278  -4.930  1.00 20.00     0.114 C 
HETATM    8 CL8  UNL     1     -34.528  14.543  -6.173  1.00 20.00    -0.130 Cl
ENDBRANCH   6   7
ENDBRANCH   5   6
ENDBRANCH   4   5
ENDBRANCH   3   4
TORSDOF 4
ENDMDL
MODEL 8
REMARK VINA RESULT:      -3.8     11.354     12.046
REMARK  4 active torsions:
REMARK  status: ('A' for Active; 'I' for Inactive)
REMARK    1  A    between atoms: C3_3  and  C4_4 
REMARK    2  A    between atoms: C4_4  and  C5_5 
REMARK    3  A    between atoms: C5_5  and  C6_6 
REMARK    4  A    between atoms: C6_6  and  C7_7 
ROOT
HETATM    1  C1  UNL     1     -34.465  16.642  -1.166  1.00 20.00    -0.176 C 
HETATM    2  C2  UNL     1     -34.842  17.161  -0.038  1.00 20.00     0.091 C 
HETATM    3  C3  UNL     1     -34.086  16.121  -2.298  1.00 20.00     0.066 C 
ENDROOT
BRANCH   3   4
HETATM    4  C4  UNL     1     -34.848  15.076  -3.058  1.00 20.00     0.017 C 
BRANCH   4   5
HETATM    5  C5  UNL     1     -33.911  14.018  -3.642  1.00 20.00     0.002 C 
BRANCH   5   6
HETATM    6  C6  UNL     1     -34.551  13.308  -4.836  1.00 20.00     0.015 C 
BRANCH   6   7
HETATM    7  C7  UNL     1     -35.342  14.284  -5.697  1.00 20.00     0.114 C 
HETATM    8 CL8  UNL     1     -34.321  14.936  -6.997  1.00 20.00    -0.130 Cl
ENDBRANCH   6   7
ENDBRANCH   5   6
ENDBRANCH   4   5
ENDBRANCH   3   4
TORSDOF 4
ENDMDL
MODEL 9
REMARK VINA RESULT:      -3.8     10.598     11.692
REMARK  4 active torsions:
REMARK  status: ('A' for Active; 'I' for Inactive)
REMARK    1  A    between atoms: C3_3  and  C4_4 
REMARK    2  A    between atoms: C4_4  and  C5_5 
REMARK    3  A    between atoms: C5_5  and  C6_6 
REMARK    4  A    between atoms: C6_6  and  C7_7 
ROOT
HETATM    1  C1  UNL     1     -34.745  14.125  -5.980  1.00 20.00    -0.176 C 
HETATM    2  C2  UNL     1     -34.685  14.883  -7.032  1.00 20.00     0.091 C 
HETATM    3  C3  UNL     1     -34.806  13.364  -4.925  1.00 20.00     0.066 C 
ENDROOT
BRANCH   3   4
HETATM    4  C4  UNL     1     -34.287  13.738  -3.568  1.00 20.00     0.017 C 
BRANCH   4   5
HETATM    5  C5  UNL     1     -33.157  14.764  -3.668  1.00 20.00     0.002 C 
BRANCH   5   6
HETATM    6  C6  UNL     1     -33.549  16.088  -3.010  1.00 20.00     0.015 C 
BRANCH   6   7
HETATM    7  C7  UNL     1     -34.844  15.947  -2.220  1.00 20.00     0.114 C 
HETATM    8 CL8  UNL     1     -34.654  16.629  -0.589  1.00 20.00    -0.130 Cl
ENDBRANCH   6   7
ENDBRANCH   5   6
ENDBRANCH   4   5
ENDBRANCH   3   4
TORSDOF 4
ENDMDL
