MODEL 1
REMARK VINA RESULT:      -3.6      0.000      0.000
REMARK  1 active torsions:
REMARK  status: ('A' for Active; 'I' for Inactive)
REMARK    1  A    between atoms: C3_3  and  C5_5 
ROOT
HETATM    1  C1  UNL     1     -34.586  15.420  -2.894  1.00 20.00     0.065 A 
HETATM    2  C2  UNL     1     -33.750  16.848  -4.714  1.00 20.00     0.069 A 
HETATM    3  C3  UNL     1     -34.797  14.856  -4.132  1.00 20.00     0.026 A 
HETATM    4  C4  UNL     1     -34.313  15.682  -5.187  1.00 20.00     0.031 A 
HETATM    5  S7  UNL     1     -33.807  16.941  -3.004  1.00 20.00    -0.111 SA
HETATM    6 BR8  UNL     1     -34.434  15.225  -7.012  1.00 20.00    -0.050 Br
ENDROOT
BRANCH   3   7
HETATM    7  C5  UNL     1     -35.439  13.573  -4.274  1.00 20.00     0.271 C 
HETATM    8  O6  UNL     1     -34.844  12.543  -4.624  1.00 20.00    -0.301 OA
ENDBRANCH   3   7
TORSDOF 1
ENDMDL
MODEL 2
REMARK VINA RESULT:      -3.5      2.303      2.535
REMARK  1 active torsions:
REMARK  status: ('A' for Active; 'I' for Inactive)
REMARK    1  A    between atoms: C3_3  and  C5_5 
ROOT
HETATM    1  C1  UNL     1     -34.331  15.147  -5.685  1.00 20.00     0.065 A 
HETATM    2  C2  UNL     1     -34.350  17.282  -4.462  1.00 20.00     0.069 A 
HETATM    3  C3  UNL     1     -34.458  14.964  -4.325  1.00 20.00     0.026 A 
HETATM    4  C4  UNL     1     -34.469  16.200  -3.617  1.00 20.00     0.031 A 
HETATM    5  S7  UNL     1     -34.225  16.804  -6.103  1.00 20.00    -0.111 SA
HETATM    6 BR8  UNL     1     -34.628  16.328  -1.742  1.00 20.00    -0.050 Br
ENDROOT
BRANCH   3   7
HETATM    7  C5  UNL     1     -34.563  13.646  -3.751  1.00 20.00     0.271 C 
HETATM    8  O6  UNL     1     -34.971  12.656  -4.376  1.00 20.00    -0.301 OA
ENDBRANCH   3   7
TORSDOF 1
ENDMDL
MODEL 3
REMARK VINA RESULT:      -3.5      1.931      2.155
REMARK  1 active torsions:
REMARK  status: ('A' for Active; 'I' for Inactive)
REMARK    1  A    between atoms: C3_3  and  C5_5 
ROOT
HETATM    1  C1  UNL     1     -33.544  15.361  -3.302  1.00 20.00     0.065 A 
HETATM    2  C2  UNL     1     -35.596  16.446  -2.488  1.00 20.00     0.069 A 
HETATM    3  C3  UNL     1     -34.677  14.796  -3.843  1.00 20.00     0.026 A 
HETATM    4  C4  UNL     1     -35.866  15.424  -3.372  1.00 20.00     0.031 A 
HETATM    5  S7  UNL     1     -33.914  16.644  -2.230  1.00 20.00    -0.111 SA
HETATM    6 BR8  UNL     1     -37.601  14.908  -3.902  1.00 20.00    -0.050 Br
ENDROOT
BRANCH   3   7
HETATM    7  C5  UNL     1     -34.599  13.697  -4.773  1.00 20.00     0.271 C 
HETATM    8  O6  UNL     1     -34.948  12.539  -4.497  1.00 20.00    -0.301 OA
ENDBRANCH   3   7
TORSDOF 1
ENDMDL
MODEL 4
REMARK VINA RESULT:      -3.5      2.836      3.188
REMARK  1 active torsions:
REMARK  status: ('A' for Active; 'I' for Inactive)
REMARK    1  A    between atoms: C3_3  and  C5_5 
ROOT
HETATM    1  C1  UNL     1     -35.716  14.028  -4.371  1.00 20.00     0.065 A 
HETATM    2  C2  UNL     1     -36.574  15.895  -3.018  1.00 20.00     0.069 A 
HETATM    3  C3  UNL     1     -34.726  14.618  -3.617  1.00 20.00     0.026 A 
HETATM    4  C4  UNL     1     -35.223  15.699  -2.833  1.00 20.00     0.031 A 
HETATM    5  S7  UNL     1     -37.238  14.776  -4.133  1.00 20.00    -0.111 SA
HETATM    6 BR8  UNL     1     -34.147  16.735  -1.682  1.00 20.00    -0.050 Br
ENDROOT
BRANCH   3   7
HETATM    7  C5  UNL     1     -33.364  14.147  -3.663  1.00 20.00     0.271 C 
HETATM    8  O6  UNL     1     -33.055  12.964  -3.869  1.00 20.00    -0.301 OA
ENDBRANCH   3   7
TORSDOF 1
ENDMDL
MODEL 5
REMARK VINA RESULT:      -3.4      1.204      1.211
REMARK  1 active torsions:
REMARK  status: ('A' for Active; 'I' for Inactive)
REMARK    1  A    between atoms: C3_3  and  C5_5 
ROOT
HETATM    1  C1  UNL     1     -35.500  15.616  -2.964  1.00 20.00     0.065 A 
HETATM    2  C2  UNL     1     -35.641  16.999  -4.994  1.00 20.00     0.069 A 
HETATM    3  C3  UNL     1     -34.983  14.971  -4.066  1.00 20.00     0.026 A 
HETATM    4  C4  UNL     1     -35.064  15.772  -5.242  1.00 20.00     0.031 A 
HETATM    5  S7  UNL     1     -36.081  17.180  -3.348  1.00 20.00    -0.111 SA
HETATM    6 BR8  UNL     1     -34.453  15.208  -6.934  1.00 20.00    -0.050 Br
ENDROOT
BRANCH   3   7
HETATM    7  C5  UNL     1     -34.438  13.640  -3.972  1.00 20.00     0.271 C 
HETATM    8  O6  UNL     1     -35.031  12.626  -4.371  1.00 20.00    -0.301 OA
ENDBRANCH   3   7
TORSDOF 1
ENDMDL
MODEL 6
REMARK VINA RESULT:      -3.3      6.081      6.692
REMARK  1 active torsions:
REMARK  status: ('A' for Active; 'I' for Inactive)
REMARK    1  A    between atoms: C3_3  and  C5_5 
ROOT
HETATM    1  C1  UNL     1     -33.628  19.086   1.917  1.00 20.00     0.065 A 
HETATM    2  C2  UNL     1     -35.413  17.469   1.419  1.00 20.00     0.069 A 
HETATM    3  C3  UNL     1     -33.495  18.540   0.659  1.00 20.00     0.026 A 
HETATM    4  C4  UNL     1     -34.529  17.603   0.371  1.00 20.00     0.031 A 
HETATM    5  S7  UNL     1     -34.995  18.471   2.744  1.00 20.00    -0.111 SA
HETATM    6 BR8  UNL     1     -34.661  16.662  -1.258  1.00 20.00    -0.050 Br
ENDROOT
BRANCH   3   7
HETATM    7  C5  UNL     1     -32.411  18.916  -0.214  1.00 20.00     0.271 C 
HETATM    8  O6  UNL     1     -31.290  19.256   0.193  1.00 20.00    -0.301 OA
ENDBRANCH   3   7
TORSDOF 1
ENDMDL
MODEL 7
REMARK VINA RESULT:      -3.3      2.865      3.107
REMARK  1 active torsions:
REMARK  status: ('A' for Active; 'I' for Inactive)
REMARK    1  A    between atoms: C3_3  and  C5_5 
ROOT
HETATM    1  C1  UNL     1     -35.340  13.629  -4.342  1.00 20.00     0.065 A 
HETATM    2  C2  UNL     1     -34.030  15.307  -3.109  1.00 20.00     0.069 A 
HETATM    3  C3  UNL     1     -36.107  14.708  -3.962  1.00 20.00     0.026 A 
HETATM    4  C4  UNL     1     -35.349  15.680  -3.248  1.00 20.00     0.031 A 
HETATM    5  S7  UNL     1     -33.711  13.789  -3.837  1.00 20.00    -0.111 SA
HETATM    6 BR8  UNL     1     -36.076  17.285  -2.577  1.00 20.00    -0.050 Br
ENDROOT
BRANCH   3   7
HETATM    7  C5  UNL     1     -37.511  14.782  -4.283  1.00 20.00     0.271 C 
HETATM    8  O6  UNL     1     -38.401  14.269  -3.589  1.00 20.00    -0.301 OA
ENDBRANCH   3   7
TORSDOF 1
ENDMDL
MODEL 8
REMARK VINA RESULT:      -3.3      2.157      2.381
REMARK  1 active torsions:
REMARK  status: ('A' for Active; 'I' for Inactive)
REMARK    1  A    between atoms: C3_3  and  C5_5 
ROOT
HETATM    1  C1  UNL     1     -35.946  16.564  -2.467  1.00 20.00     0.065 A 
HETATM    2  C2  UNL     1     -33.827  15.401  -2.923  1.00 20.00     0.069 A 
HETATM    3  C3  UNL     1     -36.107  15.526  -3.358  1.00 20.00     0.026 A 
HETATM    4  C4  UNL     1     -34.880  14.852  -3.622  1.00 20.00     0.031 A 
HETATM    5  S7  UNL     1     -34.321  16.724  -1.952  1.00 20.00    -0.111 SA
HETATM    6 BR8  UNL     1     -34.726  13.383  -4.795  1.00 20.00    -0.050 Br
ENDROOT
BRANCH   3   7
HETATM    7  C5  UNL     1     -37.396  15.211  -3.922  1.00 20.00     0.271 C 
HETATM    8  O6  UNL     1     -38.049  14.201  -3.618  1.00 20.00    -0.301 OA
ENDBRANCH   3   7
TORSDOF 1
ENDMDL
MODEL 9
REMARK VINA RESULT:      -3.2      3.261      3.643
REMARK  1 active torsions:
REMARK  status: ('A' for Active; 'I' for Inactive)
REMARK    1  A    between atoms: C3_3  and  C5_5 
ROOT
HETATM    1  C1  UNL     1     -34.046  14.308  -3.377  1.00 20.00     0.065 A 
HETATM    2  C2  UNL     1     -36.252  14.438  -4.458  1.00 20.00     0.069 A 
HETATM    3  C3  UNL     1     -34.768  15.401  -2.951  1.00 20.00     0.026 A 
HETATM    4  C4  UNL     1     -36.045  15.477  -3.577  1.00 20.00     0.031 A 
HETATM    5  S7  UNL     1     -34.908  13.378  -4.528  1.00 20.00    -0.111 SA
HETATM    6 BR8  UNL     1     -37.298  16.843  -3.232  1.00 20.00    -0.050 Br
ENDROOT
BRANCH   3   7
HETATM    7  C5  UNL     1     -34.233  16.324  -1.980  1.00 20.00     0.271 C 
HETATM    8  O6  UNL     1     -34.609  16.371  -0.799  1.00 20.00    -0.301 OA
ENDBRANCH   3   7
TORSDOF 1
ENDMDL
