MODEL 1
REMARK VINA RESULT:      -5.1      0.000      0.000
REMARK  1 active torsions:
REMARK  status: ('A' for Active; 'I' for Inactive)
REMARK    1  A    between atoms: C2_2  and  C3_3 
ROOT
HETATM    1  C3  UNL     1     -34.259   5.687   5.116  1.00 20.00     0.101 C 
HETATM    2  C4  UNL     1     -34.960   4.566   5.340  1.00 20.00     0.288 C 
HETATM    3  F5  UNL     1     -35.382   4.258   6.587  1.00 20.00    -0.171 F 
HETATM    4  F6  UNL     1     -35.255   3.725   4.325  1.00 20.00    -0.171 F 
HETATM    5 CL7  UNL     1     -33.910   6.730   6.461  1.00 20.00    -0.079 Cl
ENDROOT
BRANCH   1   6
HETATM    6  C2  UNL     1     -33.789   6.048   3.790  1.00 20.00     0.019 C 
HETATM    7  C1  UNL     1     -32.543   6.391   3.436  1.00 20.00     0.013 C 
ENDBRANCH   1   6
TORSDOF 1
ENDMDL
MODEL 2
REMARK VINA RESULT:      -4.9      1.997      2.388
REMARK  1 active torsions:
REMARK  status: ('A' for Active; 'I' for Inactive)
REMARK    1  A    between atoms: C2_2  and  C3_3 
ROOT
HETATM    1  C3  UNL     1     -34.026   6.069   4.829  1.00 20.00     0.101 C 
HETATM    2  C4  UNL     1     -34.090   6.278   6.152  1.00 20.00     0.288 C 
HETATM    3  F5  UNL     1     -35.043   5.676   6.897  1.00 20.00    -0.171 F 
HETATM    4  F6  UNL     1     -33.203   7.094   6.763  1.00 20.00    -0.171 F 
HETATM    5 CL7  UNL     1     -35.192   5.008   4.099  1.00 20.00    -0.079 Cl
ENDROOT
BRANCH   1   6
HETATM    6  C2  UNL     1     -33.015   6.700   3.998  1.00 20.00     0.019 C 
HETATM    7  C1  UNL     1     -32.258   6.117   3.059  1.00 20.00     0.013 C 
ENDBRANCH   1   6
TORSDOF 1
ENDMDL
MODEL 3
REMARK VINA RESULT:      -4.8      2.198      3.070
REMARK  1 active torsions:
REMARK  status: ('A' for Active; 'I' for Inactive)
REMARK    1  A    between atoms: C2_2  and  C3_3 
ROOT
HETATM    1  C3  UNL     1     -33.911   6.046   4.928  1.00 20.00     0.101 C 
HETATM    2  C4  UNL     1     -33.139   6.297   3.860  1.00 20.00     0.288 C 
HETATM    3  F5  UNL     1     -32.148   7.213   3.928  1.00 20.00    -0.171 F 
HETATM    4  F6  UNL     1     -33.338   5.638   2.697  1.00 20.00    -0.171 F 
HETATM    5 CL7  UNL     1     -33.606   6.924   6.396  1.00 20.00    -0.079 Cl
ENDROOT
BRANCH   1   6
HETATM    6  C2  UNL     1     -34.984   5.068   4.889  1.00 20.00     0.019 C 
HETATM    7  C1  UNL     1     -35.092   3.953   5.623  1.00 20.00     0.013 C 
ENDBRANCH   1   6
TORSDOF 1
ENDMDL
MODEL 4
REMARK VINA RESULT:      -4.7      2.133      2.912
REMARK  1 active torsions:
REMARK  status: ('A' for Active; 'I' for Inactive)
REMARK    1  A    between atoms: C2_2  and  C3_3 
ROOT
HETATM    1  C3  UNL     1     -33.877   6.130   4.899  1.00 20.00     0.101 C 
HETATM    2  C4  UNL     1     -33.887   6.506   6.186  1.00 20.00     0.288 C 
HETATM    3  F5  UNL     1     -32.926   7.324   6.670  1.00 20.00    -0.171 F 
HETATM    4  F6  UNL     1     -34.857   6.074   7.021  1.00 20.00    -0.171 F 
HETATM    5 CL7  UNL     1     -32.604   6.718   3.873  1.00 20.00    -0.079 Cl
ENDROOT
BRANCH   1   6
HETATM    6  C2  UNL     1     -34.893   5.252   4.346  1.00 20.00     0.019 C 
HETATM    7  C1  UNL     1     -35.191   4.007   4.740  1.00 20.00     0.013 C 
ENDBRANCH   1   6
TORSDOF 1
ENDMDL
MODEL 5
REMARK VINA RESULT:      -4.7      2.040      2.920
REMARK  1 active torsions:
REMARK  status: ('A' for Active; 'I' for Inactive)
REMARK    1  A    between atoms: C2_2  and  C3_3 
ROOT
HETATM    1  C3  UNL     1     -33.726   6.042   4.145  1.00 20.00     0.101 C 
HETATM    2  C4  UNL     1     -34.675   5.463   3.394  1.00 20.00     0.288 C 
HETATM    3  F5  UNL     1     -34.427   5.132   2.108  1.00 20.00    -0.171 F 
HETATM    4  F6  UNL     1     -35.896   5.201   3.911  1.00 20.00    -0.171 F 
HETATM    5 CL7  UNL     1     -32.176   6.353   3.426  1.00 20.00    -0.079 Cl
ENDROOT
BRANCH   1   6
HETATM    6  C2  UNL     1     -33.960   6.411   5.530  1.00 20.00     0.019 C 
HETATM    7  C1  UNL     1     -34.436   5.629   6.508  1.00 20.00     0.013 C 
ENDBRANCH   1   6
TORSDOF 1
ENDMDL
MODEL 6
REMARK VINA RESULT:      -4.5      1.622      2.330
REMARK  1 active torsions:
REMARK  status: ('A' for Active; 'I' for Inactive)
REMARK    1  A    between atoms: C2_2  and  C3_3 
ROOT
HETATM    1  C3  UNL     1     -34.353   5.539   5.301  1.00 20.00     0.101 C 
HETATM    2  C4  UNL     1     -34.983   4.357   5.382  1.00 20.00     0.288 C 
HETATM    3  F5  UNL     1     -35.095   3.562   4.294  1.00 20.00    -0.171 F 
HETATM    4  F6  UNL     1     -35.516   3.940   6.552  1.00 20.00    -0.171 F 
HETATM    5 CL7  UNL     1     -33.687   6.020   3.770  1.00 20.00    -0.079 Cl
ENDROOT
BRANCH   1   6
HETATM    6  C2  UNL     1     -34.215   6.417   6.450  1.00 20.00     0.019 C 
HETATM    7  C1  UNL     1     -33.252   7.323   6.666  1.00 20.00     0.013 C 
ENDBRANCH   1   6
TORSDOF 1
ENDMDL
MODEL 7
REMARK VINA RESULT:      -4.4      3.112      3.914
REMARK  1 active torsions:
REMARK  status: ('A' for Active; 'I' for Inactive)
REMARK    1  A    between atoms: C2_2  and  C3_3 
ROOT
HETATM    1  C3  UNL     1     -33.577   6.198   4.162  1.00 20.00     0.101 C 
HETATM    2  C4  UNL     1     -32.489   6.776   3.631  1.00 20.00     0.288 C 
HETATM    3  F5  UNL     1     -32.220   6.652   2.312  1.00 20.00    -0.171 F 
HETATM    4  F6  UNL     1     -31.643   7.490   4.405  1.00 20.00    -0.171 F 
HETATM    5 CL7  UNL     1     -34.628   5.293   3.116  1.00 20.00    -0.079 Cl
ENDROOT
BRANCH   1   6
HETATM    6  C2  UNL     1     -33.896   6.311   5.575  1.00 20.00     0.019 C 
HETATM    7  C1  UNL     1     -34.594   5.443   6.320  1.00 20.00     0.013 C 
ENDBRANCH   1   6
TORSDOF 1
ENDMDL
MODEL 8
REMARK VINA RESULT:      -4.3      2.569      3.279
REMARK  1 active torsions:
REMARK  status: ('A' for Active; 'I' for Inactive)
REMARK    1  A    between atoms: C2_2  and  C3_3 
ROOT
HETATM    1  C3  UNL     1     -34.105   5.693   4.335  1.00 20.00     0.101 C 
HETATM    2  C4  UNL     1     -33.669   5.827   3.073  1.00 20.00     0.288 C 
HETATM    3  F5  UNL     1     -34.092   4.982   2.107  1.00 20.00    -0.171 F 
HETATM    4  F6  UNL     1     -32.801   6.809   2.746  1.00 20.00    -0.171 F 
HETATM    5 CL7  UNL     1     -35.222   4.413   4.695  1.00 20.00    -0.079 Cl
ENDROOT
BRANCH   1   6
HETATM    6  C2  UNL     1     -33.671   6.584   5.397  1.00 20.00     0.019 C 
HETATM    7  C1  UNL     1     -34.066   6.571   6.677  1.00 20.00     0.013 C 
ENDBRANCH   1   6
TORSDOF 1
ENDMDL
MODEL 9
REMARK VINA RESULT:      -3.8      2.412      2.522
REMARK  1 active torsions:
REMARK  status: ('A' for Active; 'I' for Inactive)
REMARK    1  A    between atoms: C2_2  and  C3_3 
ROOT
HETATM    1  C3  UNL     1     -34.614   5.418   5.079  1.00 20.00     0.101 C 
HETATM    2  C4  UNL     1     -33.804   6.405   5.490  1.00 20.00     0.288 C 
HETATM    3  F5  UNL     1     -33.498   6.543   6.800  1.00 20.00    -0.171 F 
HETATM    4  F6  UNL     1     -33.279   7.279   4.603  1.00 20.00    -0.171 F 
HETATM    5 CL7  UNL     1     -35.256   4.324   6.266  1.00 20.00    -0.079 Cl
ENDROOT
BRANCH   1   6
HETATM    6  C2  UNL     1     -34.963   5.242   3.680  1.00 20.00     0.019 C 
HETATM    7  C1  UNL     1     -34.131   5.244   2.631  1.00 20.00     0.013 C 
ENDBRANCH   1   6
TORSDOF 1
ENDMDL
