MODEL 1
REMARK VINA RESULT:      -3.8      0.000      0.000
REMARK  2 active torsions:
REMARK  status: ('A' for Active; 'I' for Inactive)
REMARK    1  A    between atoms: C1_1  and  C5_5 
REMARK    2  A    between atoms: C5_5  and  C6_6 
ROOT
HETATM    1  C5  UNL     1     -35.411  14.796  -3.803  1.00 20.00     0.104 C 
ENDROOT
BRANCH   1   2
HETATM    2  C1  UNL     1     -35.068  13.735  -4.836  1.00 20.00     0.219 C 
HETATM    3  O7  UNL     1     -34.914  12.557  -4.523  1.00 20.00    -0.280 OA
HETATM    4 CL8  UNL     1     -34.933  14.376  -6.449  1.00 20.00    -0.044 Cl
ENDBRANCH   1   2
BRANCH   1   5
HETATM    5  C6  UNL     1     -34.249  15.745  -3.432  1.00 20.00    -0.044 C 
HETATM    6  C2  UNL     1     -34.277  17.022  -4.286  1.00 20.00     0.015 C 
HETATM    7  C3  UNL     1     -34.413  16.144  -1.951  1.00 20.00     0.015 C 
HETATM    8  C4  UNL     1     -32.885  15.053  -3.598  1.00 20.00     0.015 C 
ENDBRANCH   1   5
TORSDOF 2
ENDMDL
MODEL 2
REMARK VINA RESULT:      -3.8      0.168      1.515
REMARK  2 active torsions:
REMARK  status: ('A' for Active; 'I' for Inactive)
REMARK    1  A    between atoms: C1_1  and  C5_5 
REMARK    2  A    between atoms: C5_5  and  C6_6 
ROOT
HETATM    1  C5  UNL     1     -35.551  14.809  -3.786  1.00 20.00     0.104 C 
ENDROOT
BRANCH   1   2
HETATM    2  C1  UNL     1     -35.133  13.741  -4.784  1.00 20.00     0.219 C 
HETATM    3  O7  UNL     1     -34.944  12.578  -4.440  1.00 20.00    -0.280 OA
HETATM    4 CL8  UNL     1     -34.971  14.353  -6.406  1.00 20.00    -0.044 Cl
ENDBRANCH   1   2
BRANCH   1   5
HETATM    5  C6  UNL     1     -34.425  15.778  -3.357  1.00 20.00    -0.044 C 
HETATM    6  C2  UNL     1     -33.038  15.169  -3.613  1.00 20.00     0.015 C 
HETATM    7  C3  UNL     1     -34.557  17.064  -4.197  1.00 20.00     0.015 C 
HETATM    8  C4  UNL     1     -34.547  16.156  -1.871  1.00 20.00     0.015 C 
ENDBRANCH   1   5
TORSDOF 2
ENDMDL
MODEL 3
REMARK VINA RESULT:      -3.7      0.046      1.531
REMARK  2 active torsions:
REMARK  status: ('A' for Active; 'I' for Inactive)
REMARK    1  A    between atoms: C1_1  and  C5_5 
REMARK    2  A    between atoms: C5_5  and  C6_6 
ROOT
HETATM    1  C5  UNL     1     -35.431  14.784  -3.799  1.00 20.00     0.104 C 
ENDROOT
BRANCH   1   2
HETATM    2  C1  UNL     1     -35.048  13.745  -4.841  1.00 20.00     0.219 C 
HETATM    3  O7  UNL     1     -34.870  12.568  -4.540  1.00 20.00    -0.280 OA
HETATM    4 CL8  UNL     1     -34.906  14.409  -6.443  1.00 20.00    -0.044 Cl
ENDBRANCH   1   2
BRANCH   1   5
HETATM    5  C6  UNL     1     -34.296  15.751  -3.393  1.00 20.00    -0.044 C 
HETATM    6  C2  UNL     1     -34.412  16.162  -1.918  1.00 20.00     0.015 C 
HETATM    7  C3  UNL     1     -32.953  15.020  -3.593  1.00 20.00     0.015 C 
HETATM    8  C4  UNL     1     -34.294  17.013  -4.273  1.00 20.00     0.015 C 
ENDBRANCH   1   5
TORSDOF 2
ENDMDL
MODEL 4
REMARK VINA RESULT:      -3.6      1.959      2.588
REMARK  2 active torsions:
REMARK  status: ('A' for Active; 'I' for Inactive)
REMARK    1  A    between atoms: C1_1  and  C5_5 
REMARK    2  A    between atoms: C5_5  and  C6_6 
ROOT
HETATM    1  C5  UNL     1     -35.147  15.011  -4.349  1.00 20.00     0.104 C 
ENDROOT
BRANCH   1   2
HETATM    2  C1  UNL     1     -34.507  13.640  -4.194  1.00 20.00     0.219 C 
HETATM    3  O7  UNL     1     -35.113  12.611  -4.482  1.00 20.00    -0.280 OA
HETATM    4 CL8  UNL     1     -32.876  13.716  -3.591  1.00 20.00    -0.044 Cl
ENDBRANCH   1   2
BRANCH   1   5
HETATM    5  C6  UNL     1     -34.678  15.814  -5.585  1.00 20.00    -0.044 C 
HETATM    6  C2  UNL     1     -34.430  14.892  -6.788  1.00 20.00     0.015 C 
HETATM    7  C3  UNL     1     -35.794  16.812  -5.955  1.00 20.00     0.015 C 
HETATM    8  C4  UNL     1     -33.398  16.611  -5.282  1.00 20.00     0.015 C 
ENDBRANCH   1   5
TORSDOF 2
ENDMDL
MODEL 5
REMARK VINA RESULT:      -3.5      1.924      2.744
REMARK  2 active torsions:
REMARK  status: ('A' for Active; 'I' for Inactive)
REMARK    1  A    between atoms: C1_1  and  C5_5 
REMARK    2  A    between atoms: C5_5  and  C6_6 
ROOT
HETATM    1  C5  UNL     1     -35.107  15.060  -4.219  1.00 20.00     0.104 C 
ENDROOT
BRANCH   1   2
HETATM    2  C1  UNL     1     -34.496  13.672  -4.109  1.00 20.00     0.219 C 
HETATM    3  O7  UNL     1     -35.138  12.663  -4.387  1.00 20.00    -0.280 OA
HETATM    4 CL8  UNL     1     -32.841  13.699  -3.570  1.00 20.00    -0.044 Cl
ENDBRANCH   1   2
BRANCH   1   5
HETATM    5  C6  UNL     1     -34.641  15.883  -5.442  1.00 20.00    -0.044 C 
HETATM    6  C2  UNL     1     -33.322  16.614  -5.152  1.00 20.00     0.015 C 
HETATM    7  C3  UNL     1     -34.412  14.908  -6.614  1.00 20.00     0.015 C 
HETATM    8  C4  UNL     1     -35.707  16.907  -5.867  1.00 20.00     0.015 C 
ENDBRANCH   1   5
TORSDOF 2
ENDMDL
MODEL 6
REMARK VINA RESULT:      -3.4      2.439      3.458
REMARK  2 active torsions:
REMARK  status: ('A' for Active; 'I' for Inactive)
REMARK    1  A    between atoms: C1_1  and  C5_5 
REMARK    2  A    between atoms: C5_5  and  C6_6 
ROOT
HETATM    1  C5  UNL     1     -33.769  15.788  -5.035  1.00 20.00     0.104 C 
ENDROOT
BRANCH   1   2
HETATM    2  C1  UNL     1     -33.293  15.307  -3.674  1.00 20.00     0.219 C 
HETATM    3  O7  UNL     1     -32.225  14.716  -3.538  1.00 20.00    -0.280 OA
HETATM    4 CL8  UNL     1     -34.404  15.692  -2.390  1.00 20.00    -0.044 Cl
ENDBRANCH   1   2
BRANCH   1   5
HETATM    5  C6  UNL     1     -34.832  14.889  -5.709  1.00 20.00    -0.044 C 
HETATM    6  C2  UNL     1     -36.248  15.446  -5.498  1.00 20.00     0.015 C 
HETATM    7  C3  UNL     1     -34.540  14.858  -7.223  1.00 20.00     0.015 C 
HETATM    8  C4  UNL     1     -34.768  13.449  -5.175  1.00 20.00     0.015 C 
ENDBRANCH   1   5
TORSDOF 2
ENDMDL
MODEL 7
REMARK VINA RESULT:      -3.4      3.090      3.825
REMARK  2 active torsions:
REMARK  status: ('A' for Active; 'I' for Inactive)
REMARK    1  A    between atoms: C1_1  and  C5_5 
REMARK    2  A    between atoms: C5_5  and  C6_6 
ROOT
HETATM    1  C5  UNL     1     -33.596  15.465  -3.076  1.00 20.00     0.104 C 
ENDROOT
BRANCH   1   2
HETATM    2  C1  UNL     1     -33.964  16.776  -2.399  1.00 20.00     0.219 C 
HETATM    3  O7  UNL     1     -33.850  17.853  -2.978  1.00 20.00    -0.280 OA
HETATM    4 CL8  UNL     1     -34.549  16.561  -0.774  1.00 20.00    -0.044 Cl
ENDBRANCH   1   2
BRANCH   1   5
HETATM    5  C6  UNL     1     -34.671  14.901  -4.033  1.00 20.00    -0.044 C 
HETATM    6  C2  UNL     1     -34.527  15.492  -5.444  1.00 20.00     0.015 C 
HETATM    7  C3  UNL     1     -34.477  13.374  -4.120  1.00 20.00     0.015 C 
HETATM    8  C4  UNL     1     -36.090  15.178  -3.508  1.00 20.00     0.015 C 
ENDBRANCH   1   5
TORSDOF 2
ENDMDL
MODEL 8
REMARK VINA RESULT:      -3.4      1.897      2.726
REMARK  2 active torsions:
REMARK  status: ('A' for Active; 'I' for Inactive)
REMARK    1  A    between atoms: C1_1  and  C5_5 
REMARK    2  A    between atoms: C5_5  and  C6_6 
ROOT
HETATM    1  C5  UNL     1     -34.639  14.806  -5.285  1.00 20.00     0.104 C 
ENDROOT
BRANCH   1   2
HETATM    2  C1  UNL     1     -34.303  13.544  -4.506  1.00 20.00     0.219 C 
HETATM    3  O7  UNL     1     -35.009  12.541  -4.571  1.00 20.00    -0.280 OA
HETATM    4 CL8  UNL     1     -32.853  13.698  -3.557  1.00 20.00    -0.044 Cl
ENDBRANCH   1   2
BRANCH   1   5
HETATM    5  C6  UNL     1     -35.787  15.654  -4.690  1.00 20.00    -0.044 C 
HETATM    6  C2  UNL     1     -35.833  15.536  -3.159  1.00 20.00     0.015 C 
HETATM    7  C3  UNL     1     -35.530  17.129  -5.059  1.00 20.00     0.015 C 
HETATM    8  C4  UNL     1     -37.149  15.241  -5.273  1.00 20.00     0.015 C 
ENDBRANCH   1   5
TORSDOF 2
ENDMDL
MODEL 9
REMARK VINA RESULT:      -3.3      2.692      3.530
REMARK  2 active torsions:
REMARK  status: ('A' for Active; 'I' for Inactive)
REMARK    1  A    between atoms: C1_1  and  C5_5 
REMARK    2  A    between atoms: C5_5  and  C6_6 
ROOT
HETATM    1  C5  UNL     1     -36.486  15.351  -5.412  1.00 20.00     0.104 C 
ENDROOT
BRANCH   1   2
HETATM    2  C1  UNL     1     -36.807  14.927  -3.988  1.00 20.00     0.219 C 
HETATM    3  O7  UNL     1     -37.719  14.143  -3.740  1.00 20.00    -0.280 OA
HETATM    4 CL8  UNL     1     -35.759  15.661  -2.808  1.00 20.00    -0.044 Cl
ENDBRANCH   1   2
BRANCH   1   5
HETATM    5  C6  UNL     1     -35.180  14.757  -5.990  1.00 20.00    -0.044 C 
HETATM    6  C2  UNL     1     -34.777  13.471  -5.253  1.00 20.00     0.015 C 
HETATM    7  C3  UNL     1     -35.429  14.413  -7.473  1.00 20.00     0.015 C 
HETATM    8  C4  UNL     1     -34.024  15.769  -5.917  1.00 20.00     0.015 C 
ENDBRANCH   1   5
TORSDOF 2
ENDMDL
