MODEL 1
REMARK VINA RESULT:      -4.5      0.000      0.000
REMARK  2 active torsions:
REMARK  status: ('A' for Active; 'I' for Inactive)
REMARK    1  A    between atoms: C3_3  and  C4_4 
REMARK    2  A    between atoms: C4_4  and  C5_5 
ROOT
HETATM    1  C1  UNL     1     -33.702   6.972   6.598  1.00 20.00     0.012 C 
HETATM    2  C2  UNL     1     -34.300   5.950   6.404  1.00 20.00    -0.117 C 
HETATM    3  C3  UNL     1     -35.033   4.697   6.172  1.00 20.00     0.094 C 
ENDROOT
BRANCH   3   4
HETATM    4  C4  UNL     1     -35.022   4.280   4.698  1.00 20.00     0.027 C 
BRANCH   4   5
HETATM    5  C5  UNL     1     -35.091   5.432   3.697  1.00 20.00     0.115 C 
HETATM    6 CL6  UNL     1     -33.505   5.792   2.978  1.00 20.00    -0.130 Cl
ENDBRANCH   4   5
ENDBRANCH   3   4
TORSDOF 2
ENDMDL
MODEL 2
REMARK VINA RESULT:      -4.3      2.248      2.987
REMARK  2 active torsions:
REMARK  status: ('A' for Active; 'I' for Inactive)
REMARK    1  A    between atoms: C3_3  and  C4_4 
REMARK    2  A    between atoms: C4_4  and  C5_5 
ROOT
HETATM    1  C1  UNL     1     -32.192   6.783   3.442  1.00 20.00     0.012 C 
HETATM    2  C2  UNL     1     -33.154   6.099   3.222  1.00 20.00    -0.117 C 
HETATM    3  C3  UNL     1     -34.330   5.262   2.946  1.00 20.00     0.094 C 
ENDROOT
BRANCH   3   4
HETATM    4  C4  UNL     1     -35.322   5.248   4.113  1.00 20.00     0.027 C 
BRANCH   4   5
HETATM    5  C5  UNL     1     -34.765   4.716   5.433  1.00 20.00     0.115 C 
HETATM    6 CL6  UNL     1     -34.338   6.026   6.557  1.00 20.00    -0.130 Cl
ENDBRANCH   4   5
ENDBRANCH   3   4
TORSDOF 2
ENDMDL
MODEL 3
REMARK VINA RESULT:      -4.3      1.797      2.602
REMARK  2 active torsions:
REMARK  status: ('A' for Active; 'I' for Inactive)
REMARK    1  A    between atoms: C3_3  and  C4_4 
REMARK    2  A    between atoms: C4_4  and  C5_5 
ROOT
HETATM    1  C1  UNL     1     -34.962   4.243   5.982  1.00 20.00     0.012 C 
HETATM    2  C2  UNL     1     -34.978   4.865   4.955  1.00 20.00    -0.117 C 
HETATM    3  C3  UNL     1     -35.003   5.627   3.699  1.00 20.00     0.094 C 
ENDROOT
BRANCH   3   4
HETATM    4  C4  UNL     1     -33.648   5.616   2.984  1.00 20.00     0.027 C 
BRANCH   4   5
HETATM    5  C5  UNL     1     -32.603   6.572   3.559  1.00 20.00     0.115 C 
HETATM    6 CL6  UNL     1     -32.134   7.831   2.394  1.00 20.00    -0.130 Cl
ENDBRANCH   4   5
ENDBRANCH   3   4
TORSDOF 2
ENDMDL
MODEL 4
REMARK VINA RESULT:      -4.2      2.778      3.383
REMARK  2 active torsions:
REMARK  status: ('A' for Active; 'I' for Inactive)
REMARK    1  A    between atoms: C3_3  and  C4_4 
REMARK    2  A    between atoms: C4_4  and  C5_5 
ROOT
HETATM    1  C1  UNL     1     -32.074   7.980   2.202  1.00 20.00     0.012 C 
HETATM    2  C2  UNL     1     -32.495   7.130   2.939  1.00 20.00    -0.117 C 
HETATM    3  C3  UNL     1     -33.004   6.090   3.843  1.00 20.00     0.094 C 
ENDROOT
BRANCH   3   4
HETATM    4  C4  UNL     1     -34.477   5.762   3.582  1.00 20.00     0.027 C 
BRANCH   4   5
HETATM    5  C5  UNL     1     -35.139   4.868   4.630  1.00 20.00     0.115 C 
HETATM    6 CL6  UNL     1     -34.716   5.354   6.288  1.00 20.00    -0.130 Cl
ENDBRANCH   4   5
ENDBRANCH   3   4
TORSDOF 2
ENDMDL
MODEL 5
REMARK VINA RESULT:      -4.1      2.460      3.201
REMARK  2 active torsions:
REMARK  status: ('A' for Active; 'I' for Inactive)
REMARK    1  A    between atoms: C3_3  and  C4_4 
REMARK    2  A    between atoms: C4_4  and  C5_5 
ROOT
HETATM    1  C1  UNL     1     -31.861   7.252   2.944  1.00 20.00     0.012 C 
HETATM    2  C2  UNL     1     -32.834   6.773   3.459  1.00 20.00    -0.117 C 
HETATM    3  C3  UNL     1     -34.027   6.186   4.084  1.00 20.00     0.094 C 
ENDROOT
BRANCH   3   4
HETATM    4  C4  UNL     1     -34.042   6.376   5.604  1.00 20.00     0.027 C 
BRANCH   4   5
HETATM    5  C5  UNL     1     -34.652   5.220   6.397  1.00 20.00     0.115 C 
HETATM    6 CL6  UNL     1     -34.971   3.801   5.374  1.00 20.00    -0.130 Cl
ENDBRANCH   4   5
ENDBRANCH   3   4
TORSDOF 2
ENDMDL
MODEL 6
REMARK VINA RESULT:      -4.1      3.356      4.038
REMARK  2 active torsions:
REMARK  status: ('A' for Active; 'I' for Inactive)
REMARK    1  A    between atoms: C3_3  and  C4_4 
REMARK    2  A    between atoms: C4_4  and  C5_5 
ROOT
HETATM    1  C1  UNL     1     -32.058   8.759   1.431  1.00 20.00     0.012 C 
HETATM    2  C2  UNL     1     -32.077   7.919   2.288  1.00 20.00    -0.117 C 
HETATM    3  C3  UNL     1     -32.095   6.892   3.339  1.00 20.00     0.094 C 
ENDROOT
BRANCH   3   4
HETATM    4  C4  UNL     1     -33.424   6.132   3.387  1.00 20.00     0.027 C 
BRANCH   4   5
HETATM    5  C5  UNL     1     -34.034   5.978   4.781  1.00 20.00     0.115 C 
HETATM    6 CL6  UNL     1     -35.165   4.609   4.870  1.00 20.00    -0.130 Cl
ENDBRANCH   4   5
ENDBRANCH   3   4
TORSDOF 2
ENDMDL
MODEL 7
REMARK VINA RESULT:      -3.9      1.165      2.328
REMARK  2 active torsions:
REMARK  status: ('A' for Active; 'I' for Inactive)
REMARK    1  A    between atoms: C3_3  and  C4_4 
REMARK    2  A    between atoms: C4_4  and  C5_5 
ROOT
HETATM    1  C1  UNL     1     -35.151   3.850   5.616  1.00 20.00     0.012 C 
HETATM    2  C2  UNL     1     -34.741   4.922   5.969  1.00 20.00    -0.117 C 
HETATM    3  C3  UNL     1     -34.242   6.233   6.406  1.00 20.00     0.094 C 
ENDROOT
BRANCH   3   4
HETATM    4  C4  UNL     1     -33.361   6.904   5.347  1.00 20.00     0.027 C 
BRANCH   4   5
HETATM    5  C5  UNL     1     -33.641   6.480   3.906  1.00 20.00     0.115 C 
HETATM    6 CL6  UNL     1     -32.151   6.060   3.030  1.00 20.00    -0.130 Cl
ENDBRANCH   4   5
ENDBRANCH   3   4
TORSDOF 2
ENDMDL
MODEL 8
REMARK VINA RESULT:      -3.8      3.298      4.120
REMARK  2 active torsions:
REMARK  status: ('A' for Active; 'I' for Inactive)
REMARK    1  A    between atoms: C3_3  and  C4_4 
REMARK    2  A    between atoms: C4_4  and  C5_5 
ROOT
HETATM    1  C1  UNL     1     -34.897   5.514   3.846  1.00 20.00     0.012 C 
HETATM    2  C2  UNL     1     -33.781   5.786   3.497  1.00 20.00    -0.117 C 
HETATM    3  C3  UNL     1     -32.414   6.112   3.070  1.00 20.00     0.094 C 
ENDROOT
BRANCH   3   4
HETATM    4  C4  UNL     1     -32.141   7.619   3.089  1.00 20.00     0.027 C 
BRANCH   4   5
HETATM    5  C5  UNL     1     -31.930   8.258   1.717  1.00 20.00     0.115 C 
HETATM    6 CL6  UNL     1     -32.599   9.904   1.635  1.00 20.00    -0.130 Cl
ENDBRANCH   4   5
ENDBRANCH   3   4
TORSDOF 2
ENDMDL
MODEL 9
REMARK VINA RESULT:      -3.5      1.811      2.236
REMARK  2 active torsions:
REMARK  status: ('A' for Active; 'I' for Inactive)
REMARK    1  A    between atoms: C3_3  and  C4_4 
REMARK    2  A    between atoms: C4_4  and  C5_5 
ROOT
HETATM    1  C1  UNL     1     -33.745   6.918   6.553  1.00 20.00     0.012 C 
HETATM    2  C2  UNL     1     -33.585   6.742   5.376  1.00 20.00    -0.117 C 
HETATM    3  C3  UNL     1     -33.386   6.530   3.936  1.00 20.00     0.094 C 
ENDROOT
BRANCH   3   4
HETATM    4  C4  UNL     1     -34.270   5.407   3.384  1.00 20.00     0.027 C 
BRANCH   4   5
HETATM    5  C5  UNL     1     -35.448   5.012   4.273  1.00 20.00     0.115 C 
HETATM    6 CL6  UNL     1     -35.015   3.732   5.430  1.00 20.00    -0.130 Cl
ENDBRANCH   4   5
ENDBRANCH   3   4
TORSDOF 2
ENDMDL
