MODEL 1
REMARK VINA RESULT:      -5.7      0.000      0.000
REMARK  0 active torsions:
REMARK  status: ('A' for Active; 'I' for Inactive)
ROOT
HETATM    1  C1  UNL     1     -34.296   6.486   5.921  1.00 20.00     0.288 C 
HETATM    2  C2  UNL     1     -34.843   5.049   6.083  1.00 20.00     0.288 C 
HETATM    3  C3  UNL     1     -33.960   6.122   4.455  1.00 20.00     0.343 C 
HETATM    4  C4  UNL     1     -35.045   5.021   4.550  1.00 20.00     0.343 C 
HETATM    5  F5  UNL     1     -33.242   6.807   6.704  1.00 20.00    -0.240 F 
HETATM    6  F6  UNL     1     -33.956   4.145   6.565  1.00 20.00    -0.240 F 
HETATM    7  F7  UNL     1     -32.701   5.675   4.246  1.00 20.00    -0.196 F 
HETATM    8  F8  UNL     1     -34.189   7.093   3.543  1.00 20.00    -0.196 F 
HETATM    9  F9  UNL     1     -34.746   3.852   3.940  1.00 20.00    -0.196 F 
HETATM   10  F10 UNL     1     -36.276   5.384   4.122  1.00 20.00    -0.196 F 
ENDROOT
TORSDOF 0
ENDMDL
MODEL 2
REMARK VINA RESULT:      -5.2      0.857      2.796
REMARK  0 active torsions:
REMARK  status: ('A' for Active; 'I' for Inactive)
ROOT
HETATM    1  C1  UNL     1     -34.401   4.674   5.518  1.00 20.00     0.288 C 
HETATM    2  C2  UNL     1     -33.756   6.056   5.769  1.00 20.00     0.288 C 
HETATM    3  C3  UNL     1     -34.807   5.190   4.118  1.00 20.00     0.343 C 
HETATM    4  C4  UNL     1     -33.651   6.215   4.234  1.00 20.00     0.343 C 
HETATM    5  F5  UNL     1     -35.421   4.342   6.341  1.00 20.00    -0.240 F 
HETATM    6  F6  UNL     1     -34.552   6.960   6.390  1.00 20.00    -0.240 F 
HETATM    7  F7  UNL     1     -36.047   5.726   4.037  1.00 20.00    -0.196 F 
HETATM    8  F8  UNL     1     -34.698   4.298   3.109  1.00 20.00    -0.196 F 
HETATM    9  F9  UNL     1     -33.914   7.450   3.753  1.00 20.00    -0.196 F 
HETATM   10  F10 UNL     1     -32.475   5.824   3.691  1.00 20.00    -0.196 F 
ENDROOT
TORSDOF 0
ENDMDL
MODEL 3
REMARK VINA RESULT:      -4.9      0.956      2.782
REMARK  0 active torsions:
REMARK  status: ('A' for Active; 'I' for Inactive)
ROOT
HETATM    1  C1  UNL     1     -33.639   5.981   4.350  1.00 20.00     0.288 C 
HETATM    2  C2  UNL     1     -34.800   4.962   4.339  1.00 20.00     0.288 C 
HETATM    3  C3  UNL     1     -33.952   6.224   5.845  1.00 20.00     0.343 C 
HETATM    4  C4  UNL     1     -34.605   4.819   5.867  1.00 20.00     0.343 C 
HETATM    5  F5  UNL     1     -33.786   7.052   3.537  1.00 20.00    -0.240 F 
HETATM    6  F6  UNL     1     -36.000   5.458   3.953  1.00 20.00    -0.240 F 
HETATM    7  F7  UNL     1     -34.792   7.254   6.100  1.00 20.00    -0.196 F 
HETATM    8  F8  UNL     1     -32.880   6.383   6.652  1.00 20.00    -0.196 F 
HETATM    9  F9  UNL     1     -35.739   4.713   6.595  1.00 20.00    -0.196 F 
HETATM   10  F10 UNL     1     -33.793   3.810   6.255  1.00 20.00    -0.196 F 
ENDROOT
TORSDOF 0
ENDMDL
MODEL 4
REMARK VINA RESULT:      -4.7      0.970      3.220
REMARK  0 active torsions:
REMARK  status: ('A' for Active; 'I' for Inactive)
ROOT
HETATM    1  C1  UNL     1     -34.983   5.446   4.460  1.00 20.00     0.288 C 
HETATM    2  C2  UNL     1     -33.800   6.434   4.573  1.00 20.00     0.288 C 
HETATM    3  C3  UNL     1     -34.631   4.962   5.886  1.00 20.00     0.343 C 
HETATM    4  C4  UNL     1     -33.945   6.333   6.110  1.00 20.00     0.343 C 
HETATM    5  F5  UNL     1     -34.884   4.517   3.482  1.00 20.00    -0.240 F 
HETATM    6  F6  UNL     1     -32.623   5.985   4.074  1.00 20.00    -0.240 F 
HETATM    7  F7  UNL     1     -33.807   3.890   5.945  1.00 20.00    -0.196 F 
HETATM    8  F8  UNL     1     -35.682   4.695   6.691  1.00 20.00    -0.196 F 
HETATM    9  F9  UNL     1     -32.789   6.302   6.807  1.00 20.00    -0.196 F 
HETATM   10  F10 UNL     1     -34.723   7.281   6.680  1.00 20.00    -0.196 F 
ENDROOT
TORSDOF 0
ENDMDL
MODEL 5
REMARK VINA RESULT:      -4.6      1.360      2.836
REMARK  0 active torsions:
REMARK  status: ('A' for Active; 'I' for Inactive)
ROOT
HETATM    1  C1  UNL     1     -32.880   5.890   3.632  1.00 20.00     0.288 C 
HETATM    2  C2  UNL     1     -33.930   4.939   3.015  1.00 20.00     0.288 C 
HETATM    3  C3  UNL     1     -34.008   6.445   4.533  1.00 20.00     0.343 C 
HETATM    4  C4  UNL     1     -34.750   5.103   4.316  1.00 20.00     0.343 C 
HETATM    5  F5  UNL     1     -32.316   6.777   2.781  1.00 20.00    -0.240 F 
HETATM    6  F6  UNL     1     -34.533   5.395   1.891  1.00 20.00    -0.240 F 
HETATM    7  F7  UNL     1     -34.643   7.540   4.055  1.00 20.00    -0.196 F 
HETATM    8  F8  UNL     1     -33.657   6.720   5.809  1.00 20.00    -0.196 F 
HETATM    9  F9  UNL     1     -36.089   5.195   4.157  1.00 20.00    -0.196 F 
HETATM   10  F10 UNL     1     -34.530   4.161   5.261  1.00 20.00    -0.196 F 
ENDROOT
TORSDOF 0
ENDMDL
MODEL 6
REMARK VINA RESULT:      -4.6      1.195      2.949
REMARK  0 active torsions:
REMARK  status: ('A' for Active; 'I' for Inactive)
ROOT
HETATM    1  C1  UNL     1     -34.209   5.015   3.177  1.00 20.00     0.288 C 
HETATM    2  C2  UNL     1     -35.288   4.737   4.248  1.00 20.00     0.288 C 
HETATM    3  C3  UNL     1     -33.661   6.120   4.109  1.00 20.00     0.343 C 
HETATM    4  C4  UNL     1     -34.328   5.366   5.286  1.00 20.00     0.343 C 
HETATM    5  F5  UNL     1     -34.666   5.432   1.975  1.00 20.00    -0.240 F 
HETATM    6  F6  UNL     1     -36.459   5.394   4.072  1.00 20.00    -0.240 F 
HETATM    7  F7  UNL     1     -34.140   7.364   3.875  1.00 20.00    -0.196 F 
HETATM    8  F8  UNL     1     -32.314   6.224   4.168  1.00 20.00    -0.196 F 
HETATM    9  F9  UNL     1     -34.909   6.145   6.225  1.00 20.00    -0.196 F 
HETATM   10  F10 UNL     1     -33.529   4.492   5.939  1.00 20.00    -0.196 F 
ENDROOT
TORSDOF 0
ENDMDL
MODEL 7
REMARK VINA RESULT:      -4.6      1.300      3.140
REMARK  0 active torsions:
REMARK  status: ('A' for Active; 'I' for Inactive)
ROOT
HETATM    1  C1  UNL     1     -35.108   5.990   3.894  1.00 20.00     0.288 C 
HETATM    2  C2  UNL     1     -34.165   5.737   2.696  1.00 20.00     0.288 C 
HETATM    3  C3  UNL     1     -33.867   5.873   4.811  1.00 20.00     0.343 C 
HETATM    4  C4  UNL     1     -33.006   6.252   3.581  1.00 20.00     0.343 C 
HETATM    5  F5  UNL     1     -36.073   5.064   4.090  1.00 20.00    -0.240 F 
HETATM    6  F6  UNL     1     -34.062   4.443   2.306  1.00 20.00    -0.240 F 
HETATM    7  F7  UNL     1     -33.638   4.640   5.318  1.00 20.00    -0.196 F 
HETATM    8  F8  UNL     1     -33.821   6.739   5.848  1.00 20.00    -0.196 F 
HETATM    9  F9  UNL     1     -31.835   5.587   3.460  1.00 20.00    -0.196 F 
HETATM   10  F10 UNL     1     -32.724   7.569   3.457  1.00 20.00    -0.196 F 
ENDROOT
TORSDOF 0
ENDMDL
MODEL 8
REMARK VINA RESULT:      -4.5      8.873      9.542
REMARK  0 active torsions:
REMARK  status: ('A' for Active; 'I' for Inactive)
ROOT
HETATM    1  C1  UNL     1     -42.818   5.924  -0.686  1.00 20.00     0.288 C 
HETATM    2  C2  UNL     1     -42.395   4.467  -0.393  1.00 20.00     0.288 C 
HETATM    3  C3  UNL     1     -41.378   6.171  -1.193  1.00 20.00     0.343 C 
HETATM    4  C4  UNL     1     -41.277   4.647  -1.446  1.00 20.00     0.343 C 
HETATM    5  F5  UNL     1     -43.197   6.654   0.387  1.00 20.00    -0.240 F 
HETATM    6  F6  UNL     1     -41.965   4.233   0.871  1.00 20.00    -0.240 F 
HETATM    7  F7  UNL     1     -40.516   6.660  -0.271  1.00 20.00    -0.196 F 
HETATM    8  F8  UNL     1     -41.268   6.956  -2.288  1.00 20.00    -0.196 F 
HETATM    9  F9  UNL     1     -40.088   4.081  -1.143  1.00 20.00    -0.196 F 
HETATM   10  F10 UNL     1     -41.593   4.247  -2.700  1.00 20.00    -0.196 F 
ENDROOT
TORSDOF 0
ENDMDL
MODEL 9
REMARK VINA RESULT:      -4.5     12.217     13.475
REMARK  0 active torsions:
REMARK  status: ('A' for Active; 'I' for Inactive)
ROOT
HETATM    1  C1  UNL     1     -33.851  16.076  -2.731  1.00 20.00     0.288 C 
HETATM    2  C2  UNL     1     -34.763  16.412  -3.932  1.00 20.00     0.288 C 
HETATM    3  C3  UNL     1     -33.323  14.875  -3.551  1.00 20.00     0.343 C 
HETATM    4  C4  UNL     1     -33.766  15.637  -4.825  1.00 20.00     0.343 C 
HETATM    5  F5  UNL     1     -34.485  15.768  -1.577  1.00 20.00    -0.240 F 
HETATM    6  F6  UNL     1     -36.012  15.889  -3.873  1.00 20.00    -0.240 F 
HETATM    7  F7  UNL     1     -33.959  13.701  -3.330  1.00 20.00    -0.196 F 
HETATM    8  F8  UNL     1     -31.999  14.630  -3.446  1.00 20.00    -0.196 F 
HETATM    9  F9  UNL     1     -34.317  14.878  -5.797  1.00 20.00    -0.196 F 
HETATM   10  F10 UNL     1     -32.807  16.390  -5.410  1.00 20.00    -0.196 F 
ENDROOT
TORSDOF 0
ENDMDL
