MODEL 1
REMARK VINA RESULT:      -3.6      0.000      0.000
REMARK  0 active torsions:
REMARK  status: ('A' for Active; 'I' for Inactive)
REMARK       I    between atoms: C2_2  and  N4_4 
ROOT
HETATM    1  C1  UNL     1     -33.625   6.213   3.860  1.00 20.00     0.166 C 
HETATM    2  C2  UNL     1     -34.689   5.409   5.596  1.00 20.00     0.240 C 
HETATM    3  C3  UNL     1     -34.795   3.920   5.508  1.00 20.00     0.119 C 
HETATM    4  N4  UNL     1     -34.669   6.036   4.368  1.00 20.00    -0.200 NA
HETATM    5  O5  UNL     1     -34.631   5.933   6.704  1.00 20.00    -0.272 OA
HETATM    6  S6  UNL     1     -32.228   6.471   3.139  1.00 20.00    -0.055 SA
ENDROOT
TORSDOF 0
ENDMDL
MODEL 2
REMARK VINA RESULT:      -3.3      1.964      2.086
REMARK  0 active torsions:
REMARK  status: ('A' for Active; 'I' for Inactive)
REMARK       I    between atoms: C2_2  and  N4_4 
ROOT
HETATM    1  C1  UNL     1     -32.596   6.777   3.075  1.00 20.00     0.166 C 
HETATM    2  C2  UNL     1     -34.153   5.805   4.269  1.00 20.00     0.240 C 
HETATM    3  C3  UNL     1     -34.082   6.250   5.694  1.00 20.00     0.119 C 
HETATM    4  N4  UNL     1     -32.932   5.797   3.629  1.00 20.00    -0.200 NA
HETATM    5  O5  UNL     1     -35.245   5.496   3.800  1.00 20.00    -0.272 OA
HETATM    6  S6  UNL     1     -32.107   8.087   2.313  1.00 20.00    -0.055 SA
ENDROOT
TORSDOF 0
ENDMDL
MODEL 3
REMARK VINA RESULT:      -3.1     12.518     12.800
REMARK  0 active torsions:
REMARK  status: ('A' for Active; 'I' for Inactive)
REMARK       I    between atoms: C2_2  and  N4_4 
ROOT
HETATM    1  C1  UNL     1     -35.440  15.310  -3.037  1.00 20.00     0.166 C 
HETATM    2  C2  UNL     1     -35.291  13.770  -4.586  1.00 20.00     0.240 C 
HETATM    3  C3  UNL     1     -34.835  14.364  -5.880  1.00 20.00     0.119 C 
HETATM    4  N4  UNL     1     -36.023  14.639  -3.805  1.00 20.00    -0.200 NA
HETATM    5  O5  UNL     1     -34.991  12.608  -4.331  1.00 20.00    -0.272 OA
HETATM    6  S6  UNL     1     -34.685  16.236  -1.984  1.00 20.00    -0.055 SA
ENDROOT
TORSDOF 0
ENDMDL
MODEL 4
REMARK VINA RESULT:      -3.1     12.874     13.330
REMARK  0 active torsions:
REMARK  status: ('A' for Active; 'I' for Inactive)
REMARK       I    between atoms: C2_2  and  N4_4 
ROOT
HETATM    1  C1  UNL     1     -35.098  15.368  -5.616  1.00 20.00     0.166 C 
HETATM    2  C2  UNL     1     -34.375  13.537  -4.657  1.00 20.00     0.240 C 
HETATM    3  C3  UNL     1     -33.257  13.841  -3.713  1.00 20.00     0.119 C 
HETATM    4  N4  UNL     1     -34.443  14.400  -5.731  1.00 20.00    -0.200 NA
HETATM    5  O5  UNL     1     -35.112  12.586  -4.414  1.00 20.00    -0.272 OA
HETATM    6  S6  UNL     1     -35.976  16.691  -5.498  1.00 20.00    -0.055 SA
ENDROOT
TORSDOF 0
ENDMDL
MODEL 5
REMARK VINA RESULT:      -3.1     12.566     12.846
REMARK  0 active torsions:
REMARK  status: ('A' for Active; 'I' for Inactive)
REMARK       I    between atoms: C2_2  and  N4_4 
ROOT
HETATM    1  C1  UNL     1     -33.766  15.968  -4.097  1.00 20.00     0.166 C 
HETATM    2  C2  UNL     1     -33.897  13.809  -3.758  1.00 20.00     0.240 C 
HETATM    3  C3  UNL     1     -35.185  13.267  -4.289  1.00 20.00     0.119 C 
HETATM    4  N4  UNL     1     -33.982  15.113  -3.321  1.00 20.00    -0.200 NA
HETATM    5  O5  UNL     1     -32.907  13.082  -3.756  1.00 20.00    -0.272 OA
HETATM    6  S6  UNL     1     -33.480  17.154  -5.121  1.00 20.00    -0.055 SA
ENDROOT
TORSDOF 0
ENDMDL
MODEL 6
REMARK VINA RESULT:      -3.0      3.030      3.965
REMARK  0 active torsions:
REMARK  status: ('A' for Active; 'I' for Inactive)
REMARK       I    between atoms: C2_2  and  N4_4 
ROOT
HETATM    1  C1  UNL     1     -33.419   5.853   3.380  1.00 20.00     0.166 C 
HETATM    2  C2  UNL     1     -31.853   7.366   3.145  1.00 20.00     0.240 C 
HETATM    3  C3  UNL     1     -32.154   8.262   1.988  1.00 20.00     0.119 C 
HETATM    4  N4  UNL     1     -32.335   6.083   2.992  1.00 20.00    -0.200 NA
HETATM    5  O5  UNL     1     -31.231   7.822   4.100  1.00 20.00    -0.272 OA
HETATM    6  S6  UNL     1     -34.886   5.505   3.895  1.00 20.00    -0.055 SA
ENDROOT
TORSDOF 0
ENDMDL
MODEL 7
REMARK VINA RESULT:      -3.0      9.892      9.928
REMARK  0 active torsions:
REMARK  status: ('A' for Active; 'I' for Inactive)
REMARK       I    between atoms: C2_2  and  N4_4 
ROOT
HETATM    1  C1  UNL     1     -41.711   6.870  -2.238  1.00 20.00     0.166 C 
HETATM    2  C2  UNL     1     -40.973   5.278  -0.929  1.00 20.00     0.240 C 
HETATM    3  C3  UNL     1     -41.861   5.120   0.263  1.00 20.00     0.119 C 
HETATM    4  N4  UNL     1     -40.927   6.566  -1.418  1.00 20.00    -0.200 NA
HETATM    5  O5  UNL     1     -40.381   4.293  -1.360  1.00 20.00    -0.272 OA
HETATM    6  S6  UNL     1     -42.759   7.318  -3.351  1.00 20.00    -0.055 SA
ENDROOT
TORSDOF 0
ENDMDL
MODEL 8
REMARK VINA RESULT:      -3.0     12.509     12.748
REMARK  0 active torsions:
REMARK  status: ('A' for Active; 'I' for Inactive)
REMARK       I    between atoms: C2_2  and  N4_4 
ROOT
HETATM    1  C1  UNL     1     -35.178  15.997  -2.812  1.00 20.00     0.166 C 
HETATM    2  C2  UNL     1     -36.150  14.411  -3.967  1.00 20.00     0.240 C 
HETATM    3  C3  UNL     1     -35.173  13.333  -4.311  1.00 20.00     0.119 C 
HETATM    4  N4  UNL     1     -35.581  15.663  -3.863  1.00 20.00    -0.200 NA
HETATM    5  O5  UNL     1     -37.330  14.111  -3.809  1.00 20.00    -0.272 OA
HETATM    6  S6  UNL     1     -34.622  16.486  -1.401  1.00 20.00    -0.055 SA
ENDROOT
TORSDOF 0
ENDMDL
MODEL 9
REMARK VINA RESULT:      -2.8      2.836      3.604
REMARK  0 active torsions:
REMARK  status: ('A' for Active; 'I' for Inactive)
REMARK       I    between atoms: C2_2  and  N4_4 
ROOT
HETATM    1  C1  UNL     1     -34.131   6.053   4.831  1.00 20.00     0.166 C 
HETATM    2  C2  UNL     1     -32.593   6.411   3.315  1.00 20.00     0.240 C 
HETATM    3  C3  UNL     1     -31.718   7.557   3.710  1.00 20.00     0.119 C 
HETATM    4  N4  UNL     1     -33.886   6.515   3.780  1.00 20.00    -0.200 NA
HETATM    5  O5  UNL     1     -32.111   5.506   2.640  1.00 20.00    -0.272 OA
HETATM    6  S6  UNL     1     -34.501   5.438   6.253  1.00 20.00    -0.055 SA
ENDROOT
TORSDOF 0
ENDMDL
