MODEL 1
REMARK VINA RESULT:      -5.2      0.000      0.000
REMARK  3 active torsions:
REMARK  status: ('A' for Active; 'I' for Inactive)
REMARK    1  A    between atoms: C2_2  and  O5_5 
REMARK    2  A    between atoms: C3_3  and  C4_4 
REMARK    3  A    between atoms: C3_3  and  O5_5 
ROOT
HETATM    1  C3  UNL     1     -34.859   5.266   4.358  1.00 20.00     0.454 C 
HETATM    2  F6  UNL     1     -36.181   5.450   4.127  1.00 20.00    -0.166 F 
HETATM    3  F7  UNL     1     -34.454   4.200   3.627  1.00 20.00    -0.166 F 
ENDROOT
BRANCH   1   4
HETATM    4  C4  UNL     1     -34.630   4.998   5.818  1.00 20.00     0.484 C 
HETATM    5  F8  UNL     1     -34.215   6.116   6.452  1.00 20.00    -0.163 F 
HETATM    6  F9  UNL     1     -35.763   4.577   6.420  1.00 20.00    -0.163 F 
HETATM    7  F10 UNL     1     -33.688   4.047   5.997  1.00 20.00    -0.163 F 
ENDBRANCH   1   4
BRANCH   1   8
HETATM    8  O5  UNL     1     -34.143   6.421   3.945  1.00 20.00    -0.319 OA
BRANCH   8   9
HETATM    9  C2  UNL     1     -32.927   6.101   3.283  1.00 20.00     0.170 C 
HETATM   10  C1  UNL     1     -32.274   7.380   2.804  1.00 20.00     0.033 C 
ENDBRANCH   8   9
ENDBRANCH   1   8
TORSDOF 3
ENDMDL
MODEL 2
REMARK VINA RESULT:      -5.2      0.857      1.905
REMARK  3 active torsions:
REMARK  status: ('A' for Active; 'I' for Inactive)
REMARK    1  A    between atoms: C2_2  and  O5_5 
REMARK    2  A    between atoms: C3_3  and  C4_4 
REMARK    3  A    between atoms: C3_3  and  O5_5 
ROOT
HETATM    1  C3  UNL     1     -34.358   5.755   5.019  1.00 20.00     0.454 C 
HETATM    2  F6  UNL     1     -34.368   6.705   5.984  1.00 20.00    -0.166 F 
HETATM    3  F7  UNL     1     -35.271   6.105   4.081  1.00 20.00    -0.166 F 
ENDROOT
BRANCH   1   4
HETATM    4  C4  UNL     1     -34.721   4.424   5.612  1.00 20.00     0.484 C 
HETATM    5  F8  UNL     1     -35.218   3.597   4.667  1.00 20.00    -0.163 F 
HETATM    6  F9  UNL     1     -33.643   3.824   6.160  1.00 20.00    -0.163 F 
HETATM    7  F10 UNL     1     -35.656   4.559   6.577  1.00 20.00    -0.163 F 
ENDBRANCH   1   4
BRANCH   1   8
HETATM    8  O5  UNL     1     -33.068   5.701   4.425  1.00 20.00    -0.319 OA
BRANCH   8   9
HETATM    9  C2  UNL     1     -33.065   6.173   3.084  1.00 20.00     0.170 C 
HETATM   10  C1  UNL     1     -32.087   7.322   2.968  1.00 20.00     0.033 C 
ENDBRANCH   8   9
ENDBRANCH   1   8
TORSDOF 3
ENDMDL
MODEL 3
REMARK VINA RESULT:      -5.2      0.855      1.587
REMARK  3 active torsions:
REMARK  status: ('A' for Active; 'I' for Inactive)
REMARK    1  A    between atoms: C2_2  and  O5_5 
REMARK    2  A    between atoms: C3_3  and  C4_4 
REMARK    3  A    between atoms: C3_3  and  O5_5 
ROOT
HETATM    1  C3  UNL     1     -34.355   5.756   5.021  1.00 20.00     0.454 C 
HETATM    2  F6  UNL     1     -34.367   6.701   5.992  1.00 20.00    -0.166 F 
HETATM    3  F7  UNL     1     -35.268   6.109   4.085  1.00 20.00    -0.166 F 
ENDROOT
BRANCH   1   4
HETATM    4  C4  UNL     1     -34.716   4.420   5.606  1.00 20.00     0.484 C 
HETATM    5  F8  UNL     1     -35.655   4.555   6.567  1.00 20.00    -0.163 F 
HETATM    6  F9  UNL     1     -35.206   3.590   4.662  1.00 20.00    -0.163 F 
HETATM    7  F10 UNL     1     -33.638   3.825   6.162  1.00 20.00    -0.163 F 
ENDBRANCH   1   4
BRANCH   1   8
HETATM    8  O5  UNL     1     -33.065   5.707   4.426  1.00 20.00    -0.319 OA
BRANCH   8   9
HETATM    9  C2  UNL     1     -33.066   6.165   3.082  1.00 20.00     0.170 C 
HETATM   10  C1  UNL     1     -32.099   7.322   2.953  1.00 20.00     0.033 C 
ENDBRANCH   8   9
ENDBRANCH   1   8
TORSDOF 3
ENDMDL
MODEL 4
REMARK VINA RESULT:      -5.0      2.348      3.871
REMARK  3 active torsions:
REMARK  status: ('A' for Active; 'I' for Inactive)
REMARK    1  A    between atoms: C2_2  and  O5_5 
REMARK    2  A    between atoms: C3_3  and  C4_4 
REMARK    3  A    between atoms: C3_3  and  O5_5 
ROOT
HETATM    1  C3  UNL     1     -33.515   6.502   4.190  1.00 20.00     0.454 C 
HETATM    2  F6  UNL     1     -34.568   7.263   3.806  1.00 20.00    -0.166 F 
HETATM    3  F7  UNL     1     -33.207   6.832   5.466  1.00 20.00    -0.166 F 
ENDROOT
BRANCH   1   4
HETATM    4  C4  UNL     1     -32.339   6.773   3.295  1.00 20.00     0.484 C 
HETATM    5  F8  UNL     1     -31.819   5.620   2.823  1.00 20.00    -0.163 F 
HETATM    6  F9  UNL     1     -32.696   7.530   2.236  1.00 20.00    -0.163 F 
HETATM    7  F10 UNL     1     -31.361   7.426   3.960  1.00 20.00    -0.163 F 
ENDBRANCH   1   4
BRANCH   1   8
HETATM    8  O5  UNL     1     -33.879   5.129   4.132  1.00 20.00    -0.319 OA
BRANCH   8   9
HETATM    9  C2  UNL     1     -35.188   4.891   4.629  1.00 20.00     0.170 C 
HETATM   10  C1  UNL     1     -35.088   4.238   5.991  1.00 20.00     0.033 C 
ENDBRANCH   8   9
ENDBRANCH   1   8
TORSDOF 3
ENDMDL
MODEL 5
REMARK VINA RESULT:      -4.9      2.362      3.847
REMARK  3 active torsions:
REMARK  status: ('A' for Active; 'I' for Inactive)
REMARK    1  A    between atoms: C2_2  and  O5_5 
REMARK    2  A    between atoms: C3_3  and  C4_4 
REMARK    3  A    between atoms: C3_3  and  O5_5 
ROOT
HETATM    1  C3  UNL     1     -33.489   6.496   4.164  1.00 20.00     0.454 C 
HETATM    2  F6  UNL     1     -34.538   7.275   3.804  1.00 20.00    -0.166 F 
HETATM    3  F7  UNL     1     -33.155   6.813   5.438  1.00 20.00    -0.166 F 
ENDROOT
BRANCH   1   4
HETATM    4  C4  UNL     1     -32.325   6.758   3.252  1.00 20.00     0.484 C 
HETATM    5  F8  UNL     1     -31.328   7.385   3.913  1.00 20.00    -0.163 F 
HETATM    6  F9  UNL     1     -31.829   5.607   2.751  1.00 20.00    -0.163 F 
HETATM    7  F10 UNL     1     -32.687   7.541   2.212  1.00 20.00    -0.163 F 
ENDBRANCH   1   4
BRANCH   1   8
HETATM    8  O5  UNL     1     -33.873   5.130   4.102  1.00 20.00    -0.319 OA
BRANCH   8   9
HETATM    9  C2  UNL     1     -35.183   4.908   4.604  1.00 20.00     0.170 C 
HETATM   10  C1  UNL     1     -35.086   4.259   5.968  1.00 20.00     0.033 C 
ENDBRANCH   8   9
ENDBRANCH   1   8
TORSDOF 3
ENDMDL
MODEL 6
REMARK VINA RESULT:      -4.7      1.489      2.585
REMARK  3 active torsions:
REMARK  status: ('A' for Active; 'I' for Inactive)
REMARK    1  A    between atoms: C2_2  and  O5_5 
REMARK    2  A    between atoms: C3_3  and  C4_4 
REMARK    3  A    between atoms: C3_3  and  O5_5 
ROOT
HETATM    1  C3  UNL     1     -33.889   6.223   4.182  1.00 20.00     0.454 C 
HETATM    2  F6  UNL     1     -33.802   5.961   5.509  1.00 20.00    -0.166 F 
HETATM    3  F7  UNL     1     -34.364   7.483   4.037  1.00 20.00    -0.166 F 
ENDROOT
BRANCH   1   4
HETATM    4  C4  UNL     1     -34.830   5.247   3.533  1.00 20.00     0.484 C 
HETATM    5  F8  UNL     1     -34.984   4.146   4.299  1.00 20.00    -0.163 F 
HETATM    6  F9  UNL     1     -36.049   5.795   3.346  1.00 20.00    -0.163 F 
HETATM    7  F10 UNL     1     -34.365   4.851   2.328  1.00 20.00    -0.163 F 
ENDBRANCH   1   4
BRANCH   1   8
HETATM    8  O5  UNL     1     -32.598   6.133   3.597  1.00 20.00    -0.319 OA
BRANCH   8   9
HETATM    9  C2  UNL     1     -31.940   7.391   3.534  1.00 20.00     0.170 C 
HETATM   10  C1  UNL     1     -32.019   7.919   2.117  1.00 20.00     0.033 C 
ENDBRANCH   8   9
ENDBRANCH   1   8
TORSDOF 3
ENDMDL
MODEL 7
REMARK VINA RESULT:      -4.6      1.362      2.206
REMARK  3 active torsions:
REMARK  status: ('A' for Active; 'I' for Inactive)
REMARK    1  A    between atoms: C2_2  and  O5_5 
REMARK    2  A    between atoms: C3_3  and  C4_4 
REMARK    3  A    between atoms: C3_3  and  O5_5 
ROOT
HETATM    1  C3  UNL     1     -33.439   5.903   3.368  1.00 20.00     0.454 C 
HETATM    2  F6  UNL     1     -34.001   5.275   2.307  1.00 20.00    -0.166 F 
HETATM    3  F7  UNL     1     -32.203   5.382   3.552  1.00 20.00    -0.166 F 
ENDROOT
BRANCH   1   4
HETATM    4  C4  UNL     1     -34.276   5.676   4.595  1.00 20.00     0.484 C 
HETATM    5  F8  UNL     1     -35.573   5.495   4.265  1.00 20.00    -0.163 F 
HETATM    6  F9  UNL     1     -33.865   4.581   5.270  1.00 20.00    -0.163 F 
HETATM    7  F10 UNL     1     -34.206   6.731   5.435  1.00 20.00    -0.163 F 
ENDBRANCH   1   4
BRANCH   1   8
HETATM    8  O5  UNL     1     -33.330   7.292   3.090  1.00 20.00    -0.319 OA
BRANCH   8   9
HETATM    9  C2  UNL     1     -32.009   7.673   2.730  1.00 20.00     0.170 C 
HETATM   10  C1  UNL     1     -32.070   8.572   1.514  1.00 20.00     0.033 C 
ENDBRANCH   8   9
ENDBRANCH   1   8
TORSDOF 3
ENDMDL
MODEL 8
REMARK VINA RESULT:      -4.5      1.803      3.109
REMARK  3 active torsions:
REMARK  status: ('A' for Active; 'I' for Inactive)
REMARK    1  A    between atoms: C2_2  and  O5_5 
REMARK    2  A    between atoms: C3_3  and  C4_4 
REMARK    3  A    between atoms: C3_3  and  O5_5 
ROOT
HETATM    1  C3  UNL     1     -34.753   4.825   4.467  1.00 20.00     0.454 C 
HETATM    2  F6  UNL     1     -34.864   3.543   4.043  1.00 20.00    -0.166 F 
HETATM    3  F7  UNL     1     -36.004   5.321   4.626  1.00 20.00    -0.166 F 
ENDROOT
BRANCH   1   4
HETATM    4  C4  UNL     1     -34.011   5.636   3.443  1.00 20.00     0.484 C 
HETATM    5  F8  UNL     1     -34.429   6.920   3.452  1.00 20.00    -0.163 F 
HETATM    6  F9  UNL     1     -32.683   5.632   3.687  1.00 20.00    -0.163 F 
HETATM    7  F10 UNL     1     -34.205   5.147   2.199  1.00 20.00    -0.163 F 
ENDBRANCH   1   4
BRANCH   1   8
HETATM    8  O5  UNL     1     -34.072   4.853   5.714  1.00 20.00    -0.319 OA
BRANCH   8   9
HETATM    9  C2  UNL     1     -34.596   5.834   6.599  1.00 20.00     0.170 C 
HETATM   10  C1  UNL     1     -33.643   7.008   6.655  1.00 20.00     0.033 C 
ENDBRANCH   8   9
ENDBRANCH   1   8
TORSDOF 3
ENDMDL
MODEL 9
REMARK VINA RESULT:      -4.5      2.812      4.260
REMARK  3 active torsions:
REMARK  status: ('A' for Active; 'I' for Inactive)
REMARK    1  A    between atoms: C2_2  and  O5_5 
REMARK    2  A    between atoms: C3_3  and  C4_4 
REMARK    3  A    between atoms: C3_3  and  O5_5 
ROOT
HETATM    1  C3  UNL     1     -32.715   6.256   3.251  1.00 20.00     0.454 C 
HETATM    2  F6  UNL     1     -31.693   5.374   3.363  1.00 20.00    -0.166 F 
HETATM    3  F7  UNL     1     -33.582   5.774   2.330  1.00 20.00    -0.166 F 
ENDROOT
BRANCH   1   4
HETATM    4  C4  UNL     1     -32.188   7.590   2.804  1.00 20.00     0.484 C 
HETATM    5  F8  UNL     1     -31.263   8.056   3.670  1.00 20.00    -0.163 F 
HETATM    6  F9  UNL     1     -31.608   7.503   1.588  1.00 20.00    -0.163 F 
HETATM    7  F10 UNL     1     -33.179   8.505   2.726  1.00 20.00    -0.163 F 
ENDBRANCH   1   4
BRANCH   1   8
HETATM    8  O5  UNL     1     -33.373   6.376   4.504  1.00 20.00    -0.319 OA
BRANCH   8   9
HETATM    9  C2  UNL     1     -34.492   5.507   4.618  1.00 20.00     0.170 C 
HETATM   10  C1  UNL     1     -34.666   5.113   6.068  1.00 20.00     0.033 C 
ENDBRANCH   8   9
ENDBRANCH   1   8
TORSDOF 3
ENDMDL
