MODEL 1
REMARK VINA RESULT:      -4.7      0.000      0.000
REMARK  4 active torsions:
REMARK  status: ('A' for Active; 'I' for Inactive)
REMARK    1  A    between atoms: C1_1  and  C5_5 
REMARK    2  A    between atoms: C1_1  and  C8_8 
REMARK    3  A    between atoms: C6_6  and  C8_8 
REMARK    4  A    between atoms: C7_7  and  C8_8 
ROOT
HETATM    1  C8  UNL     1     -34.281   6.159   4.681  1.00 20.00     0.054 C 
ENDROOT
BRANCH   1   2
HETATM    2  C1  UNL     1     -33.414   6.093   3.420  1.00 20.00     0.130 C 
HETATM    3  O9  UNL     1     -33.739   5.415   2.444  1.00 20.00    -0.298 OA
BRANCH   2   4
HETATM    4  C5  UNL     1     -32.143   6.928   3.433  1.00 20.00     0.074 C 
HETATM    5  C2  UNL     1     -32.102   7.947   2.307  1.00 20.00     0.013 C 
ENDBRANCH   2   4
ENDBRANCH   1   2
BRANCH   1   6
HETATM    6  C6  UNL     1     -33.431   6.207   5.961  1.00 20.00     0.007 C 
HETATM    7  C3  UNL     1     -33.774   7.401   6.843  1.00 20.00     0.006 C 
ENDBRANCH   1   6
BRANCH   1   8
HETATM    8  C7  UNL     1     -35.296   5.002   4.688  1.00 20.00     0.007 C 
HETATM    9  C4  UNL     1     -35.036   3.924   5.733  1.00 20.00     0.006 C 
ENDBRANCH   1   8
TORSDOF 4
ENDMDL
MODEL 2
REMARK VINA RESULT:      -4.2      1.796      4.183
REMARK  4 active torsions:
REMARK  status: ('A' for Active; 'I' for Inactive)
REMARK    1  A    between atoms: C1_1  and  C5_5 
REMARK    2  A    between atoms: C1_1  and  C8_8 
REMARK    3  A    between atoms: C6_6  and  C8_8 
REMARK    4  A    between atoms: C7_7  and  C8_8 
ROOT
HETATM    1  C8  UNL     1     -33.981   6.534   4.216  1.00 20.00     0.054 C 
ENDROOT
BRANCH   1   2
HETATM    2  C1  UNL     1     -34.052   6.265   5.723  1.00 20.00     0.130 C 
HETATM    3  O9  UNL     1     -33.398   6.926   6.531  1.00 20.00    -0.298 OA
BRANCH   2   4
HETATM    4  C5  UNL     1     -34.991   5.153   6.164  1.00 20.00     0.074 C 
HETATM    5  C2  UNL     1     -34.380   3.773   5.996  1.00 20.00     0.013 C 
ENDBRANCH   2   4
ENDBRANCH   1   2
BRANCH   1   6
HETATM    6  C6  UNL     1     -34.981   5.671   3.430  1.00 20.00     0.007 C 
HETATM    7  C3  UNL     1     -34.334   4.966   2.244  1.00 20.00     0.006 C 
ENDBRANCH   1   6
BRANCH   1   8
HETATM    8  C7  UNL     1     -32.535   6.370   3.715  1.00 20.00     0.007 C 
HETATM    9  C4  UNL     1     -31.943   7.603   3.044  1.00 20.00     0.006 C 
ENDBRANCH   1   8
TORSDOF 4
ENDMDL
MODEL 3
REMARK VINA RESULT:      -4.1      0.503      2.165
REMARK  4 active torsions:
REMARK  status: ('A' for Active; 'I' for Inactive)
REMARK    1  A    between atoms: C1_1  and  C5_5 
REMARK    2  A    between atoms: C1_1  and  C8_8 
REMARK    3  A    between atoms: C6_6  and  C8_8 
REMARK    4  A    between atoms: C7_7  and  C8_8 
ROOT
HETATM    1  C8  UNL     1     -33.777   5.743   4.761  1.00 20.00     0.054 C 
ENDROOT
BRANCH   1   2
HETATM    2  C1  UNL     1     -33.202   6.043   3.373  1.00 20.00     0.130 C 
HETATM    3  O9  UNL     1     -33.683   5.550   2.352  1.00 20.00    -0.298 OA
BRANCH   2   4
HETATM    4  C5  UNL     1     -32.021   7.000   3.326  1.00 20.00     0.074 C 
HETATM    5  C2  UNL     1     -32.143   8.024   2.211  1.00 20.00     0.013 C 
ENDBRANCH   2   4
ENDBRANCH   1   2
BRANCH   1   6
HETATM    6  C6  UNL     1     -35.013   4.832   4.687  1.00 20.00     0.007 C 
HETATM    7  C3  UNL     1     -35.195   3.996   5.948  1.00 20.00     0.006 C 
ENDBRANCH   1   6
BRANCH   1   8
HETATM    8  C7  UNL     1     -34.053   7.055   5.516  1.00 20.00     0.007 C 
HETATM    9  C4  UNL     1     -33.350   7.183   6.862  1.00 20.00     0.006 C 
ENDBRANCH   1   8
TORSDOF 4
ENDMDL
MODEL 4
REMARK VINA RESULT:      -4.1     11.509     12.437
REMARK  4 active torsions:
REMARK  status: ('A' for Active; 'I' for Inactive)
REMARK    1  A    between atoms: C1_1  and  C5_5 
REMARK    2  A    between atoms: C1_1  and  C8_8 
REMARK    3  A    between atoms: C6_6  and  C8_8 
REMARK    4  A    between atoms: C7_7  and  C8_8 
ROOT
HETATM    1  C8  UNL     1     -34.374  14.777  -3.038  1.00 20.00     0.054 C 
ENDROOT
BRANCH   1   2
HETATM    2  C1  UNL     1     -35.260  13.922  -3.950  1.00 20.00     0.130 C 
HETATM    3  O9  UNL     1     -34.921  12.795  -4.313  1.00 20.00    -0.298 OA
BRANCH   2   4
HETATM    4  C5  UNL     1     -36.590  14.534  -4.361  1.00 20.00     0.074 C 
HETATM    5  C2  UNL     1     -36.571  15.070  -5.782  1.00 20.00     0.013 C 
ENDBRANCH   2   4
ENDBRANCH   1   2
BRANCH   1   6
HETATM    6  C6  UNL     1     -35.122  16.005  -2.496  1.00 20.00     0.007 C 
HETATM    7  C3  UNL     1     -34.583  16.466  -1.147  1.00 20.00     0.006 C 
ENDBRANCH   1   6
BRANCH   1   8
HETATM    8  C7  UNL     1     -33.070  15.152  -3.765  1.00 20.00     0.007 C 
HETATM    9  C4  UNL     1     -33.199  16.290  -4.769  1.00 20.00     0.006 C 
ENDBRANCH   1   8
TORSDOF 4
ENDMDL
MODEL 5
REMARK VINA RESULT:      -4.0     11.489     12.721
REMARK  4 active torsions:
REMARK  status: ('A' for Active; 'I' for Inactive)
REMARK    1  A    between atoms: C1_1  and  C5_5 
REMARK    2  A    between atoms: C1_1  and  C8_8 
REMARK    3  A    between atoms: C6_6  and  C8_8 
REMARK    4  A    between atoms: C7_7  and  C8_8 
ROOT
HETATM    1  C8  UNL     1     -34.075  15.642  -3.895  1.00 20.00     0.054 C 
ENDROOT
BRANCH   1   2
HETATM    2  C1  UNL     1     -34.052  14.110  -3.906  1.00 20.00     0.130 C 
HETATM    3  O9  UNL     1     -33.024  13.475  -3.670  1.00 20.00    -0.298 OA
BRANCH   2   4
HETATM    4  C5  UNL     1     -35.375  13.420  -4.202  1.00 20.00     0.074 C 
HETATM    5  C2  UNL     1     -36.558  14.369  -4.124  1.00 20.00     0.013 C 
ENDBRANCH   2   4
ENDBRANCH   1   2
BRANCH   1   6
HETATM    6  C6  UNL     1     -33.284  16.237  -5.071  1.00 20.00     0.007 C 
HETATM    7  C3  UNL     1     -34.008  16.072  -6.402  1.00 20.00     0.006 C 
ENDBRANCH   1   6
BRANCH   1   8
HETATM    8  C7  UNL     1     -33.594  16.170  -2.531  1.00 20.00     0.007 C 
HETATM    9  C4  UNL     1     -34.684  16.310  -1.476  1.00 20.00     0.006 C 
ENDBRANCH   1   8
TORSDOF 4
ENDMDL
MODEL 6
REMARK VINA RESULT:      -3.9      1.072      3.512
REMARK  4 active torsions:
REMARK  status: ('A' for Active; 'I' for Inactive)
REMARK    1  A    between atoms: C1_1  and  C5_5 
REMARK    2  A    between atoms: C1_1  and  C8_8 
REMARK    3  A    between atoms: C6_6  and  C8_8 
REMARK    4  A    between atoms: C7_7  and  C8_8 
ROOT
HETATM    1  C8  UNL     1     -33.405   5.901   4.301  1.00 20.00     0.054 C 
ENDROOT
BRANCH   1   2
HETATM    2  C1  UNL     1     -34.777   5.250   4.098  1.00 20.00     0.130 C 
HETATM    3  O9  UNL     1     -35.622   5.738   3.346  1.00 20.00    -0.298 OA
BRANCH   2   4
HETATM    4  C5  UNL     1     -35.027   3.957   4.859  1.00 20.00     0.074 C 
HETATM    5  C2  UNL     1     -35.217   4.184   6.349  1.00 20.00     0.013 C 
ENDBRANCH   2   4
ENDBRANCH   1   2
BRANCH   1   6
HETATM    6  C6  UNL     1     -33.505   7.220   5.084  1.00 20.00     0.007 C 
HETATM    7  C3  UNL     1     -33.623   6.997   6.587  1.00 20.00     0.006 C 
ENDBRANCH   1   6
BRANCH   1   8
HETATM    8  C7  UNL     1     -32.693   6.070   2.947  1.00 20.00     0.007 C 
HETATM    9  C4  UNL     1     -32.215   7.485   2.644  1.00 20.00     0.006 C 
ENDBRANCH   1   8
TORSDOF 4
ENDMDL
MODEL 7
REMARK VINA RESULT:      -3.9     11.754     12.556
REMARK  4 active torsions:
REMARK  status: ('A' for Active; 'I' for Inactive)
REMARK    1  A    between atoms: C1_1  and  C5_5 
REMARK    2  A    between atoms: C1_1  and  C8_8 
REMARK    3  A    between atoms: C6_6  and  C8_8 
REMARK    4  A    between atoms: C7_7  and  C8_8 
ROOT
HETATM    1  C8  UNL     1     -35.388  14.677  -3.425  1.00 20.00     0.054 C 
ENDROOT
BRANCH   1   2
HETATM    2  C1  UNL     1     -34.927  13.872  -4.644  1.00 20.00     0.130 C 
HETATM    3  O9  UNL     1     -34.916  12.640  -4.641  1.00 20.00    -0.298 OA
BRANCH   2   4
HETATM    4  C5  UNL     1     -34.506  14.678  -5.863  1.00 20.00     0.074 C 
HETATM    5  C2  UNL     1     -35.356  14.377  -7.085  1.00 20.00     0.013 C 
ENDBRANCH   2   4
ENDBRANCH   1   2
BRANCH   1   6
HETATM    6  C6  UNL     1     -36.602  15.564  -3.748  1.00 20.00     0.007 C 
HETATM    7  C3  UNL     1     -37.865  14.751  -4.004  1.00 20.00     0.006 C 
ENDBRANCH   1   6
BRANCH   1   8
HETATM    8  C7  UNL     1     -34.210  15.477  -2.841  1.00 20.00     0.007 C 
HETATM    9  C4  UNL     1     -34.547  16.313  -1.612  1.00 20.00     0.006 C 
ENDBRANCH   1   8
TORSDOF 4
ENDMDL
MODEL 8
REMARK VINA RESULT:      -3.9     11.407     12.992
REMARK  4 active torsions:
REMARK  status: ('A' for Active; 'I' for Inactive)
REMARK    1  A    between atoms: C1_1  and  C5_5 
REMARK    2  A    between atoms: C1_1  and  C8_8 
REMARK    3  A    between atoms: C6_6  and  C8_8 
REMARK    4  A    between atoms: C7_7  and  C8_8 
ROOT
HETATM    1  C8  UNL     1     -34.983  14.841  -5.415  1.00 20.00     0.054 C 
ENDROOT
BRANCH   1   2
HETATM    2  C1  UNL     1     -34.415  13.611  -4.700  1.00 20.00     0.130 C 
HETATM    3  O9  UNL     1     -34.839  12.477  -4.926  1.00 20.00    -0.298 OA
BRANCH   2   4
HETATM    4  C5  UNL     1     -33.286  13.868  -3.714  1.00 20.00     0.074 C 
HETATM    5  C2  UNL     1     -33.053  15.348  -3.466  1.00 20.00     0.013 C 
ENDBRANCH   2   4
ENDBRANCH   1   2
BRANCH   1   6
HETATM    6  C6  UNL     1     -36.510  14.940  -5.265  1.00 20.00     0.007 C 
HETATM    7  C3  UNL     1     -36.948  15.006  -3.808  1.00 20.00     0.006 C 
ENDBRANCH   1   6
BRANCH   1   8
HETATM    8  C7  UNL     1     -34.531  14.855  -6.886  1.00 20.00     0.007 C 
HETATM    9  C4  UNL     1     -35.617  14.508  -7.896  1.00 20.00     0.006 C 
ENDBRANCH   1   8
TORSDOF 4
ENDMDL
MODEL 9
REMARK VINA RESULT:      -3.9      0.587      3.420
REMARK  4 active torsions:
REMARK  status: ('A' for Active; 'I' for Inactive)
REMARK    1  A    between atoms: C1_1  and  C5_5 
REMARK    2  A    between atoms: C1_1  and  C8_8 
REMARK    3  A    between atoms: C6_6  and  C8_8 
REMARK    4  A    between atoms: C7_7  and  C8_8 
ROOT
HETATM    1  C8  UNL     1     -33.494   6.574   4.223  1.00 20.00     0.054 C 
ENDROOT
BRANCH   1   2
HETATM    2  C1  UNL     1     -34.430   5.534   3.598  1.00 20.00     0.130 C 
HETATM    3  O9  UNL     1     -34.300   5.164   2.430  1.00 20.00    -0.298 OA
BRANCH   2   4
HETATM    4  C5  UNL     1     -35.510   4.970   4.507  1.00 20.00     0.074 C 
HETATM    5  C2  UNL     1     -35.014   3.808   5.351  1.00 20.00     0.013 C 
ENDBRANCH   2   4
ENDBRANCH   1   2
BRANCH   1   6
HETATM    6  C6  UNL     1     -32.169   6.693   3.452  1.00 20.00     0.007 C 
HETATM    7  C3  UNL     1     -32.158   7.877   2.493  1.00 20.00     0.006 C 
ENDBRANCH   1   6
BRANCH   1   8
HETATM    8  C7  UNL     1     -33.284   6.270   5.717  1.00 20.00     0.007 C 
HETATM    9  C4  UNL     1     -33.689   7.392   6.665  1.00 20.00     0.006 C 
ENDBRANCH   1   8
TORSDOF 4
ENDMDL
