MODEL 1
REMARK VINA RESULT:      -5.1      0.000      0.000
REMARK  2 active torsions:
REMARK  status: ('A' for Active; 'I' for Inactive)
REMARK    1  A    between atoms: C1_1  and  C5_5 
REMARK    2  A    between atoms: C4_4  and  C5_5 
ROOT
HETATM    1  C1  UNL     1     -34.817   5.061   4.711  1.00 20.00     0.164 C 
HETATM    2  C2  UNL     1     -34.888   5.141   6.044  1.00 20.00     0.301 C 
HETATM    3  F7  UNL     1     -35.158   3.887   4.131  1.00 20.00    -0.205 F 
HETATM    4  F8  UNL     1     -35.296   4.069   6.756  1.00 20.00    -0.170 F 
HETATM    5  F9  UNL     1     -34.558   6.282   6.685  1.00 20.00    -0.170 F 
ENDROOT
BRANCH   1   6
HETATM    6  C5  UNL     1     -34.373   6.181   3.818  1.00 20.00     0.110 C 
BRANCH   6   7
HETATM    7  C4  UNL     1     -32.912   6.507   3.917  1.00 20.00     0.151 A 
HETATM    8  C3  UNL     1     -32.215   7.289   2.838  1.00 20.00     0.200 A 
HETATM    9  O6  UNL     1     -32.090   5.861   2.938  1.00 20.00    -0.381 OA
ENDBRANCH   6   7
ENDBRANCH   1   6
TORSDOF 2
ENDMDL
MODEL 2
REMARK VINA RESULT:      -5.1      0.487      1.731
REMARK  2 active torsions:
REMARK  status: ('A' for Active; 'I' for Inactive)
REMARK    1  A    between atoms: C1_1  and  C5_5 
REMARK    2  A    between atoms: C4_4  and  C5_5 
ROOT
HETATM    1  C1  UNL     1     -34.561   5.666   5.361  1.00 20.00     0.164 C 
HETATM    2  C2  UNL     1     -35.049   4.427   5.487  1.00 20.00     0.301 C 
HETATM    3  F7  UNL     1     -34.413   6.402   6.487  1.00 20.00    -0.205 F 
HETATM    4  F8  UNL     1     -35.366   3.956   6.711  1.00 20.00    -0.170 F 
HETATM    5  F9  UNL     1     -35.224   3.642   4.403  1.00 20.00    -0.170 F 
ENDROOT
BRANCH   1   6
HETATM    6  C5  UNL     1     -34.180   6.298   4.055  1.00 20.00     0.110 C 
BRANCH   6   7
HETATM    7  C4  UNL     1     -32.727   6.652   3.941  1.00 20.00     0.151 A 
HETATM    8  C3  UNL     1     -32.197   7.384   2.739  1.00 20.00     0.200 A 
HETATM    9  O6  UNL     1     -32.027   5.966   2.897  1.00 20.00    -0.381 OA
ENDBRANCH   6   7
ENDBRANCH   1   6
TORSDOF 2
ENDMDL
MODEL 3
REMARK VINA RESULT:      -4.5      2.786      4.048
REMARK  2 active torsions:
REMARK  status: ('A' for Active; 'I' for Inactive)
REMARK    1  A    between atoms: C1_1  and  C5_5 
REMARK    2  A    between atoms: C4_4  and  C5_5 
ROOT
HETATM    1  C1  UNL     1     -33.309   6.193   3.486  1.00 20.00     0.164 C 
HETATM    2  C2  UNL     1     -32.300   7.006   3.155  1.00 20.00     0.301 C 
HETATM    3  F7  UNL     1     -33.991   5.595   2.481  1.00 20.00    -0.205 F 
HETATM    4  F8  UNL     1     -31.993   7.195   1.854  1.00 20.00    -0.170 F 
HETATM    5  F9  UNL     1     -31.582   7.636   4.108  1.00 20.00    -0.170 F 
ENDROOT
BRANCH   1   6
HETATM    6  C5  UNL     1     -33.744   5.912   4.893  1.00 20.00     0.110 C 
BRANCH   6   7
HETATM    7  C4  UNL     1     -35.040   5.165   5.001  1.00 20.00     0.151 A 
HETATM    8  C3  UNL     1     -35.279   4.179   6.111  1.00 20.00     0.200 A 
HETATM    9  O6  UNL     1     -34.933   3.753   4.783  1.00 20.00    -0.381 OA
ENDBRANCH   6   7
ENDBRANCH   1   6
TORSDOF 2
ENDMDL
MODEL 4
REMARK VINA RESULT:      -4.5      2.668      4.100
REMARK  2 active torsions:
REMARK  status: ('A' for Active; 'I' for Inactive)
REMARK    1  A    between atoms: C1_1  and  C5_5 
REMARK    2  A    between atoms: C4_4  and  C5_5 
ROOT
HETATM    1  C1  UNL     1     -33.292   6.470   4.222  1.00 20.00     0.164 C 
HETATM    2  C2  UNL     1     -32.245   6.869   3.492  1.00 20.00     0.301 C 
HETATM    3  F7  UNL     1     -33.391   6.935   5.489  1.00 20.00    -0.205 F 
HETATM    4  F8  UNL     1     -31.339   7.713   4.029  1.00 20.00    -0.170 F 
HETATM    5  F9  UNL     1     -32.086   6.439   2.223  1.00 20.00    -0.170 F 
ENDROOT
BRANCH   1   6
HETATM    6  C5  UNL     1     -34.356   5.532   3.735  1.00 20.00     0.110 C 
BRANCH   6   7
HETATM    7  C4  UNL     1     -35.227   4.970   4.819  1.00 20.00     0.151 A 
HETATM    8  C3  UNL     1     -34.643   4.170   5.950  1.00 20.00     0.200 A 
HETATM    9  O6  UNL     1     -35.303   3.540   4.840  1.00 20.00    -0.381 OA
ENDBRANCH   6   7
ENDBRANCH   1   6
TORSDOF 2
ENDMDL
MODEL 5
REMARK VINA RESULT:      -4.3     12.000     12.744
REMARK  2 active torsions:
REMARK  status: ('A' for Active; 'I' for Inactive)
REMARK    1  A    between atoms: C1_1  and  C5_5 
REMARK    2  A    between atoms: C4_4  and  C5_5 
ROOT
HETATM    1  C1  UNL     1     -34.024  16.093  -2.711  1.00 20.00     0.164 C 
HETATM    2  C2  UNL     1     -34.025  16.663  -1.501  1.00 20.00     0.301 C 
HETATM    3  F7  UNL     1     -33.186  16.599  -3.646  1.00 20.00    -0.205 F 
HETATM    4  F8  UNL     1     -33.200  17.702  -1.252  1.00 20.00    -0.170 F 
HETATM    5  F9  UNL     1     -34.840  16.209  -0.526  1.00 20.00    -0.170 F 
ENDROOT
BRANCH   1   6
HETATM    6  C5  UNL     1     -34.899  14.941  -3.105  1.00 20.00     0.110 C 
BRANCH   6   7
HETATM    7  C4  UNL     1     -34.220  13.914  -3.962  1.00 20.00     0.151 A 
HETATM    8  C3  UNL     1     -34.738  13.579  -5.333  1.00 20.00     0.200 A 
HETATM    9  O6  UNL     1     -34.992  12.732  -4.201  1.00 20.00    -0.381 OA
ENDBRANCH   6   7
ENDBRANCH   1   6
TORSDOF 2
ENDMDL
MODEL 6
REMARK VINA RESULT:      -4.2      1.203      2.101
REMARK  2 active torsions:
REMARK  status: ('A' for Active; 'I' for Inactive)
REMARK    1  A    between atoms: C1_1  and  C5_5 
REMARK    2  A    between atoms: C4_4  and  C5_5 
ROOT
HETATM    1  C1  UNL     1     -33.719   6.090   4.697  1.00 20.00     0.164 C 
HETATM    2  C2  UNL     1     -34.689   5.242   5.055  1.00 20.00     0.301 C 
HETATM    3  F7  UNL     1     -33.183   6.877   5.659  1.00 20.00    -0.205 F 
HETATM    4  F8  UNL     1     -35.092   5.194   6.343  1.00 20.00    -0.170 F 
HETATM    5  F9  UNL     1     -35.268   4.432   4.144  1.00 20.00    -0.170 F 
ENDROOT
BRANCH   1   6
HETATM    6  C5  UNL     1     -33.195   6.236   3.299  1.00 20.00     0.110 C 
BRANCH   6   7
HETATM    7  C4  UNL     1     -32.152   7.301   3.139  1.00 20.00     0.151 A 
HETATM    8  C3  UNL     1     -32.433   8.553   2.356  1.00 20.00     0.200 A 
HETATM    9  O6  UNL     1     -31.673   7.469   1.800  1.00 20.00    -0.381 OA
ENDBRANCH   6   7
ENDBRANCH   1   6
TORSDOF 2
ENDMDL
MODEL 7
REMARK VINA RESULT:      -4.0     11.910     12.999
REMARK  2 active torsions:
REMARK  status: ('A' for Active; 'I' for Inactive)
REMARK    1  A    between atoms: C1_1  and  C5_5 
REMARK    2  A    between atoms: C4_4  and  C5_5 
ROOT
HETATM    1  C1  UNL     1     -34.599  16.057  -2.229  1.00 20.00     0.164 C 
HETATM    2  C2  UNL     1     -33.819  17.033  -2.707  1.00 20.00     0.301 C 
HETATM    3  F7  UNL     1     -34.765  15.982  -0.888  1.00 20.00    -0.205 F 
HETATM    4  F8  UNL     1     -33.238  17.902  -1.853  1.00 20.00    -0.170 F 
HETATM    5  F9  UNL     1     -33.609  17.160  -4.034  1.00 20.00    -0.170 F 
ENDROOT
BRANCH   1   6
HETATM    6  C5  UNL     1     -35.290  15.032  -3.079  1.00 20.00     0.110 C 
BRANCH   6   7
HETATM    7  C4  UNL     1     -34.377  13.988  -3.652  1.00 20.00     0.151 A 
HETATM    8  C3  UNL     1     -34.421  13.634  -5.112  1.00 20.00     0.200 A 
HETATM    9  O6  UNL     1     -35.041  12.807  -4.115  1.00 20.00    -0.381 OA
ENDBRANCH   6   7
ENDBRANCH   1   6
TORSDOF 2
ENDMDL
MODEL 8
REMARK VINA RESULT:      -3.9     11.836     12.508
REMARK  2 active torsions:
REMARK  status: ('A' for Active; 'I' for Inactive)
REMARK    1  A    between atoms: C1_1  and  C5_5 
REMARK    2  A    between atoms: C4_4  and  C5_5 
ROOT
HETATM    1  C1  UNL     1     -34.628  14.932  -3.197  1.00 20.00     0.164 C 
HETATM    2  C2  UNL     1     -34.190  13.757  -3.662  1.00 20.00     0.301 C 
HETATM    3  F7  UNL     1     -35.966  15.138  -3.166  1.00 20.00    -0.205 F 
HETATM    4  F8  UNL     1     -35.079  12.827  -4.070  1.00 20.00    -0.170 F 
HETATM    5  F9  UNL     1     -32.869  13.490  -3.723  1.00 20.00    -0.170 F 
ENDROOT
BRANCH   1   6
HETATM    6  C5  UNL     1     -33.737  16.041  -2.723  1.00 20.00     0.110 C 
BRANCH   6   7
HETATM    7  C4  UNL     1     -34.411  17.032  -1.821  1.00 20.00     0.151 A 
HETATM    8  C3  UNL     1     -33.672  17.672  -0.679  1.00 20.00     0.200 A 
HETATM    9  O6  UNL     1     -34.589  16.585  -0.473  1.00 20.00    -0.381 OA
ENDBRANCH   6   7
ENDBRANCH   1   6
TORSDOF 2
ENDMDL
MODEL 9
REMARK VINA RESULT:      -3.8     12.045     12.964
REMARK  2 active torsions:
REMARK  status: ('A' for Active; 'I' for Inactive)
REMARK    1  A    between atoms: C1_1  and  C5_5 
REMARK    2  A    between atoms: C4_4  and  C5_5 
ROOT
HETATM    1  C1  UNL     1     -34.379  14.569  -3.390  1.00 20.00     0.164 C 
HETATM    2  C2  UNL     1     -33.258  15.296  -3.444  1.00 20.00     0.301 C 
HETATM    3  F7  UNL     1     -34.261  13.222  -3.439  1.00 20.00    -0.205 F 
HETATM    4  F8  UNL     1     -32.064  14.674  -3.537  1.00 20.00    -0.170 F 
HETATM    5  F9  UNL     1     -33.307  16.643  -3.402  1.00 20.00    -0.170 F 
ENDROOT
BRANCH   1   6
HETATM    6  C5  UNL     1     -35.760  15.148  -3.292  1.00 20.00     0.110 C 
BRANCH   6   7
HETATM    7  C4  UNL     1     -36.772  14.483  -4.177  1.00 20.00     0.151 A 
HETATM    8  C3  UNL     1     -38.024  15.199  -4.600  1.00 20.00     0.200 A 
HETATM    9  O6  UNL     1     -38.032  14.221  -3.548  1.00 20.00    -0.381 OA
ENDBRANCH   6   7
ENDBRANCH   1   6
TORSDOF 2
ENDMDL
