MODEL 1
REMARK VINA RESULT:      -3.5      0.000      0.000
REMARK  0 active torsions:
REMARK  status: ('A' for Active; 'I' for Inactive)
ROOT
HETATM    1  C1  UNL     1     -33.660   6.618   5.405  1.00 20.00     0.134 C 
HETATM    2  C2  UNL     1     -34.602   5.352   3.588  1.00 20.00     0.134 C 
HETATM    3  C3  UNL     1     -34.242   5.599   6.379  1.00 20.00     0.183 C 
HETATM    4  C4  UNL     1     -35.161   4.362   4.605  1.00 20.00     0.183 C 
HETATM    5  N5  UNL     1     -33.384   5.981   4.113  1.00 20.00    -0.224 NA
HETATM    6  O6  UNL     1     -35.432   5.020   5.843  1.00 20.00    -0.389 OA
HETATM    7 CL7  UNL     1     -32.672   7.111   2.957  1.00 20.00    -0.022 Cl
ENDROOT
TORSDOF 0
ENDMDL
MODEL 2
REMARK VINA RESULT:      -3.5      1.923      2.429
REMARK  0 active torsions:
REMARK  status: ('A' for Active; 'I' for Inactive)
ROOT
HETATM    1  C1  UNL     1     -33.945   6.303   4.495  1.00 20.00     0.134 C 
HETATM    2  C2  UNL     1     -34.289   4.964   6.465  1.00 20.00     0.134 C 
HETATM    3  C3  UNL     1     -34.927   5.405   3.748  1.00 20.00     0.183 C 
HETATM    4  C4  UNL     1     -35.262   4.098   5.672  1.00 20.00     0.183 C 
HETATM    5  N5  UNL     1     -34.272   6.328   5.924  1.00 20.00    -0.224 NA
HETATM    6  O6  UNL     1     -34.905   4.084   4.290  1.00 20.00    -0.389 OA
HETATM    7 CL7  UNL     1     -33.185   7.386   6.832  1.00 20.00    -0.022 Cl
ENDROOT
TORSDOF 0
ENDMDL
MODEL 3
REMARK VINA RESULT:      -3.4      1.852      2.230
REMARK  0 active torsions:
REMARK  status: ('A' for Active; 'I' for Inactive)
ROOT
HETATM    1  C1  UNL     1     -34.748   5.283   6.364  1.00 20.00     0.134 C 
HETATM    2  C2  UNL     1     -34.074   6.593   4.461  1.00 20.00     0.134 C 
HETATM    3  C3  UNL     1     -35.056   4.124   5.421  1.00 20.00     0.183 C 
HETATM    4  C4  UNL     1     -34.397   5.403   3.563  1.00 20.00     0.183 C 
HETATM    5  N5  UNL     1     -33.690   6.126   5.798  1.00 20.00    -0.224 NA
HETATM    6  O6  UNL     1     -35.440   4.615   4.137  1.00 20.00    -0.389 OA
HETATM    7 CL7  UNL     1     -33.268   7.467   6.870  1.00 20.00    -0.022 Cl
ENDROOT
TORSDOF 0
ENDMDL
MODEL 4
REMARK VINA RESULT:      -3.4      0.491      1.859
REMARK  0 active torsions:
REMARK  status: ('A' for Active; 'I' for Inactive)
ROOT
HETATM    1  C1  UNL     1     -34.411   5.327   3.465  1.00 20.00     0.134 C 
HETATM    2  C2  UNL     1     -33.350   6.389   5.346  1.00 20.00     0.134 C 
HETATM    3  C3  UNL     1     -35.521   4.850   4.397  1.00 20.00     0.183 C 
HETATM    4  C4  UNL     1     -34.485   5.887   6.233  1.00 20.00     0.183 C 
HETATM    5  N5  UNL     1     -33.829   6.575   3.971  1.00 20.00    -0.224 NA
HETATM    6  O6  UNL     1     -35.016   4.666   5.719  1.00 20.00    -0.389 OA
HETATM    7 CL7  UNL     1     -32.561   7.192   2.907  1.00 20.00    -0.022 Cl
ENDROOT
TORSDOF 0
ENDMDL
MODEL 5
REMARK VINA RESULT:      -3.2     12.195     12.331
REMARK  0 active torsions:
REMARK  status: ('A' for Active; 'I' for Inactive)
ROOT
HETATM    1  C1  UNL     1     -33.433  14.259  -3.552  1.00 20.00     0.134 C 
HETATM    2  C2  UNL     1     -35.680  15.042  -3.186  1.00 20.00     0.134 C 
HETATM    3  C3  UNL     1     -33.972  13.292  -4.601  1.00 20.00     0.183 C 
HETATM    4  C4  UNL     1     -36.165  14.056  -4.244  1.00 20.00     0.183 C 
HETATM    5  N5  UNL     1     -34.296  15.443  -3.467  1.00 20.00    -0.224 NA
HETATM    6  O6  UNL     1     -35.312  12.912  -4.287  1.00 20.00    -0.389 OA
HETATM    7 CL7  UNL     1     -33.695  16.616  -2.290  1.00 20.00    -0.022 Cl
ENDROOT
TORSDOF 0
ENDMDL
MODEL 6
REMARK VINA RESULT:      -3.1     12.673     13.256
REMARK  0 active torsions:
REMARK  status: ('A' for Active; 'I' for Inactive)
ROOT
HETATM    1  C1  UNL     1     -34.445  14.889  -6.046  1.00 20.00     0.134 C 
HETATM    2  C2  UNL     1     -33.382  14.886  -3.886  1.00 20.00     0.134 C 
HETATM    3  C3  UNL     1     -35.193  13.621  -5.647  1.00 20.00     0.183 C 
HETATM    4  C4  UNL     1     -34.156  13.618  -3.539  1.00 20.00     0.183 C 
HETATM    5  N5  UNL     1     -34.138  15.689  -4.855  1.00 20.00    -0.224 NA
HETATM    6  O6  UNL     1     -34.422  12.859  -4.718  1.00 20.00    -0.389 OA
HETATM    7 CL7  UNL     1     -33.302  17.191  -5.264  1.00 20.00    -0.022 Cl
ENDROOT
TORSDOF 0
ENDMDL
MODEL 7
REMARK VINA RESULT:      -3.1     12.484     12.525
REMARK  0 active torsions:
REMARK  status: ('A' for Active; 'I' for Inactive)
ROOT
HETATM    1  C1  UNL     1     -34.186  15.403  -3.047  1.00 20.00     0.134 C 
HETATM    2  C2  UNL     1     -35.764  13.980  -4.177  1.00 20.00     0.134 C 
HETATM    3  C3  UNL     1     -33.053  14.603  -3.682  1.00 20.00     0.183 C 
HETATM    4  C4  UNL     1     -34.594  13.215  -4.786  1.00 20.00     0.183 C 
HETATM    5  N5  UNL     1     -35.373  15.369  -3.908  1.00 20.00    -0.224 NA
HETATM    6  O6  UNL     1     -33.464  13.256  -3.914  1.00 20.00    -0.389 OA
HETATM    7 CL7  UNL     1     -36.706  16.314  -3.235  1.00 20.00    -0.022 Cl
ENDROOT
TORSDOF 0
ENDMDL
MODEL 8
REMARK VINA RESULT:      -3.1      9.240      9.739
REMARK  0 active torsions:
REMARK  status: ('A' for Active; 'I' for Inactive)
ROOT
HETATM    1  C1  UNL     1     -41.415   7.145  -0.949  1.00 20.00     0.134 C 
HETATM    2  C2  UNL     1     -42.107   5.350  -2.395  1.00 20.00     0.134 C 
HETATM    3  C3  UNL     1     -40.661   6.129  -0.096  1.00 20.00     0.183 C 
HETATM    4  C4  UNL     1     -41.337   4.377  -1.508  1.00 20.00     0.183 C 
HETATM    5  N5  UNL     1     -41.490   6.680  -2.338  1.00 20.00    -0.224 NA
HETATM    6  O6  UNL     1     -41.298   4.853  -0.163  1.00 20.00    -0.389 OA
HETATM    7 CL7  UNL     1     -42.322   7.841  -3.379  1.00 20.00    -0.022 Cl
ENDROOT
TORSDOF 0
ENDMDL
MODEL 9
REMARK VINA RESULT:      -3.1     12.367     12.574
REMARK  0 active torsions:
REMARK  status: ('A' for Active; 'I' for Inactive)
ROOT
HETATM    1  C1  UNL     1     -35.819  15.527  -3.368  1.00 20.00     0.134 C 
HETATM    2  C2  UNL     1     -33.568  14.744  -3.708  1.00 20.00     0.134 C 
HETATM    3  C3  UNL     1     -36.328  14.303  -4.124  1.00 20.00     0.183 C 
HETATM    4  C4  UNL     1     -34.131  13.539  -4.456  1.00 20.00     0.183 C 
HETATM    5  N5  UNL     1     -34.540  15.221  -2.717  1.00 20.00    -0.224 NA
HETATM    6  O6  UNL     1     -35.365  13.878  -5.089  1.00 20.00    -0.389 OA
HETATM    7 CL7  UNL     1     -33.924  16.596  -1.795  1.00 20.00    -0.022 Cl
ENDROOT
TORSDOF 0
ENDMDL
