MODEL 1
REMARK VINA RESULT:      -4.7      0.000      0.000
REMARK  2 active torsions:
REMARK  status: ('A' for Active; 'I' for Inactive)
REMARK    1  A    between atoms: C1_1  and  C2_2 
REMARK    2  A    between atoms: C1_1  and  C3_3 
ROOT
HETATM    1  C1  UNL     1     -34.195   5.892   5.426  1.00 20.00     0.245 C 
HETATM    2  O4  UNL     1     -33.894   6.618   6.371  1.00 20.00    -0.287 OA
ENDROOT
BRANCH   1   3
HETATM    3  C2  UNL     1     -34.077   6.310   3.978  1.00 20.00     0.202 C 
HETATM    4 CL8  UNL     1     -32.402   6.183   3.424  1.00 20.00    -0.122 Cl
ENDBRANCH   1   3
BRANCH   1   5
HETATM    5  C3  UNL     1     -34.715   4.501   5.665  1.00 20.00     0.452 C 
HETATM    6  F5  UNL     1     -35.673   4.481   6.625  1.00 20.00    -0.163 F 
HETATM    7  F6  UNL     1     -33.731   3.660   6.068  1.00 20.00    -0.163 F 
HETATM    8  F7  UNL     1     -35.264   3.961   4.548  1.00 20.00    -0.163 F 
ENDBRANCH   1   5
TORSDOF 2
ENDMDL
MODEL 2
REMARK VINA RESULT:      -4.7      0.031      1.335
REMARK  2 active torsions:
REMARK  status: ('A' for Active; 'I' for Inactive)
REMARK    1  A    between atoms: C1_1  and  C2_2 
REMARK    2  A    between atoms: C1_1  and  C3_3 
ROOT
HETATM    1  C1  UNL     1     -34.190   5.917   5.409  1.00 20.00     0.245 C 
HETATM    2  O4  UNL     1     -33.893   6.649   6.351  1.00 20.00    -0.287 OA
ENDROOT
BRANCH   1   3
HETATM    3  C2  UNL     1     -34.062   6.324   3.959  1.00 20.00     0.202 C 
HETATM    4 CL8  UNL     1     -32.384   6.183   3.415  1.00 20.00    -0.122 Cl
ENDBRANCH   1   3
BRANCH   1   5
HETATM    5  C3  UNL     1     -34.715   4.529   5.655  1.00 20.00     0.452 C 
HETATM    6  F5  UNL     1     -35.266   3.995   4.536  1.00 20.00    -0.163 F 
HETATM    7  F6  UNL     1     -35.673   4.517   6.615  1.00 20.00    -0.163 F 
HETATM    8  F7  UNL     1     -33.739   3.677   6.059  1.00 20.00    -0.163 F 
ENDBRANCH   1   5
TORSDOF 2
ENDMDL
MODEL 3
REMARK VINA RESULT:      -4.7      0.018      1.339
REMARK  2 active torsions:
REMARK  status: ('A' for Active; 'I' for Inactive)
REMARK    1  A    between atoms: C1_1  and  C2_2 
REMARK    2  A    between atoms: C1_1  and  C3_3 
ROOT
HETATM    1  C1  UNL     1     -34.193   5.902   5.418  1.00 20.00     0.245 C 
HETATM    2  O4  UNL     1     -33.889   6.631   6.361  1.00 20.00    -0.287 OA
ENDROOT
BRANCH   1   3
HETATM    3  C2  UNL     1     -34.070   6.312   3.969  1.00 20.00     0.202 C 
HETATM    4 CL8  UNL     1     -32.392   6.184   3.422  1.00 20.00    -0.122 Cl
ENDBRANCH   1   3
BRANCH   1   5
HETATM    5  C3  UNL     1     -34.721   4.515   5.663  1.00 20.00     0.452 C 
HETATM    6  F5  UNL     1     -33.739   3.665   6.054  1.00 20.00    -0.163 F 
HETATM    7  F6  UNL     1     -35.283   3.987   4.548  1.00 20.00    -0.163 F 
HETATM    8  F7  UNL     1     -35.671   4.493   6.632  1.00 20.00    -0.163 F 
ENDBRANCH   1   5
TORSDOF 2
ENDMDL
MODEL 4
REMARK VINA RESULT:      -4.5      2.095      2.841
REMARK  2 active torsions:
REMARK  status: ('A' for Active; 'I' for Inactive)
REMARK    1  A    between atoms: C1_1  and  C2_2 
REMARK    2  A    between atoms: C1_1  and  C3_3 
ROOT
HETATM    1  C1  UNL     1     -33.974   5.990   4.644  1.00 20.00     0.245 C 
HETATM    2  O4  UNL     1     -33.035   6.605   4.143  1.00 20.00    -0.287 OA
ENDROOT
BRANCH   1   3
HETATM    3  C2  UNL     1     -34.288   6.000   6.122  1.00 20.00     0.202 C 
HETATM    4 CL8  UNL     1     -33.456   7.337   6.930  1.00 20.00    -0.122 Cl
ENDBRANCH   1   3
BRANCH   1   5
HETATM    5  C3  UNL     1     -34.894   5.166   3.786  1.00 20.00     0.452 C 
HETATM    6  F5  UNL     1     -34.365   4.936   2.558  1.00 20.00    -0.163 F 
HETATM    7  F6  UNL     1     -36.088   5.781   3.595  1.00 20.00    -0.163 F 
HETATM    8  F7  UNL     1     -35.158   3.954   4.335  1.00 20.00    -0.163 F 
ENDBRANCH   1   5
TORSDOF 2
ENDMDL
MODEL 5
REMARK VINA RESULT:      -4.4      1.649      1.907
REMARK  2 active torsions:
REMARK  status: ('A' for Active; 'I' for Inactive)
REMARK    1  A    between atoms: C1_1  and  C2_2 
REMARK    2  A    between atoms: C1_1  and  C3_3 
ROOT
HETATM    1  C1  UNL     1     -34.562   5.383   4.699  1.00 20.00     0.245 C 
HETATM    2  O4  UNL     1     -35.173   4.506   4.091  1.00 20.00    -0.287 OA
ENDROOT
BRANCH   1   3
HETATM    3  C2  UNL     1     -33.890   6.557   4.024  1.00 20.00     0.202 C 
HETATM    4 CL8  UNL     1     -32.356   6.064   3.293  1.00 20.00    -0.122 Cl
ENDBRANCH   1   3
BRANCH   1   5
HETATM    5  C3  UNL     1     -34.446   5.336   6.197  1.00 20.00     0.452 C 
HETATM    6  F5  UNL     1     -35.660   5.216   6.792  1.00 20.00    -0.163 F 
HETATM    7  F6  UNL     1     -33.871   6.460   6.692  1.00 20.00    -0.163 F 
HETATM    8  F7  UNL     1     -33.695   4.288   6.620  1.00 20.00    -0.163 F 
ENDBRANCH   1   5
TORSDOF 2
ENDMDL
MODEL 6
REMARK VINA RESULT:      -4.4      1.653      1.879
REMARK  2 active torsions:
REMARK  status: ('A' for Active; 'I' for Inactive)
REMARK    1  A    between atoms: C1_1  and  C2_2 
REMARK    2  A    between atoms: C1_1  and  C3_3 
ROOT
HETATM    1  C1  UNL     1     -34.561   5.383   4.703  1.00 20.00     0.245 C 
HETATM    2  O4  UNL     1     -35.181   4.507   4.102  1.00 20.00    -0.287 OA
ENDROOT
BRANCH   1   3
HETATM    3  C2  UNL     1     -33.882   6.547   4.020  1.00 20.00     0.202 C 
HETATM    4 CL8  UNL     1     -32.366   6.034   3.267  1.00 20.00    -0.122 Cl
ENDBRANCH   1   3
BRANCH   1   5
HETATM    5  C3  UNL     1     -34.441   5.342   6.202  1.00 20.00     0.452 C 
HETATM    6  F5  UNL     1     -33.846   6.460   6.689  1.00 20.00    -0.163 F 
HETATM    7  F6  UNL     1     -33.700   4.285   6.617  1.00 20.00    -0.163 F 
HETATM    8  F7  UNL     1     -35.649   5.241   6.810  1.00 20.00    -0.163 F 
ENDBRANCH   1   5
TORSDOF 2
ENDMDL
MODEL 7
REMARK VINA RESULT:      -4.4      1.671      2.159
REMARK  2 active torsions:
REMARK  status: ('A' for Active; 'I' for Inactive)
REMARK    1  A    between atoms: C1_1  and  C2_2 
REMARK    2  A    between atoms: C1_1  and  C3_3 
ROOT
HETATM    1  C1  UNL     1     -34.580   5.348   4.728  1.00 20.00     0.245 C 
HETATM    2  O4  UNL     1     -35.195   4.438   4.176  1.00 20.00    -0.287 OA
ENDROOT
BRANCH   1   3
HETATM    3  C2  UNL     1     -33.950   6.503   3.984  1.00 20.00     0.202 C 
HETATM    4 CL8  UNL     1     -32.372   6.041   3.329  1.00 20.00    -0.122 Cl
ENDBRANCH   1   3
BRANCH   1   5
HETATM    5  C3  UNL     1     -34.414   5.364   6.222  1.00 20.00     0.452 C 
HETATM    6  F5  UNL     1     -33.681   4.308   6.658  1.00 20.00    -0.163 F 
HETATM    7  F6  UNL     1     -35.609   5.307   6.861  1.00 20.00    -0.163 F 
HETATM    8  F7  UNL     1     -33.787   6.486   6.656  1.00 20.00    -0.163 F 
ENDBRANCH   1   5
TORSDOF 2
ENDMDL
MODEL 8
REMARK VINA RESULT:      -4.4      2.968      3.481
REMARK  2 active torsions:
REMARK  status: ('A' for Active; 'I' for Inactive)
REMARK    1  A    between atoms: C1_1  and  C2_2 
REMARK    2  A    between atoms: C1_1  and  C3_3 
ROOT
HETATM    1  C1  UNL     1     -33.899   6.028   4.579  1.00 20.00     0.245 C 
HETATM    2  O4  UNL     1     -33.573   6.666   5.577  1.00 20.00    -0.287 OA
ENDROOT
BRANCH   1   3
HETATM    3  C2  UNL     1     -35.066   5.068   4.542  1.00 20.00     0.202 C 
HETATM    4 CL8  UNL     1     -35.082   4.048   5.989  1.00 20.00    -0.122 Cl
ENDBRANCH   1   3
BRANCH   1   5
HETATM    5  C3  UNL     1     -33.130   6.172   3.294  1.00 20.00     0.452 C 
HETATM    6  F5  UNL     1     -33.064   7.465   2.890  1.00 20.00    -0.163 F 
HETATM    7  F6  UNL     1     -33.702   5.469   2.285  1.00 20.00    -0.163 F 
HETATM    8  F7  UNL     1     -31.853   5.729   3.409  1.00 20.00    -0.163 F 
ENDBRANCH   1   5
TORSDOF 2
ENDMDL
MODEL 9
REMARK VINA RESULT:      -4.3      3.390      3.822
REMARK  2 active torsions:
REMARK  status: ('A' for Active; 'I' for Inactive)
REMARK    1  A    between atoms: C1_1  and  C2_2 
REMARK    2  A    between atoms: C1_1  and  C3_3 
ROOT
HETATM    1  C1  UNL     1     -33.879   5.953   3.956  1.00 20.00     0.245 C 
HETATM    2  O4  UNL     1     -34.672   5.397   3.198  1.00 20.00    -0.287 OA
ENDROOT
BRANCH   1   3
HETATM    3  C2  UNL     1     -34.115   6.118   5.439  1.00 20.00     0.202 C 
HETATM    4 CL8  UNL     1     -34.979   4.720   6.096  1.00 20.00    -0.122 Cl
ENDBRANCH   1   3
BRANCH   1   5
HETATM    5  C3  UNL     1     -32.587   6.518   3.431  1.00 20.00     0.452 C 
HETATM    6  F5  UNL     1     -31.727   5.539   3.054  1.00 20.00    -0.163 F 
HETATM    7  F6  UNL     1     -31.952   7.268   4.365  1.00 20.00    -0.163 F 
HETATM    8  F7  UNL     1     -32.779   7.314   2.349  1.00 20.00    -0.163 F 
ENDBRANCH   1   5
TORSDOF 2
ENDMDL
