MODEL 1
REMARK VINA RESULT:      -4.9      0.000      0.000
REMARK  4 active torsions:
REMARK  status: ('A' for Active; 'I' for Inactive)
REMARK    1  A    between atoms: C1_1  and  C4_4 
REMARK    2  A    between atoms: C2_2  and  C8_8 
REMARK    3  A    between atoms: C8_8  and  C9_9 
REMARK    4  A    between atoms: C8_8  and  O10_10 
ROOT
HETATM    1  C8  UNL     1     -34.983   5.186   4.015  1.00 20.00     0.200 C 
ENDROOT
BRANCH   1   2
HETATM    2  C2  UNL     1     -33.882   6.076   3.615  1.00 20.00    -0.069 C 
HETATM    3  C1  UNL     1     -32.984   6.805   3.291  1.00 20.00    -0.070 C 
BRANCH   3   4
HETATM    4  C4  UNL     1     -31.917   7.671   2.906  1.00 20.00    -0.018 C 
HETATM    5  C3  UNL     1     -30.907   7.886   3.762  1.00 20.00     0.028 C 
HETATM    6  C5  UNL     1     -31.958   8.315   1.553  1.00 20.00     0.057 C 
ENDBRANCH   3   4
ENDBRANCH   1   2
BRANCH   1   7
HETATM    7  C9  UNL     1     -35.055   4.951   5.539  1.00 20.00     0.018 C 
HETATM    8  C6  UNL     1     -34.394   6.068   6.353  1.00 20.00     0.013 C 
HETATM    9  C7  UNL     1     -34.481   3.589   5.937  1.00 20.00     0.013 C 
ENDBRANCH   1   7
BRANCH   1  10
HETATM   10  O10 UNL     1     -36.210   5.745   3.554  1.00 20.00    -0.383 OA
HETATM   11  H24 UNL     1     -35.978   6.528   3.030  1.00 20.00     0.211 HD
ENDBRANCH   1  10
TORSDOF 4
ENDMDL
MODEL 2
REMARK VINA RESULT:      -4.7      1.238      1.710
REMARK  4 active torsions:
REMARK  status: ('A' for Active; 'I' for Inactive)
REMARK    1  A    between atoms: C1_1  and  C4_4 
REMARK    2  A    between atoms: C2_2  and  C8_8 
REMARK    3  A    between atoms: C8_8  and  C9_9 
REMARK    4  A    between atoms: C8_8  and  O10_10 
ROOT
HETATM    1  C8  UNL     1     -33.666   5.636   4.161  1.00 20.00     0.200 C 
ENDROOT
BRANCH   1   2
HETATM    2  C2  UNL     1     -33.167   6.731   3.315  1.00 20.00    -0.069 C 
HETATM    3  C1  UNL     1     -32.761   7.623   2.622  1.00 20.00    -0.070 C 
BRANCH   3   4
HETATM    4  C4  UNL     1     -32.278   8.683   1.798  1.00 20.00    -0.018 C 
HETATM    5  C3  UNL     1     -31.436   8.400   0.793  1.00 20.00     0.028 C 
HETATM    6  C5  UNL     1     -32.729  10.085   2.080  1.00 20.00     0.057 C 
ENDBRANCH   3   4
ENDBRANCH   1   2
BRANCH   1   7
HETATM    7  C9  UNL     1     -34.305   6.125   5.479  1.00 20.00     0.018 C 
HETATM    8  C6  UNL     1     -33.348   6.956   6.340  1.00 20.00     0.013 C 
HETATM    9  C7  UNL     1     -34.892   4.970   6.295  1.00 20.00     0.013 C 
ENDBRANCH   1   7
BRANCH   1  10
HETATM   10  O10 UNL     1     -34.618   4.881   3.414  1.00 20.00    -0.383 OA
HETATM   11  H24 UNL     1     -35.456   5.366   3.465  1.00 20.00     0.211 HD
ENDBRANCH   1  10
TORSDOF 4
ENDMDL
MODEL 3
REMARK VINA RESULT:      -4.7     11.625     12.678
REMARK  4 active torsions:
REMARK  status: ('A' for Active; 'I' for Inactive)
REMARK    1  A    between atoms: C1_1  and  C4_4 
REMARK    2  A    between atoms: C2_2  and  C8_8 
REMARK    3  A    between atoms: C8_8  and  C9_9 
REMARK    4  A    between atoms: C8_8  and  O10_10 
ROOT
HETATM    1  C8  UNL     1     -33.337  15.207  -4.034  1.00 20.00     0.200 C 
ENDROOT
BRANCH   1   2
HETATM    2  C2  UNL     1     -33.559  16.028  -2.834  1.00 20.00    -0.069 C 
HETATM    3  C1  UNL     1     -33.737  16.698  -1.853  1.00 20.00    -0.070 C 
BRANCH   3   4
HETATM    4  C4  UNL     1     -33.949  17.494  -0.688  1.00 20.00    -0.018 C 
HETATM    5  C3  UNL     1     -34.989  17.217   0.113  1.00 20.00     0.028 C 
HETATM    6  C5  UNL     1     -33.001  18.617  -0.393  1.00 20.00     0.057 C 
ENDBRANCH   3   4
ENDBRANCH   1   2
BRANCH   1   7
HETATM    7  C9  UNL     1     -34.645  14.747  -4.710  1.00 20.00     0.018 C 
HETATM    8  C6  UNL     1     -35.088  13.345  -4.274  1.00 20.00     0.013 C 
HETATM    9  C7  UNL     1     -34.562  14.829  -6.237  1.00 20.00     0.013 C 
ENDBRANCH   1   7
BRANCH   1  10
HETATM   10  O10 UNL     1     -32.553  15.957  -4.959  1.00 20.00    -0.383 OA
HETATM   11  H24 UNL     1     -31.911  16.459  -4.434  1.00 20.00     0.211 HD
ENDBRANCH   1  10
TORSDOF 4
ENDMDL
MODEL 4
REMARK VINA RESULT:      -4.6     11.247     11.926
REMARK  4 active torsions:
REMARK  status: ('A' for Active; 'I' for Inactive)
REMARK    1  A    between atoms: C1_1  and  C4_4 
REMARK    2  A    between atoms: C2_2  and  C8_8 
REMARK    3  A    between atoms: C8_8  and  C9_9 
REMARK    4  A    between atoms: C8_8  and  O10_10 
ROOT
HETATM    1  C8  UNL     1     -35.385  15.365  -3.190  1.00 20.00     0.200 C 
ENDROOT
BRANCH   1   2
HETATM    2  C2  UNL     1     -35.023  16.161  -2.007  1.00 20.00    -0.069 C 
HETATM    3  C1  UNL     1     -34.728  16.815  -1.044  1.00 20.00    -0.070 C 
BRANCH   3   4
HETATM    4  C4  UNL     1     -34.376  17.591   0.101  1.00 20.00    -0.018 C 
HETATM    5  C3  UNL     1     -35.173  17.563   1.180  1.00 20.00     0.028 C 
HETATM    6  C5  UNL     1     -33.124  18.415   0.063  1.00 20.00     0.057 C 
ENDBRANCH   3   4
ENDBRANCH   1   2
BRANCH   1   7
HETATM    7  C9  UNL     1     -34.434  14.175  -3.439  1.00 20.00     0.018 C 
HETATM    8  C6  UNL     1     -32.986  14.605  -3.698  1.00 20.00     0.013 C 
HETATM    9  C7  UNL     1     -34.932  13.269  -4.568  1.00 20.00     0.013 C 
ENDBRANCH   1   7
BRANCH   1  10
HETATM   10  O10 UNL     1     -36.720  14.891  -3.029  1.00 20.00    -0.383 OA
HETATM   11  H24 UNL     1     -37.198  15.134  -3.836  1.00 20.00     0.211 HD
ENDBRANCH   1  10
TORSDOF 4
ENDMDL
MODEL 5
REMARK VINA RESULT:      -4.6      1.245      1.675
REMARK  4 active torsions:
REMARK  status: ('A' for Active; 'I' for Inactive)
REMARK    1  A    between atoms: C1_1  and  C4_4 
REMARK    2  A    between atoms: C2_2  and  C8_8 
REMARK    3  A    between atoms: C8_8  and  C9_9 
REMARK    4  A    between atoms: C8_8  and  O10_10 
ROOT
HETATM    1  C8  UNL     1     -33.653   5.663   4.142  1.00 20.00     0.200 C 
ENDROOT
BRANCH   1   2
HETATM    2  C2  UNL     1     -33.165   6.764   3.298  1.00 20.00    -0.069 C 
HETATM    3  C1  UNL     1     -32.768   7.662   2.607  1.00 20.00    -0.070 C 
BRANCH   3   4
HETATM    4  C4  UNL     1     -32.297   8.730   1.785  1.00 20.00    -0.018 C 
HETATM    5  C3  UNL     1     -32.696   9.983   2.048  1.00 20.00     0.028 C 
HETATM    6  C5  UNL     1     -31.368   8.417   0.651  1.00 20.00     0.057 C 
ENDBRANCH   3   4
ENDBRANCH   1   2
BRANCH   1   7
HETATM    7  C9  UNL     1     -34.301   6.143   5.458  1.00 20.00     0.018 C 
HETATM    8  C6  UNL     1     -33.351   6.975   6.329  1.00 20.00     0.013 C 
HETATM    9  C7  UNL     1     -34.887   4.983   6.267  1.00 20.00     0.013 C 
ENDBRANCH   1   7
BRANCH   1  10
HETATM   10  O10 UNL     1     -34.594   4.897   3.393  1.00 20.00    -0.383 OA
HETATM   11  H24 UNL     1     -34.797   5.412   2.596  1.00 20.00     0.211 HD
ENDBRANCH   1  10
TORSDOF 4
ENDMDL
MODEL 6
REMARK VINA RESULT:      -4.6      2.055      5.283
REMARK  4 active torsions:
REMARK  status: ('A' for Active; 'I' for Inactive)
REMARK    1  A    between atoms: C1_1  and  C4_4 
REMARK    2  A    between atoms: C2_2  and  C8_8 
REMARK    3  A    between atoms: C8_8  and  C9_9 
REMARK    4  A    between atoms: C8_8  and  O10_10 
ROOT
HETATM    1  C8  UNL     1     -31.770   7.510   2.773  1.00 20.00     0.200 C 
ENDROOT
BRANCH   1   2
HETATM    2  C2  UNL     1     -32.775   6.767   3.549  1.00 20.00    -0.069 C 
HETATM    3  C1  UNL     1     -33.593   6.160   4.185  1.00 20.00    -0.070 C 
BRANCH   3   4
HETATM    4  C4  UNL     1     -34.565   5.438   4.940  1.00 20.00    -0.018 C 
HETATM    5  C3  UNL     1     -35.481   4.702   4.294  1.00 20.00     0.028 C 
HETATM    6  C5  UNL     1     -34.532   5.525   6.437  1.00 20.00     0.057 C 
ENDBRANCH   3   4
ENDBRANCH   1   2
BRANCH   1   7
HETATM    7  C9  UNL     1     -32.386   8.438   1.705  1.00 20.00     0.018 C 
HETATM    8  C6  UNL     1     -31.534   8.545   0.435  1.00 20.00     0.013 C 
HETATM    9  C7  UNL     1     -32.692   9.831   2.261  1.00 20.00     0.013 C 
ENDBRANCH   1   7
BRANCH   1  10
HETATM   10  O10 UNL     1     -30.973   8.275   3.675  1.00 20.00    -0.383 OA
HETATM   11  H24 UNL     1     -30.106   7.842   3.713  1.00 20.00     0.211 HD
ENDBRANCH   1  10
TORSDOF 4
ENDMDL
MODEL 7
REMARK VINA RESULT:      -4.4     11.583     12.482
REMARK  4 active torsions:
REMARK  status: ('A' for Active; 'I' for Inactive)
REMARK    1  A    between atoms: C1_1  and  C4_4 
REMARK    2  A    between atoms: C2_2  and  C8_8 
REMARK    3  A    between atoms: C8_8  and  C9_9 
REMARK    4  A    between atoms: C8_8  and  O10_10 
ROOT
HETATM    1  C8  UNL     1     -34.919  14.735  -3.513  1.00 20.00     0.200 C 
ENDROOT
BRANCH   1   2
HETATM    2  C2  UNL     1     -34.665  15.680  -2.415  1.00 20.00    -0.069 C 
HETATM    3  C1  UNL     1     -34.458  16.449  -1.516  1.00 20.00    -0.070 C 
BRANCH   3   4
HETATM    4  C4  UNL     1     -34.212  17.362  -0.448  1.00 20.00    -0.018 C 
HETATM    5  C3  UNL     1     -33.150  18.180  -0.517  1.00 20.00     0.028 C 
HETATM    6  C5  UNL     1     -35.150  17.382   0.721  1.00 20.00     0.057 C 
ENDBRANCH   3   4
ENDBRANCH   1   2
BRANCH   1   7
HETATM    7  C9  UNL     1     -34.675  15.342  -4.911  1.00 20.00     0.018 C 
HETATM    8  C6  UNL     1     -34.730  14.304  -6.038  1.00 20.00     0.013 C 
HETATM    9  C7  UNL     1     -33.363  16.129  -4.974  1.00 20.00     0.013 C 
ENDBRANCH   1   7
BRANCH   1  10
HETATM   10  O10 UNL     1     -34.087  13.591  -3.332  1.00 20.00    -0.383 OA
HETATM   11  H24 UNL     1     -34.667  12.816  -3.394  1.00 20.00     0.211 HD
ENDBRANCH   1  10
TORSDOF 4
ENDMDL
MODEL 8
REMARK VINA RESULT:      -4.2     11.307     12.323
REMARK  4 active torsions:
REMARK  status: ('A' for Active; 'I' for Inactive)
REMARK    1  A    between atoms: C1_1  and  C4_4 
REMARK    2  A    between atoms: C2_2  and  C8_8 
REMARK    3  A    between atoms: C8_8  and  C9_9 
REMARK    4  A    between atoms: C8_8  and  O10_10 
ROOT
HETATM    1  C8  UNL     1     -34.950  17.299   0.233  1.00 20.00     0.200 C 
ENDROOT
BRANCH   1   2
HETATM    2  C2  UNL     1     -34.588  16.627  -1.024  1.00 20.00    -0.069 C 
HETATM    3  C1  UNL     1     -34.296  16.077  -2.051  1.00 20.00    -0.070 C 
BRANCH   3   4
HETATM    4  C4  UNL     1     -33.948  15.423  -3.271  1.00 20.00    -0.018 C 
HETATM    5  C3  UNL     1     -33.228  16.087  -4.188  1.00 20.00     0.028 C 
HETATM    6  C5  UNL     1     -34.399  14.010  -3.492  1.00 20.00     0.057 C 
ENDBRANCH   3   4
ENDBRANCH   1   2
BRANCH   1   7
HETATM    7  C9  UNL     1     -34.039  18.498   0.569  1.00 20.00     0.018 C 
HETATM    8  C6  UNL     1     -32.723  18.494  -0.218  1.00 20.00     0.013 C 
HETATM    9  C7  UNL     1     -33.761  18.606   2.071  1.00 20.00     0.013 C 
ENDBRANCH   1   7
BRANCH   1  10
HETATM   10  O10 UNL     1     -36.305  17.733   0.144  1.00 20.00    -0.383 OA
HETATM   11  H24 UNL     1     -36.804  17.001  -0.253  1.00 20.00     0.211 HD
ENDBRANCH   1  10
TORSDOF 4
ENDMDL
MODEL 9
REMARK VINA RESULT:      -4.1     11.395     12.486
REMARK  4 active torsions:
REMARK  status: ('A' for Active; 'I' for Inactive)
REMARK    1  A    between atoms: C1_1  and  C4_4 
REMARK    2  A    between atoms: C2_2  and  C8_8 
REMARK    3  A    between atoms: C8_8  and  C9_9 
REMARK    4  A    between atoms: C8_8  and  O10_10 
ROOT
HETATM    1  C8  UNL     1     -34.610  16.768  -0.684  1.00 20.00     0.200 C 
ENDROOT
BRANCH   1   2
HETATM    2  C2  UNL     1     -34.608  16.006  -1.941  1.00 20.00    -0.069 C 
HETATM    3  C1  UNL     1     -34.602  15.382  -2.968  1.00 20.00    -0.070 C 
BRANCH   3   4
HETATM    4  C4  UNL     1     -34.596  14.642  -4.188  1.00 20.00    -0.018 C 
HETATM    5  C3  UNL     1     -34.955  13.350  -4.171  1.00 20.00     0.028 C 
HETATM    6  C5  UNL     1     -34.189  15.333  -5.455  1.00 20.00     0.057 C 
ENDBRANCH   3   4
ENDBRANCH   1   2
BRANCH   1   7
HETATM    7  C9  UNL     1     -33.469  17.804  -0.596  1.00 20.00     0.018 C 
HETATM    8  C6  UNL     1     -33.443  18.561   0.737  1.00 20.00     0.013 C 
HETATM    9  C7  UNL     1     -33.497  18.789  -1.768  1.00 20.00     0.013 C 
ENDBRANCH   1   7
BRANCH   1  10
HETATM   10  O10 UNL     1     -35.869  17.424  -0.550  1.00 20.00    -0.383 OA
HETATM   11  H24 UNL     1     -36.511  16.741  -0.302  1.00 20.00     0.211 HD
ENDBRANCH   1  10
TORSDOF 4
ENDMDL
