MODEL 1
REMARK VINA RESULT:      -4.6      0.000      0.000
REMARK  0 active torsions:
REMARK  status: ('A' for Active; 'I' for Inactive)
ROOT
HETATM    1  C1  UNL     1     -34.547  16.502  -1.095  1.00 20.00     0.014 C 
HETATM    2  C2  UNL     1     -34.791  15.976  -2.147  1.00 20.00    -0.091 C 
HETATM    3  C3  UNL     1     -34.882  14.193  -6.057  1.00 20.00     0.000 C 
HETATM    4  C4  UNL     1     -34.603  13.263  -4.875  1.00 20.00     0.003 C 
HETATM    5  C5  UNL     1     -34.247  15.562  -5.869  1.00 20.00     0.003 C 
HETATM    6  C6  UNL     1     -34.341  13.998  -3.556  1.00 20.00     0.039 C 
HETATM    7  C7  UNL     1     -34.739  16.277  -4.604  1.00 20.00     0.039 C 
HETATM    8  C8  UNL     1     -35.091  15.332  -3.437  1.00 20.00     0.099 C 
HETATM    9 CL9  UNL     1     -36.867  15.019  -3.414  1.00 20.00    -0.105 Cl
ENDROOT
TORSDOF 0
ENDMDL
MODEL 2
REMARK VINA RESULT:      -4.6     11.224     12.406
REMARK  0 active torsions:
REMARK  status: ('A' for Active; 'I' for Inactive)
ROOT
HETATM    1  C1  UNL     1     -32.256   8.360   2.030  1.00 20.00     0.014 C 
HETATM    2  C2  UNL     1     -32.640   7.495   2.770  1.00 20.00    -0.091 C 
HETATM    3  C3  UNL     1     -34.556   4.941   5.647  1.00 20.00     0.000 C 
HETATM    4  C4  UNL     1     -35.106   4.915   4.220  1.00 20.00     0.003 C 
HETATM    5  C5  UNL     1     -34.103   6.332   6.060  1.00 20.00     0.003 C 
HETATM    6  C6  UNL     1     -34.543   6.020   3.319  1.00 20.00     0.039 C 
HETATM    7  C7  UNL     1     -33.011   6.898   5.143  1.00 20.00     0.039 C 
HETATM    8  C8  UNL     1     -33.109   6.433   3.677  1.00 20.00     0.099 C 
HETATM    9 CL9  UNL     1     -31.999   5.040   3.398  1.00 20.00    -0.105 Cl
ENDROOT
TORSDOF 0
ENDMDL
MODEL 3
REMARK VINA RESULT:      -4.5      1.540      2.194
REMARK  0 active torsions:
REMARK  status: ('A' for Active; 'I' for Inactive)
ROOT
HETATM    1  C1  UNL     1     -34.617  16.518  -1.032  1.00 20.00     0.014 C 
HETATM    2  C2  UNL     1     -34.582  16.077  -2.148  1.00 20.00    -0.091 C 
HETATM    3  C3  UNL     1     -35.054  14.028  -5.897  1.00 20.00     0.000 C 
HETATM    4  C4  UNL     1     -35.889  15.292  -5.686  1.00 20.00     0.003 C 
HETATM    5  C5  UNL     1     -34.898  13.225  -4.615  1.00 20.00     0.003 C 
HETATM    6  C6  UNL     1     -35.857  15.824  -4.249  1.00 20.00     0.039 C 
HETATM    7  C7  UNL     1     -34.231  14.026  -3.489  1.00 20.00     0.039 C 
HETATM    8  C8  UNL     1     -34.538  15.537  -3.518  1.00 20.00     0.099 C 
HETATM    9 CL9  UNL     1     -33.197  16.421  -4.338  1.00 20.00    -0.105 Cl
ENDROOT
TORSDOF 0
ENDMDL
MODEL 4
REMARK VINA RESULT:      -4.4      1.670      2.264
REMARK  0 active torsions:
REMARK  status: ('A' for Active; 'I' for Inactive)
ROOT
HETATM    1  C1  UNL     1     -34.453  16.593  -1.107  1.00 20.00     0.014 C 
HETATM    2  C2  UNL     1     -34.311  16.112  -2.198  1.00 20.00    -0.091 C 
HETATM    3  C3  UNL     1     -34.530  14.691  -6.249  1.00 20.00     0.000 C 
HETATM    4  C4  UNL     1     -33.936  16.083  -6.032  1.00 20.00     0.003 C 
HETATM    5  C5  UNL     1     -35.671  14.399  -5.287  1.00 20.00     0.003 C 
HETATM    6  C6  UNL     1     -34.117  16.620  -4.608  1.00 20.00     0.039 C 
HETATM    7  C7  UNL     1     -35.245  14.487  -3.816  1.00 20.00     0.039 C 
HETATM    8  C8  UNL     1     -34.135  15.521  -3.536  1.00 20.00     0.099 C 
HETATM    9 CL9  UNL     1     -32.529  14.703  -3.491  1.00 20.00    -0.105 Cl
ENDROOT
TORSDOF 0
ENDMDL
MODEL 5
REMARK VINA RESULT:      -4.4     12.296     13.720
REMARK  0 active torsions:
REMARK  status: ('A' for Active; 'I' for Inactive)
ROOT
HETATM    1  C1  UNL     1     -41.574   2.068  -3.584  1.00 20.00     0.014 C 
HETATM    2  C2  UNL     1     -41.792   2.981  -2.835  1.00 20.00    -0.091 C 
HETATM    3  C3  UNL     1     -42.349   5.734   0.420  1.00 20.00     0.000 C 
HETATM    4  C4  UNL     1     -40.965   5.696  -0.229  1.00 20.00     0.003 C 
HETATM    5  C5  UNL     1     -42.990   4.356   0.481  1.00 20.00     0.003 C 
HETATM    6  C6  UNL     1     -40.769   4.530  -1.205  1.00 20.00     0.039 C 
HETATM    7  C7  UNL     1     -43.154   3.714  -0.902  1.00 20.00     0.039 C 
HETATM    8  C8  UNL     1     -42.060   4.102  -1.916  1.00 20.00     0.099 C 
HETATM    9 CL9  UNL     1     -42.640   5.450  -2.963  1.00 20.00    -0.105 Cl
ENDROOT
TORSDOF 0
ENDMDL
MODEL 6
REMARK VINA RESULT:      -4.3      1.671      2.062
REMARK  0 active torsions:
REMARK  status: ('A' for Active; 'I' for Inactive)
ROOT
HETATM    1  C1  UNL     1     -33.675  17.398  -1.154  1.00 20.00     0.014 C 
HETATM    2  C2  UNL     1     -33.928  16.695  -2.095  1.00 20.00    -0.091 C 
HETATM    3  C3  UNL     1     -34.810  13.586  -4.928  1.00 20.00     0.000 C 
HETATM    4  C4  UNL     1     -35.998  14.242  -4.224  1.00 20.00     0.003 C 
HETATM    5  C5  UNL     1     -33.606  13.447  -4.010  1.00 20.00     0.003 C 
HETATM    6  C6  UNL     1     -35.602  15.157  -3.060  1.00 20.00     0.039 C 
HETATM    7  C7  UNL     1     -33.120  14.794  -3.459  1.00 20.00     0.039 C 
HETATM    8  C8  UNL     1     -34.238  15.835  -3.250  1.00 20.00     0.099 C 
HETATM    9 CL9  UNL     1     -34.316  16.947  -4.667  1.00 20.00    -0.105 Cl
ENDROOT
TORSDOF 0
ENDMDL
MODEL 7
REMARK VINA RESULT:      -4.2     11.797     13.179
REMARK  0 active torsions:
REMARK  status: ('A' for Active; 'I' for Inactive)
ROOT
HETATM    1  C1  UNL     1     -41.508   2.186  -3.460  1.00 20.00     0.014 C 
HETATM    2  C2  UNL     1     -41.778   3.130  -2.769  1.00 20.00    -0.091 C 
HETATM    3  C3  UNL     1     -42.163   6.881  -0.705  1.00 20.00     0.000 C 
HETATM    4  C4  UNL     1     -43.007   6.692  -1.966  1.00 20.00     0.003 C 
HETATM    5  C5  UNL     1     -40.795   6.227  -0.828  1.00 20.00     0.003 C 
HETATM    6  C6  UNL     1     -42.637   5.446  -2.778  1.00 20.00     0.039 C 
HETATM    7  C7  UNL     1     -40.880   4.719  -1.096  1.00 20.00     0.039 C 
HETATM    8  C8  UNL     1     -42.109   4.288  -1.920  1.00 20.00     0.099 C 
HETATM    9 CL9  UNL     1     -43.417   3.716  -0.820  1.00 20.00    -0.105 Cl
ENDROOT
TORSDOF 0
ENDMDL
MODEL 8
REMARK VINA RESULT:      -4.2      1.718      3.707
REMARK  0 active torsions:
REMARK  status: ('A' for Active; 'I' for Inactive)
ROOT
HETATM    1  C1  UNL     1     -35.057  14.332  -6.632  1.00 20.00     0.014 C 
HETATM    2  C2  UNL     1     -34.664  14.766  -5.583  1.00 20.00    -0.091 C 
HETATM    3  C3  UNL     1     -33.768  16.922  -1.974  1.00 20.00     0.000 C 
HETATM    4  C4  UNL     1     -34.908  15.905  -1.911  1.00 20.00     0.003 C 
HETATM    5  C5  UNL     1     -33.717  17.642  -3.313  1.00 20.00     0.003 C 
HETATM    6  C6  UNL     1     -35.330  15.361  -3.280  1.00 20.00     0.039 C 
HETATM    7  C7  UNL     1     -33.536  16.683  -4.497  1.00 20.00     0.039 C 
HETATM    8  C8  UNL     1     -34.182  15.297  -4.296  1.00 20.00     0.099 C 
HETATM    9 CL9  UNL     1     -32.943  14.119  -3.726  1.00 20.00    -0.105 Cl
ENDROOT
TORSDOF 0
ENDMDL
MODEL 9
REMARK VINA RESULT:      -4.1      1.914      2.839
REMARK  0 active torsions:
REMARK  status: ('A' for Active; 'I' for Inactive)
ROOT
HETATM    1  C1  UNL     1     -38.531  14.759  -3.859  1.00 20.00     0.014 C 
HETATM    2  C2  UNL     1     -37.342  14.882  -3.976  1.00 20.00    -0.091 C 
HETATM    3  C3  UNL     1     -33.064  15.104  -3.623  1.00 20.00     0.000 C 
HETATM    4  C4  UNL     1     -33.657  13.759  -4.044  1.00 20.00     0.003 C 
HETATM    5  C5  UNL     1     -33.940  15.826  -2.612  1.00 20.00     0.003 C 
HETATM    6  C6  UNL     1     -35.182  13.685  -3.908  1.00 20.00     0.039 C 
HETATM    7  C7  UNL     1     -35.355  16.099  -3.139  1.00 20.00     0.039 C 
HETATM    8  C8  UNL     1     -35.883  15.034  -4.121  1.00 20.00     0.099 C 
HETATM    9 CL9  UNL     1     -35.625  15.581  -5.819  1.00 20.00    -0.105 Cl
ENDROOT
TORSDOF 0
ENDMDL
