MODEL 1
REMARK VINA RESULT:      -3.3      0.000      0.000
REMARK  2 active torsions:
REMARK  status: ('A' for Active; 'I' for Inactive)
REMARK    1  A    between atoms: C2_2  and  C3_3 
REMARK    2  A    between atoms: C2_2  and  N4_4 
ROOT
HETATM    1  C1  UNL     1     -32.776   6.854   3.325  1.00 20.00     0.157 C 
HETATM    2  N4  UNL     1     -33.285   6.109   4.078  1.00 20.00    -0.274 NA
HETATM    3  S5  UNL     1     -32.065   7.869   2.325  1.00 20.00    -0.055 SA
ENDROOT
BRANCH   2   4
HETATM    4  C2  UNL     1     -34.545   5.527   3.610  1.00 20.00     0.165 C 
BRANCH   4   5
HETATM    5  C3  UNL     1     -35.209   4.759   4.739  1.00 20.00     0.136 C 
HETATM    6 CL6  UNL     1     -34.680   5.360   6.329  1.00 20.00    -0.129 Cl
ENDBRANCH   4   5
ENDBRANCH   2   4
TORSDOF 2
ENDMDL
MODEL 2
REMARK VINA RESULT:      -3.2      1.406      1.406
REMARK  2 active torsions:
REMARK  status: ('A' for Active; 'I' for Inactive)
REMARK    1  A    between atoms: C2_2  and  C3_3 
REMARK    2  A    between atoms: C2_2  and  N4_4 
ROOT
HETATM    1  C1  UNL     1     -33.013   6.621   3.535  1.00 20.00     0.157 C 
HETATM    2  N4  UNL     1     -33.686   5.916   4.190  1.00 20.00    -0.274 NA
HETATM    3  S5  UNL     1     -32.104   7.559   2.623  1.00 20.00    -0.055 SA
ENDROOT
BRANCH   2   4
HETATM    4  C2  UNL     1     -33.879   6.360   5.573  1.00 20.00     0.165 C 
BRANCH   4   5
HETATM    5  C3  UNL     1     -34.727   5.350   6.326  1.00 20.00     0.136 C 
HETATM    6 CL6  UNL     1     -34.918   3.845   5.396  1.00 20.00    -0.129 Cl
ENDBRANCH   4   5
ENDBRANCH   2   4
TORSDOF 2
ENDMDL
MODEL 3
REMARK VINA RESULT:      -3.1      3.445      4.033
REMARK  2 active torsions:
REMARK  status: ('A' for Active; 'I' for Inactive)
REMARK    1  A    between atoms: C2_2  and  C3_3 
REMARK    2  A    between atoms: C2_2  and  N4_4 
ROOT
HETATM    1  C1  UNL     1     -34.341   5.653   4.756  1.00 20.00     0.157 C 
HETATM    2  N4  UNL     1     -34.005   6.479   3.992  1.00 20.00    -0.274 NA
HETATM    3  S5  UNL     1     -34.819   4.550   5.802  1.00 20.00    -0.055 SA
ENDROOT
BRANCH   2   4
HETATM    4  C2  UNL     1     -32.794   6.159   3.233  1.00 20.00     0.165 C 
BRANCH   4   5
HETATM    5  C3  UNL     1     -31.850   7.348   3.240  1.00 20.00     0.136 C 
HETATM    6 CL6  UNL     1     -32.064   8.352   1.785  1.00 20.00    -0.129 Cl
ENDBRANCH   4   5
ENDBRANCH   2   4
TORSDOF 2
ENDMDL
MODEL 4
REMARK VINA RESULT:      -2.8      2.955      3.186
REMARK  2 active torsions:
REMARK  status: ('A' for Active; 'I' for Inactive)
REMARK    1  A    between atoms: C2_2  and  C3_3 
REMARK    2  A    between atoms: C2_2  and  N4_4 
ROOT
HETATM    1  C1  UNL     1     -34.451   5.761   6.331  1.00 20.00     0.157 C 
HETATM    2  N4  UNL     1     -35.098   4.797   6.154  1.00 20.00    -0.274 NA
HETATM    3  S5  UNL     1     -33.583   7.070   6.599  1.00 20.00    -0.055 SA
ENDROOT
BRANCH   2   4
HETATM    4  C2  UNL     1     -35.026   4.248   4.797  1.00 20.00     0.165 C 
BRANCH   4   5
HETATM    5  C3  UNL     1     -35.195   5.363   3.780  1.00 20.00     0.136 C 
HETATM    6 CL6  UNL     1     -33.673   5.681   2.912  1.00 20.00    -0.129 Cl
ENDBRANCH   4   5
ENDBRANCH   2   4
TORSDOF 2
ENDMDL
MODEL 5
REMARK VINA RESULT:      -2.8      3.525      4.301
REMARK  2 active torsions:
REMARK  status: ('A' for Active; 'I' for Inactive)
REMARK    1  A    between atoms: C2_2  and  C3_3 
REMARK    2  A    between atoms: C2_2  and  N4_4 
ROOT
HETATM    1  C1  UNL     1     -33.301   6.066   3.803  1.00 20.00     0.157 C 
HETATM    2  N4  UNL     1     -32.569   6.317   2.919  1.00 20.00    -0.274 NA
HETATM    3  S5  UNL     1     -34.300   5.701   4.989  1.00 20.00    -0.055 SA
ENDROOT
BRANCH   2   4
HETATM    4  C2  UNL     1     -31.934   7.634   3.000  1.00 20.00     0.165 C 
BRANCH   4   5
HETATM    5  C3  UNL     1     -31.932   8.291   1.631  1.00 20.00     0.136 C 
HETATM    6 CL6  UNL     1     -32.607   9.937   1.703  1.00 20.00    -0.129 Cl
ENDBRANCH   4   5
ENDBRANCH   2   4
TORSDOF 2
ENDMDL
MODEL 6
REMARK VINA RESULT:      -2.8     11.701     12.046
REMARK  2 active torsions:
REMARK  status: ('A' for Active; 'I' for Inactive)
REMARK    1  A    between atoms: C2_2  and  C3_3 
REMARK    2  A    between atoms: C2_2  and  N4_4 
ROOT
HETATM    1  C1  UNL     1     -34.952  13.609  -5.556  1.00 20.00     0.157 C 
HETATM    2  N4  UNL     1     -34.722  12.965  -4.601  1.00 20.00    -0.274 NA
HETATM    3  S5  UNL     1     -35.276  14.460  -6.863  1.00 20.00    -0.055 SA
ENDROOT
BRANCH   2   4
HETATM    4  C2  UNL     1     -33.987  13.668  -3.546  1.00 20.00     0.165 C 
BRANCH   4   5
HETATM    5  C3  UNL     1     -34.763  14.896  -3.105  1.00 20.00     0.136 C 
HETATM    6 CL6  UNL     1     -33.671  16.178  -2.528  1.00 20.00    -0.129 Cl
ENDBRANCH   4   5
ENDBRANCH   2   4
TORSDOF 2
ENDMDL
MODEL 7
REMARK VINA RESULT:      -2.7     11.750     11.918
REMARK  2 active torsions:
REMARK  status: ('A' for Active; 'I' for Inactive)
REMARK    1  A    between atoms: C2_2  and  C3_3 
REMARK    2  A    between atoms: C2_2  and  N4_4 
ROOT
HETATM    1  C1  UNL     1     -33.741  14.410  -4.081  1.00 20.00     0.157 C 
HETATM    2  N4  UNL     1     -33.019  15.181  -3.565  1.00 20.00    -0.274 NA
HETATM    3  S5  UNL     1     -34.696  13.348  -4.786  1.00 20.00    -0.055 SA
ENDROOT
BRANCH   2   4
HETATM    4  C2  UNL     1     -33.677  16.374  -3.026  1.00 20.00     0.165 C 
BRANCH   4   5
HETATM    5  C3  UNL     1     -34.787  15.967  -2.074  1.00 20.00     0.136 C 
HETATM    6 CL6  UNL     1     -34.601  16.756  -0.489  1.00 20.00    -0.129 Cl
ENDBRANCH   4   5
ENDBRANCH   2   4
TORSDOF 2
ENDMDL
MODEL 8
REMARK VINA RESULT:      -2.6     11.893     12.022
REMARK  2 active torsions:
REMARK  status: ('A' for Active; 'I' for Inactive)
REMARK    1  A    between atoms: C2_2  and  C3_3 
REMARK    2  A    between atoms: C2_2  and  N4_4 
ROOT
HETATM    1  C1  UNL     1     -33.894  15.769  -2.797  1.00 20.00     0.157 C 
HETATM    2  N4  UNL     1     -33.338  15.273  -3.705  1.00 20.00    -0.274 NA
HETATM    3  S5  UNL     1     -34.638  16.469  -1.575  1.00 20.00    -0.055 SA
ENDROOT
BRANCH   2   4
HETATM    4  C2  UNL     1     -33.477  13.817  -3.791  1.00 20.00     0.165 C 
BRANCH   4   5
HETATM    5  C3  UNL     1     -34.862  13.460  -4.302  1.00 20.00     0.136 C 
HETATM    6 CL6  UNL     1     -35.093  14.009  -5.979  1.00 20.00    -0.129 Cl
ENDBRANCH   4   5
ENDBRANCH   2   4
TORSDOF 2
ENDMDL
MODEL 9
REMARK VINA RESULT:      -2.6     11.648     12.022
REMARK  2 active torsions:
REMARK  status: ('A' for Active; 'I' for Inactive)
REMARK    1  A    between atoms: C2_2  and  C3_3 
REMARK    2  A    between atoms: C2_2  and  N4_4 
ROOT
HETATM    1  C1  UNL     1     -35.882  13.971  -4.260  1.00 20.00     0.157 C 
HETATM    2  N4  UNL     1     -34.903  13.367  -4.495  1.00 20.00    -0.274 NA
HETATM    3  S5  UNL     1     -37.224  14.776  -3.961  1.00 20.00    -0.055 SA
ENDROOT
BRANCH   2   4
HETATM    4  C2  UNL     1     -33.727  13.773  -3.720  1.00 20.00     0.165 C 
BRANCH   4   5
HETATM    5  C3  UNL     1     -33.439  15.245  -3.952  1.00 20.00     0.136 C 
HETATM    6 CL6  UNL     1     -33.684  16.193  -2.465  1.00 20.00    -0.129 Cl
ENDBRANCH   4   5
ENDBRANCH   2   4
TORSDOF 2
ENDMDL
