MODEL 1
REMARK VINA RESULT:      -4.6      0.000      0.000
REMARK  2 active torsions:
REMARK  status: ('A' for Active; 'I' for Inactive)
REMARK    1  A    between atoms: C3_3  and  C7_7 
REMARK    2  A    between atoms: C7_7  and  C8_8 
ROOT
HETATM    1  C1  UNL     1     -33.955  13.715  -4.071  1.00 20.00     0.263 C 
HETATM    2  C2  UNL     1     -35.287  15.488  -4.823  1.00 20.00     0.046 C 
HETATM    3  C3  UNL     1     -34.754  14.879  -3.540  1.00 20.00     0.088 C 
HETATM    4  C4  UNL     1     -35.474  14.265  -5.694  1.00 20.00     0.128 C 
HETATM    5  C5  UNL     1     -35.418  14.572  -7.178  1.00 20.00     0.040 C 
HETATM    6  O9  UNL     1     -33.078  13.111  -3.473  1.00 20.00    -0.265 OA
HETATM    7  O10 UNL     1     -34.384  13.404  -5.334  1.00 20.00    -0.316 OA
ENDROOT
BRANCH   3   8
HETATM    8  C7  UNL     1     -33.914  15.851  -2.734  1.00 20.00     0.014 C 
BRANCH   8   9
HETATM    9  C8  UNL     1     -34.644  16.315  -1.474  1.00 20.00    -0.004 C 
HETATM   10  C6  UNL     1     -33.900  17.444  -0.779  1.00 20.00     0.005 C 
ENDBRANCH   8   9
ENDBRANCH   3   8
TORSDOF 2
ENDMDL
MODEL 2
REMARK VINA RESULT:      -4.5     11.463     12.622
REMARK  2 active torsions:
REMARK  status: ('A' for Active; 'I' for Inactive)
REMARK    1  A    between atoms: C3_3  and  C7_7 
REMARK    2  A    between atoms: C7_7  and  C8_8 
ROOT
HETATM    1  C1  UNL     1     -33.655   6.727   6.050  1.00 20.00     0.263 C 
HETATM    2  C2  UNL     1     -34.095   5.531   4.085  1.00 20.00     0.046 C 
HETATM    3  C3  UNL     1     -33.633   6.898   4.552  1.00 20.00     0.088 C 
HETATM    4  C4  UNL     1     -35.056   5.135   5.186  1.00 20.00     0.128 C 
HETATM    5  C5  UNL     1     -35.217   3.633   5.329  1.00 20.00     0.040 C 
HETATM    6  O9  UNL     1     -33.066   7.423   6.863  1.00 20.00    -0.265 OA
HETATM    7  O10 UNL     1     -34.470   5.676   6.379  1.00 20.00    -0.316 OA
ENDROOT
BRANCH   3   8
HETATM    8  C7  UNL     1     -32.262   7.267   4.020  1.00 20.00     0.014 C 
BRANCH   8   9
HETATM    9  C8  UNL     1     -32.200   7.155   2.496  1.00 20.00    -0.004 C 
HETATM   10  C6  UNL     1     -32.104   8.522   1.838  1.00 20.00     0.005 C 
ENDBRANCH   8   9
ENDBRANCH   3   8
TORSDOF 2
ENDMDL
MODEL 3
REMARK VINA RESULT:      -4.4      1.817      2.359
REMARK  2 active torsions:
REMARK  status: ('A' for Active; 'I' for Inactive)
REMARK    1  A    between atoms: C3_3  and  C7_7 
REMARK    2  A    between atoms: C7_7  and  C8_8 
ROOT
HETATM    1  C1  UNL     1     -33.489  16.414  -4.626  1.00 20.00     0.263 C 
HETATM    2  C2  UNL     1     -34.143  14.716  -3.152  1.00 20.00     0.046 C 
HETATM    3  C3  UNL     1     -33.310  15.983  -3.192  1.00 20.00     0.088 C 
HETATM    4  C4  UNL     1     -33.950  14.173  -4.551  1.00 20.00     0.128 C 
HETATM    5  C5  UNL     1     -35.088  13.279  -5.009  1.00 20.00     0.040 C 
HETATM    6  O9  UNL     1     -33.289  17.534  -5.071  1.00 20.00    -0.265 OA
HETATM    7  O10 UNL     1     -33.887  15.342  -5.381  1.00 20.00    -0.316 OA
ENDROOT
BRANCH   3   8
HETATM    8  C7  UNL     1     -33.782  17.027  -2.199  1.00 20.00     0.014 C 
BRANCH   8   9
HETATM    9  C8  UNL     1     -34.768  16.438  -1.189  1.00 20.00    -0.004 C 
HETATM   10  C6  UNL     1     -34.823  17.265   0.086  1.00 20.00     0.005 C 
ENDBRANCH   8   9
ENDBRANCH   3   8
TORSDOF 2
ENDMDL
MODEL 4
REMARK VINA RESULT:      -4.4      1.901      4.311
REMARK  2 active torsions:
REMARK  status: ('A' for Active; 'I' for Inactive)
REMARK    1  A    between atoms: C3_3  and  C7_7 
REMARK    2  A    between atoms: C7_7  and  C8_8 
ROOT
HETATM    1  C1  UNL     1     -36.132  14.580  -3.535  1.00 20.00     0.263 C 
HETATM    2  C2  UNL     1     -33.827  14.995  -3.554  1.00 20.00     0.046 C 
HETATM    3  C3  UNL     1     -34.827  13.896  -3.857  1.00 20.00     0.088 C 
HETATM    4  C4  UNL     1     -34.497  15.717  -2.405  1.00 20.00     0.128 C 
HETATM    5  C5  UNL     1     -34.069  17.166  -2.277  1.00 20.00     0.040 C 
HETATM    6  O9  UNL     1     -37.240  14.235  -3.917  1.00 20.00    -0.265 OA
HETATM    7  O10 UNL     1     -35.898  15.649  -2.711  1.00 20.00    -0.316 OA
ENDROOT
BRANCH   3   8
HETATM    8  C7  UNL     1     -34.753  13.414  -5.293  1.00 20.00     0.014 C 
BRANCH   8   9
HETATM    9  C8  UNL     1     -34.573  14.578  -6.268  1.00 20.00    -0.004 C 
HETATM   10  C6  UNL     1     -35.487  14.443  -7.476  1.00 20.00     0.005 C 
ENDBRANCH   8   9
ENDBRANCH   3   8
TORSDOF 2
ENDMDL
MODEL 5
REMARK VINA RESULT:      -4.3      2.005      4.466
REMARK  2 active torsions:
REMARK  status: ('A' for Active; 'I' for Inactive)
REMARK    1  A    between atoms: C3_3  and  C7_7 
REMARK    2  A    between atoms: C7_7  and  C8_8 
ROOT
HETATM    1  C1  UNL     1     -33.554  16.603  -3.840  1.00 20.00     0.263 C 
HETATM    2  C2  UNL     1     -34.662  15.924  -1.892  1.00 20.00     0.046 C 
HETATM    3  C3  UNL     1     -34.534  15.563  -3.360  1.00 20.00     0.088 C 
HETATM    4  C4  UNL     1     -34.503  17.429  -1.927  1.00 20.00     0.128 C 
HETATM    5  C5  UNL     1     -33.993  18.007  -0.620  1.00 20.00     0.040 C 
HETATM    6  O9  UNL     1     -32.883  16.545  -4.859  1.00 20.00    -0.265 OA
HETATM    7  O10 UNL     1     -33.543  17.660  -2.968  1.00 20.00    -0.316 OA
ENDROOT
BRANCH   3   8
HETATM    8  C7  UNL     1     -34.042  14.145  -3.575  1.00 20.00     0.014 C 
BRANCH   8   9
HETATM    9  C8  UNL     1     -34.999  13.345  -4.458  1.00 20.00    -0.004 C 
HETATM   10  C6  UNL     1     -35.091  13.931  -5.858  1.00 20.00     0.005 C 
ENDBRANCH   8   9
ENDBRANCH   3   8
TORSDOF 2
ENDMDL
MODEL 6
REMARK VINA RESULT:      -4.2      1.265      4.040
REMARK  2 active torsions:
REMARK  status: ('A' for Active; 'I' for Inactive)
REMARK    1  A    between atoms: C3_3  and  C7_7 
REMARK    2  A    between atoms: C7_7  and  C8_8 
ROOT
HETATM    1  C1  UNL     1     -34.523  13.622  -4.530  1.00 20.00     0.263 C 
HETATM    2  C2  UNL     1     -34.447  15.963  -4.532  1.00 20.00     0.046 C 
HETATM    3  C3  UNL     1     -34.240  14.779  -5.456  1.00 20.00     0.088 C 
HETATM    4  C4  UNL     1     -33.977  15.409  -3.205  1.00 20.00     0.128 C 
HETATM    5  C5  UNL     1     -34.597  16.107  -2.010  1.00 20.00     0.040 C 
HETATM    6  O9  UNL     1     -34.804  12.483  -4.867  1.00 20.00    -0.265 OA
HETATM    7  O10 UNL     1     -34.386  14.033  -3.230  1.00 20.00    -0.316 OA
ENDROOT
BRANCH   3   8
HETATM    8  C7  UNL     1     -35.160  14.807  -6.662  1.00 20.00     0.014 C 
BRANCH   8   9
HETATM    9  C8  UNL     1     -36.505  15.454  -6.328  1.00 20.00    -0.004 C 
HETATM   10  C6  UNL     1     -37.549  15.153  -7.391  1.00 20.00     0.005 C 
ENDBRANCH   8   9
ENDBRANCH   3   8
TORSDOF 2
ENDMDL
MODEL 7
REMARK VINA RESULT:      -4.1     10.992     12.210
REMARK  2 active torsions:
REMARK  status: ('A' for Active; 'I' for Inactive)
REMARK    1  A    between atoms: C3_3  and  C7_7 
REMARK    2  A    between atoms: C7_7  and  C8_8 
ROOT
HETATM    1  C1  UNL     1     -34.295   5.312   3.239  1.00 20.00     0.263 C 
HETATM    2  C2  UNL     1     -33.672   6.282   5.278  1.00 20.00     0.046 C 
HETATM    3  C3  UNL     1     -33.231   6.203   3.829  1.00 20.00     0.088 C 
HETATM    4  C4  UNL     1     -34.277   4.911   5.493  1.00 20.00     0.128 C 
HETATM    5  C5  UNL     1     -35.311   4.881   6.602  1.00 20.00     0.040 C 
HETATM    6  O9  UNL     1     -34.573   5.209   2.054  1.00 20.00    -0.265 OA
HETATM    7  O10 UNL     1     -34.900   4.597   4.239  1.00 20.00    -0.316 OA
ENDROOT
BRANCH   3   8
HETATM    8  C7  UNL     1     -33.165   7.563   3.161  1.00 20.00     0.014 C 
BRANCH   8   9
HETATM    9  C8  UNL     1     -31.874   7.734   2.358  1.00 20.00    -0.004 C 
HETATM   10  C6  UNL     1     -32.029   8.779   1.266  1.00 20.00     0.005 C 
ENDBRANCH   8   9
ENDBRANCH   3   8
TORSDOF 2
ENDMDL
MODEL 8
REMARK VINA RESULT:      -4.1     11.278     12.391
REMARK  2 active torsions:
REMARK  status: ('A' for Active; 'I' for Inactive)
REMARK    1  A    between atoms: C3_3  and  C7_7 
REMARK    2  A    between atoms: C7_7  and  C8_8 
ROOT
HETATM    1  C1  UNL     1     -33.120   6.740   4.899  1.00 20.00     0.263 C 
HETATM    2  C2  UNL     1     -33.325   6.217   2.625  1.00 20.00     0.046 C 
HETATM    3  C3  UNL     1     -33.586   5.625   3.997  1.00 20.00     0.088 C 
HETATM    4  C4  UNL     1     -32.091   7.055   2.877  1.00 20.00     0.128 C 
HETATM    5  C5  UNL     1     -31.938   8.206   1.901  1.00 20.00     0.040 C 
HETATM    6  O9  UNL     1     -33.417   6.888   6.074  1.00 20.00    -0.265 OA
HETATM    7  O10 UNL     1     -32.274   7.566   4.206  1.00 20.00    -0.316 OA
ENDROOT
BRANCH   3   8
HETATM    8  C7  UNL     1     -35.042   5.262   4.212  1.00 20.00     0.014 C 
BRANCH   8   9
HETATM    9  C8  UNL     1     -35.188   3.981   5.034  1.00 20.00    -0.004 C 
HETATM   10  C6  UNL     1     -35.216   4.273   6.526  1.00 20.00     0.005 C 
ENDBRANCH   8   9
ENDBRANCH   3   8
TORSDOF 2
ENDMDL
MODEL 9
REMARK VINA RESULT:      -4.1      1.886      2.460
REMARK  2 active torsions:
REMARK  status: ('A' for Active; 'I' for Inactive)
REMARK    1  A    between atoms: C3_3  and  C7_7 
REMARK    2  A    between atoms: C7_7  and  C8_8 
ROOT
HETATM    1  C1  UNL     1     -34.893  13.818  -3.820  1.00 20.00     0.263 C 
HETATM    2  C2  UNL     1     -36.064  15.785  -3.328  1.00 20.00     0.046 C 
HETATM    3  C3  UNL     1     -34.826  15.017  -2.908  1.00 20.00     0.088 C 
HETATM    4  C4  UNL     1     -37.016  14.667  -3.692  1.00 20.00     0.128 C 
HETATM    5  C5  UNL     1     -38.082  15.087  -4.687  1.00 20.00     0.040 C 
HETATM    6  O9  UNL     1     -33.966  13.073  -4.099  1.00 20.00    -0.265 OA
HETATM    7  O10 UNL     1     -36.175  13.662  -4.278  1.00 20.00    -0.316 OA
ENDROOT
BRANCH   3   8
HETATM    8  C7  UNL     1     -33.551  15.819  -3.081  1.00 20.00     0.014 C 
BRANCH   8   9
HETATM    9  C8  UNL     1     -33.758  17.012  -4.015  1.00 20.00    -0.004 C 
HETATM   10  C6  UNL     1     -33.289  16.704  -5.428  1.00 20.00     0.005 C 
ENDBRANCH   8   9
ENDBRANCH   3   8
TORSDOF 2
ENDMDL
