MODEL 1
REMARK VINA RESULT:      -5.6      0.000      0.000
REMARK  3 active torsions:
REMARK  status: ('A' for Active; 'I' for Inactive)
REMARK    1  A    between atoms: C2_2  and  C3_3 
REMARK    2  A    between atoms: C2_2  and  C4_4 
REMARK    3  A    between atoms: C3_3  and  O5_5 
ROOT
HETATM    1  C2  UNL     1     -34.603   5.029   4.659  1.00 20.00     0.379 C 
HETATM    2  F6  UNL     1     -35.863   5.191   4.165  1.00 20.00    -0.231 F 
ENDROOT
BRANCH   1   3
HETATM    3  C3  UNL     1     -33.804   6.270   4.314  1.00 20.00     0.393 C 
HETATM    4  F7  UNL     1     -33.190   6.732   5.432  1.00 20.00    -0.172 F 
HETATM    5  F8  UNL     1     -34.626   7.247   3.862  1.00 20.00    -0.172 F 
BRANCH   3   6
HETATM    6  O5  UNL     1     -32.816   5.991   3.330  1.00 20.00    -0.329 OA
HETATM    7  C1  UNL     1     -32.161   7.163   2.866  1.00 20.00     0.208 C 
ENDBRANCH   3   6
ENDBRANCH   1   3
BRANCH   1   8
HETATM    8  C4  UNL     1     -34.720   4.765   6.143  1.00 20.00     0.426 C 
HETATM    9  F9  UNL     1     -35.711   3.880   6.389  1.00 20.00    -0.168 F 
HETATM   10  F10 UNL     1     -35.006   5.893   6.826  1.00 20.00    -0.168 F 
HETATM   11  F11 UNL     1     -33.577   4.253   6.645  1.00 20.00    -0.168 F 
ENDBRANCH   1   8
TORSDOF 3
ENDMDL
MODEL 2
REMARK VINA RESULT:      -5.5      1.206      1.869
REMARK  3 active torsions:
REMARK  status: ('A' for Active; 'I' for Inactive)
REMARK    1  A    between atoms: C2_2  and  C3_3 
REMARK    2  A    between atoms: C2_2  and  C4_4 
REMARK    3  A    between atoms: C3_3  and  O5_5 
ROOT
HETATM    1  C2  UNL     1     -34.302   4.566   4.771  1.00 20.00     0.379 C 
HETATM    2  F6  UNL     1     -35.131   3.498   4.594  1.00 20.00    -0.231 F 
ENDROOT
BRANCH   1   3
HETATM    3  C3  UNL     1     -34.585   5.563   3.664  1.00 20.00     0.393 C 
HETATM    4  F7  UNL     1     -35.893   5.921   3.709  1.00 20.00    -0.172 F 
HETATM    5  F8  UNL     1     -34.356   4.998   2.454  1.00 20.00    -0.172 F 
BRANCH   3   6
HETATM    6  O5  UNL     1     -33.784   6.729   3.801  1.00 20.00    -0.329 OA
HETATM    7  C1  UNL     1     -32.460   6.543   3.320  1.00 20.00     0.208 C 
ENDBRANCH   3   6
ENDBRANCH   1   3
BRANCH   1   8
HETATM    8  C4  UNL     1     -34.537   5.108   6.162  1.00 20.00     0.426 C 
HETATM    9  F9  UNL     1     -33.672   4.550   7.038  1.00 20.00    -0.168 F 
HETATM   10  F10 UNL     1     -35.785   4.835   6.597  1.00 20.00    -0.168 F 
HETATM   11  F11 UNL     1     -34.363   6.445   6.207  1.00 20.00    -0.168 F 
ENDBRANCH   1   8
TORSDOF 3
ENDMDL
MODEL 3
REMARK VINA RESULT:      -5.5      1.205      1.604
REMARK  3 active torsions:
REMARK  status: ('A' for Active; 'I' for Inactive)
REMARK    1  A    between atoms: C2_2  and  C3_3 
REMARK    2  A    between atoms: C2_2  and  C4_4 
REMARK    3  A    between atoms: C3_3  and  O5_5 
ROOT
HETATM    1  C2  UNL     1     -34.301   4.561   4.765  1.00 20.00     0.379 C 
HETATM    2  F6  UNL     1     -35.137   3.499   4.592  1.00 20.00    -0.231 F 
ENDROOT
BRANCH   1   3
HETATM    3  C3  UNL     1     -34.585   5.562   3.662  1.00 20.00     0.393 C 
HETATM    4  F7  UNL     1     -35.893   5.920   3.710  1.00 20.00    -0.172 F 
HETATM    5  F8  UNL     1     -34.357   5.001   2.450  1.00 20.00    -0.172 F 
BRANCH   3   6
HETATM    6  O5  UNL     1     -33.784   6.727   3.802  1.00 20.00    -0.329 OA
HETATM    7  C1  UNL     1     -32.461   6.543   3.321  1.00 20.00     0.208 C 
ENDBRANCH   3   6
ENDBRANCH   1   3
BRANCH   1   8
HETATM    8  C4  UNL     1     -34.524   5.102   6.159  1.00 20.00     0.426 C 
HETATM    9  F9  UNL     1     -35.780   4.827   6.576  1.00 20.00    -0.168 F 
HETATM   10  F10 UNL     1     -34.367   6.441   6.203  1.00 20.00    -0.168 F 
HETATM   11  F11 UNL     1     -33.667   4.552   7.045  1.00 20.00    -0.168 F 
ENDBRANCH   1   8
TORSDOF 3
ENDMDL
MODEL 4
REMARK VINA RESULT:      -5.4      0.951      1.779
REMARK  3 active torsions:
REMARK  status: ('A' for Active; 'I' for Inactive)
REMARK    1  A    between atoms: C2_2  and  C3_3 
REMARK    2  A    between atoms: C2_2  and  C4_4 
REMARK    3  A    between atoms: C3_3  and  O5_5 
ROOT
HETATM    1  C2  UNL     1     -34.781   5.749   5.386  1.00 20.00     0.379 C 
HETATM    2  F6  UNL     1     -33.958   6.377   6.272  1.00 20.00    -0.231 F 
ENDROOT
BRANCH   1   3
HETATM    3  C3  UNL     1     -34.270   6.040   3.989  1.00 20.00     0.393 C 
HETATM    4  F7  UNL     1     -34.438   7.359   3.717  1.00 20.00    -0.172 F 
HETATM    5  F8  UNL     1     -34.982   5.338   3.074  1.00 20.00    -0.172 F 
BRANCH   3   6
HETATM    6  O5  UNL     1     -32.892   5.717   3.864  1.00 20.00    -0.329 OA
HETATM    7  C1  UNL     1     -32.125   6.786   3.328  1.00 20.00     0.208 C 
ENDBRANCH   3   6
ENDBRANCH   1   3
BRANCH   1   8
HETATM    8  C4  UNL     1     -34.804   4.279   5.739  1.00 20.00     0.426 C 
HETATM    9  F9  UNL     1     -35.713   4.041   6.711  1.00 20.00    -0.168 F 
HETATM   10  F10 UNL     1     -33.606   3.859   6.195  1.00 20.00    -0.168 F 
HETATM   11  F11 UNL     1     -35.134   3.520   4.673  1.00 20.00    -0.168 F 
ENDBRANCH   1   8
TORSDOF 3
ENDMDL
MODEL 5
REMARK VINA RESULT:      -5.3      1.995      3.722
REMARK  3 active torsions:
REMARK  status: ('A' for Active; 'I' for Inactive)
REMARK    1  A    between atoms: C2_2  and  C3_3 
REMARK    2  A    between atoms: C2_2  and  C4_4 
REMARK    3  A    between atoms: C3_3  and  O5_5 
ROOT
HETATM    1  C2  UNL     1     -33.597   5.963   4.460  1.00 20.00     0.379 C 
HETATM    2  F6  UNL     1     -34.109   6.939   5.261  1.00 20.00    -0.231 F 
ENDROOT
BRANCH   1   3
HETATM    3  C3  UNL     1     -34.754   5.293   3.744  1.00 20.00     0.393 C 
HETATM    4  F7  UNL     1     -34.367   4.953   2.489  1.00 20.00    -0.172 F 
HETATM    5  F8  UNL     1     -35.797   6.151   3.634  1.00 20.00    -0.172 F 
BRANCH   3   6
HETATM    6  O5  UNL     1     -35.177   4.121   4.428  1.00 20.00    -0.329 OA
HETATM    7  C1  UNL     1     -34.838   4.140   5.807  1.00 20.00     0.208 C 
ENDBRANCH   3   6
ENDBRANCH   1   3
BRANCH   1   8
HETATM    8  C4  UNL     1     -32.590   6.606   3.534  1.00 20.00     0.426 C 
HETATM    9  F9  UNL     1     -31.704   7.343   4.239  1.00 20.00    -0.168 F 
HETATM   10  F10 UNL     1     -33.186   7.429   2.647  1.00 20.00    -0.168 F 
HETATM   11  F11 UNL     1     -31.895   5.679   2.841  1.00 20.00    -0.168 F 
ENDBRANCH   1   8
TORSDOF 3
ENDMDL
MODEL 6
REMARK VINA RESULT:      -5.3      1.281      2.282
REMARK  3 active torsions:
REMARK  status: ('A' for Active; 'I' for Inactive)
REMARK    1  A    between atoms: C2_2  and  C3_3 
REMARK    2  A    between atoms: C2_2  and  C4_4 
REMARK    3  A    between atoms: C3_3  and  O5_5 
ROOT
HETATM    1  C2  UNL     1     -34.050   6.379   4.783  1.00 20.00     0.379 C 
HETATM    2  F6  UNL     1     -33.115   6.762   5.697  1.00 20.00    -0.231 F 
ENDROOT
BRANCH   1   3
HETATM    3  C3  UNL     1     -33.342   6.147   3.462  1.00 20.00     0.393 C 
HETATM    4  F7  UNL     1     -34.048   5.250   2.728  1.00 20.00    -0.172 F 
HETATM    5  F8  UNL     1     -32.110   5.625   3.676  1.00 20.00    -0.172 F 
BRANCH   3   6
HETATM    6  O5  UNL     1     -33.222   7.354   2.720  1.00 20.00    -0.329 OA
HETATM    7  C1  UNL     1     -31.872   7.765   2.558  1.00 20.00     0.208 C 
ENDBRANCH   3   6
ENDBRANCH   1   3
BRANCH   1   8
HETATM    8  C4  UNL     1     -34.754   5.157   5.327  1.00 20.00     0.426 C 
HETATM    9  F9  UNL     1     -35.178   5.379   6.591  1.00 20.00    -0.168 F 
HETATM   10  F10 UNL     1     -33.935   4.085   5.357  1.00 20.00    -0.168 F 
HETATM   11  F11 UNL     1     -35.833   4.836   4.582  1.00 20.00    -0.168 F 
ENDBRANCH   1   8
TORSDOF 3
ENDMDL
MODEL 7
REMARK VINA RESULT:      -5.2      1.730      2.754
REMARK  3 active torsions:
REMARK  status: ('A' for Active; 'I' for Inactive)
REMARK    1  A    between atoms: C2_2  and  C3_3 
REMARK    2  A    between atoms: C2_2  and  C4_4 
REMARK    3  A    between atoms: C3_3  and  O5_5 
ROOT
HETATM    1  C2  UNL     1     -33.825   6.604   4.078  1.00 20.00     0.379 C 
HETATM    2  F6  UNL     1     -33.632   6.437   5.416  1.00 20.00    -0.231 F 
ENDROOT
BRANCH   1   3
HETATM    3  C3  UNL     1     -32.463   6.726   3.423  1.00 20.00     0.393 C 
HETATM    4  F7  UNL     1     -31.883   5.501   3.366  1.00 20.00    -0.172 F 
HETATM    5  F8  UNL     1     -31.658   7.528   4.161  1.00 20.00    -0.172 F 
BRANCH   3   6
HETATM    6  O5  UNL     1     -32.568   7.247   2.104  1.00 20.00    -0.329 OA
HETATM    7  C1  UNL     1     -32.056   8.568   1.995  1.00 20.00     0.208 C 
ENDBRANCH   3   6
ENDBRANCH   1   3
BRANCH   1   8
HETATM    8  C4  UNL     1     -34.645   5.436   3.579  1.00 20.00     0.426 C 
HETATM    9  F9  UNL     1     -35.945   5.787   3.463  1.00 20.00    -0.168 F 
HETATM   10  F10 UNL     1     -34.583   4.389   4.428  1.00 20.00    -0.168 F 
HETATM   11  F11 UNL     1     -34.222   5.017   2.368  1.00 20.00    -0.168 F 
ENDBRANCH   1   8
TORSDOF 3
ENDMDL
MODEL 8
REMARK VINA RESULT:      -4.9      1.951      3.813
REMARK  3 active torsions:
REMARK  status: ('A' for Active; 'I' for Inactive)
REMARK    1  A    between atoms: C2_2  and  C3_3 
REMARK    2  A    between atoms: C2_2  and  C4_4 
REMARK    3  A    between atoms: C3_3  and  O5_5 
ROOT
HETATM    1  C2  UNL     1     -33.963   6.416   3.607  1.00 20.00     0.379 C 
HETATM    2  F6  UNL     1     -34.444   5.475   2.747  1.00 20.00    -0.231 F 
ENDROOT
BRANCH   1   3
HETATM    3  C3  UNL     1     -34.112   5.878   5.016  1.00 20.00     0.393 C 
HETATM    4  F7  UNL     1     -34.084   6.912   5.895  1.00 20.00    -0.172 F 
HETATM    5  F8  UNL     1     -33.078   5.056   5.316  1.00 20.00    -0.172 F 
BRANCH   3   6
HETATM    6  O5  UNL     1     -35.337   5.174   5.174  1.00 20.00    -0.329 OA
HETATM    7  C1  UNL     1     -35.160   3.895   5.767  1.00 20.00     0.208 C 
ENDBRANCH   3   6
ENDBRANCH   1   3
BRANCH   1   8
HETATM    8  C4  UNL     1     -32.535   6.717   3.211  1.00 20.00     0.426 C 
HETATM    9  F9  UNL     1     -32.506   7.572   2.164  1.00 20.00    -0.168 F 
HETATM   10  F10 UNL     1     -31.878   5.600   2.838  1.00 20.00    -0.168 F 
HETATM   11  F11 UNL     1     -31.851   7.285   4.226  1.00 20.00    -0.168 F 
ENDBRANCH   1   8
TORSDOF 3
ENDMDL
MODEL 9
REMARK VINA RESULT:      -4.7      1.663      3.237
REMARK  3 active torsions:
REMARK  status: ('A' for Active; 'I' for Inactive)
REMARK    1  A    between atoms: C2_2  and  C3_3 
REMARK    2  A    between atoms: C2_2  and  C4_4 
REMARK    3  A    between atoms: C3_3  and  O5_5 
ROOT
HETATM    1  C2  UNL     1     -35.022   5.078   4.719  1.00 20.00     0.379 C 
HETATM    2  F6  UNL     1     -35.072   3.738   4.475  1.00 20.00    -0.231 F 
ENDROOT
BRANCH   1   3
HETATM    3  C3  UNL     1     -34.424   5.278   6.098  1.00 20.00     0.393 C 
HETATM    4  F7  UNL     1     -33.841   4.123   6.504  1.00 20.00    -0.172 F 
HETATM    5  F8  UNL     1     -35.396   5.584   6.990  1.00 20.00    -0.172 F 
BRANCH   3   6
HETATM    6  O5  UNL     1     -33.446   6.310   6.092  1.00 20.00    -0.329 OA
HETATM    7  C1  UNL     1     -33.776   7.382   6.963  1.00 20.00     0.208 C 
ENDBRANCH   3   6
ENDBRANCH   1   3
BRANCH   1   8
HETATM    8  C4  UNL     1     -34.228   5.721   3.604  1.00 20.00     0.426 C 
HETATM    9  F9  UNL     1     -34.604   5.219   2.407  1.00 20.00    -0.168 F 
HETATM   10  F10 UNL     1     -32.906   5.493   3.742  1.00 20.00    -0.168 F 
HETATM   11  F11 UNL     1     -34.420   7.057   3.569  1.00 20.00    -0.168 F 
ENDBRANCH   1   8
TORSDOF 3
ENDMDL
