MODEL 1
REMARK VINA RESULT:      -3.9      0.000      0.000
REMARK  1 active torsions:
REMARK  status: ('A' for Active; 'I' for Inactive)
REMARK    1  A    between atoms: C2_2  and  C7_7 
ROOT
HETATM    1  C1  UNL     1     -32.685   6.623   3.594  1.00 20.00    -0.110 C 
HETATM    2  C2  UNL     1     -33.513   6.002   4.204  1.00 20.00    -0.098 C 
HETATM    3  C3  UNL     1     -31.679   7.380   2.852  1.00 20.00     0.112 C 
ENDROOT
BRANCH   2   4
HETATM    4  C7  UNL     1     -34.533   5.236   4.956  1.00 20.00     0.013 C 
HETATM    5  C4  UNL     1     -35.883   5.339   4.233  1.00 20.00     0.028 C 
HETATM    6  C5  UNL     1     -34.664   5.815   6.372  1.00 20.00     0.028 C 
HETATM    7  C6  UNL     1     -34.107   3.764   5.040  1.00 20.00     0.028 C 
ENDBRANCH   2   4
TORSDOF 1
ENDMDL
MODEL 2
REMARK VINA RESULT:      -3.9      0.002      1.642
REMARK  1 active torsions:
REMARK  status: ('A' for Active; 'I' for Inactive)
REMARK    1  A    between atoms: C2_2  and  C7_7 
ROOT
HETATM    1  C1  UNL     1     -32.685   6.623   3.593  1.00 20.00    -0.110 C 
HETATM    2  C2  UNL     1     -33.513   6.002   4.204  1.00 20.00    -0.098 C 
HETATM    3  C3  UNL     1     -31.679   7.378   2.849  1.00 20.00     0.112 C 
ENDROOT
BRANCH   2   4
HETATM    4  C7  UNL     1     -34.533   5.237   4.956  1.00 20.00     0.013 C 
HETATM    5  C4  UNL     1     -34.106   3.765   5.041  1.00 20.00     0.028 C 
HETATM    6  C5  UNL     1     -35.883   5.340   4.232  1.00 20.00     0.028 C 
HETATM    7  C6  UNL     1     -34.663   5.816   6.371  1.00 20.00     0.028 C 
ENDBRANCH   2   4
TORSDOF 1
ENDMDL
MODEL 3
REMARK VINA RESULT:      -3.9      0.002      1.642
REMARK  1 active torsions:
REMARK  status: ('A' for Active; 'I' for Inactive)
REMARK    1  A    between atoms: C2_2  and  C7_7 
ROOT
HETATM    1  C1  UNL     1     -32.685   6.622   3.592  1.00 20.00    -0.110 C 
HETATM    2  C2  UNL     1     -33.513   6.001   4.203  1.00 20.00    -0.098 C 
HETATM    3  C3  UNL     1     -31.678   7.377   2.849  1.00 20.00     0.112 C 
ENDROOT
BRANCH   2   4
HETATM    4  C7  UNL     1     -34.533   5.237   4.955  1.00 20.00     0.013 C 
HETATM    5  C4  UNL     1     -34.663   5.817   6.371  1.00 20.00     0.028 C 
HETATM    6  C5  UNL     1     -34.107   3.764   5.041  1.00 20.00     0.028 C 
HETATM    7  C6  UNL     1     -35.883   5.340   4.232  1.00 20.00     0.028 C 
ENDBRANCH   2   4
TORSDOF 1
ENDMDL
MODEL 4
REMARK VINA RESULT:      -3.8     11.601     12.564
REMARK  1 active torsions:
REMARK  status: ('A' for Active; 'I' for Inactive)
REMARK    1  A    between atoms: C2_2  and  C7_7 
ROOT
HETATM    1  C1  UNL     1     -34.607  16.190  -1.642  1.00 20.00    -0.110 C 
HETATM    2  C2  UNL     1     -34.546  15.546  -2.654  1.00 20.00    -0.098 C 
HETATM    3  C3  UNL     1     -34.682  16.974  -0.410  1.00 20.00     0.112 C 
ENDROOT
BRANCH   2   4
HETATM    4  C7  UNL     1     -34.472  14.753  -3.902  1.00 20.00     0.013 C 
HETATM    5  C4  UNL     1     -33.394  13.670  -3.754  1.00 20.00     0.028 C 
HETATM    6  C5  UNL     1     -34.112  15.679  -5.073  1.00 20.00     0.028 C 
HETATM    7  C6  UNL     1     -35.831  14.093  -4.169  1.00 20.00     0.028 C 
ENDBRANCH   2   4
TORSDOF 1
ENDMDL
MODEL 5
REMARK VINA RESULT:      -3.8     11.601     12.535
REMARK  1 active torsions:
REMARK  status: ('A' for Active; 'I' for Inactive)
REMARK    1  A    between atoms: C2_2  and  C7_7 
ROOT
HETATM    1  C1  UNL     1     -34.608  16.190  -1.642  1.00 20.00    -0.110 C 
HETATM    2  C2  UNL     1     -34.546  15.547  -2.655  1.00 20.00    -0.098 C 
HETATM    3  C3  UNL     1     -34.683  16.972  -0.409  1.00 20.00     0.112 C 
ENDROOT
BRANCH   2   4
HETATM    4  C7  UNL     1     -34.470  14.754  -3.903  1.00 20.00     0.013 C 
HETATM    5  C4  UNL     1     -35.829  14.091  -4.169  1.00 20.00     0.028 C 
HETATM    6  C5  UNL     1     -33.391  13.672  -3.754  1.00 20.00     0.028 C 
HETATM    7  C6  UNL     1     -34.113  15.679  -5.074  1.00 20.00     0.028 C 
ENDBRANCH   2   4
TORSDOF 1
ENDMDL
MODEL 6
REMARK VINA RESULT:      -3.4      1.527      2.909
REMARK  1 active torsions:
REMARK  status: ('A' for Active; 'I' for Inactive)
REMARK    1  A    between atoms: C2_2  and  C7_7 
ROOT
HETATM    1  C1  UNL     1     -33.850   6.810   6.222  1.00 20.00    -0.110 C 
HETATM    2  C2  UNL     1     -34.238   6.128   5.312  1.00 20.00    -0.098 C 
HETATM    3  C3  UNL     1     -33.378   7.640   7.329  1.00 20.00     0.112 C 
ENDROOT
BRANCH   2   4
HETATM    4  C7  UNL     1     -34.717   5.289   4.190  1.00 20.00     0.013 C 
HETATM    5  C4  UNL     1     -34.879   3.840   4.670  1.00 20.00     0.028 C 
HETATM    6  C5  UNL     1     -33.695   5.338   3.045  1.00 20.00     0.028 C 
HETATM    7  C6  UNL     1     -36.068   5.821   3.695  1.00 20.00     0.028 C 
ENDBRANCH   2   4
TORSDOF 1
ENDMDL
MODEL 7
REMARK VINA RESULT:      -3.3      8.636     10.557
REMARK  1 active torsions:
REMARK  status: ('A' for Active; 'I' for Inactive)
REMARK    1  A    between atoms: C2_2  and  C7_7 
ROOT
HETATM    1  C1  UNL     1     -41.750   3.526  -2.561  1.00 20.00    -0.110 C 
HETATM    2  C2  UNL     1     -41.797   4.571  -1.969  1.00 20.00    -0.098 C 
HETATM    3  C3  UNL     1     -41.694   2.255  -3.282  1.00 20.00     0.112 C 
ENDROOT
BRANCH   2   4
HETATM    4  C7  UNL     1     -41.854   5.858  -1.241  1.00 20.00     0.013 C 
HETATM    5  C4  UNL     1     -40.687   5.933  -0.246  1.00 20.00     0.028 C 
HETATM    6  C5  UNL     1     -43.184   5.955  -0.480  1.00 20.00     0.028 C 
HETATM    7  C6  UNL     1     -41.750   7.016  -2.243  1.00 20.00     0.028 C 
ENDBRANCH   2   4
TORSDOF 1
ENDMDL
MODEL 8
REMARK VINA RESULT:      -3.3      9.114     10.905
REMARK  1 active torsions:
REMARK  status: ('A' for Active; 'I' for Inactive)
REMARK    1  A    between atoms: C2_2  and  C7_7 
ROOT
HETATM    1  C1  UNL     1     -41.612   2.584  -3.187  1.00 20.00    -0.110 C 
HETATM    2  C2  UNL     1     -41.791   3.555  -2.503  1.00 20.00    -0.098 C 
HETATM    3  C3  UNL     1     -41.395   1.402  -4.019  1.00 20.00     0.112 C 
ENDROOT
BRANCH   2   4
HETATM    4  C7  UNL     1     -42.010   4.753  -1.661  1.00 20.00     0.013 C 
HETATM    5  C4  UNL     1     -42.349   5.952  -2.557  1.00 20.00     0.028 C 
HETATM    6  C5  UNL     1     -40.733   5.054  -0.861  1.00 20.00     0.028 C 
HETATM    7  C6  UNL     1     -43.172   4.490  -0.694  1.00 20.00     0.028 C 
ENDBRANCH   2   4
TORSDOF 1
ENDMDL
MODEL 9
REMARK VINA RESULT:      -3.2      8.698     10.260
REMARK  1 active torsions:
REMARK  status: ('A' for Active; 'I' for Inactive)
REMARK    1  A    between atoms: C2_2  and  C7_7 
ROOT
HETATM    1  C1  UNL     1     -42.177   7.252  -3.014  1.00 20.00    -0.110 C 
HETATM    2  C2  UNL     1     -41.930   6.476  -2.131  1.00 20.00    -0.098 C 
HETATM    3  C3  UNL     1     -42.477   8.196  -4.089  1.00 20.00     0.112 C 
ENDROOT
BRANCH   2   4
HETATM    4  C7  UNL     1     -41.625   5.520  -1.043  1.00 20.00     0.013 C 
HETATM    5  C4  UNL     1     -42.919   5.168  -0.296  1.00 20.00     0.028 C 
HETATM    6  C5  UNL     1     -40.626   6.159  -0.067  1.00 20.00     0.028 C 
HETATM    7  C6  UNL     1     -41.014   4.245  -1.641  1.00 20.00     0.028 C 
ENDBRANCH   2   4
TORSDOF 1
ENDMDL
