MODEL 1
REMARK VINA RESULT:      -4.3      0.000      0.000
REMARK  5 active torsions:
REMARK  status: ('A' for Active; 'I' for Inactive)
REMARK    1  A    between atoms: C1_1  and  C2_2 
REMARK    2  A    between atoms: C1_1  and  C3_3 
REMARK    3  A    between atoms: C2_2  and  P11_11 
REMARK    4  A    between atoms: C8_8  and  P11_11 
REMARK    5  A    between atoms: C9_9  and  P11_11 
ROOT
HETATM    1  O10 UNL     1     -32.125  14.779  -3.486  1.00 20.00    -0.317 OA
HETATM    2  P11 UNL     1     -33.499  15.315  -3.786  1.00 20.00     0.105 P 
ENDROOT
BRANCH   2   3
HETATM    3  C2  UNL     1     -34.716  15.551  -2.569  1.00 20.00     0.096 C 
BRANCH   3   4
HETATM    4  C1  UNL     1     -34.475  16.395  -1.610  1.00 20.00    -0.141 C 
BRANCH   4   5
HETATM    5  C3  UNL     1     -34.232  17.248  -0.652  1.00 20.00     0.026 C 
HETATM    6  C4  UNL     1     -35.087  17.338   0.578  1.00 20.00     0.030 C 
HETATM    7  C5  UNL     1     -33.077  18.205  -0.706  1.00 20.00     0.030 C 
ENDBRANCH   4   5
ENDBRANCH   3   4
ENDBRANCH   2   3
BRANCH   2   8
HETATM    8  C8  UNL     1     -34.325  14.296  -5.011  1.00 20.00     0.073 C 
HETATM    9  C6  UNL     1     -35.251  13.275  -4.383  1.00 20.00     0.013 C 
ENDBRANCH   2   8
BRANCH   2  10
HETATM   10  C9  UNL     1     -33.396  16.917  -4.591  1.00 20.00     0.073 C 
HETATM   11  C7  UNL     1     -33.996  16.905  -5.980  1.00 20.00     0.013 C 
ENDBRANCH   2  10
TORSDOF 5
ENDMDL
MODEL 2
REMARK VINA RESULT:      -4.2      1.949      2.310
REMARK  5 active torsions:
REMARK  status: ('A' for Active; 'I' for Inactive)
REMARK    1  A    between atoms: C1_1  and  C2_2 
REMARK    2  A    between atoms: C1_1  and  C3_3 
REMARK    3  A    between atoms: C2_2  and  P11_11 
REMARK    4  A    between atoms: C8_8  and  P11_11 
REMARK    5  A    between atoms: C9_9  and  P11_11 
ROOT
HETATM    1  O10 UNL     1     -34.987  12.532  -4.296  1.00 20.00    -0.317 OA
HETATM    2  P11 UNL     1     -34.862  14.025  -4.449  1.00 20.00     0.105 P 
ENDROOT
BRANCH   2   3
HETATM    3  C2  UNL     1     -33.518  14.936  -3.832  1.00 20.00     0.096 C 
BRANCH   3   4
HETATM    4  C1  UNL     1     -33.758  15.893  -2.986  1.00 20.00    -0.141 C 
BRANCH   4   5
HETATM    5  C3  UNL     1     -34.006  16.853  -2.137  1.00 20.00     0.026 C 
HETATM    6  C4  UNL     1     -34.622  16.595  -0.792  1.00 20.00     0.030 C 
HETATM    7  C5  UNL     1     -33.696  18.291  -2.440  1.00 20.00     0.030 C 
ENDBRANCH   4   5
ENDBRANCH   3   4
ENDBRANCH   2   3
BRANCH   2   8
HETATM    8  C8  UNL     1     -36.289  14.856  -3.748  1.00 20.00     0.073 C 
HETATM    9  C6  UNL     1     -37.327  15.204  -4.795  1.00 20.00     0.013 C 
ENDBRANCH   2   8
BRANCH   2  10
HETATM   10  C9  UNL     1     -34.927  14.494  -6.181  1.00 20.00     0.073 C 
HETATM   11  C7  UNL     1     -34.115  15.737  -6.474  1.00 20.00     0.013 C 
ENDBRANCH   2  10
TORSDOF 5
ENDMDL
MODEL 3
REMARK VINA RESULT:      -4.1      1.262      1.273
REMARK  5 active torsions:
REMARK  status: ('A' for Active; 'I' for Inactive)
REMARK    1  A    between atoms: C1_1  and  C2_2 
REMARK    2  A    between atoms: C1_1  and  C3_3 
REMARK    3  A    between atoms: C2_2  and  P11_11 
REMARK    4  A    between atoms: C8_8  and  P11_11 
REMARK    5  A    between atoms: C9_9  and  P11_11 
ROOT
HETATM    1  O10 UNL     1     -33.845  13.253  -3.499  1.00 20.00    -0.317 OA
HETATM    2  P11 UNL     1     -34.405  14.611  -3.833  1.00 20.00     0.105 P 
ENDROOT
BRANCH   2   3
HETATM    3  C2  UNL     1     -35.474  15.486  -2.781  1.00 20.00     0.096 C 
BRANCH   3   4
HETATM    4  C1  UNL     1     -34.953  16.267  -1.881  1.00 20.00    -0.141 C 
BRANCH   4   5
HETATM    5  C3  UNL     1     -34.430  17.045  -0.974  1.00 20.00     0.026 C 
HETATM    6  C4  UNL     1     -35.043  17.217   0.386  1.00 20.00     0.030 C 
HETATM    7  C5  UNL     1     -33.175  17.832  -1.219  1.00 20.00     0.030 C 
ENDBRANCH   4   5
ENDBRANCH   3   4
ENDBRANCH   2   3
BRANCH   2   8
HETATM    8  C8  UNL     1     -35.296  14.564  -5.390  1.00 20.00     0.073 C 
HETATM    9  C6  UNL     1     -36.729  15.037  -5.250  1.00 20.00     0.013 C 
ENDBRANCH   2   8
BRANCH   2  10
HETATM   10  C9  UNL     1     -33.083  15.782  -4.156  1.00 20.00     0.073 C 
HETATM   11  C7  UNL     1     -33.406  16.717  -5.301  1.00 20.00     0.013 C 
ENDBRANCH   2  10
TORSDOF 5
ENDMDL
MODEL 4
REMARK VINA RESULT:      -4.0      1.558      2.785
REMARK  5 active torsions:
REMARK  status: ('A' for Active; 'I' for Inactive)
REMARK    1  A    between atoms: C1_1  and  C2_2 
REMARK    2  A    between atoms: C1_1  and  C3_3 
REMARK    3  A    between atoms: C2_2  and  P11_11 
REMARK    4  A    between atoms: C8_8  and  P11_11 
REMARK    5  A    between atoms: C9_9  and  P11_11 
ROOT
HETATM    1  O10 UNL     1     -36.071  16.727  -4.856  1.00 20.00    -0.317 OA
HETATM    2  P11 UNL     1     -34.891  15.951  -4.332  1.00 20.00     0.105 P 
ENDROOT
BRANCH   2   3
HETATM    3  C2  UNL     1     -34.754  15.423  -2.683  1.00 20.00     0.096 C 
BRANCH   3   4
HETATM    4  C1  UNL     1     -34.510  16.313  -1.768  1.00 20.00    -0.141 C 
BRANCH   4   5
HETATM    5  C3  UNL     1     -34.266  17.212  -0.854  1.00 20.00     0.026 C 
HETATM    6  C4  UNL     1     -35.051  17.291   0.423  1.00 20.00     0.030 C 
HETATM    7  C5  UNL     1     -33.182  18.239  -1.009  1.00 20.00     0.030 C 
ENDBRANCH   4   5
ENDBRANCH   3   4
ENDBRANCH   2   3
BRANCH   2   8
HETATM    8  C8  UNL     1     -33.365  16.854  -4.610  1.00 20.00     0.073 C 
HETATM    9  C6  UNL     1     -33.603  18.329  -4.856  1.00 20.00     0.013 C 
ENDBRANCH   2   8
BRANCH   2  10
HETATM   10  C9  UNL     1     -34.651  14.444  -5.277  1.00 20.00     0.073 C 
HETATM   11  C7  UNL     1     -34.944  13.200  -4.466  1.00 20.00     0.013 C 
ENDBRANCH   2  10
TORSDOF 5
ENDMDL
MODEL 5
REMARK VINA RESULT:      -4.0      1.400      1.468
REMARK  5 active torsions:
REMARK  status: ('A' for Active; 'I' for Inactive)
REMARK    1  A    between atoms: C1_1  and  C2_2 
REMARK    2  A    between atoms: C1_1  and  C3_3 
REMARK    3  A    between atoms: C2_2  and  P11_11 
REMARK    4  A    between atoms: C8_8  and  P11_11 
REMARK    5  A    between atoms: C9_9  and  P11_11 
ROOT
HETATM    1  O10 UNL     1     -32.909  16.598  -4.892  1.00 20.00    -0.317 OA
HETATM    2  P11 UNL     1     -34.183  16.013  -4.341  1.00 20.00     0.105 P 
ENDROOT
BRANCH   2   3
HETATM    3  C2  UNL     1     -34.366  15.518  -2.686  1.00 20.00     0.096 C 
BRANCH   3   4
HETATM    4  C1  UNL     1     -34.264  16.421  -1.756  1.00 20.00    -0.141 C 
BRANCH   4   5
HETATM    5  C3  UNL     1     -34.161  17.322  -0.818  1.00 20.00     0.026 C 
HETATM    6  C4  UNL     1     -35.024  17.303   0.411  1.00 20.00     0.030 C 
HETATM    7  C5  UNL     1     -33.173  18.450  -0.894  1.00 20.00     0.030 C 
ENDBRANCH   4   5
ENDBRANCH   3   4
ENDBRANCH   2   3
BRANCH   2   8
HETATM    8  C8  UNL     1     -34.667  14.556  -5.270  1.00 20.00     0.073 C 
HETATM    9  C6  UNL     1     -34.798  13.329  -4.392  1.00 20.00     0.013 C 
ENDBRANCH   2   8
BRANCH   2  10
HETATM   10  C9  UNL     1     -35.560  17.136  -4.596  1.00 20.00     0.073 C 
HETATM   11  C7  UNL     1     -36.901  16.449  -4.453  1.00 20.00     0.013 C 
ENDBRANCH   2  10
TORSDOF 5
ENDMDL
MODEL 6
REMARK VINA RESULT:      -4.0      1.533      1.951
REMARK  5 active torsions:
REMARK  status: ('A' for Active; 'I' for Inactive)
REMARK    1  A    between atoms: C1_1  and  C2_2 
REMARK    2  A    between atoms: C1_1  and  C3_3 
REMARK    3  A    between atoms: C2_2  and  P11_11 
REMARK    4  A    between atoms: C8_8  and  P11_11 
REMARK    5  A    between atoms: C9_9  and  P11_11 
ROOT
HETATM    1  O10 UNL     1     -33.477  17.497  -4.396  1.00 20.00    -0.317 OA
HETATM    2  P11 UNL     1     -34.034  16.175  -3.938  1.00 20.00     0.105 P 
ENDROOT
BRANCH   2   3
HETATM    3  C2  UNL     1     -34.986  15.991  -2.497  1.00 20.00     0.096 C 
BRANCH   3   4
HETATM    4  C1  UNL     1     -34.661  16.688  -1.449  1.00 20.00    -0.141 C 
BRANCH   4   5
HETATM    5  C3  UNL     1     -34.332  17.393  -0.401  1.00 20.00     0.026 C 
HETATM    6  C4  UNL     1     -33.088  18.233  -0.358  1.00 20.00     0.030 C 
HETATM    7  C5  UNL     1     -35.169  17.417   0.845  1.00 20.00     0.030 C 
ENDBRANCH   4   5
ENDBRANCH   3   4
ENDBRANCH   2   3
BRANCH   2   8
HETATM    8  C8  UNL     1     -32.719  14.973  -3.726  1.00 20.00     0.073 C 
HETATM    9  C6  UNL     1     -33.238  13.550  -3.683  1.00 20.00     0.013 C 
ENDBRANCH   2   8
BRANCH   2  10
HETATM   10  C9  UNL     1     -35.058  15.439  -5.215  1.00 20.00     0.073 C 
HETATM   11  C7  UNL     1     -34.404  15.486  -6.579  1.00 20.00     0.013 C 
ENDBRANCH   2  10
TORSDOF 5
ENDMDL
MODEL 7
REMARK VINA RESULT:      -3.9      2.059      2.694
REMARK  5 active torsions:
REMARK  status: ('A' for Active; 'I' for Inactive)
REMARK    1  A    between atoms: C1_1  and  C2_2 
REMARK    2  A    between atoms: C1_1  and  C3_3 
REMARK    3  A    between atoms: C2_2  and  P11_11 
REMARK    4  A    between atoms: C8_8  and  P11_11 
REMARK    5  A    between atoms: C9_9  and  P11_11 
ROOT
HETATM    1  O10 UNL     1     -34.822  12.577  -4.574  1.00 20.00    -0.317 OA
HETATM    2  P11 UNL     1     -35.097  14.050  -4.724  1.00 20.00     0.105 P 
ENDROOT
BRANCH   2   3
HETATM    3  C2  UNL     1     -36.307  14.891  -3.804  1.00 20.00     0.096 C 
BRANCH   3   4
HETATM    4  C1  UNL     1     -35.924  15.837  -2.999  1.00 20.00    -0.141 C 
BRANCH   4   5
HETATM    5  C3  UNL     1     -35.538  16.791  -2.197  1.00 20.00     0.026 C 
HETATM    6  C4  UNL     1     -34.638  16.537  -1.022  1.00 20.00     0.030 C 
HETATM    7  C5  UNL     1     -35.965  18.218  -2.384  1.00 20.00     0.030 C 
ENDBRANCH   4   5
ENDBRANCH   3   4
ENDBRANCH   2   3
BRANCH   2   8
HETATM    8  C8  UNL     1     -35.511  14.448  -6.424  1.00 20.00     0.073 C 
HETATM    9  C6  UNL     1     -34.394  15.186  -7.133  1.00 20.00     0.013 C 
ENDBRANCH   2   8
BRANCH   2  10
HETATM   10  C9  UNL     1     -33.607  15.008  -4.432  1.00 20.00     0.073 C 
HETATM   11  C7  UNL     1     -32.633  14.298  -3.516  1.00 20.00     0.013 C 
ENDBRANCH   2  10
TORSDOF 5
ENDMDL
MODEL 8
REMARK VINA RESULT:      -3.9      1.780      2.737
REMARK  5 active torsions:
REMARK  status: ('A' for Active; 'I' for Inactive)
REMARK    1  A    between atoms: C1_1  and  C2_2 
REMARK    2  A    between atoms: C1_1  and  C3_3 
REMARK    3  A    between atoms: C2_2  and  P11_11 
REMARK    4  A    between atoms: C8_8  and  P11_11 
REMARK    5  A    between atoms: C9_9  and  P11_11 
ROOT
HETATM    1  O10 UNL     1     -36.903  16.389  -3.231  1.00 20.00    -0.317 OA
HETATM    2  P11 UNL     1     -35.589  15.812  -3.687  1.00 20.00     0.105 P 
ENDROOT
BRANCH   2   3
HETATM    3  C2  UNL     1     -34.161  15.798  -2.699  1.00 20.00     0.096 C 
BRANCH   3   4
HETATM    4  C1  UNL     1     -34.109  16.601  -1.677  1.00 20.00    -0.141 C 
BRANCH   4   5
HETATM    5  C3  UNL     1     -34.060  17.402  -0.648  1.00 20.00     0.026 C 
HETATM    6  C4  UNL     1     -35.106  17.388   0.429  1.00 20.00     0.030 C 
HETATM    7  C5  UNL     1     -32.954  18.400  -0.461  1.00 20.00     0.030 C 
ENDBRANCH   4   5
ENDBRANCH   3   4
ENDBRANCH   2   3
BRANCH   2   8
HETATM    8  C8  UNL     1     -35.042  16.600  -5.203  1.00 20.00     0.073 C 
HETATM    9  C6  UNL     1     -33.533  16.714  -5.283  1.00 20.00     0.013 C 
ENDBRANCH   2   8
BRANCH   2  10
HETATM   10  C9  UNL     1     -35.782  14.093  -4.168  1.00 20.00     0.073 C 
HETATM   11  C7  UNL     1     -34.469  13.341  -4.167  1.00 20.00     0.013 C 
ENDBRANCH   2  10
TORSDOF 5
ENDMDL
MODEL 9
REMARK VINA RESULT:      -3.9      2.425      4.616
REMARK  5 active torsions:
REMARK  status: ('A' for Active; 'I' for Inactive)
REMARK    1  A    between atoms: C1_1  and  C2_2 
REMARK    2  A    between atoms: C1_1  and  C3_3 
REMARK    3  A    between atoms: C2_2  and  P11_11 
REMARK    4  A    between atoms: C8_8  and  P11_11 
REMARK    5  A    between atoms: C9_9  and  P11_11 
ROOT
HETATM    1  O10 UNL     1     -35.140  12.599  -4.163  1.00 20.00    -0.317 OA
HETATM    2  P11 UNL     1     -34.916  14.038  -4.545  1.00 20.00     0.105 P 
ENDROOT
BRANCH   2   3
HETATM    3  C2  UNL     1     -34.822  14.584  -6.191  1.00 20.00     0.096 C 
BRANCH   3   4
HETATM    4  C1  UNL     1     -34.559  15.837  -6.412  1.00 20.00    -0.141 C 
BRANCH   4   5
HETATM    5  C3  UNL     1     -34.301  17.097  -6.633  1.00 20.00     0.026 C 
HETATM    6  C4  UNL     1     -34.674  17.779  -7.918  1.00 20.00     0.030 C 
HETATM    7  C5  UNL     1     -33.611  17.964  -5.620  1.00 20.00     0.030 C 
ENDBRANCH   4   5
ENDBRANCH   3   4
ENDBRANCH   2   3
BRANCH   2   8
HETATM    8  C8  UNL     1     -33.402  14.662  -3.811  1.00 20.00     0.073 C 
HETATM    9  C6  UNL     1     -33.663  15.722  -2.761  1.00 20.00     0.013 C 
ENDBRANCH   2   8
BRANCH   2  10
HETATM   10  C9  UNL     1     -36.181  15.091  -3.827  1.00 20.00     0.073 C 
HETATM   11  C7  UNL     1     -37.572  14.732  -4.304  1.00 20.00     0.013 C 
ENDBRANCH   2  10
TORSDOF 5
ENDMDL
