MODEL 1
REMARK VINA RESULT:      -5.1      0.000      0.000
REMARK  2 active torsions:
REMARK  status: ('A' for Active; 'I' for Inactive)
REMARK    1  A    between atoms: C1_1  and  C4_4 
REMARK    2  A    between atoms: C3_3  and  C4_4 
ROOT
HETATM    1  C4  UNL     1     -33.952   6.145   4.298  1.00 20.00     0.359 C 
HETATM    2  F8  UNL     1     -34.252   7.422   3.937  1.00 20.00    -0.191 F 
HETATM    3  F9  UNL     1     -32.643   5.957   3.978  1.00 20.00    -0.191 F 
ENDROOT
BRANCH   1   4
HETATM    4  C1  UNL     1     -34.183   5.940   5.777  1.00 20.00     0.200 C 
HETATM    5  C2  UNL     1     -34.851   4.659   6.203  1.00 20.00     0.098 C 
HETATM    6  O5  UNL     1     -33.868   6.800   6.599  1.00 20.00    -0.292 OA
ENDBRANCH   1   4
BRANCH   1   7
HETATM    7  C3  UNL     1     -34.794   5.201   3.474  1.00 20.00     0.432 C 
HETATM    8  F6  UNL     1     -36.040   5.710   3.313  1.00 20.00    -0.207 F 
HETATM    9  F7  UNL     1     -34.257   5.089   2.233  1.00 20.00    -0.207 F 
ENDBRANCH   1   7
TORSDOF 2
ENDMDL
MODEL 2
REMARK VINA RESULT:      -5.0      1.512      2.642
REMARK  2 active torsions:
REMARK  status: ('A' for Active; 'I' for Inactive)
REMARK    1  A    between atoms: C1_1  and  C4_4 
REMARK    2  A    between atoms: C3_3  and  C4_4 
ROOT
HETATM    1  C4  UNL     1     -34.489   5.526   3.759  1.00 20.00     0.359 C 
HETATM    2  F8  UNL     1     -34.306   4.677   2.712  1.00 20.00    -0.191 F 
HETATM    3  F9  UNL     1     -35.538   6.323   3.423  1.00 20.00    -0.191 F 
ENDROOT
BRANCH   1   4
HETATM    4  C1  UNL     1     -34.777   4.756   5.027  1.00 20.00     0.200 C 
HETATM    5  C2  UNL     1     -34.545   5.464   6.336  1.00 20.00     0.098 C 
HETATM    6  O5  UNL     1     -35.154   3.585   4.993  1.00 20.00    -0.292 OA
ENDBRANCH   1   4
BRANCH   1   7
HETATM    7  C3  UNL     1     -33.254   6.383   3.905  1.00 20.00     0.432 C 
HETATM    8  F6  UNL     1     -32.174   5.730   3.410  1.00 20.00    -0.207 F 
HETATM    9  F7  UNL     1     -33.401   7.510   3.164  1.00 20.00    -0.207 F 
ENDBRANCH   1   7
TORSDOF 2
ENDMDL
MODEL 3
REMARK VINA RESULT:      -4.9      1.068      2.274
REMARK  2 active torsions:
REMARK  status: ('A' for Active; 'I' for Inactive)
REMARK    1  A    between atoms: C1_1  and  C4_4 
REMARK    2  A    between atoms: C3_3  and  C4_4 
ROOT
HETATM    1  C4  UNL     1     -33.998   6.158   3.937  1.00 20.00     0.359 C 
HETATM    2  F8  UNL     1     -34.378   5.164   3.092  1.00 20.00    -0.191 F 
HETATM    3  F9  UNL     1     -34.768   7.236   3.629  1.00 20.00    -0.191 F 
ENDROOT
BRANCH   1   4
HETATM    4  C1  UNL     1     -34.199   5.742   5.376  1.00 20.00     0.200 C 
HETATM    5  C2  UNL     1     -34.813   4.390   5.628  1.00 20.00     0.098 C 
HETATM    6  O5  UNL     1     -33.905   6.493   6.307  1.00 20.00    -0.292 OA
ENDBRANCH   1   4
BRANCH   1   7
HETATM    7  C3  UNL     1     -32.553   6.499   3.661  1.00 20.00     0.432 C 
HETATM    8  F6  UNL     1     -31.979   5.522   2.917  1.00 20.00    -0.207 F 
HETATM    9  F7  UNL     1     -32.494   7.636   2.923  1.00 20.00    -0.207 F 
ENDBRANCH   1   7
TORSDOF 2
ENDMDL
MODEL 4
REMARK VINA RESULT:      -4.8      1.732      2.804
REMARK  2 active torsions:
REMARK  status: ('A' for Active; 'I' for Inactive)
REMARK    1  A    between atoms: C1_1  and  C4_4 
REMARK    2  A    between atoms: C3_3  and  C4_4 
ROOT
HETATM    1  C4  UNL     1     -34.852   5.118   4.287  1.00 20.00     0.359 C 
HETATM    2  F8  UNL     1     -36.071   5.674   4.053  1.00 20.00    -0.191 F 
HETATM    3  F9  UNL     1     -34.483   4.506   3.130  1.00 20.00    -0.191 F 
ENDROOT
BRANCH   1   4
HETATM    4  C1  UNL     1     -33.850   6.176   4.684  1.00 20.00     0.200 C 
HETATM    5  C2  UNL     1     -32.790   6.540   3.678  1.00 20.00     0.098 C 
HETATM    6  O5  UNL     1     -33.876   6.698   5.799  1.00 20.00    -0.292 OA
ENDBRANCH   1   4
BRANCH   1   7
HETATM    7  C3  UNL     1     -35.000   4.070   5.365  1.00 20.00     0.432 C 
HETATM    8  F6  UNL     1     -33.779   3.700   5.823  1.00 20.00    -0.207 F 
HETATM    9  F7  UNL     1     -35.666   4.604   6.420  1.00 20.00    -0.207 F 
ENDBRANCH   1   7
TORSDOF 2
ENDMDL
MODEL 5
REMARK VINA RESULT:      -4.7      2.001      2.721
REMARK  2 active torsions:
REMARK  status: ('A' for Active; 'I' for Inactive)
REMARK    1  A    between atoms: C1_1  and  C4_4 
REMARK    2  A    between atoms: C3_3  and  C4_4 
ROOT
HETATM    1  C4  UNL     1     -34.510   5.139   5.912  1.00 20.00     0.359 C 
HETATM    2  F8  UNL     1     -33.776   4.183   6.541  1.00 20.00    -0.191 F 
HETATM    3  F9  UNL     1     -35.603   5.355   6.692  1.00 20.00    -0.191 F 
ENDROOT
BRANCH   1   4
HETATM    4  C1  UNL     1     -33.705   6.407   5.746  1.00 20.00     0.200 C 
HETATM    5  C2  UNL     1     -33.167   6.713   4.372  1.00 20.00     0.098 C 
HETATM    6  O5  UNL     1     -33.468   7.145   6.702  1.00 20.00    -0.292 OA
ENDBRANCH   1   4
BRANCH   1   7
HETATM    7  C3  UNL     1     -34.964   4.598   4.577  1.00 20.00     0.432 C 
HETATM    8  F6  UNL     1     -35.225   3.272   4.679  1.00 20.00    -0.207 F 
HETATM    9  F7  UNL     1     -36.128   5.198   4.224  1.00 20.00    -0.207 F 
ENDBRANCH   1   7
TORSDOF 2
ENDMDL
MODEL 6
REMARK VINA RESULT:      -4.5      2.398      3.091
REMARK  2 active torsions:
REMARK  status: ('A' for Active; 'I' for Inactive)
REMARK    1  A    between atoms: C1_1  and  C4_4 
REMARK    2  A    between atoms: C3_3  and  C4_4 
ROOT
HETATM    1  C4  UNL     1     -34.639   5.692   4.512  1.00 20.00     0.359 C 
HETATM    2  F8  UNL     1     -34.474   6.797   5.287  1.00 20.00    -0.191 F 
HETATM    3  F9  UNL     1     -35.931   5.714   4.088  1.00 20.00    -0.191 F 
ENDROOT
BRANCH   1   4
HETATM    4  C1  UNL     1     -33.684   5.712   3.342  1.00 20.00     0.200 C 
HETATM    5  C2  UNL     1     -32.418   6.515   3.493  1.00 20.00     0.098 C 
HETATM    6  O5  UNL     1     -33.945   5.124   2.292  1.00 20.00    -0.292 OA
ENDBRANCH   1   4
BRANCH   1   7
HETATM    7  C3  UNL     1     -34.431   4.466   5.370  1.00 20.00     0.432 C 
HETATM    8  F6  UNL     1     -34.925   4.681   6.614  1.00 20.00    -0.207 F 
HETATM    9  F7  UNL     1     -35.132   3.429   4.847  1.00 20.00    -0.207 F 
ENDBRANCH   1   7
TORSDOF 2
ENDMDL
MODEL 7
REMARK VINA RESULT:      -4.5      1.713      2.222
REMARK  2 active torsions:
REMARK  status: ('A' for Active; 'I' for Inactive)
REMARK    1  A    between atoms: C1_1  and  C4_4 
REMARK    2  A    between atoms: C3_3  and  C4_4 
ROOT
HETATM    1  C4  UNL     1     -33.882   6.334   4.539  1.00 20.00     0.359 C 
HETATM    2  F8  UNL     1     -34.475   7.414   3.965  1.00 20.00    -0.191 F 
HETATM    3  F9  UNL     1     -33.378   6.762   5.727  1.00 20.00    -0.191 F 
ENDROOT
BRANCH   1   4
HETATM    4  C1  UNL     1     -34.884   5.221   4.745  1.00 20.00     0.200 C 
HETATM    5  C2  UNL     1     -34.631   4.260   5.877  1.00 20.00     0.098 C 
HETATM    6  O5  UNL     1     -35.852   5.084   3.996  1.00 20.00    -0.292 OA
ENDBRANCH   1   4
BRANCH   1   7
HETATM    7  C3  UNL     1     -32.739   5.887   3.659  1.00 20.00     0.432 C 
HETATM    8  F6  UNL     1     -33.207   5.518   2.441  1.00 20.00    -0.207 F 
HETATM    9  F7  UNL     1     -31.899   6.933   3.451  1.00 20.00    -0.207 F 
ENDBRANCH   1   7
TORSDOF 2
ENDMDL
MODEL 8
REMARK VINA RESULT:      -4.4      1.979      3.073
REMARK  2 active torsions:
REMARK  status: ('A' for Active; 'I' for Inactive)
REMARK    1  A    between atoms: C1_1  and  C4_4 
REMARK    2  A    between atoms: C3_3  and  C4_4 
ROOT
HETATM    1  C4  UNL     1     -33.898   6.142   4.690  1.00 20.00     0.359 C 
HETATM    2  F8  UNL     1     -32.778   5.745   4.030  1.00 20.00    -0.191 F 
HETATM    3  F9  UNL     1     -34.240   7.350   4.169  1.00 20.00    -0.191 F 
ENDROOT
BRANCH   1   4
HETATM    4  C1  UNL     1     -35.012   5.137   4.503  1.00 20.00     0.200 C 
HETATM    5  C2  UNL     1     -34.909   3.839   5.260  1.00 20.00     0.098 C 
HETATM    6  O5  UNL     1     -35.950   5.356   3.737  1.00 20.00    -0.292 OA
ENDBRANCH   1   4
BRANCH   1   7
HETATM    7  C3  UNL     1     -33.559   6.321   6.151  1.00 20.00     0.432 C 
HETATM    8  F6  UNL     1     -32.770   7.410   6.314  1.00 20.00    -0.207 F 
HETATM    9  F7  UNL     1     -34.699   6.558   6.849  1.00 20.00    -0.207 F 
ENDBRANCH   1   7
TORSDOF 2
ENDMDL
MODEL 9
REMARK VINA RESULT:      -4.3      1.676      2.835
REMARK  2 active torsions:
REMARK  status: ('A' for Active; 'I' for Inactive)
REMARK    1  A    between atoms: C1_1  and  C4_4 
REMARK    2  A    between atoms: C3_3  and  C4_4 
ROOT
HETATM    1  C4  UNL     1     -32.921   6.120   3.313  1.00 20.00     0.359 C 
HETATM    2  F8  UNL     1     -31.814   5.342   3.445  1.00 20.00    -0.191 F 
HETATM    3  F9  UNL     1     -33.550   5.699   2.183  1.00 20.00    -0.191 F 
ENDROOT
BRANCH   1   4
HETATM    4  C1  UNL     1     -33.822   5.977   4.518  1.00 20.00     0.200 C 
HETATM    5  C2  UNL     1     -35.020   5.073   4.386  1.00 20.00     0.098 C 
HETATM    6  O5  UNL     1     -33.605   6.601   5.557  1.00 20.00    -0.292 OA
ENDBRANCH   1   4
BRANCH   1   7
HETATM    7  C3  UNL     1     -32.484   7.553   3.121  1.00 20.00     0.432 C 
HETATM    8  F6  UNL     1     -31.303   7.766   3.752  1.00 20.00    -0.207 F 
HETATM    9  F7  UNL     1     -32.267   7.781   1.801  1.00 20.00    -0.207 F 
ENDBRANCH   1   7
TORSDOF 2
ENDMDL
