MODEL 1
REMARK VINA RESULT:      -6.1      0.000      0.000
REMARK  2 active torsions:
REMARK  status: ('A' for Active; 'I' for Inactive)
REMARK    1  A    between atoms: C1_1  and  C4_4 
REMARK    2  A    between atoms: C3_3  and  C4_4 
ROOT
HETATM    1  C4  UNL     1     -33.930   6.144   3.768  1.00 20.00     0.359 C 
HETATM    2  F10 UNL     1     -34.562   7.323   3.511  1.00 20.00    -0.192 F 
HETATM    3  F11 UNL     1     -34.353   5.276   2.808  1.00 20.00    -0.192 F 
ENDROOT
BRANCH   1   4
HETATM    4  C1  UNL     1     -34.275   5.675   5.147  1.00 20.00     0.238 C 
HETATM    5  C2  UNL     1     -34.871   4.515   5.439  1.00 20.00     0.307 C 
HETATM    6  F6  UNL     1     -35.143   4.179   6.717  1.00 20.00    -0.170 F 
HETATM    7  F7  UNL     1     -35.212   3.672   4.442  1.00 20.00    -0.170 F 
HETATM    8  F5  UNL     1     -33.971   6.497   6.179  1.00 20.00    -0.198 F 
ENDBRANCH   1   4
BRANCH   1   9
HETATM    9  C3  UNL     1     -32.442   6.356   3.595  1.00 20.00     0.432 C 
HETATM   10  F8  UNL     1     -31.944   5.473   2.696  1.00 20.00    -0.207 F 
HETATM   11  F9  UNL     1     -32.226   7.595   3.083  1.00 20.00    -0.207 F 
ENDBRANCH   1   9
TORSDOF 2
ENDMDL
MODEL 2
REMARK VINA RESULT:      -6.0      0.525      1.612
REMARK  2 active torsions:
REMARK  status: ('A' for Active; 'I' for Inactive)
REMARK    1  A    between atoms: C1_1  and  C4_4 
REMARK    2  A    between atoms: C3_3  and  C4_4 
ROOT
HETATM    1  C4  UNL     1     -34.040   5.907   3.603  1.00 20.00     0.359 C 
HETATM    2  F10 UNL     1     -34.567   7.162   3.583  1.00 20.00    -0.192 F 
HETATM    3  F11 UNL     1     -34.355   5.349   2.402  1.00 20.00    -0.192 F 
ENDROOT
BRANCH   1   4
HETATM    4  C1  UNL     1     -34.609   5.137   4.752  1.00 20.00     0.238 C 
HETATM    5  C2  UNL     1     -34.634   5.553   6.022  1.00 20.00     0.307 C 
HETATM    6  F6  UNL     1     -35.171   4.785   6.993  1.00 20.00    -0.170 F 
HETATM    7  F7  UNL     1     -34.111   6.756   6.339  1.00 20.00    -0.170 F 
HETATM    8  F5  UNL     1     -35.128   3.914   4.487  1.00 20.00    -0.198 F 
ENDBRANCH   1   4
BRANCH   1   9
HETATM    9  C3  UNL     1     -32.534   6.027   3.690  1.00 20.00     0.432 C 
HETATM   10  F8  UNL     1     -31.957   5.511   2.577  1.00 20.00    -0.207 F 
HETATM   11  F9  UNL     1     -32.193   7.340   3.730  1.00 20.00    -0.207 F 
ENDBRANCH   1   9
TORSDOF 2
ENDMDL
MODEL 3
REMARK VINA RESULT:      -6.0      1.185      3.518
REMARK  2 active torsions:
REMARK  status: ('A' for Active; 'I' for Inactive)
REMARK    1  A    between atoms: C1_1  and  C4_4 
REMARK    2  A    between atoms: C3_3  and  C4_4 
ROOT
HETATM    1  C4  UNL     1     -34.964   4.912   4.726  1.00 20.00     0.359 C 
HETATM    2  F10 UNL     1     -34.807   3.662   4.210  1.00 20.00    -0.192 F 
HETATM    3  F11 UNL     1     -36.183   5.344   4.299  1.00 20.00    -0.192 F 
ENDROOT
BRANCH   1   4
HETATM    4  C1  UNL     1     -33.854   5.798   4.256  1.00 20.00     0.238 C 
HETATM    5  C2  UNL     1     -33.422   5.889   2.994  1.00 20.00     0.307 C 
HETATM    6  F6  UNL     1     -32.411   6.719   2.666  1.00 20.00    -0.170 F 
HETATM    7  F7  UNL     1     -34.003   5.137   2.037  1.00 20.00    -0.170 F 
HETATM    8  F5  UNL     1     -33.226   6.557   5.186  1.00 20.00    -0.198 F 
ENDBRANCH   1   4
BRANCH   1   9
HETATM    9  C3  UNL     1     -35.002   4.800   6.235  1.00 20.00     0.432 C 
HETATM   10  F8  UNL     1     -33.916   4.124   6.682  1.00 20.00    -0.207 F 
HETATM   11  F9  UNL     1     -34.934   6.043   6.775  1.00 20.00    -0.207 F 
ENDBRANCH   1   9
TORSDOF 2
ENDMDL
MODEL 4
REMARK VINA RESULT:      -5.8      1.063      3.935
REMARK  2 active torsions:
REMARK  status: ('A' for Active; 'I' for Inactive)
REMARK    1  A    between atoms: C1_1  and  C4_4 
REMARK    2  A    between atoms: C3_3  and  C4_4 
ROOT
HETATM    1  C4  UNL     1     -34.646   5.568   4.666  1.00 20.00     0.359 C 
HETATM    2  F10 UNL     1     -35.917   5.301   4.258  1.00 20.00    -0.192 F 
HETATM    3  F11 UNL     1     -34.727   6.681   5.444  1.00 20.00    -0.192 F 
ENDROOT
BRANCH   1   4
HETATM    4  C1  UNL     1     -33.765   5.774   3.473  1.00 20.00     0.238 C 
HETATM    5  C2  UNL     1     -32.647   6.507   3.459  1.00 20.00     0.307 C 
HETATM    6  F6  UNL     1     -31.917   6.635   2.332  1.00 20.00    -0.170 F 
HETATM    7  F7  UNL     1     -32.247   7.133   4.585  1.00 20.00    -0.170 F 
HETATM    8  F5  UNL     1     -34.137   5.182   2.314  1.00 20.00    -0.198 F 
ENDBRANCH   1   4
BRANCH   1   9
HETATM    9  C3  UNL     1     -34.173   4.418   5.529  1.00 20.00     0.432 C 
HETATM   10  F8  UNL     1     -34.127   4.796   6.830  1.00 20.00    -0.207 F 
HETATM   11  F9  UNL     1     -35.073   3.405   5.451  1.00 20.00    -0.207 F 
ENDBRANCH   1   9
TORSDOF 2
ENDMDL
MODEL 5
REMARK VINA RESULT:      -5.8      1.018      1.508
REMARK  2 active torsions:
REMARK  status: ('A' for Active; 'I' for Inactive)
REMARK    1  A    between atoms: C1_1  and  C4_4 
REMARK    2  A    between atoms: C3_3  and  C4_4 
ROOT
HETATM    1  C4  UNL     1     -32.964   6.168   3.455  1.00 20.00     0.359 C 
HETATM    2  F10 UNL     1     -33.829   5.829   2.459  1.00 20.00    -0.192 F 
HETATM    3  F11 UNL     1     -31.915   5.306   3.351  1.00 20.00    -0.192 F 
ENDROOT
BRANCH   1   4
HETATM    4  C1  UNL     1     -33.652   6.064   4.780  1.00 20.00     0.238 C 
HETATM    5  C2  UNL     1     -34.615   5.187   5.082  1.00 20.00     0.307 C 
HETATM    6  F6  UNL     1     -35.177   5.171   6.307  1.00 20.00    -0.170 F 
HETATM    7  F7  UNL     1     -35.034   4.310   4.145  1.00 20.00    -0.170 F 
HETATM    8  F5  UNL     1     -33.280   6.938   5.745  1.00 20.00    -0.198 F 
ENDBRANCH   1   4
BRANCH   1   9
HETATM    9  C3  UNL     1     -32.457   7.568   3.186  1.00 20.00     0.432 C 
HETATM   10  F8  UNL     1     -31.250   7.751   3.775  1.00 20.00    -0.207 F 
HETATM   11  F9  UNL     1     -32.265   7.723   1.851  1.00 20.00    -0.207 F 
ENDBRANCH   1   9
TORSDOF 2
ENDMDL
MODEL 6
REMARK VINA RESULT:      -5.7      1.477      3.311
REMARK  2 active torsions:
REMARK  status: ('A' for Active; 'I' for Inactive)
REMARK    1  A    between atoms: C1_1  and  C4_4 
REMARK    2  A    between atoms: C3_3  and  C4_4 
ROOT
HETATM    1  C4  UNL     1     -34.785   5.114   4.430  1.00 20.00     0.359 C 
HETATM    2  F10 UNL     1     -34.444   4.850   3.139  1.00 20.00    -0.192 F 
HETATM    3  F11 UNL     1     -36.047   5.622   4.389  1.00 20.00    -0.192 F 
ENDROOT
BRANCH   1   4
HETATM    4  C1  UNL     1     -33.807   6.079   5.024  1.00 20.00     0.238 C 
HETATM    5  C2  UNL     1     -33.870   6.575   6.264  1.00 20.00     0.307 C 
HETATM    6  F6  UNL     1     -32.939   7.442   6.711  1.00 20.00    -0.170 F 
HETATM    7  F7  UNL     1     -34.882   6.207   7.077  1.00 20.00    -0.170 F 
HETATM    8  F5  UNL     1     -32.785   6.493   4.239  1.00 20.00    -0.198 F 
ENDBRANCH   1   4
BRANCH   1   9
HETATM    9  C3  UNL     1     -34.823   3.805   5.188  1.00 20.00     0.432 C 
HETATM   10  F8  UNL     1     -33.619   3.560   5.761  1.00 20.00    -0.207 F 
HETATM   11  F9  UNL     1     -35.721   3.903   6.200  1.00 20.00    -0.207 F 
ENDBRANCH   1   9
TORSDOF 2
ENDMDL
MODEL 7
REMARK VINA RESULT:      -5.5      1.200      3.934
REMARK  2 active torsions:
REMARK  status: ('A' for Active; 'I' for Inactive)
REMARK    1  A    between atoms: C1_1  and  C4_4 
REMARK    2  A    between atoms: C3_3  and  C4_4 
ROOT
HETATM    1  C4  UNL     1     -34.103   5.592   4.913  1.00 20.00     0.359 C 
HETATM    2  F10 UNL     1     -34.285   6.727   5.643  1.00 20.00    -0.192 F 
HETATM    3  F11 UNL     1     -33.313   4.782   5.668  1.00 20.00    -0.192 F 
ENDROOT
BRANCH   1   4
HETATM    4  C1  UNL     1     -33.474   5.931   3.598  1.00 20.00     0.238 C 
HETATM    5  C2  UNL     1     -32.450   6.774   3.429  1.00 20.00     0.307 C 
HETATM    6  F6  UNL     1     -31.949   7.017   2.200  1.00 20.00    -0.170 F 
HETATM    7  F7  UNL     1     -31.914   7.394   4.500  1.00 20.00    -0.170 F 
HETATM    8  F5  UNL     1     -33.991   5.349   2.491  1.00 20.00    -0.198 F 
ENDBRANCH   1   4
BRANCH   1   9
HETATM    9  C3  UNL     1     -35.448   4.919   4.742  1.00 20.00     0.432 C 
HETATM   10  F8  UNL     1     -36.134   5.495   3.724  1.00 20.00    -0.207 F 
HETATM   11  F9  UNL     1     -35.255   3.622   4.394  1.00 20.00    -0.207 F 
ENDBRANCH   1   9
TORSDOF 2
ENDMDL
MODEL 8
REMARK VINA RESULT:      -5.4      1.508      2.525
REMARK  2 active torsions:
REMARK  status: ('A' for Active; 'I' for Inactive)
REMARK    1  A    between atoms: C1_1  and  C4_4 
REMARK    2  A    between atoms: C3_3  and  C4_4 
ROOT
HETATM    1  C4  UNL     1     -32.379   6.765   3.517  1.00 20.00     0.359 C 
HETATM    2  F10 UNL     1     -31.647   5.675   3.156  1.00 20.00    -0.192 F 
HETATM    3  F11 UNL     1     -31.607   7.460   4.397  1.00 20.00    -0.192 F 
ENDROOT
BRANCH   1   4
HETATM    4  C1  UNL     1     -33.674   6.326   4.125  1.00 20.00     0.238 C 
HETATM    5  C2  UNL     1     -34.569   5.526   3.537  1.00 20.00     0.307 C 
HETATM    6  F6  UNL     1     -35.712   5.185   4.166  1.00 20.00    -0.170 F 
HETATM    7  F7  UNL     1     -34.328   5.057   2.295  1.00 20.00    -0.170 F 
HETATM    8  F5  UNL     1     -33.970   6.788   5.363  1.00 20.00    -0.198 F 
ENDBRANCH   1   4
BRANCH   1   9
HETATM    9  C3  UNL     1     -32.590   7.623   2.289  1.00 20.00     0.432 C 
HETATM   10  F8  UNL     1     -33.072   8.839   2.644  1.00 20.00    -0.207 F 
HETATM   11  F9  UNL     1     -31.392   7.841   1.688  1.00 20.00    -0.207 F 
ENDBRANCH   1   9
TORSDOF 2
ENDMDL
MODEL 9
REMARK VINA RESULT:      -5.3      1.373      2.310
REMARK  2 active torsions:
REMARK  status: ('A' for Active; 'I' for Inactive)
REMARK    1  A    between atoms: C1_1  and  C4_4 
REMARK    2  A    between atoms: C3_3  and  C4_4 
ROOT
HETATM    1  C4  UNL     1     -34.392   5.546   4.009  1.00 20.00     0.359 C 
HETATM    2  F10 UNL     1     -35.684   5.952   3.866  1.00 20.00    -0.192 F 
HETATM    3  F11 UNL     1     -34.450   4.240   4.389  1.00 20.00    -0.192 F 
ENDROOT
BRANCH   1   4
HETATM    4  C1  UNL     1     -33.701   6.401   5.024  1.00 20.00     0.238 C 
HETATM    5  C2  UNL     1     -34.032   6.481   6.317  1.00 20.00     0.307 C 
HETATM    6  F6  UNL     1     -33.348   7.283   7.159  1.00 20.00    -0.170 F 
HETATM    7  F7  UNL     1     -35.068   5.753   6.786  1.00 20.00    -0.170 F 
HETATM    8  F5  UNL     1     -32.669   7.165   4.597  1.00 20.00    -0.198 F 
ENDBRANCH   1   4
BRANCH   1   9
HETATM    9  C3  UNL     1     -33.721   5.618   2.655  1.00 20.00     0.432 C 
HETATM   10  F8  UNL     1     -32.394   5.367   2.775  1.00 20.00    -0.207 F 
HETATM   11  F9  UNL     1     -34.228   4.646   1.855  1.00 20.00    -0.207 F 
ENDBRANCH   1   9
TORSDOF 2
ENDMDL
