MODEL 1
REMARK VINA RESULT:      -5.0      0.000      0.000
REMARK  1 active torsions:
REMARK  status: ('A' for Active; 'I' for Inactive)
REMARK    1  A    between atoms: C2_2  and  C4_4 
ROOT
HETATM    1  C4  UNL     1     -35.141   4.881   4.847  1.00 20.00     0.407 C 
HETATM    2  F5  UNL     1     -34.944   3.566   4.568  1.00 20.00    -0.167 F 
HETATM    3  F6  UNL     1     -35.515   4.952   6.150  1.00 20.00    -0.167 F 
HETATM    4  F7  UNL     1     -36.208   5.281   4.111  1.00 20.00    -0.167 F 
ENDROOT
BRANCH   1   5
HETATM    5  C2  UNL     1     -33.911   5.679   4.592  1.00 20.00     0.084 C 
HETATM    6  C1  UNL     1     -33.467   6.019   3.374  1.00 20.00    -0.026 C 
HETATM    7  C3  UNL     1     -32.231   6.820   3.134  1.00 20.00     0.036 C 
ENDBRANCH   1   5
TORSDOF 1
ENDMDL
MODEL 2
REMARK VINA RESULT:      -5.0      0.648      1.641
REMARK  1 active torsions:
REMARK  status: ('A' for Active; 'I' for Inactive)
REMARK    1  A    between atoms: C2_2  and  C4_4 
ROOT
HETATM    1  C4  UNL     1     -34.807   5.061   5.385  1.00 20.00     0.407 C 
HETATM    2  F5  UNL     1     -35.240   5.494   6.597  1.00 20.00    -0.167 F 
HETATM    3  F6  UNL     1     -35.893   5.026   4.571  1.00 20.00    -0.167 F 
HETATM    4  F7  UNL     1     -34.400   3.778   5.551  1.00 20.00    -0.167 F 
ENDROOT
BRANCH   1   5
HETATM    5  C2  UNL     1     -33.749   5.953   4.839  1.00 20.00     0.084 C 
HETATM    6  C1  UNL     1     -33.448   6.063   3.538  1.00 20.00    -0.026 C 
HETATM    7  C3  UNL     1     -32.383   6.963   3.004  1.00 20.00     0.036 C 
ENDBRANCH   1   5
TORSDOF 1
ENDMDL
MODEL 3
REMARK VINA RESULT:      -5.0      0.638      1.403
REMARK  1 active torsions:
REMARK  status: ('A' for Active; 'I' for Inactive)
REMARK    1  A    between atoms: C2_2  and  C4_4 
ROOT
HETATM    1  C4  UNL     1     -34.827   5.036   5.405  1.00 20.00     0.407 C 
HETATM    2  F5  UNL     1     -35.897   5.017   4.569  1.00 20.00    -0.167 F 
HETATM    3  F6  UNL     1     -34.432   3.747   5.566  1.00 20.00    -0.167 F 
HETATM    4  F7  UNL     1     -35.280   5.459   6.612  1.00 20.00    -0.167 F 
ENDROOT
BRANCH   1   5
HETATM    5  C2  UNL     1     -33.727   5.875   4.857  1.00 20.00     0.084 C 
HETATM    6  C1  UNL     1     -33.493   6.061   3.551  1.00 20.00    -0.026 C 
HETATM    7  C3  UNL     1     -32.385   6.906   3.017  1.00 20.00     0.036 C 
ENDBRANCH   1   5
TORSDOF 1
ENDMDL
MODEL 4
REMARK VINA RESULT:      -4.8      1.605      2.624
REMARK  1 active torsions:
REMARK  status: ('A' for Active; 'I' for Inactive)
REMARK    1  A    between atoms: C2_2  and  C4_4 
ROOT
HETATM    1  C4  UNL     1     -34.953   5.230   3.812  1.00 20.00     0.407 C 
HETATM    2  F5  UNL     1     -36.194   5.689   3.506  1.00 20.00    -0.167 F 
HETATM    3  F6  UNL     1     -34.315   5.011   2.634  1.00 20.00    -0.167 F 
HETATM    4  F7  UNL     1     -35.118   4.019   4.400  1.00 20.00    -0.167 F 
ENDROOT
BRANCH   1   5
HETATM    5  C2  UNL     1     -34.210   6.203   4.658  1.00 20.00     0.084 C 
HETATM    6  C1  UNL     1     -34.203   6.193   5.998  1.00 20.00    -0.026 C 
HETATM    7  C3  UNL     1     -33.452   7.177   6.832  1.00 20.00     0.036 C 
ENDBRANCH   1   5
TORSDOF 1
ENDMDL
MODEL 5
REMARK VINA RESULT:      -4.8      1.613      2.237
REMARK  1 active torsions:
REMARK  status: ('A' for Active; 'I' for Inactive)
REMARK    1  A    between atoms: C2_2  and  C4_4 
ROOT
HETATM    1  C4  UNL     1     -34.934   5.246   3.804  1.00 20.00     0.407 C 
HETATM    2  F5  UNL     1     -34.293   4.998   2.632  1.00 20.00    -0.167 F 
HETATM    3  F6  UNL     1     -35.098   4.049   4.422  1.00 20.00    -0.167 F 
HETATM    4  F7  UNL     1     -36.174   5.695   3.484  1.00 20.00    -0.167 F 
ENDROOT
BRANCH   1   5
HETATM    5  C2  UNL     1     -34.161   6.193   4.653  1.00 20.00     0.084 C 
HETATM    6  C1  UNL     1     -34.212   6.226   5.991  1.00 20.00    -0.026 C 
HETATM    7  C3  UNL     1     -33.431   7.182   6.830  1.00 20.00     0.036 C 
ENDBRANCH   1   5
TORSDOF 1
ENDMDL
MODEL 6
REMARK VINA RESULT:      -4.7      2.523      3.503
REMARK  1 active torsions:
REMARK  status: ('A' for Active; 'I' for Inactive)
REMARK    1  A    between atoms: C2_2  and  C4_4 
ROOT
HETATM    1  C4  UNL     1     -33.099   6.185   3.250  1.00 20.00     0.407 C 
HETATM    2  F5  UNL     1     -31.820   5.729   3.208  1.00 20.00    -0.167 F 
HETATM    3  F6  UNL     1     -33.795   5.486   2.317  1.00 20.00    -0.167 F 
HETATM    4  F7  UNL     1     -33.069   7.474   2.830  1.00 20.00    -0.167 F 
ENDROOT
BRANCH   1   5
HETATM    5  C2  UNL     1     -33.689   6.017   4.605  1.00 20.00     0.084 C 
HETATM    6  C1  UNL     1     -34.541   5.039   4.945  1.00 20.00    -0.026 C 
HETATM    7  C3  UNL     1     -35.125   4.884   6.310  1.00 20.00     0.036 C 
ENDBRANCH   1   5
TORSDOF 1
ENDMDL
MODEL 7
REMARK VINA RESULT:      -4.7      2.516      3.561
REMARK  1 active torsions:
REMARK  status: ('A' for Active; 'I' for Inactive)
REMARK    1  A    between atoms: C2_2  and  C4_4 
ROOT
HETATM    1  C4  UNL     1     -33.105   6.187   3.294  1.00 20.00     0.407 C 
HETATM    2  F5  UNL     1     -33.797   5.499   2.350  1.00 20.00    -0.167 F 
HETATM    3  F6  UNL     1     -33.088   7.486   2.898  1.00 20.00    -0.167 F 
HETATM    4  F7  UNL     1     -31.824   5.745   3.239  1.00 20.00    -0.167 F 
ENDROOT
BRANCH   1   5
HETATM    5  C2  UNL     1     -33.727   6.038   4.637  1.00 20.00     0.084 C 
HETATM    6  C1  UNL     1     -34.512   5.015   5.000  1.00 20.00    -0.026 C 
HETATM    7  C3  UNL     1     -35.129   4.879   6.352  1.00 20.00     0.036 C 
ENDBRANCH   1   5
TORSDOF 1
ENDMDL
MODEL 8
REMARK VINA RESULT:      -4.6      2.586      3.582
REMARK  1 active torsions:
REMARK  status: ('A' for Active; 'I' for Inactive)
REMARK    1  A    between atoms: C2_2  and  C4_4 
ROOT
HETATM    1  C4  UNL     1     -33.050   6.231   3.251  1.00 20.00     0.407 C 
HETATM    2  F5  UNL     1     -32.963   7.505   2.791  1.00 20.00    -0.167 F 
HETATM    3  F6  UNL     1     -31.787   5.736   3.278  1.00 20.00    -0.167 F 
HETATM    4  F7  UNL     1     -33.728   5.522   2.313  1.00 20.00    -0.167 F 
ENDROOT
BRANCH   1   5
HETATM    5  C2  UNL     1     -33.680   6.183   4.599  1.00 20.00     0.084 C 
HETATM    6  C1  UNL     1     -34.374   5.141   5.075  1.00 20.00    -0.026 C 
HETATM    7  C3  UNL     1     -35.000   5.108   6.429  1.00 20.00     0.036 C 
ENDBRANCH   1   5
TORSDOF 1
ENDMDL
MODEL 9
REMARK VINA RESULT:      -4.4      1.817      2.107
REMARK  1 active torsions:
REMARK  status: ('A' for Active; 'I' for Inactive)
REMARK    1  A    between atoms: C2_2  and  C4_4 
ROOT
HETATM    1  C4  UNL     1     -34.775   4.903   6.276  1.00 20.00     0.407 C 
HETATM    2  F5  UNL     1     -35.832   4.259   6.836  1.00 20.00    -0.167 F 
HETATM    3  F6  UNL     1     -33.655   4.286   6.730  1.00 20.00    -0.167 F 
HETATM    4  F7  UNL     1     -34.766   6.158   6.789  1.00 20.00    -0.167 F 
ENDROOT
BRANCH   1   5
HETATM    5  C2  UNL     1     -34.847   4.870   4.790  1.00 20.00     0.084 C 
HETATM    6  C1  UNL     1     -34.101   5.631   3.978  1.00 20.00    -0.026 C 
HETATM    7  C3  UNL     1     -34.185   5.587   2.488  1.00 20.00     0.036 C 
ENDBRANCH   1   5
TORSDOF 1
ENDMDL
