MODEL 1
REMARK VINA RESULT:      -4.7      0.000      0.000
REMARK  1 active torsions:
REMARK  status: ('A' for Active; 'I' for Inactive)
REMARK    1  A    between atoms: C3_3  and  C4_4 
ROOT
HETATM    1  C1  UNL     1     -34.291   5.180   5.620  1.00 20.00     0.197 C 
HETATM    2  C2  UNL     1     -35.171   4.793   4.463  1.00 20.00     0.197 C 
HETATM    3  C3  UNL     1     -33.927   6.581   3.877  1.00 20.00     0.369 C 
HETATM    4  O5  UNL     1     -33.902   6.517   5.310  1.00 20.00    -0.351 OA
HETATM    5  O6  UNL     1     -34.515   5.387   3.345  1.00 20.00    -0.351 OA
ENDROOT
BRANCH   3   6
HETATM    6  C4  UNL     1     -32.516   6.729   3.343  1.00 20.00     0.437 C 
HETATM    7  F7  UNL     1     -31.992   5.524   3.057  1.00 20.00    -0.166 F 
HETATM    8  F8  UNL     1     -32.512   7.472   2.220  1.00 20.00    -0.166 F 
HETATM    9  F9  UNL     1     -31.728   7.330   4.253  1.00 20.00    -0.166 F 
ENDBRANCH   3   6
TORSDOF 1
ENDMDL
MODEL 2
REMARK VINA RESULT:      -4.7      0.004      1.261
REMARK  1 active torsions:
REMARK  status: ('A' for Active; 'I' for Inactive)
REMARK    1  A    between atoms: C3_3  and  C4_4 
ROOT
HETATM    1  C1  UNL     1     -34.288   5.177   5.617  1.00 20.00     0.197 C 
HETATM    2  C2  UNL     1     -35.167   4.791   4.461  1.00 20.00     0.197 C 
HETATM    3  C3  UNL     1     -33.924   6.580   3.876  1.00 20.00     0.369 C 
HETATM    4  O5  UNL     1     -33.900   6.516   5.309  1.00 20.00    -0.351 OA
HETATM    5  O6  UNL     1     -34.511   5.387   3.343  1.00 20.00    -0.351 OA
ENDROOT
BRANCH   3   6
HETATM    6  C4  UNL     1     -32.513   6.730   3.342  1.00 20.00     0.437 C 
HETATM    7  F7  UNL     1     -31.727   7.332   4.252  1.00 20.00    -0.166 F 
HETATM    8  F8  UNL     1     -31.987   5.525   3.056  1.00 20.00    -0.166 F 
HETATM    9  F9  UNL     1     -32.511   7.473   2.220  1.00 20.00    -0.166 F 
ENDBRANCH   3   6
TORSDOF 1
ENDMDL
MODEL 3
REMARK VINA RESULT:      -4.5      2.775      3.781
REMARK  1 active torsions:
REMARK  status: ('A' for Active; 'I' for Inactive)
REMARK    1  A    between atoms: C3_3  and  C4_4 
ROOT
HETATM    1  C1  UNL     1     -33.979   5.451   2.860  1.00 20.00     0.197 C 
HETATM    2  C2  UNL     1     -33.188   6.511   3.576  1.00 20.00     0.197 C 
HETATM    3  C3  UNL     1     -34.759   5.693   4.973  1.00 20.00     0.369 C 
HETATM    4  O5  UNL     1     -35.165   5.332   3.646  1.00 20.00    -0.351 OA
HETATM    5  O6  UNL     1     -33.426   6.216   4.951  1.00 20.00    -0.351 OA
ENDROOT
BRANCH   3   6
HETATM    6  C4  UNL     1     -34.809   4.476   5.876  1.00 20.00     0.437 C 
HETATM    7  F7  UNL     1     -33.647   4.334   6.539  1.00 20.00    -0.166 F 
HETATM    8  F8  UNL     1     -35.801   4.597   6.777  1.00 20.00    -0.166 F 
HETATM    9  F9  UNL     1     -35.024   3.362   5.153  1.00 20.00    -0.166 F 
ENDBRANCH   3   6
TORSDOF 1
ENDMDL
MODEL 4
REMARK VINA RESULT:      -4.5      2.775      3.711
REMARK  1 active torsions:
REMARK  status: ('A' for Active; 'I' for Inactive)
REMARK    1  A    between atoms: C3_3  and  C4_4 
ROOT
HETATM    1  C1  UNL     1     -33.984   5.452   2.863  1.00 20.00     0.197 C 
HETATM    2  C2  UNL     1     -33.191   6.511   3.577  1.00 20.00     0.197 C 
HETATM    3  C3  UNL     1     -34.757   5.692   4.979  1.00 20.00     0.369 C 
HETATM    4  O5  UNL     1     -35.167   5.332   3.652  1.00 20.00    -0.351 OA
HETATM    5  O6  UNL     1     -33.424   6.215   4.953  1.00 20.00    -0.351 OA
ENDROOT
BRANCH   3   6
HETATM    6  C4  UNL     1     -34.804   4.475   5.881  1.00 20.00     0.437 C 
HETATM    7  F7  UNL     1     -35.802   4.589   6.775  1.00 20.00    -0.166 F 
HETATM    8  F8  UNL     1     -35.006   3.358   5.157  1.00 20.00    -0.166 F 
HETATM    9  F9  UNL     1     -33.645   4.342   6.553  1.00 20.00    -0.166 F 
ENDBRANCH   3   6
TORSDOF 1
ENDMDL
MODEL 5
REMARK VINA RESULT:      -3.9     11.420     12.480
REMARK  1 active torsions:
REMARK  status: ('A' for Active; 'I' for Inactive)
REMARK    1  A    between atoms: C3_3  and  C4_4 
ROOT
HETATM    1  C1  UNL     1     -34.763  17.189  -4.071  1.00 20.00     0.197 C 
HETATM    2  C2  UNL     1     -33.463  17.479  -4.769  1.00 20.00     0.197 C 
HETATM    3  C3  UNL     1     -33.264  15.555  -3.610  1.00 20.00     0.369 C 
HETATM    4  O5  UNL     1     -34.398  16.244  -3.066  1.00 20.00    -0.351 OA
HETATM    5  O6  UNL     1     -32.828  16.203  -4.810  1.00 20.00    -0.351 OA
ENDROOT
BRANCH   3   6
HETATM    6  C4  UNL     1     -33.634  14.117  -3.919  1.00 20.00     0.437 C 
HETATM    7  F7  UNL     1     -33.937  13.979  -5.222  1.00 20.00    -0.166 F 
HETATM    8  F8  UNL     1     -32.609  13.294  -3.631  1.00 20.00    -0.166 F 
HETATM    9  F9  UNL     1     -34.701  13.739  -3.192  1.00 20.00    -0.166 F 
ENDBRANCH   3   6
TORSDOF 1
ENDMDL
MODEL 6
REMARK VINA RESULT:      -3.9     11.455     12.514
REMARK  1 active torsions:
REMARK  status: ('A' for Active; 'I' for Inactive)
REMARK    1  A    between atoms: C3_3  and  C4_4 
ROOT
HETATM    1  C1  UNL     1     -34.756  17.242  -4.049  1.00 20.00     0.197 C 
HETATM    2  C2  UNL     1     -33.481  17.524  -4.795  1.00 20.00     0.197 C 
HETATM    3  C3  UNL     1     -33.240  15.614  -3.619  1.00 20.00     0.369 C 
HETATM    4  O5  UNL     1     -34.355  16.309  -3.046  1.00 20.00    -0.351 OA
HETATM    5  O6  UNL     1     -32.845  16.248  -4.842  1.00 20.00    -0.351 OA
ENDROOT
BRANCH   3   6
HETATM    6  C4  UNL     1     -33.618  14.173  -3.898  1.00 20.00     0.437 C 
HETATM    7  F7  UNL     1     -32.587  13.354  -3.623  1.00 20.00    -0.166 F 
HETATM    8  F8  UNL     1     -34.667  13.805  -3.139  1.00 20.00    -0.166 F 
HETATM    9  F9  UNL     1     -33.952  14.016  -5.192  1.00 20.00    -0.166 F 
ENDBRANCH   3   6
TORSDOF 1
ENDMDL
MODEL 7
REMARK VINA RESULT:      -3.8     11.378     12.409
REMARK  1 active torsions:
REMARK  status: ('A' for Active; 'I' for Inactive)
REMARK    1  A    between atoms: C3_3  and  C4_4 
ROOT
HETATM    1  C1  UNL     1     -34.491  17.239  -3.584  1.00 20.00     0.197 C 
HETATM    2  C2  UNL     1     -33.562  17.478  -4.742  1.00 20.00     0.197 C 
HETATM    3  C3  UNL     1     -33.041  15.508  -3.774  1.00 20.00     0.369 C 
HETATM    4  O5  UNL     1     -33.816  16.242  -2.816  1.00 20.00    -0.351 OA
HETATM    5  O6  UNL     1     -33.080  16.170  -5.044  1.00 20.00    -0.351 OA
ENDROOT
BRANCH   3   6
HETATM    6  C4  UNL     1     -33.595  14.105  -3.920  1.00 20.00     0.437 C 
HETATM    7  F7  UNL     1     -34.638  13.922  -3.091  1.00 20.00    -0.166 F 
HETATM    8  F8  UNL     1     -34.013  13.892  -5.182  1.00 20.00    -0.166 F 
HETATM    9  F9  UNL     1     -32.652  13.192  -3.625  1.00 20.00    -0.166 F 
ENDBRANCH   3   6
TORSDOF 1
ENDMDL
MODEL 8
REMARK VINA RESULT:      -3.8     11.338     12.113
REMARK  1 active torsions:
REMARK  status: ('A' for Active; 'I' for Inactive)
REMARK    1  A    between atoms: C3_3  and  C4_4 
ROOT
HETATM    1  C1  UNL     1     -35.680  14.967  -5.528  1.00 20.00     0.197 C 
HETATM    2  C2  UNL     1     -36.283  14.341  -4.301  1.00 20.00     0.197 C 
HETATM    3  C3  UNL     1     -34.035  14.195  -4.174  1.00 20.00     0.369 C 
HETATM    4  O5  UNL     1     -34.353  14.444  -5.551  1.00 20.00    -0.351 OA
HETATM    5  O6  UNL     1     -35.206  14.363  -3.365  1.00 20.00    -0.351 OA
ENDROOT
BRANCH   3   6
HETATM    6  C4  UNL     1     -32.961  15.159  -3.711  1.00 20.00     0.437 C 
HETATM    7  F7  UNL     1     -33.370  15.832  -2.621  1.00 20.00    -0.166 F 
HETATM    8  F8  UNL     1     -31.832  14.493  -3.401  1.00 20.00    -0.166 F 
HETATM    9  F9  UNL     1     -32.677  16.049  -4.679  1.00 20.00    -0.166 F 
ENDBRANCH   3   6
TORSDOF 1
ENDMDL
MODEL 9
REMARK VINA RESULT:      -3.8      9.354     10.162
REMARK  1 active torsions:
REMARK  status: ('A' for Active; 'I' for Inactive)
REMARK    1  A    between atoms: C3_3  and  C4_4 
ROOT
HETATM    1  C1  UNL     1     -42.240   7.094  -2.715  1.00 20.00     0.197 C 
HETATM    2  C2  UNL     1     -42.890   5.789  -3.083  1.00 20.00     0.197 C 
HETATM    3  C3  UNL     1     -41.366   5.421  -1.461  1.00 20.00     0.369 C 
HETATM    4  O5  UNL     1     -41.047   6.693  -2.042  1.00 20.00    -0.351 OA
HETATM    5  O6  UNL     1     -42.638   4.970  -1.943  1.00 20.00    -0.351 OA
ENDROOT
BRANCH   3   6
HETATM    6  C4  UNL     1     -41.414   5.541   0.049  1.00 20.00     0.437 C 
HETATM    7  F7  UNL     1     -42.524   6.196   0.435  1.00 20.00    -0.166 F 
HETATM    8  F8  UNL     1     -41.420   4.322   0.619  1.00 20.00    -0.166 F 
HETATM    9  F9  UNL     1     -40.342   6.217   0.502  1.00 20.00    -0.166 F 
ENDBRANCH   3   6
TORSDOF 1
ENDMDL
