MODEL 1
REMARK VINA RESULT:      -4.3      0.000      0.000
REMARK  1 active torsions:
REMARK  status: ('A' for Active; 'I' for Inactive)
REMARK    1  A    between atoms: C1_1  and  C6_6 
ROOT
HETATM    1  C2  UNL     1     -34.595  17.247  -4.008  1.00 20.00     0.005 C 
HETATM    2  C3  UNL     1     -35.840  16.348  -3.957  1.00 20.00     0.006 C 
HETATM    3  C4  UNL     1     -33.121  15.290  -3.497  1.00 20.00     0.016 C 
HETATM    4  C5  UNL     1     -34.682  16.138  -1.902  1.00 20.00     0.010 C 
HETATM    5  C6  UNL     1     -34.342  14.357  -3.428  1.00 20.00     0.051 C 
HETATM    6  C7  UNL     1     -33.676  16.619  -2.948  1.00 20.00    -0.013 C 
HETATM    7  C8  UNL     1     -35.459  15.286  -2.908  1.00 20.00    -0.003 C 
ENDROOT
BRANCH   5   8
HETATM    8  C1  UNL     1     -34.662  13.702  -4.735  1.00 20.00     0.236 C 
HETATM    9  O9  UNL     1     -34.799  12.490  -4.867  1.00 20.00    -0.306 OA
ENDBRANCH   5   8
TORSDOF 1
ENDMDL
MODEL 2
REMARK VINA RESULT:      -4.1     11.306     12.454
REMARK  1 active torsions:
REMARK  status: ('A' for Active; 'I' for Inactive)
REMARK    1  A    between atoms: C1_1  and  C6_6 
ROOT
HETATM    1  C2  UNL     1     -42.507   5.431   0.442  1.00 20.00     0.005 C 
HETATM    2  C3  UNL     1     -43.032   4.756  -0.834  1.00 20.00     0.006 C 
HETATM    3  C4  UNL     1     -41.198   7.069  -0.925  1.00 20.00     0.016 C 
HETATM    4  C5  UNL     1     -40.665   4.743  -0.900  1.00 20.00     0.010 C 
HETATM    5  C6  UNL     1     -41.693   6.417  -2.226  1.00 20.00     0.051 C 
HETATM    6  C7  UNL     1     -41.090   5.871   0.039  1.00 20.00    -0.013 C 
HETATM    7  C8  UNL     1     -41.868   4.936  -1.827  1.00 20.00    -0.003 C 
ENDROOT
BRANCH   5   8
HETATM    8  C1  UNL     1     -42.937   7.046  -2.769  1.00 20.00     0.236 C 
HETATM    9  O9  UNL     1     -43.417   6.761  -3.861  1.00 20.00    -0.306 OA
ENDBRANCH   5   8
TORSDOF 1
ENDMDL
MODEL 3
REMARK VINA RESULT:      -4.1     11.563     12.574
REMARK  1 active torsions:
REMARK  status: ('A' for Active; 'I' for Inactive)
REMARK    1  A    between atoms: C1_1  and  C6_6 
ROOT
HETATM    1  C2  UNL     1     -34.437   4.644   5.613  1.00 20.00     0.005 C 
HETATM    2  C3  UNL     1     -34.106   6.142   5.689  1.00 20.00     0.006 C 
HETATM    3  C4  UNL     1     -33.913   4.620   3.165  1.00 20.00     0.016 C 
HETATM    4  C5  UNL     1     -35.776   5.829   4.040  1.00 20.00     0.010 C 
HETATM    5  C6  UNL     1     -33.580   6.121   3.196  1.00 20.00     0.051 C 
HETATM    6  C7  UNL     1     -35.042   4.498   4.207  1.00 20.00    -0.013 C 
HETATM    7  C8  UNL     1     -34.517   6.661   4.298  1.00 20.00    -0.003 C 
ENDROOT
BRANCH   5   8
HETATM    8  C1  UNL     1     -32.132   6.403   3.446  1.00 20.00     0.236 C 
HETATM    9  O9  UNL     1     -31.655   7.532   3.455  1.00 20.00    -0.306 OA
ENDBRANCH   5   8
TORSDOF 1
ENDMDL
MODEL 4
REMARK VINA RESULT:      -4.1      1.629      2.812
REMARK  1 active torsions:
REMARK  status: ('A' for Active; 'I' for Inactive)
REMARK    1  A    between atoms: C1_1  and  C6_6 
ROOT
HETATM    1  C2  UNL     1     -33.916  13.674  -3.760  1.00 20.00     0.005 C 
HETATM    2  C3  UNL     1     -34.506  13.799  -5.173  1.00 20.00     0.006 C 
HETATM    3  C4  UNL     1     -35.354  15.559  -2.958  1.00 20.00     0.016 C 
HETATM    4  C5  UNL     1     -33.607  15.900  -4.549  1.00 20.00     0.010 C 
HETATM    5  C6  UNL     1     -35.963  15.724  -4.360  1.00 20.00     0.051 C 
HETATM    6  C7  UNL     1     -33.906  15.128  -3.263  1.00 20.00    -0.013 C 
HETATM    7  C8  UNL     1     -34.806  15.305  -5.292  1.00 20.00    -0.003 C 
ENDROOT
BRANCH   5   8
HETATM    8  C1  UNL     1     -37.215  14.930  -4.560  1.00 20.00     0.236 C 
HETATM    9  O9  UNL     1     -37.694  14.197  -3.701  1.00 20.00    -0.306 OA
ENDBRANCH   5   8
TORSDOF 1
ENDMDL
MODEL 5
REMARK VINA RESULT:      -4.1      1.601      2.246
REMARK  1 active torsions:
REMARK  status: ('A' for Active; 'I' for Inactive)
REMARK    1  A    between atoms: C1_1  and  C6_6 
ROOT
HETATM    1  C2  UNL     1     -33.803  16.883  -3.343  1.00 20.00     0.005 C 
HETATM    2  C3  UNL     1     -34.474  15.936  -2.337  1.00 20.00     0.006 C 
HETATM    3  C4  UNL     1     -34.722  15.555  -5.255  1.00 20.00     0.016 C 
HETATM    4  C5  UNL     1     -33.090  14.651  -3.766  1.00 20.00     0.010 C 
HETATM    5  C6  UNL     1     -35.403  14.578  -4.281  1.00 20.00     0.051 C 
HETATM    6  C7  UNL     1     -33.434  15.945  -4.504  1.00 20.00    -0.013 C 
HETATM    7  C8  UNL     1     -34.450  14.580  -3.067  1.00 20.00    -0.003 C 
ENDROOT
BRANCH   5   8
HETATM    8  C1  UNL     1     -36.809  14.960  -3.944  1.00 20.00     0.236 C 
HETATM    9  O9  UNL     1     -37.708  14.144  -3.770  1.00 20.00    -0.306 OA
ENDBRANCH   5   8
TORSDOF 1
ENDMDL
MODEL 6
REMARK VINA RESULT:      -4.0      0.975      1.812
REMARK  1 active torsions:
REMARK  status: ('A' for Active; 'I' for Inactive)
REMARK    1  A    between atoms: C1_1  and  C6_6 
ROOT
HETATM    1  C2  UNL     1     -35.894  16.557  -3.197  1.00 20.00     0.005 C 
HETATM    2  C3  UNL     1     -34.865  15.942  -2.238  1.00 20.00     0.006 C 
HETATM    3  C4  UNL     1     -34.795  15.436  -5.147  1.00 20.00     0.016 C 
HETATM    4  C5  UNL     1     -33.701  17.156  -3.905  1.00 20.00     0.010 C 
HETATM    5  C6  UNL     1     -33.740  14.807  -4.222  1.00 20.00     0.051 C 
HETATM    6  C7  UNL     1     -35.073  16.795  -4.475  1.00 20.00    -0.013 C 
HETATM    7  C8  UNL     1     -33.592  15.857  -3.101  1.00 20.00    -0.003 C 
ENDROOT
BRANCH   5   8
HETATM    8  C1  UNL     1     -34.120  13.447  -3.727  1.00 20.00     0.236 C 
HETATM    9  O9  UNL     1     -34.897  12.706  -4.318  1.00 20.00    -0.306 OA
ENDBRANCH   5   8
TORSDOF 1
ENDMDL
MODEL 7
REMARK VINA RESULT:      -4.0      0.932      2.108
REMARK  1 active torsions:
REMARK  status: ('A' for Active; 'I' for Inactive)
REMARK    1  A    between atoms: C1_1  and  C6_6 
ROOT
HETATM    1  C2  UNL     1     -34.766  16.295  -1.791  1.00 20.00     0.005 C 
HETATM    2  C3  UNL     1     -33.621  15.908  -2.738  1.00 20.00     0.006 C 
HETATM    3  C4  UNL     1     -36.435  15.224  -3.318  1.00 20.00     0.016 C 
HETATM    4  C5  UNL     1     -35.209  17.168  -3.962  1.00 20.00     0.010 C 
HETATM    5  C6  UNL     1     -35.319  14.824  -4.297  1.00 20.00     0.051 C 
HETATM    6  C7  UNL     1     -35.932  16.568  -2.755  1.00 20.00    -0.013 C 
HETATM    7  C8  UNL     1     -34.286  15.958  -4.127  1.00 20.00    -0.003 C 
ENDROOT
BRANCH   5   8
HETATM    8  C1  UNL     1     -34.764  13.459  -4.039  1.00 20.00     0.236 C 
HETATM    9  O9  UNL     1     -34.769  12.559  -4.872  1.00 20.00    -0.306 OA
ENDBRANCH   5   8
TORSDOF 1
ENDMDL
MODEL 8
REMARK VINA RESULT:      -4.0     11.916     12.883
REMARK  1 active torsions:
REMARK  status: ('A' for Active; 'I' for Inactive)
REMARK    1  A    between atoms: C1_1  and  C6_6 
ROOT
HETATM    1  C2  UNL     1     -43.135   6.068   0.066  1.00 20.00     0.005 C 
HETATM    2  C3  UNL     1     -42.546   4.689   0.397  1.00 20.00     0.006 C 
HETATM    3  C4  UNL     1     -41.913   6.101  -2.119  1.00 20.00     0.016 C 
HETATM    4  C5  UNL     1     -40.758   6.182  -0.031  1.00 20.00     0.010 C 
HETATM    5  C6  UNL     1     -41.295   4.724  -1.821  1.00 20.00     0.051 C 
HETATM    6  C7  UNL     1     -42.001   6.745  -0.722  1.00 20.00    -0.013 C 
HETATM    7  C8  UNL     1     -41.164   4.728  -0.284  1.00 20.00    -0.003 C 
ENDROOT
BRANCH   5   8
HETATM    8  C1  UNL     1     -42.102   3.584  -2.355  1.00 20.00     0.236 C 
HETATM    9  O9  UNL     1     -41.624   2.669  -3.017  1.00 20.00    -0.306 OA
ENDBRANCH   5   8
TORSDOF 1
ENDMDL
MODEL 9
REMARK VINA RESULT:      -4.0      1.399      1.727
REMARK  1 active torsions:
REMARK  status: ('A' for Active; 'I' for Inactive)
REMARK    1  A    between atoms: C1_1  and  C6_6 
ROOT
HETATM    1  C2  UNL     1     -33.242  16.618  -5.150  1.00 20.00     0.005 C 
HETATM    2  C3  UNL     1     -34.321  15.741  -5.803  1.00 20.00     0.006 C 
HETATM    3  C4  UNL     1     -33.850  15.736  -2.888  1.00 20.00     0.016 C 
HETATM    4  C5  UNL     1     -35.353  17.092  -4.154  1.00 20.00     0.010 C 
HETATM    5  C6  UNL     1     -34.947  14.850  -3.501  1.00 20.00     0.051 C 
HETATM    6  C7  UNL     1     -33.870  16.982  -3.795  1.00 20.00    -0.013 C 
HETATM    7  C8  UNL     1     -35.415  15.671  -4.721  1.00 20.00    -0.003 C 
ENDROOT
BRANCH   5   8
HETATM    8  C1  UNL     1     -34.474  13.474  -3.847  1.00 20.00     0.236 C 
HETATM    9  O9  UNL     1     -33.305  13.117  -3.748  1.00 20.00    -0.306 OA
ENDBRANCH   5   8
TORSDOF 1
ENDMDL
