MODEL 1
REMARK VINA RESULT:      -3.9      0.000      0.000
REMARK  2 active torsions:
REMARK  status: ('A' for Active; 'I' for Inactive)
REMARK    1  A    between atoms: C2_2  and  C6_6 
REMARK    2  A    between atoms: C2_2  and  O9_9 
ROOT
HETATM    1  C1  UNL     1     -34.461  13.644  -4.295  1.00 20.00     0.079 C 
HETATM    2  C3  UNL     1     -32.367  14.703  -3.581  1.00 20.00     0.042 C 
HETATM    3  C4  UNL     1     -34.592  15.521  -2.723  1.00 20.00     0.042 C 
HETATM    4  C6  UNL     1     -33.842  14.940  -3.930  1.00 20.00     0.129 C 
HETATM    5  N7  UNL     1     -34.943  12.627  -4.579  1.00 20.00    -0.196 NA
ENDROOT
BRANCH   4   6
HETATM    6  C2  UNL     1     -33.941  15.909  -5.111  1.00 20.00     0.280 C 
HETATM    7  O8  UNL     1     -34.741  15.804  -6.033  1.00 20.00    -0.263 OA
BRANCH   6   8
HETATM    8  O9  UNL     1     -33.012  16.905  -4.991  1.00 20.00    -0.325 OA
HETATM    9  C5  UNL     1     -33.519  18.240  -5.070  1.00 20.00     0.213 C 
ENDBRANCH   6   8
ENDBRANCH   4   6
TORSDOF 2
ENDMDL
MODEL 2
REMARK VINA RESULT:      -3.9      1.736      2.595
REMARK  2 active torsions:
REMARK  status: ('A' for Active; 'I' for Inactive)
REMARK    1  A    between atoms: C2_2  and  C6_6 
REMARK    2  A    between atoms: C2_2  and  O9_9 
ROOT
HETATM    1  C1  UNL     1     -34.441  13.659  -4.445  1.00 20.00     0.079 C 
HETATM    2  C3  UNL     1     -33.903  15.892  -5.309  1.00 20.00     0.042 C 
HETATM    3  C4  UNL     1     -32.456  14.796  -3.561  1.00 20.00     0.042 C 
HETATM    4  C6  UNL     1     -33.890  14.984  -4.072  1.00 20.00     0.129 C 
HETATM    5  N7  UNL     1     -34.870  12.623  -4.740  1.00 20.00    -0.196 NA
ENDROOT
BRANCH   4   6
HETATM    6  C2  UNL     1     -34.751  15.608  -2.970  1.00 20.00     0.280 C 
HETATM    7  O8  UNL     1     -35.968  15.493  -2.888  1.00 20.00    -0.263 OA
BRANCH   6   8
HETATM    8  O9  UNL     1     -33.970  16.309  -2.093  1.00 20.00    -0.325 OA
HETATM    9  C5  UNL     1     -34.587  16.653  -0.849  1.00 20.00     0.213 C 
ENDBRANCH   6   8
ENDBRANCH   4   6
TORSDOF 2
ENDMDL
MODEL 3
REMARK VINA RESULT:      -3.8      1.474      2.572
REMARK  2 active torsions:
REMARK  status: ('A' for Active; 'I' for Inactive)
REMARK    1  A    between atoms: C2_2  and  C6_6 
REMARK    2  A    between atoms: C2_2  and  O9_9 
ROOT
HETATM    1  C1  UNL     1     -34.806  13.689  -4.917  1.00 20.00     0.079 C 
HETATM    2  C3  UNL     1     -36.086  15.768  -5.162  1.00 20.00     0.042 C 
HETATM    3  C4  UNL     1     -34.340  15.113  -6.858  1.00 20.00     0.042 C 
HETATM    4  C6  UNL     1     -34.722  15.097  -5.372  1.00 20.00     0.129 C 
HETATM    5  N7  UNL     1     -34.875  12.587  -4.561  1.00 20.00    -0.196 NA
ENDROOT
BRANCH   4   6
HETATM    6  C2  UNL     1     -33.656  15.838  -4.560  1.00 20.00     0.280 C 
HETATM    7  O8  UNL     1     -32.824  16.602  -5.037  1.00 20.00    -0.263 OA
BRANCH   6   8
HETATM    8  O9  UNL     1     -33.765  15.528  -3.233  1.00 20.00    -0.325 OA
HETATM    9  C5  UNL     1     -33.806  16.642  -2.336  1.00 20.00     0.213 C 
ENDBRANCH   6   8
ENDBRANCH   4   6
TORSDOF 2
ENDMDL
MODEL 4
REMARK VINA RESULT:      -3.8      2.262      3.216
REMARK  2 active torsions:
REMARK  status: ('A' for Active; 'I' for Inactive)
REMARK    1  A    between atoms: C2_2  and  C6_6 
REMARK    2  A    between atoms: C2_2  and  O9_9 
ROOT
HETATM    1  C1  UNL     1     -33.461  15.900  -4.648  1.00 20.00     0.079 C 
HETATM    2  C3  UNL     1     -34.861  15.164  -2.773  1.00 20.00     0.042 C 
HETATM    3  C4  UNL     1     -32.785  13.888  -3.419  1.00 20.00     0.042 C 
HETATM    4  C6  UNL     1     -33.976  14.705  -3.940  1.00 20.00     0.129 C 
HETATM    5  N7  UNL     1     -33.058  16.838  -5.200  1.00 20.00    -0.196 NA
ENDROOT
BRANCH   4   6
HETATM    6  C2  UNL     1     -34.802  13.850  -4.905  1.00 20.00     0.280 C 
HETATM    7  O8  UNL     1     -34.800  12.624  -4.926  1.00 20.00    -0.263 OA
BRANCH   6   8
HETATM    8  O9  UNL     1     -35.540  14.646  -5.736  1.00 20.00    -0.325 OA
HETATM    9  C5  UNL     1     -35.454  14.337  -7.130  1.00 20.00     0.213 C 
ENDBRANCH   6   8
ENDBRANCH   4   6
TORSDOF 2
ENDMDL
MODEL 5
REMARK VINA RESULT:      -3.8      0.804      1.361
REMARK  2 active torsions:
REMARK  status: ('A' for Active; 'I' for Inactive)
REMARK    1  A    between atoms: C2_2  and  C6_6 
REMARK    2  A    between atoms: C2_2  and  O9_9 
ROOT
HETATM    1  C1  UNL     1     -34.414  13.671  -4.358  1.00 20.00     0.079 C 
HETATM    2  C3  UNL     1     -32.347  14.672  -3.495  1.00 20.00     0.042 C 
HETATM    3  C4  UNL     1     -34.600  15.425  -2.654  1.00 20.00     0.042 C 
HETATM    4  C6  UNL     1     -33.810  14.935  -3.875  1.00 20.00     0.129 C 
HETATM    5  N7  UNL     1     -34.885  12.680  -4.734  1.00 20.00    -0.196 NA
ENDROOT
BRANCH   4   6
HETATM    6  C2  UNL     1     -33.870  15.991  -4.982  1.00 20.00     0.280 C 
HETATM    7  O8  UNL     1     -32.955  16.757  -5.264  1.00 20.00    -0.263 OA
BRANCH   6   8
HETATM    8  O9  UNL     1     -35.084  15.957  -5.610  1.00 20.00    -0.325 OA
HETATM    9  C5  UNL     1     -35.545  17.204  -6.139  1.00 20.00     0.213 C 
ENDBRANCH   6   8
ENDBRANCH   4   6
TORSDOF 2
ENDMDL
MODEL 6
REMARK VINA RESULT:      -3.7      2.342      3.070
REMARK  2 active torsions:
REMARK  status: ('A' for Active; 'I' for Inactive)
REMARK    1  A    between atoms: C2_2  and  C6_6 
REMARK    2  A    between atoms: C2_2  and  O9_9 
ROOT
HETATM    1  C1  UNL     1     -36.889  14.613  -3.936  1.00 20.00     0.079 C 
HETATM    2  C3  UNL     1     -34.692  14.944  -2.896  1.00 20.00     0.042 C 
HETATM    3  C4  UNL     1     -35.421  16.346  -4.860  1.00 20.00     0.042 C 
HETATM    4  C6  UNL     1     -35.474  14.955  -4.216  1.00 20.00     0.129 C 
HETATM    5  N7  UNL     1     -37.996  14.347  -3.714  1.00 20.00    -0.196 NA
ENDROOT
BRANCH   4   6
HETATM    6  C2  UNL     1     -34.875  13.922  -5.175  1.00 20.00     0.280 C 
HETATM    7  O8  UNL     1     -34.744  12.730  -4.922  1.00 20.00    -0.263 OA
BRANCH   6   8
HETATM    8  O9  UNL     1     -34.507  14.518  -6.349  1.00 20.00    -0.325 OA
HETATM    9  C5  UNL     1     -35.364  14.267  -7.468  1.00 20.00     0.213 C 
ENDBRANCH   6   8
ENDBRANCH   4   6
TORSDOF 2
ENDMDL
MODEL 7
REMARK VINA RESULT:      -3.7      2.630      3.388
REMARK  2 active torsions:
REMARK  status: ('A' for Active; 'I' for Inactive)
REMARK    1  A    between atoms: C2_2  and  C6_6 
REMARK    2  A    between atoms: C2_2  and  O9_9 
ROOT
HETATM    1  C1  UNL     1     -37.354  14.623  -4.089  1.00 20.00     0.079 C 
HETATM    2  C3  UNL     1     -35.633  16.371  -4.116  1.00 20.00     0.042 C 
HETATM    3  C4  UNL     1     -35.996  14.879  -6.115  1.00 20.00     0.042 C 
HETATM    4  C6  UNL     1     -35.997  14.955  -4.582  1.00 20.00     0.129 C 
HETATM    5  N7  UNL     1     -38.418  14.367  -3.704  1.00 20.00    -0.196 NA
ENDROOT
BRANCH   4   6
HETATM    6  C2  UNL     1     -34.984  13.954  -4.018  1.00 20.00     0.280 C 
HETATM    7  O8  UNL     1     -34.993  12.750  -4.248  1.00 20.00    -0.263 OA
BRANCH   6   8
HETATM    8  O9  UNL     1     -34.073  14.593  -3.224  1.00 20.00    -0.325 OA
HETATM    9  C5  UNL     1     -32.704  14.457  -3.616  1.00 20.00     0.213 C 
ENDBRANCH   6   8
ENDBRANCH   4   6
TORSDOF 2
ENDMDL
MODEL 8
REMARK VINA RESULT:      -3.7      2.475      3.348
REMARK  2 active torsions:
REMARK  status: ('A' for Active; 'I' for Inactive)
REMARK    1  A    between atoms: C2_2  and  C6_6 
REMARK    2  A    between atoms: C2_2  and  O9_9 
ROOT
HETATM    1  C1  UNL     1     -33.881  15.805  -4.869  1.00 20.00     0.079 C 
HETATM    2  C3  UNL     1     -34.242  15.818  -2.443  1.00 20.00     0.042 C 
HETATM    3  C4  UNL     1     -32.752  14.096  -3.523  1.00 20.00     0.042 C 
HETATM    4  C6  UNL     1     -34.027  14.935  -3.679  1.00 20.00     0.129 C 
HETATM    5  N7  UNL     1     -33.766  16.489  -5.799  1.00 20.00    -0.196 NA
ENDROOT
BRANCH   4   6
HETATM    6  C2  UNL     1     -35.232  14.008  -3.863  1.00 20.00     0.280 C 
HETATM    7  O8  UNL     1     -35.169  12.861  -4.291  1.00 20.00    -0.263 OA
BRANCH   6   8
HETATM    8  O9  UNL     1     -36.383  14.639  -3.483  1.00 20.00    -0.325 OA
HETATM    9  C5  UNL     1     -37.413  14.704  -4.474  1.00 20.00     0.213 C 
ENDBRANCH   6   8
ENDBRANCH   4   6
TORSDOF 2
ENDMDL
MODEL 9
REMARK VINA RESULT:      -3.7      1.984      2.397
REMARK  2 active torsions:
REMARK  status: ('A' for Active; 'I' for Inactive)
REMARK    1  A    between atoms: C2_2  and  C6_6 
REMARK    2  A    between atoms: C2_2  and  O9_9 
ROOT
HETATM    1  C1  UNL     1     -36.705  14.597  -3.786  1.00 20.00     0.079 C 
HETATM    2  C3  UNL     1     -34.465  13.596  -3.774  1.00 20.00     0.042 C 
HETATM    3  C4  UNL     1     -34.934  15.740  -2.533  1.00 20.00     0.042 C 
HETATM    4  C6  UNL     1     -35.257  14.911  -3.784  1.00 20.00     0.129 C 
HETATM    5  N7  UNL     1     -37.838  14.348  -3.787  1.00 20.00    -0.196 NA
ENDROOT
BRANCH   4   6
HETATM    6  C2  UNL     1     -34.901  15.714  -5.038  1.00 20.00     0.280 C 
HETATM    7  O8  UNL     1     -35.223  16.880  -5.233  1.00 20.00    -0.263 OA
BRANCH   6   8
HETATM    8  O9  UNL     1     -34.176  14.947  -5.907  1.00 20.00    -0.325 OA
HETATM    9  C5  UNL     1     -34.602  14.983  -7.272  1.00 20.00     0.213 C 
ENDBRANCH   6   8
ENDBRANCH   4   6
TORSDOF 2
ENDMDL
