MODEL 1
REMARK VINA RESULT:      -5.2      0.000      0.000
REMARK  0 active torsions:
REMARK  status: ('A' for Active; 'I' for Inactive)
ROOT
HETATM    1  C1  UNL     1     -34.608  15.679  -2.563  1.00 20.00     0.009 C 
HETATM    2  C2  UNL     1     -33.171  16.261  -4.534  1.00 20.00     0.009 C 
HETATM    3  C3  UNL     1     -35.662  16.508  -4.683  1.00 20.00     0.009 C 
HETATM    4  C4  UNL     1     -33.449  13.866  -3.849  1.00 20.00     0.048 C 
HETATM    5  C5  UNL     1     -35.940  14.112  -3.998  1.00 20.00     0.048 C 
HETATM    6  C6  UNL     1     -34.502  14.694  -5.968  1.00 20.00     0.048 C 
HETATM    7  C7  UNL     1     -33.328  15.311  -3.334  1.00 20.00    -0.011 C 
HETATM    8  C8  UNL     1     -35.836  15.558  -3.484  1.00 20.00    -0.011 C 
HETATM    9  C9  UNL     1     -34.389  16.145  -5.469  1.00 20.00    -0.011 C 
HETATM   10  C10 UNL     1     -34.667  13.746  -4.773  1.00 20.00     0.104 C 
HETATM   11  F11 UNL     1     -34.766  12.471  -5.222  1.00 20.00    -0.243 F 
ENDROOT
TORSDOF 0
ENDMDL
MODEL 2
REMARK VINA RESULT:      -5.2      0.018      2.276
REMARK  0 active torsions:
REMARK  status: ('A' for Active; 'I' for Inactive)
ROOT
HETATM    1  C1  UNL     1     -33.171  16.263  -4.561  1.00 20.00     0.009 C 
HETATM    2  C2  UNL     1     -35.664  16.503  -4.704  1.00 20.00     0.009 C 
HETATM    3  C3  UNL     1     -34.603  15.688  -2.582  1.00 20.00     0.009 C 
HETATM    4  C4  UNL     1     -34.504  14.686  -5.983  1.00 20.00     0.048 C 
HETATM    5  C5  UNL     1     -33.443  13.870  -3.862  1.00 20.00     0.048 C 
HETATM    6  C6  UNL     1     -35.935  14.111  -4.006  1.00 20.00     0.048 C 
HETATM    7  C7  UNL     1     -34.392  16.138  -5.490  1.00 20.00    -0.011 C 
HETATM    8  C8  UNL     1     -33.324  15.317  -3.356  1.00 20.00    -0.011 C 
HETATM    9  C9  UNL     1     -35.833  15.560  -3.499  1.00 20.00    -0.011 C 
HETATM   10  C10 UNL     1     -34.664  13.744  -4.783  1.00 20.00     0.104 C 
HETATM   11  F11 UNL     1     -34.762  12.466  -5.225  1.00 20.00    -0.243 F 
ENDROOT
TORSDOF 0
ENDMDL
MODEL 3
REMARK VINA RESULT:      -5.1      0.024      2.266
REMARK  0 active torsions:
REMARK  status: ('A' for Active; 'I' for Inactive)
ROOT
HETATM    1  C1  UNL     1     -35.692  16.484  -4.676  1.00 20.00     0.009 C 
HETATM    2  C2  UNL     1     -34.612  15.669  -2.564  1.00 20.00     0.009 C 
HETATM    3  C3  UNL     1     -33.196  16.266  -4.547  1.00 20.00     0.009 C 
HETATM    4  C4  UNL     1     -35.936  14.086  -3.987  1.00 20.00     0.048 C 
HETATM    5  C5  UNL     1     -34.521  14.682  -5.969  1.00 20.00     0.048 C 
HETATM    6  C6  UNL     1     -33.442  13.867  -3.858  1.00 20.00     0.048 C 
HETATM    7  C7  UNL     1     -35.845  15.534  -3.475  1.00 20.00    -0.011 C 
HETATM    8  C8  UNL     1     -34.421  16.134  -5.471  1.00 20.00    -0.011 C 
HETATM    9  C9  UNL     1     -33.333  15.314  -3.345  1.00 20.00    -0.011 C 
HETATM   10  C10 UNL     1     -34.667  13.734  -4.772  1.00 20.00     0.104 C 
HETATM   11  F11 UNL     1     -34.755  12.457  -5.219  1.00 20.00    -0.243 F 
ENDROOT
TORSDOF 0
ENDMDL
MODEL 4
REMARK VINA RESULT:      -5.1      1.375      2.637
REMARK  0 active torsions:
REMARK  status: ('A' for Active; 'I' for Inactive)
ROOT
HETATM    1  C1  UNL     1     -35.960  14.035  -3.980  1.00 20.00     0.009 C 
HETATM    2  C2  UNL     1     -33.473  13.750  -3.835  1.00 20.00     0.009 C 
HETATM    3  C3  UNL     1     -34.591  15.641  -2.625  1.00 20.00     0.009 C 
HETATM    4  C4  UNL     1     -34.525  14.502  -5.982  1.00 20.00     0.048 C 
HETATM    5  C5  UNL     1     -35.643  16.393  -4.773  1.00 20.00     0.048 C 
HETATM    6  C6  UNL     1     -33.157  16.107  -4.628  1.00 20.00     0.048 C 
HETATM    7  C7  UNL     1     -34.701  13.598  -4.750  1.00 20.00    -0.011 C 
HETATM    8  C8  UNL     1     -35.827  15.502  -3.533  1.00 20.00    -0.011 C 
HETATM    9  C9  UNL     1     -33.322  15.215  -3.386  1.00 20.00    -0.011 C 
HETATM   10  C10 UNL     1     -34.384  15.962  -5.537  1.00 20.00     0.104 C 
HETATM   11  F11 UNL     1     -34.229  16.752  -6.628  1.00 20.00    -0.243 F 
ENDROOT
TORSDOF 0
ENDMDL
MODEL 5
REMARK VINA RESULT:      -5.1      1.381      2.964
REMARK  0 active torsions:
REMARK  status: ('A' for Active; 'I' for Inactive)
ROOT
HETATM    1  C1  UNL     1     -34.601  15.618  -2.626  1.00 20.00     0.009 C 
HETATM    2  C2  UNL     1     -35.952  14.019  -4.008  1.00 20.00     0.009 C 
HETATM    3  C3  UNL     1     -33.462  13.751  -3.855  1.00 20.00     0.009 C 
HETATM    4  C4  UNL     1     -35.650  16.388  -4.769  1.00 20.00     0.048 C 
HETATM    5  C5  UNL     1     -33.161  16.121  -4.617  1.00 20.00     0.048 C 
HETATM    6  C6  UNL     1     -34.512  14.523  -5.998  1.00 20.00     0.048 C 
HETATM    7  C7  UNL     1     -35.831  15.481  -3.541  1.00 20.00    -0.011 C 
HETATM    8  C8  UNL     1     -33.326  15.212  -3.387  1.00 20.00    -0.011 C 
HETATM    9  C9  UNL     1     -34.685  13.601  -4.778  1.00 20.00    -0.011 C 
HETATM   10  C10 UNL     1     -34.384  15.979  -5.533  1.00 20.00     0.104 C 
HETATM   11  F11 UNL     1     -34.231  16.782  -6.613  1.00 20.00    -0.243 F 
ENDROOT
TORSDOF 0
ENDMDL
MODEL 6
REMARK VINA RESULT:      -5.1      1.381      2.638
REMARK  0 active torsions:
REMARK  status: ('A' for Active; 'I' for Inactive)
ROOT
HETATM    1  C1  UNL     1     -33.463  13.754  -3.854  1.00 20.00     0.009 C 
HETATM    2  C2  UNL     1     -34.601  15.625  -2.631  1.00 20.00     0.009 C 
HETATM    3  C3  UNL     1     -35.953  14.022  -4.008  1.00 20.00     0.009 C 
HETATM    4  C4  UNL     1     -33.161  16.121  -4.622  1.00 20.00     0.048 C 
HETATM    5  C5  UNL     1     -34.512  14.520  -5.999  1.00 20.00     0.048 C 
HETATM    6  C6  UNL     1     -35.648  16.390  -4.776  1.00 20.00     0.048 C 
HETATM    7  C7  UNL     1     -33.326  15.214  -3.390  1.00 20.00    -0.011 C 
HETATM    8  C8  UNL     1     -34.686  13.603  -4.777  1.00 20.00    -0.011 C 
HETATM    9  C9  UNL     1     -35.832  15.486  -3.545  1.00 20.00    -0.011 C 
HETATM   10  C10 UNL     1     -34.383  15.977  -5.537  1.00 20.00     0.104 C 
HETATM   11  F11 UNL     1     -34.230  16.779  -6.620  1.00 20.00    -0.243 F 
ENDROOT
TORSDOF 0
ENDMDL
MODEL 7
REMARK VINA RESULT:      -5.0      1.405      2.691
REMARK  0 active torsions:
REMARK  status: ('A' for Active; 'I' for Inactive)
ROOT
HETATM    1  C1  UNL     1     -33.146  16.130  -4.616  1.00 20.00     0.009 C 
HETATM    2  C2  UNL     1     -33.498  13.761  -3.869  1.00 20.00     0.009 C 
HETATM    3  C3  UNL     1     -34.469  14.548  -6.044  1.00 20.00     0.009 C 
HETATM    4  C4  UNL     1     -34.654  15.637  -2.675  1.00 20.00     0.048 C 
HETATM    5  C5  UNL     1     -35.625  16.424  -4.848  1.00 20.00     0.048 C 
HETATM    6  C6  UNL     1     -35.977  14.057  -4.102  1.00 20.00     0.048 C 
HETATM    7  C7  UNL     1     -33.361  15.219  -3.394  1.00 20.00    -0.011 C 
HETATM    8  C8  UNL     1     -34.338  16.011  -5.582  1.00 20.00    -0.011 C 
HETATM    9  C9  UNL     1     -34.693  13.626  -4.832  1.00 20.00    -0.011 C 
HETATM   10  C10 UNL     1     -35.844  15.512  -3.634  1.00 20.00     0.104 C 
HETATM   11  F11 UNL     1     -36.979  15.882  -2.994  1.00 20.00    -0.243 F 
ENDROOT
TORSDOF 0
ENDMDL
MODEL 8
REMARK VINA RESULT:      -5.0      1.397      2.654
REMARK  0 active torsions:
REMARK  status: ('A' for Active; 'I' for Inactive)
ROOT
HETATM    1  C1  UNL     1     -33.465  13.775  -3.858  1.00 20.00     0.009 C 
HETATM    2  C2  UNL     1     -34.453  14.524  -6.039  1.00 20.00     0.009 C 
HETATM    3  C3  UNL     1     -33.157  16.144  -4.627  1.00 20.00     0.009 C 
HETATM    4  C4  UNL     1     -35.949  14.023  -4.090  1.00 20.00     0.048 C 
HETATM    5  C5  UNL     1     -34.654  15.642  -2.679  1.00 20.00     0.048 C 
HETATM    6  C6  UNL     1     -35.642  16.390  -4.859  1.00 20.00     0.048 C 
HETATM    7  C7  UNL     1     -34.657  13.610  -4.817  1.00 20.00    -0.011 C 
HETATM    8  C8  UNL     1     -33.354  15.240  -3.396  1.00 20.00    -0.011 C 
HETATM    9  C9  UNL     1     -34.349  15.994  -5.591  1.00 20.00    -0.011 C 
HETATM   10  C10 UNL     1     -35.843  15.484  -3.637  1.00 20.00     0.104 C 
HETATM   11  F11 UNL     1     -36.984  15.840  -2.998  1.00 20.00    -0.243 F 
ENDROOT
TORSDOF 0
ENDMDL
MODEL 9
REMARK VINA RESULT:      -5.0      1.405      2.974
REMARK  0 active torsions:
REMARK  status: ('A' for Active; 'I' for Inactive)
ROOT
HETATM    1  C1  UNL     1     -34.476  14.541  -6.048  1.00 20.00     0.009 C 
HETATM    2  C2  UNL     1     -33.152  16.129  -4.628  1.00 20.00     0.009 C 
HETATM    3  C3  UNL     1     -33.497  13.762  -3.874  1.00 20.00     0.009 C 
HETATM    4  C4  UNL     1     -35.632  16.418  -4.855  1.00 20.00     0.048 C 
HETATM    5  C5  UNL     1     -35.978  14.052  -4.101  1.00 20.00     0.048 C 
HETATM    6  C6  UNL     1     -34.654  15.640  -2.682  1.00 20.00     0.048 C 
HETATM    7  C7  UNL     1     -34.346  16.005  -5.592  1.00 20.00    -0.011 C 
HETATM    8  C8  UNL     1     -34.695  13.623  -4.832  1.00 20.00    -0.011 C 
HETATM    9  C9  UNL     1     -33.361  15.221  -3.402  1.00 20.00    -0.011 C 
HETATM   10  C10 UNL     1     -35.846  15.509  -3.639  1.00 20.00     0.104 C 
HETATM   11  F11 UNL     1     -36.980  15.880  -2.995  1.00 20.00    -0.243 F 
ENDROOT
TORSDOF 0
ENDMDL
