MODEL 1
REMARK VINA RESULT:      -4.7      0.000      0.000
REMARK  4 active torsions:
REMARK  status: ('A' for Active; 'I' for Inactive)
REMARK    1  A    between atoms: C1_1  and  C4_4 
REMARK    2  A    between atoms: C2_2  and  C6_6 
REMARK    3  A    between atoms: C6_6  and  C7_7 
REMARK    4  A    between atoms: C7_7  and  O8_8 
ROOT
HETATM    1  C1  UNL     1     -33.485   6.271   4.109  1.00 20.00    -0.072 C 
HETATM    2  C2  UNL     1     -32.726   6.835   3.369  1.00 20.00    -0.099 C 
ENDROOT
BRANCH   2   3
HETATM    3  C6  UNL     1     -31.797   7.525   2.461  1.00 20.00     0.120 C 
BRANCH   3   4
HETATM    4  C7  UNL     1     -32.386   8.834   1.951  1.00 20.00     0.176 C 
BRANCH   4   5
HETATM    5  O8  UNL     1     -32.211   8.918   0.542  1.00 20.00    -0.400 OA
HETATM    6  H18 UNL     1     -32.941   8.420   0.140  1.00 20.00     0.209 HD
ENDBRANCH   4   5
ENDBRANCH   3   4
ENDBRANCH   2   3
BRANCH   1   7
HETATM    7  C4  UNL     1     -34.384   5.604   4.994  1.00 20.00    -0.018 C 
HETATM    8  C3  UNL     1     -35.239   4.696   4.498  1.00 20.00     0.028 C 
HETATM    9  C5  UNL     1     -34.346   5.937   6.456  1.00 20.00     0.057 C 
ENDBRANCH   1   7
TORSDOF 4
ENDMDL
MODEL 2
REMARK VINA RESULT:      -4.6      0.111      1.243
REMARK  4 active torsions:
REMARK  status: ('A' for Active; 'I' for Inactive)
REMARK    1  A    between atoms: C1_1  and  C4_4 
REMARK    2  A    between atoms: C2_2  and  C6_6 
REMARK    3  A    between atoms: C6_6  and  C7_7 
REMARK    4  A    between atoms: C7_7  and  O8_8 
ROOT
HETATM    1  C1  UNL     1     -33.417   6.328   4.165  1.00 20.00    -0.072 C 
HETATM    2  C2  UNL     1     -32.681   6.866   3.381  1.00 20.00    -0.099 C 
ENDROOT
BRANCH   2   3
HETATM    3  C6  UNL     1     -31.782   7.524   2.422  1.00 20.00     0.120 C 
BRANCH   3   4
HETATM    4  C7  UNL     1     -32.362   8.844   1.930  1.00 20.00     0.176 C 
BRANCH   4   5
HETATM    5  O8  UNL     1     -32.254   8.913   0.513  1.00 20.00    -0.400 OA
HETATM    6  H18 UNL     1     -31.888   9.788   0.305  1.00 20.00     0.209 HD
ENDBRANCH   4   5
ENDBRANCH   3   4
ENDBRANCH   2   3
BRANCH   1   7
HETATM    7  C4  UNL     1     -34.286   5.691   5.099  1.00 20.00    -0.018 C 
HETATM    8  C3  UNL     1     -34.256   6.069   6.387  1.00 20.00     0.028 C 
HETATM    9  C5  UNL     1     -35.213   4.617   4.613  1.00 20.00     0.057 C 
ENDBRANCH   1   7
TORSDOF 4
ENDMDL
MODEL 3
REMARK VINA RESULT:      -4.4      2.728      4.831
REMARK  4 active torsions:
REMARK  status: ('A' for Active; 'I' for Inactive)
REMARK    1  A    between atoms: C1_1  and  C4_4 
REMARK    2  A    between atoms: C2_2  and  C6_6 
REMARK    3  A    between atoms: C6_6  and  C7_7 
REMARK    4  A    between atoms: C7_7  and  O8_8 
ROOT
HETATM    1  C1  UNL     1     -33.130   6.584   3.541  1.00 20.00    -0.072 C 
HETATM    2  C2  UNL     1     -34.027   5.850   3.859  1.00 20.00    -0.099 C 
ENDROOT
BRANCH   2   3
HETATM    3  C6  UNL     1     -35.123   4.951   4.247  1.00 20.00     0.120 C 
BRANCH   3   4
HETATM    4  C7  UNL     1     -34.995   4.511   5.699  1.00 20.00     0.176 C 
BRANCH   4   5
HETATM    5  O8  UNL     1     -34.730   5.642   6.520  1.00 20.00    -0.400 OA
HETATM    6  H18 UNL     1     -33.764   5.723   6.579  1.00 20.00     0.209 HD
ENDBRANCH   4   5
ENDBRANCH   3   4
ENDBRANCH   2   3
BRANCH   1   7
HETATM    7  C4  UNL     1     -32.068   7.460   3.166  1.00 20.00    -0.018 C 
HETATM    8  C3  UNL     1     -31.072   7.693   4.035  1.00 20.00     0.028 C 
HETATM    9  C5  UNL     1     -32.096   8.096   1.808  1.00 20.00     0.057 C 
ENDBRANCH   1   7
TORSDOF 4
ENDMDL
MODEL 4
REMARK VINA RESULT:      -4.2     10.371     11.193
REMARK  4 active torsions:
REMARK  status: ('A' for Active; 'I' for Inactive)
REMARK    1  A    between atoms: C1_1  and  C4_4 
REMARK    2  A    between atoms: C2_2  and  C6_6 
REMARK    3  A    between atoms: C6_6  and  C7_7 
REMARK    4  A    between atoms: C7_7  and  O8_8 
ROOT
HETATM    1  C1  UNL     1     -34.676  16.509  -1.429  1.00 20.00    -0.072 C 
HETATM    2  C2  UNL     1     -34.992  15.795  -2.343  1.00 20.00    -0.099 C 
ENDROOT
BRANCH   2   3
HETATM    3  C6  UNL     1     -35.377  14.922  -3.461  1.00 20.00     0.120 C 
BRANCH   3   4
HETATM    4  C7  UNL     1     -34.377  13.790  -3.654  1.00 20.00     0.176 C 
BRANCH   4   5
HETATM    5  O8  UNL     1     -35.054  12.630  -4.125  1.00 20.00    -0.400 OA
HETATM    6  H18 UNL     1     -35.923  12.620  -3.691  1.00 20.00     0.209 HD
ENDBRANCH   4   5
ENDBRANCH   3   4
ENDBRANCH   2   3
BRANCH   1   7
HETATM    7  C4  UNL     1     -34.307  17.356  -0.342  1.00 20.00    -0.018 C 
HETATM    8  C3  UNL     1     -35.073  17.381   0.759  1.00 20.00     0.028 C 
HETATM    9  C5  UNL     1     -33.068  18.193  -0.462  1.00 20.00     0.057 C 
ENDBRANCH   1   7
TORSDOF 4
ENDMDL
MODEL 5
REMARK VINA RESULT:      -4.2     10.370     11.181
REMARK  4 active torsions:
REMARK  status: ('A' for Active; 'I' for Inactive)
REMARK    1  A    between atoms: C1_1  and  C4_4 
REMARK    2  A    between atoms: C2_2  and  C6_6 
REMARK    3  A    between atoms: C6_6  and  C7_7 
REMARK    4  A    between atoms: C7_7  and  O8_8 
ROOT
HETATM    1  C1  UNL     1     -34.662  16.510  -1.434  1.00 20.00    -0.072 C 
HETATM    2  C2  UNL     1     -34.984  15.792  -2.342  1.00 20.00    -0.099 C 
ENDROOT
BRANCH   2   3
HETATM    3  C6  UNL     1     -35.377  14.912  -3.452  1.00 20.00     0.120 C 
BRANCH   3   4
HETATM    4  C7  UNL     1     -34.370  13.788  -3.656  1.00 20.00     0.176 C 
BRANCH   4   5
HETATM    5  O8  UNL     1     -35.041  12.626  -4.128  1.00 20.00    -0.400 OA
HETATM    6  H18 UNL     1     -35.668  12.924  -4.807  1.00 20.00     0.209 HD
ENDBRANCH   4   5
ENDBRANCH   3   4
ENDBRANCH   2   3
BRANCH   1   7
HETATM    7  C4  UNL     1     -34.285  17.367  -0.357  1.00 20.00    -0.018 C 
HETATM    8  C3  UNL     1     -33.158  18.088  -0.456  1.00 20.00     0.028 C 
HETATM    9  C5  UNL     1     -35.164  17.437   0.857  1.00 20.00     0.057 C 
ENDBRANCH   1   7
TORSDOF 4
ENDMDL
MODEL 6
REMARK VINA RESULT:      -4.0     10.501     11.223
REMARK  4 active torsions:
REMARK  status: ('A' for Active; 'I' for Inactive)
REMARK    1  A    between atoms: C1_1  and  C4_4 
REMARK    2  A    between atoms: C2_2  and  C6_6 
REMARK    3  A    between atoms: C6_6  and  C7_7 
REMARK    4  A    between atoms: C7_7  and  O8_8 
ROOT
HETATM    1  C1  UNL     1     -34.371  16.452  -1.541  1.00 20.00    -0.072 C 
HETATM    2  C2  UNL     1     -34.540  15.658  -2.427  1.00 20.00    -0.099 C 
ENDROOT
BRANCH   2   3
HETATM    3  C6  UNL     1     -34.746  14.687  -3.511  1.00 20.00     0.120 C 
BRANCH   3   4
HETATM    4  C7  UNL     1     -33.491  13.865  -3.769  1.00 20.00     0.176 C 
BRANCH   4   5
HETATM    5  O8  UNL     1     -32.365  14.730  -3.863  1.00 20.00    -0.400 OA
HETATM    6  H18 UNL     1     -31.616  14.182  -4.149  1.00 20.00     0.209 HD
ENDBRANCH   4   5
ENDBRANCH   3   4
ENDBRANCH   2   3
BRANCH   1   7
HETATM    7  C4  UNL     1     -34.176  17.395  -0.488  1.00 20.00    -0.018 C 
HETATM    8  C3  UNL     1     -33.137  18.241  -0.549  1.00 20.00     0.028 C 
HETATM    9  C5  UNL     1     -35.143  17.413   0.659  1.00 20.00     0.057 C 
ENDBRANCH   1   7
TORSDOF 4
ENDMDL
MODEL 7
REMARK VINA RESULT:      -3.8      2.712      4.939
REMARK  4 active torsions:
REMARK  status: ('A' for Active; 'I' for Inactive)
REMARK    1  A    between atoms: C1_1  and  C4_4 
REMARK    2  A    between atoms: C2_2  and  C6_6 
REMARK    3  A    between atoms: C6_6  and  C7_7 
REMARK    4  A    between atoms: C7_7  and  O8_8 
ROOT
HETATM    1  C1  UNL     1     -32.687   7.632   2.554  1.00 20.00    -0.072 C 
HETATM    2  C2  UNL     1     -33.082   6.775   3.297  1.00 20.00    -0.099 C 
ENDROOT
BRANCH   2   3
HETATM    3  C6  UNL     1     -33.565   5.726   4.208  1.00 20.00     0.120 C 
BRANCH   3   4
HETATM    4  C7  UNL     1     -34.989   5.305   3.867  1.00 20.00     0.176 C 
BRANCH   4   5
HETATM    5  O8  UNL     1     -35.494   4.458   4.892  1.00 20.00    -0.400 OA
HETATM    6  H18 UNL     1     -36.300   4.047   4.541  1.00 20.00     0.209 HD
ENDBRANCH   4   5
ENDBRANCH   3   4
ENDBRANCH   2   3
BRANCH   1   7
HETATM    7  C4  UNL     1     -32.221   8.648   1.667  1.00 20.00    -0.018 C 
HETATM    8  C3  UNL     1     -31.419   8.309   0.645  1.00 20.00     0.028 C 
HETATM    9  C5  UNL     1     -32.643  10.068   1.903  1.00 20.00     0.057 C 
ENDBRANCH   1   7
TORSDOF 4
ENDMDL
MODEL 8
REMARK VINA RESULT:      -3.7     11.273     11.839
REMARK  4 active torsions:
REMARK  status: ('A' for Active; 'I' for Inactive)
REMARK    1  A    between atoms: C1_1  and  C4_4 
REMARK    2  A    between atoms: C2_2  and  C6_6 
REMARK    3  A    between atoms: C6_6  and  C7_7 
REMARK    4  A    between atoms: C7_7  and  O8_8 
ROOT
HETATM    1  C1  UNL     1     -34.154  16.365  -1.946  1.00 20.00    -0.072 C 
HETATM    2  C2  UNL     1     -33.892  17.169  -1.093  1.00 20.00    -0.099 C 
ENDROOT
BRANCH   2   3
HETATM    3  C6  UNL     1     -33.572  18.153  -0.048  1.00 20.00     0.120 C 
BRANCH   3   4
HETATM    4  C7  UNL     1     -32.675  19.261  -0.582  1.00 20.00     0.176 C 
BRANCH   4   5
HETATM    5  O8  UNL     1     -31.407  19.199   0.058  1.00 20.00    -0.400 OA
HETATM    6  H18 UNL     1     -31.280  20.049   0.509  1.00 20.00     0.209 HD
ENDBRANCH   4   5
ENDBRANCH   3   4
ENDBRANCH   2   3
BRANCH   1   7
HETATM    7  C4  UNL     1     -34.461  15.411  -2.962  1.00 20.00    -0.018 C 
HETATM    8  C3  UNL     1     -35.745  15.162  -3.263  1.00 20.00     0.028 C 
HETATM    9  C5  UNL     1     -33.335  14.714  -3.668  1.00 20.00     0.057 C 
ENDBRANCH   1   7
TORSDOF 4
ENDMDL
MODEL 9
REMARK VINA RESULT:      -3.7     11.061     11.527
REMARK  4 active torsions:
REMARK  status: ('A' for Active; 'I' for Inactive)
REMARK    1  A    between atoms: C1_1  and  C4_4 
REMARK    2  A    between atoms: C2_2  and  C6_6 
REMARK    3  A    between atoms: C6_6  and  C7_7 
REMARK    4  A    between atoms: C7_7  and  O8_8 
ROOT
HETATM    1  C1  UNL     1     -34.606  16.784  -0.919  1.00 20.00    -0.072 C 
HETATM    2  C2  UNL     1     -34.806  16.061  -1.858  1.00 20.00    -0.099 C 
ENDROOT
BRANCH   2   3
HETATM    3  C6  UNL     1     -35.051  15.177  -3.007  1.00 20.00     0.120 C 
BRANCH   3   4
HETATM    4  C7  UNL     1     -36.367  15.511  -3.696  1.00 20.00     0.176 C 
BRANCH   4   5
HETATM    5  O8  UNL     1     -37.436  14.853  -3.026  1.00 20.00    -0.400 OA
HETATM    6  H18 UNL     1     -37.350  13.907  -3.226  1.00 20.00     0.209 HD
ENDBRANCH   4   5
ENDBRANCH   3   4
ENDBRANCH   2   3
BRANCH   1   7
HETATM    7  C4  UNL     1     -34.365  17.640   0.197  1.00 20.00    -0.018 C 
HETATM    8  C3  UNL     1     -33.317  18.478   0.166  1.00 20.00     0.028 C 
HETATM    9  C5  UNL     1     -35.293  17.578   1.373  1.00 20.00     0.057 C 
ENDBRANCH   1   7
TORSDOF 4
ENDMDL
