MODEL 1
REMARK VINA RESULT:      -3.7      0.000      0.000
REMARK  1 active torsions:
REMARK  status: ('A' for Active; 'I' for Inactive)
REMARK    1  A    between atoms: C2_2  and  C3_3 
ROOT
HETATM    1  C1  UNL     1     -34.833  14.998  -3.452  1.00 20.00     0.101 A 
HETATM    2  C2  UNL     1     -35.965  14.354  -3.910  1.00 20.00     0.118 A 
HETATM    3  N4  UNL     1     -35.753  13.112  -4.488  1.00 20.00    -0.166 NA
HETATM    4  N5  UNL     1     -34.470  12.788  -4.484  1.00 20.00    -0.037 NA
HETATM    5  S7  UNL     1     -33.504  13.966  -3.787  1.00 20.00    -0.008 SA
ENDROOT
BRANCH   2   6
HETATM    6  C3  UNL     1     -37.292  14.894  -3.815  1.00 20.00     0.292 C 
HETATM    7  O6  UNL     1     -38.320  14.196  -3.740  1.00 20.00    -0.300 OA
ENDBRANCH   2   6
TORSDOF 1
ENDMDL
MODEL 2
REMARK VINA RESULT:      -3.4     12.175     12.352
REMARK  1 active torsions:
REMARK  status: ('A' for Active; 'I' for Inactive)
REMARK    1  A    between atoms: C2_2  and  C3_3 
ROOT
HETATM    1  C1  UNL     1     -34.463   5.049   4.034  1.00 20.00     0.101 A 
HETATM    2  C2  UNL     1     -33.670   6.147   4.301  1.00 20.00     0.118 A 
HETATM    3  N4  UNL     1     -33.636   6.550   5.626  1.00 20.00    -0.166 NA
HETATM    4  N5  UNL     1     -34.393   5.779   6.388  1.00 20.00    -0.037 NA
HETATM    5  S7  UNL     1     -35.155   4.560   5.526  1.00 20.00    -0.008 SA
ENDROOT
BRANCH   2   6
HETATM    6  C3  UNL     1     -32.914   6.854   3.306  1.00 20.00     0.292 C 
HETATM    7  O6  UNL     1     -31.758   7.279   3.487  1.00 20.00    -0.300 OA
ENDBRANCH   2   6
TORSDOF 1
ENDMDL
MODEL 3
REMARK VINA RESULT:      -3.3      2.375      2.643
REMARK  1 active torsions:
REMARK  status: ('A' for Active; 'I' for Inactive)
REMARK    1  A    between atoms: C2_2  and  C3_3 
ROOT
HETATM    1  C1  UNL     1     -34.776  15.307  -4.879  1.00 20.00     0.101 A 
HETATM    2  C2  UNL     1     -34.340  14.858  -3.649  1.00 20.00     0.118 A 
HETATM    3  N4  UNL     1     -34.260  13.481  -3.510  1.00 20.00    -0.166 NA
HETATM    4  N5  UNL     1     -34.630  12.860  -4.617  1.00 20.00    -0.037 NA
HETATM    5  S7  UNL     1     -35.077  13.916  -5.838  1.00 20.00    -0.008 SA
ENDROOT
BRANCH   2   6
HETATM    6  C3  UNL     1     -33.981  15.720  -2.558  1.00 20.00     0.292 C 
HETATM    7  O6  UNL     1     -34.750  16.012  -1.624  1.00 20.00    -0.300 OA
ENDBRANCH   2   6
TORSDOF 1
ENDMDL
MODEL 4
REMARK VINA RESULT:      -3.2      2.651      2.741
REMARK  1 active torsions:
REMARK  status: ('A' for Active; 'I' for Inactive)
REMARK    1  A    between atoms: C2_2  and  C3_3 
ROOT
HETATM    1  C1  UNL     1     -34.062  15.208  -5.034  1.00 20.00     0.101 A 
HETATM    2  C2  UNL     1     -34.729  14.145  -5.609  1.00 20.00     0.118 A 
HETATM    3  N4  UNL     1     -34.685  12.957  -4.896  1.00 20.00    -0.166 NA
HETATM    4  N5  UNL     1     -33.993  13.089  -3.776  1.00 20.00    -0.037 NA
HETATM    5  S7  UNL     1     -33.386  14.636  -3.565  1.00 20.00    -0.008 SA
ENDROOT
BRANCH   2   6
HETATM    6  C3  UNL     1     -35.433  14.217  -6.858  1.00 20.00     0.292 C 
HETATM    7  O6  UNL     1     -34.926  14.633  -7.916  1.00 20.00    -0.300 OA
ENDBRANCH   2   6
TORSDOF 1
ENDMDL
MODEL 5
REMARK VINA RESULT:      -3.2      2.891      3.261
REMARK  1 active torsions:
REMARK  status: ('A' for Active; 'I' for Inactive)
REMARK    1  A    between atoms: C2_2  and  C3_3 
ROOT
HETATM    1  C1  UNL     1     -36.314  16.016  -3.817  1.00 20.00     0.101 A 
HETATM    2  C2  UNL     1     -36.296  14.641  -3.937  1.00 20.00     0.118 A 
HETATM    3  N4  UNL     1     -37.520  14.012  -3.772  1.00 20.00    -0.166 NA
HETATM    4  N5  UNL     1     -38.484  14.883  -3.525  1.00 20.00    -0.037 NA
HETATM    5  S7  UNL     1     -37.937  16.466  -3.488  1.00 20.00    -0.008 SA
ENDROOT
BRANCH   2   6
HETATM    6  C3  UNL     1     -35.115  13.873  -4.215  1.00 20.00     0.292 C 
HETATM    7  O6  UNL     1     -35.115  12.640  -4.381  1.00 20.00    -0.300 OA
ENDBRANCH   2   6
TORSDOF 1
ENDMDL
MODEL 6
REMARK VINA RESULT:      -3.2      3.026      3.301
REMARK  1 active torsions:
REMARK  status: ('A' for Active; 'I' for Inactive)
REMARK    1  A    between atoms: C2_2  and  C3_3 
ROOT
HETATM    1  C1  UNL     1     -34.943  15.341  -5.627  1.00 20.00     0.101 A 
HETATM    2  C2  UNL     1     -34.221  14.864  -4.552  1.00 20.00     0.118 A 
HETATM    3  N4  UNL     1     -33.120  15.624  -4.188  1.00 20.00    -0.166 NA
HETATM    4  N5  UNL     1     -32.980  16.682  -4.970  1.00 20.00    -0.037 NA
HETATM    5  S7  UNL     1     -34.167  16.780  -6.149  1.00 20.00    -0.008 SA
ENDROOT
BRANCH   2   6
HETATM    6  C3  UNL     1     -34.551  13.669  -3.828  1.00 20.00     0.292 C 
HETATM    7  O6  UNL     1     -35.003  12.640  -4.360  1.00 20.00    -0.300 OA
ENDBRANCH   2   6
TORSDOF 1
ENDMDL
MODEL 7
REMARK VINA RESULT:      -3.1      2.877      3.158
REMARK  1 active torsions:
REMARK  status: ('A' for Active; 'I' for Inactive)
REMARK    1  A    between atoms: C2_2  and  C3_3 
ROOT
HETATM    1  C1  UNL     1     -35.685  15.323  -3.229  1.00 20.00     0.101 A 
HETATM    2  C2  UNL     1     -34.523  14.790  -3.748  1.00 20.00     0.118 A 
HETATM    3  N4  UNL     1     -33.349  15.393  -3.324  1.00 20.00    -0.166 NA
HETATM    4  N5  UNL     1     -33.589  16.386  -2.484  1.00 20.00    -0.037 NA
HETATM    5  S7  UNL     1     -35.224  16.609  -2.191  1.00 20.00    -0.008 SA
ENDROOT
BRANCH   2   6
HETATM    6  C3  UNL     1     -34.483  13.687  -4.666  1.00 20.00     0.292 C 
HETATM    7  O6  UNL     1     -35.017  12.584  -4.447  1.00 20.00    -0.300 OA
ENDBRANCH   2   6
TORSDOF 1
ENDMDL
MODEL 8
REMARK VINA RESULT:      -3.0     10.024     10.370
REMARK  1 active torsions:
REMARK  status: ('A' for Active; 'I' for Inactive)
REMARK    1  A    between atoms: C2_2  and  C3_3 
ROOT
HETATM    1  C1  UNL     1     -42.631   5.238  -2.736  1.00 20.00     0.101 A 
HETATM    2  C2  UNL     1     -42.170   6.538  -2.667  1.00 20.00     0.118 A 
HETATM    3  N4  UNL     1     -41.100   6.746  -1.812  1.00 20.00    -0.166 NA
HETATM    4  N5  UNL     1     -40.728   5.625  -1.217  1.00 20.00    -0.037 NA
HETATM    5  S7  UNL     1     -41.655   4.307  -1.676  1.00 20.00    -0.008 SA
ENDROOT
BRANCH   2   6
HETATM    6  C3  UNL     1     -42.728   7.630  -3.413  1.00 20.00     0.292 C 
HETATM    7  O6  UNL     1     -43.365   7.491  -4.473  1.00 20.00    -0.300 OA
ENDBRANCH   2   6
TORSDOF 1
ENDMDL
MODEL 9
REMARK VINA RESULT:      -3.0     12.119     12.231
REMARK  1 active torsions:
REMARK  status: ('A' for Active; 'I' for Inactive)
REMARK    1  A    between atoms: C2_2  and  C3_3 
ROOT
HETATM    1  C1  UNL     1     -33.162   6.478   4.774  1.00 20.00     0.101 A 
HETATM    2  C2  UNL     1     -34.231   5.610   4.878  1.00 20.00     0.118 A 
HETATM    3  N4  UNL     1     -34.697   5.092   3.680  1.00 20.00    -0.166 NA
HETATM    4  N5  UNL     1     -34.003   5.548   2.650  1.00 20.00    -0.037 NA
HETATM    5  S7  UNL     1     -32.783   6.603   3.105  1.00 20.00    -0.008 SA
ENDROOT
BRANCH   2   6
HETATM    6  C3  UNL     1     -34.850   5.240   6.119  1.00 20.00     0.292 C 
HETATM    7  O6  UNL     1     -35.357   4.124   6.335  1.00 20.00    -0.300 OA
ENDBRANCH   2   6
TORSDOF 1
ENDMDL
