MODEL 1
REMARK VINA RESULT:      -3.8      0.000      0.000
REMARK  0 active torsions:
REMARK  status: ('A' for Active; 'I' for Inactive)
ROOT
HETATM    1  C1  UNL     1     -34.858  13.663  -3.819  1.00 20.00     0.072 C 
HETATM    2  C2  UNL     1     -34.690  13.401  -5.308  1.00 20.00     0.173 C 
HETATM    3  C3  UNL     1     -34.443  15.683  -4.913  1.00 20.00     0.255 C 
HETATM    4  C4  UNL     1     -34.074  14.949  -3.624  1.00 20.00     0.154 C 
HETATM    5  O5  UNL     1     -34.508  14.679  -5.941  1.00 20.00    -0.367 OA
HETATM    6 CL6  UNL     1     -33.353  16.996  -5.386  1.00 20.00    -0.092 Cl
HETATM    7 CL7  UNL     1     -34.588  15.830  -2.172  1.00 20.00    -0.098 Cl
HETATM    8 CL8  UNL     1     -32.326  14.568  -3.502  1.00 20.00    -0.098 Cl
ENDROOT
TORSDOF 0
ENDMDL
MODEL 2
REMARK VINA RESULT:      -3.7      2.250      3.053
REMARK  0 active torsions:
REMARK  status: ('A' for Active; 'I' for Inactive)
ROOT
HETATM    1  C1  UNL     1     -34.166  17.701  -3.616  1.00 20.00     0.072 C 
HETATM    2  C2  UNL     1     -33.471  17.470  -4.948  1.00 20.00     0.173 C 
HETATM    3  C3  UNL     1     -33.148  15.601  -3.598  1.00 20.00     0.255 C 
HETATM    4  C4  UNL     1     -34.435  16.285  -3.138  1.00 20.00     0.154 C 
HETATM    5  O5  UNL     1     -32.804  16.199  -4.859  1.00 20.00    -0.367 OA
HETATM    6 CL6  UNL     1     -33.225  13.838  -3.739  1.00 20.00    -0.092 Cl
HETATM    7 CL7  UNL     1     -34.655  16.204  -1.380  1.00 20.00    -0.098 Cl
HETATM    8 CL8  UNL     1     -35.902  15.651  -3.952  1.00 20.00    -0.098 Cl
ENDROOT
TORSDOF 0
ENDMDL
MODEL 3
REMARK VINA RESULT:      -3.6      1.995      2.737
REMARK  0 active torsions:
REMARK  status: ('A' for Active; 'I' for Inactive)
ROOT
HETATM    1  C1  UNL     1     -34.214  15.461  -5.554  1.00 20.00     0.072 C 
HETATM    2  C2  UNL     1     -33.267  16.605  -5.228  1.00 20.00     0.173 C 
HETATM    3  C3  UNL     1     -34.641  16.221  -3.388  1.00 20.00     0.255 C 
HETATM    4  C4  UNL     1     -34.551  14.915  -4.177  1.00 20.00     0.154 C 
HETATM    5  O5  UNL     1     -33.617  17.080  -3.917  1.00 20.00    -0.367 OA
HETATM    6 CL6  UNL     1     -34.487  16.067  -1.631  1.00 20.00    -0.092 Cl
HETATM    7 CL7  UNL     1     -36.078  14.013  -4.173  1.00 20.00    -0.098 Cl
HETATM    8 CL8  UNL     1     -33.225  13.843  -3.622  1.00 20.00    -0.098 Cl
ENDROOT
TORSDOF 0
ENDMDL
MODEL 4
REMARK VINA RESULT:      -3.5      1.502      2.783
REMARK  0 active torsions:
REMARK  status: ('A' for Active; 'I' for Inactive)
ROOT
HETATM    1  C1  UNL     1     -34.403  14.419  -5.677  1.00 20.00     0.072 C 
HETATM    2  C2  UNL     1     -34.875  13.308  -4.753  1.00 20.00     0.173 C 
HETATM    3  C3  UNL     1     -33.988  15.032  -3.463  1.00 20.00     0.255 C 
HETATM    4  C4  UNL     1     -34.472  15.642  -4.779  1.00 20.00     0.154 C 
HETATM    5  O5  UNL     1     -34.533  13.703  -3.413  1.00 20.00    -0.367 OA
HETATM    6 CL6  UNL     1     -34.404  15.938  -2.000  1.00 20.00    -0.092 Cl
HETATM    7 CL7  UNL     1     -33.417  16.949  -5.349  1.00 20.00    -0.098 Cl
HETATM    8 CL8  UNL     1     -36.164  16.231  -4.704  1.00 20.00    -0.098 Cl
ENDROOT
TORSDOF 0
ENDMDL
MODEL 5
REMARK VINA RESULT:      -3.5      1.536      1.794
REMARK  0 active torsions:
REMARK  status: ('A' for Active; 'I' for Inactive)
ROOT
HETATM    1  C1  UNL     1     -33.587  13.972  -3.704  1.00 20.00     0.072 C 
HETATM    2  C2  UNL     1     -34.442  13.294  -4.763  1.00 20.00     0.173 C 
HETATM    3  C3  UNL     1     -35.574  15.167  -3.969  1.00 20.00     0.255 C 
HETATM    4  C4  UNL     1     -34.079  15.407  -3.756  1.00 20.00     0.154 C 
HETATM    5  O5  UNL     1     -35.677  14.026  -4.836  1.00 20.00    -0.367 OA
HETATM    6 CL6  UNL     1     -36.485  16.537  -4.622  1.00 20.00    -0.092 Cl
HETATM    7 CL7  UNL     1     -33.740  16.285  -2.252  1.00 20.00    -0.098 Cl
HETATM    8 CL8  UNL     1     -33.298  16.255  -5.130  1.00 20.00    -0.098 Cl
ENDROOT
TORSDOF 0
ENDMDL
MODEL 6
REMARK VINA RESULT:      -3.5      1.855      2.413
REMARK  0 active torsions:
REMARK  status: ('A' for Active; 'I' for Inactive)
ROOT
HETATM    1  C1  UNL     1     -34.839  15.529  -2.748  1.00 20.00     0.072 C 
HETATM    2  C2  UNL     1     -36.068  16.125  -3.416  1.00 20.00     0.173 C 
HETATM    3  C3  UNL     1     -34.417  15.805  -5.027  1.00 20.00     0.255 C 
HETATM    4  C4  UNL     1     -34.159  14.807  -3.899  1.00 20.00     0.154 C 
HETATM    5  O5  UNL     1     -35.732  16.339  -4.798  1.00 20.00    -0.367 OA
HETATM    6 CL6  UNL     1     -34.279  15.159  -6.670  1.00 20.00    -0.092 Cl
HETATM    7 CL7  UNL     1     -32.429  14.553  -3.599  1.00 20.00    -0.098 Cl
HETATM    8 CL8  UNL     1     -34.957  13.223  -4.162  1.00 20.00    -0.098 Cl
ENDROOT
TORSDOF 0
ENDMDL
MODEL 7
REMARK VINA RESULT:      -3.5      1.363      2.612
REMARK  0 active torsions:
REMARK  status: ('A' for Active; 'I' for Inactive)
ROOT
HETATM    1  C1  UNL     1     -35.913  15.778  -4.552  1.00 20.00     0.072 C 
HETATM    2  C2  UNL     1     -36.506  14.435  -4.157  1.00 20.00     0.173 C 
HETATM    3  C3  UNL     1     -34.204  14.194  -4.409  1.00 20.00     0.255 C 
HETATM    4  C4  UNL     1     -34.480  15.658  -4.064  1.00 20.00     0.154 C 
HETATM    5  O5  UNL     1     -35.427  13.484  -4.152  1.00 20.00    -0.367 OA
HETATM    6 CL6  UNL     1     -32.850  13.446  -3.549  1.00 20.00    -0.092 Cl
HETATM    7 CL7  UNL     1     -33.391  16.772  -4.913  1.00 20.00    -0.098 Cl
HETATM    8 CL8  UNL     1     -34.420  15.992  -2.303  1.00 20.00    -0.098 Cl
ENDROOT
TORSDOF 0
ENDMDL
MODEL 8
REMARK VINA RESULT:      -3.4      2.049      2.983
REMARK  0 active torsions:
REMARK  status: ('A' for Active; 'I' for Inactive)
ROOT
HETATM    1  C1  UNL     1     -34.989  16.741  -5.078  1.00 20.00     0.072 C 
HETATM    2  C2  UNL     1     -33.522  17.010  -5.376  1.00 20.00     0.173 C 
HETATM    3  C3  UNL     1     -33.671  15.240  -3.869  1.00 20.00     0.255 C 
HETATM    4  C4  UNL     1     -34.976  15.279  -4.665  1.00 20.00     0.154 C 
HETATM    5  O5  UNL     1     -32.756  16.110  -4.556  1.00 20.00    -0.367 OA
HETATM    6 CL6  UNL     1     -32.961  13.635  -3.640  1.00 20.00    -0.092 Cl
HETATM    7 CL7  UNL     1     -36.386  14.851  -3.678  1.00 20.00    -0.098 Cl
HETATM    8 CL8  UNL     1     -34.939  14.247  -6.132  1.00 20.00    -0.098 Cl
ENDROOT
TORSDOF 0
ENDMDL
MODEL 9
REMARK VINA RESULT:      -3.4      1.622      2.680
REMARK  0 active torsions:
REMARK  status: ('A' for Active; 'I' for Inactive)
ROOT
HETATM    1  C1  UNL     1     -35.209  14.744  -5.254  1.00 20.00     0.072 C 
HETATM    2  C2  UNL     1     -36.273  15.804  -5.017  1.00 20.00     0.173 C 
HETATM    3  C3  UNL     1     -35.208  15.343  -2.998  1.00 20.00     0.255 C 
HETATM    4  C4  UNL     1     -34.229  15.006  -4.123  1.00 20.00     0.154 C 
HETATM    5  O5  UNL     1     -36.279  16.084  -3.607  1.00 20.00    -0.367 OA
HETATM    6 CL6  UNL     1     -34.525  16.234  -1.630  1.00 20.00    -0.092 Cl
HETATM    7 CL7  UNL     1     -33.238  13.581  -3.756  1.00 20.00    -0.098 Cl
HETATM    8 CL8  UNL     1     -33.162  16.377  -4.566  1.00 20.00    -0.098 Cl
ENDROOT
TORSDOF 0
ENDMDL
