MODEL 1
REMARK VINA RESULT:      -4.0      0.000      0.000
REMARK  2 active torsions:
REMARK  status: ('A' for Active; 'I' for Inactive)
REMARK    1  A    between atoms: C1_1  and  C2_2 
REMARK    2  A    between atoms: C1_1  and  C3_3 
ROOT
HETATM    1  C3  UNL     1     -34.622   5.515   4.313  1.00 20.00     0.256 C 
HETATM    2  F4  UNL     1     -35.799   6.052   3.879  1.00 20.00    -0.207 F 
HETATM    3 CL5  UNL     1     -34.104   6.422   5.756  1.00 20.00    -0.066 Cl
HETATM    4 CL6  UNL     1     -34.923   3.813   4.749  1.00 20.00    -0.066 Cl
ENDROOT
BRANCH   1   5
HETATM    5  C1  UNL     1     -33.609   5.638   3.172  1.00 20.00     0.089 C 
BRANCH   5   6
HETATM    6  C2  UNL     1     -32.339   6.409   3.507  1.00 20.00     0.090 C 
HETATM    7 BR7  UNL     1     -32.156   7.921   2.287  1.00 20.00    -0.096 Br
ENDBRANCH   5   6
ENDBRANCH   1   5
TORSDOF 2
ENDMDL
MODEL 2
REMARK VINA RESULT:      -3.7      3.340      3.600
REMARK  2 active torsions:
REMARK  status: ('A' for Active; 'I' for Inactive)
REMARK    1  A    between atoms: C1_1  and  C2_2 
REMARK    2  A    between atoms: C1_1  and  C3_3 
ROOT
HETATM    1  C3  UNL     1     -32.794   6.239   3.281  1.00 20.00     0.256 C 
HETATM    2  F4  UNL     1     -31.671   5.466   3.336  1.00 20.00    -0.207 F 
HETATM    3 CL5  UNL     1     -32.374   7.758   2.450  1.00 20.00    -0.066 Cl
HETATM    4 CL6  UNL     1     -34.021   5.357   2.336  1.00 20.00    -0.066 Cl
ENDROOT
BRANCH   1   5
HETATM    5  C1  UNL     1     -33.256   6.488   4.719  1.00 20.00     0.089 C 
BRANCH   5   6
HETATM    6  C2  UNL     1     -34.694   6.088   5.020  1.00 20.00     0.090 C 
HETATM    7 BR7  UNL     1     -34.716   4.326   5.859  1.00 20.00    -0.096 Br
ENDBRANCH   5   6
ENDBRANCH   1   5
TORSDOF 2
ENDMDL
MODEL 3
REMARK VINA RESULT:      -3.6      1.543      1.623
REMARK  2 active torsions:
REMARK  status: ('A' for Active; 'I' for Inactive)
REMARK    1  A    between atoms: C1_1  and  C2_2 
REMARK    2  A    between atoms: C1_1  and  C3_3 
ROOT
HETATM    1  C3  UNL     1     -34.734   5.356   3.770  1.00 20.00     0.256 C 
HETATM    2  F4  UNL     1     -34.275   4.714   2.657  1.00 20.00    -0.207 F 
HETATM    3 CL5  UNL     1     -36.318   6.070   3.376  1.00 20.00    -0.066 Cl
HETATM    4 CL6  UNL     1     -34.926   4.144   5.062  1.00 20.00    -0.066 Cl
ENDROOT
BRANCH   1   5
HETATM    5  C1  UNL     1     -33.707   6.427   4.145  1.00 20.00     0.089 C 
BRANCH   5   6
HETATM    6  C2  UNL     1     -32.379   6.345   3.404  1.00 20.00     0.090 C 
HETATM    7 BR7  UNL     1     -32.129   7.960   2.337  1.00 20.00    -0.096 Br
ENDBRANCH   5   6
ENDBRANCH   1   5
TORSDOF 2
ENDMDL
MODEL 4
REMARK VINA RESULT:      -3.6      1.351      1.520
REMARK  2 active torsions:
REMARK  status: ('A' for Active; 'I' for Inactive)
REMARK    1  A    between atoms: C1_1  and  C2_2 
REMARK    2  A    between atoms: C1_1  and  C3_3 
ROOT
HETATM    1  C3  UNL     1     -34.324   5.695   4.469  1.00 20.00     0.256 C 
HETATM    2  F4  UNL     1     -34.238   6.809   5.251  1.00 20.00    -0.207 F 
HETATM    3 CL5  UNL     1     -34.229   4.270   5.534  1.00 20.00    -0.066 Cl
HETATM    4 CL6  UNL     1     -35.903   5.725   3.645  1.00 20.00    -0.066 Cl
ENDROOT
BRANCH   1   5
HETATM    5  C1  UNL     1     -33.163   5.737   3.473  1.00 20.00     0.089 C 
BRANCH   5   6
HETATM    6  C2  UNL     1     -32.155   6.857   3.692  1.00 20.00     0.090 C 
HETATM    7 BR7  UNL     1     -32.154   8.044   2.142  1.00 20.00    -0.096 Br
ENDBRANCH   5   6
ENDBRANCH   1   5
TORSDOF 2
ENDMDL
MODEL 5
REMARK VINA RESULT:      -3.6      1.805      1.966
REMARK  2 active torsions:
REMARK  status: ('A' for Active; 'I' for Inactive)
REMARK    1  A    between atoms: C1_1  and  C2_2 
REMARK    2  A    between atoms: C1_1  and  C3_3 
ROOT
HETATM    1  C3  UNL     1     -34.576   5.195   5.936  1.00 20.00     0.256 C 
HETATM    2  F4  UNL     1     -35.790   4.969   6.517  1.00 20.00    -0.207 F 
HETATM    3 CL5  UNL     1     -33.935   6.726   6.584  1.00 20.00    -0.066 Cl
HETATM    4 CL6  UNL     1     -33.494   3.852   6.387  1.00 20.00    -0.066 Cl
ENDROOT
BRANCH   1   5
HETATM    5  C1  UNL     1     -34.792   5.266   4.423  1.00 20.00     0.089 C 
BRANCH   5   6
HETATM    6  C2  UNL     1     -34.248   6.516   3.744  1.00 20.00     0.090 C 
HETATM    7 BR7  UNL     1     -32.391   6.218   3.224  1.00 20.00    -0.096 Br
ENDBRANCH   5   6
ENDBRANCH   1   5
TORSDOF 2
ENDMDL
MODEL 6
REMARK VINA RESULT:      -3.5      1.664      2.353
REMARK  2 active torsions:
REMARK  status: ('A' for Active; 'I' for Inactive)
REMARK    1  A    between atoms: C1_1  and  C2_2 
REMARK    2  A    between atoms: C1_1  and  C3_3 
ROOT
HETATM    1  C3  UNL     1     -34.316   5.327   5.435  1.00 20.00     0.256 C 
HETATM    2  F4  UNL     1     -33.141   4.662   5.241  1.00 20.00    -0.207 F 
HETATM    3 CL5  UNL     1     -35.449   4.213   6.241  1.00 20.00    -0.066 Cl
HETATM    4 CL6  UNL     1     -33.989   6.721   6.494  1.00 20.00    -0.066 Cl
ENDROOT
BRANCH   1   5
HETATM    5  C1  UNL     1     -34.832   5.766   4.062  1.00 20.00     0.089 C 
BRANCH   5   6
HETATM    6  C2  UNL     1     -33.851   5.593   2.911  1.00 20.00     0.090 C 
HETATM    7 BR7  UNL     1     -32.452   6.947   3.040  1.00 20.00    -0.096 Br
ENDBRANCH   5   6
ENDBRANCH   1   5
TORSDOF 2
ENDMDL
MODEL 7
REMARK VINA RESULT:      -3.4     12.009     12.365
REMARK  2 active torsions:
REMARK  status: ('A' for Active; 'I' for Inactive)
REMARK    1  A    between atoms: C1_1  and  C2_2 
REMARK    2  A    between atoms: C1_1  and  C3_3 
ROOT
HETATM    1  C3  UNL     1     -33.410  14.977  -3.914  1.00 20.00     0.256 C 
HETATM    2  F4  UNL     1     -32.171  14.660  -3.439  1.00 20.00    -0.207 F 
HETATM    3 CL5  UNL     1     -33.214  16.237  -5.158  1.00 20.00    -0.066 Cl
HETATM    4 CL6  UNL     1     -34.109  13.512  -4.648  1.00 20.00    -0.066 Cl
ENDROOT
BRANCH   1   5
HETATM    5  C1  UNL     1     -34.246  15.474  -2.731  1.00 20.00     0.089 C 
BRANCH   5   6
HETATM    6  C2  UNL     1     -33.806  16.804  -2.135  1.00 20.00     0.090 C 
HETATM    7 BR7  UNL     1     -34.696  17.072  -0.418  1.00 20.00    -0.096 Br
ENDBRANCH   5   6
ENDBRANCH   1   5
TORSDOF 2
ENDMDL
MODEL 8
REMARK VINA RESULT:      -3.4      3.086      3.612
REMARK  2 active torsions:
REMARK  status: ('A' for Active; 'I' for Inactive)
REMARK    1  A    between atoms: C1_1  and  C2_2 
REMARK    2  A    between atoms: C1_1  and  C3_3 
ROOT
HETATM    1  C3  UNL     1     -33.536   6.592   3.610  1.00 20.00     0.256 C 
HETATM    2  F4  UNL     1     -34.578   7.470   3.684  1.00 20.00    -0.207 F 
HETATM    3 CL5  UNL     1     -34.068   5.191   2.647  1.00 20.00    -0.066 Cl
HETATM    4 CL6  UNL     1     -32.185   7.410   2.785  1.00 20.00    -0.066 Cl
ENDROOT
BRANCH   1   5
HETATM    5  C1  UNL     1     -33.168   6.190   5.041  1.00 20.00     0.089 C 
BRANCH   5   6
HETATM    6  C2  UNL     1     -34.339   6.064   6.005  1.00 20.00     0.090 C 
HETATM    7 BR7  UNL     1     -35.051   4.249   5.932  1.00 20.00    -0.096 Br
ENDBRANCH   5   6
ENDBRANCH   1   5
TORSDOF 2
ENDMDL
MODEL 9
REMARK VINA RESULT:      -3.3     11.882     12.300
REMARK  2 active torsions:
REMARK  status: ('A' for Active; 'I' for Inactive)
REMARK    1  A    between atoms: C1_1  and  C2_2 
REMARK    2  A    between atoms: C1_1  and  C3_3 
ROOT
HETATM    1  C3  UNL     1     -33.288  15.078  -3.666  1.00 20.00     0.256 C 
HETATM    2  F4  UNL     1     -31.981  14.721  -3.507  1.00 20.00    -0.207 F 
HETATM    3 CL5  UNL     1     -33.716  16.192  -2.343  1.00 20.00    -0.066 Cl
HETATM    4 CL6  UNL     1     -33.443  15.916  -5.231  1.00 20.00    -0.066 Cl
ENDROOT
BRANCH   1   5
HETATM    5  C1  UNL     1     -34.127  13.798  -3.623  1.00 20.00     0.089 C 
BRANCH   5   6
HETATM    6  C2  UNL     1     -35.250  13.719  -4.647  1.00 20.00     0.090 C 
HETATM    7 BR7  UNL     1     -36.802  14.702  -3.986  1.00 20.00    -0.096 Br
ENDBRANCH   5   6
ENDBRANCH   1   5
TORSDOF 2
ENDMDL
