MODEL 1
REMARK VINA RESULT:      -5.0      0.000      0.000
REMARK  2 active torsions:
REMARK  status: ('A' for Active; 'I' for Inactive)
REMARK    1  A    between atoms: C2_2  and  C3_3 
REMARK    2  A    between atoms: C3_3  and  O9_9 
ROOT
HETATM    1  C1  UNL     1     -34.287   5.542   3.548  1.00 20.00    -0.013 C 
HETATM    2  C2  UNL     1     -33.432   6.342   4.196  1.00 20.00     0.013 C 
HETATM    3  C4  UNL     1     -35.294   4.947   4.474  1.00 20.00     0.028 C 
HETATM    4  C5  UNL     1     -33.732   6.407   5.659  1.00 20.00     0.045 C 
HETATM    5  C6  UNL     1     -34.704   5.243   5.853  1.00 20.00     0.009 C 
ENDROOT
BRANCH   2   6
HETATM    6  C3  UNL     1     -32.358   7.082   3.610  1.00 20.00     0.288 C 
HETATM    7  O8  UNL     1     -31.378   7.484   4.233  1.00 20.00    -0.260 OA
BRANCH   6   8
HETATM    8  O9  UNL     1     -32.604   7.255   2.282  1.00 20.00    -0.323 OA
HETATM    9  C7  UNL     1     -32.119   8.474   1.710  1.00 20.00     0.213 C 
ENDBRANCH   6   8
ENDBRANCH   2   6
TORSDOF 2
ENDMDL
MODEL 2
REMARK VINA RESULT:      -4.7      1.176      1.824
REMARK  2 active torsions:
REMARK  status: ('A' for Active; 'I' for Inactive)
REMARK    1  A    between atoms: C2_2  and  C3_3 
REMARK    2  A    between atoms: C3_3  and  O9_9 
ROOT
HETATM    1  C1  UNL     1     -34.819   4.483   4.736  1.00 20.00    -0.013 C 
HETATM    2  C2  UNL     1     -34.076   5.542   4.392  1.00 20.00     0.013 C 
HETATM    3  C4  UNL     1     -35.291   4.577   6.148  1.00 20.00     0.028 C 
HETATM    4  C5  UNL     1     -33.934   6.511   5.522  1.00 20.00     0.045 C 
HETATM    5  C6  UNL     1     -34.428   5.701   6.721  1.00 20.00     0.009 C 
ENDROOT
BRANCH   2   6
HETATM    6  C3  UNL     1     -33.484   5.779   3.113  1.00 20.00     0.288 C 
HETATM    7  O8  UNL     1     -33.970   5.406   2.049  1.00 20.00    -0.260 OA
BRANCH   6   8
HETATM    8  O9  UNL     1     -32.323   6.472   3.278  1.00 20.00    -0.323 OA
HETATM    9  C7  UNL     1     -32.182   7.655   2.484  1.00 20.00     0.213 C 
ENDBRANCH   6   8
ENDBRANCH   2   6
TORSDOF 2
ENDMDL
MODEL 3
REMARK VINA RESULT:      -4.1     11.332     11.908
REMARK  2 active torsions:
REMARK  status: ('A' for Active; 'I' for Inactive)
REMARK    1  A    between atoms: C2_2  and  C3_3 
REMARK    2  A    between atoms: C3_3  and  O9_9 
ROOT
HETATM    1  C1  UNL     1     -35.692  15.273  -2.995  1.00 20.00    -0.013 C 
HETATM    2  C2  UNL     1     -34.669  14.811  -3.724  1.00 20.00     0.013 C 
HETATM    3  C4  UNL     1     -35.277  16.413  -2.126  1.00 20.00     0.028 C 
HETATM    4  C5  UNL     1     -33.409  15.569  -3.457  1.00 20.00     0.045 C 
HETATM    5  C6  UNL     1     -33.752  16.350  -2.188  1.00 20.00     0.009 C 
ENDROOT
BRANCH   2   6
HETATM    6  C3  UNL     1     -34.722  13.741  -4.671  1.00 20.00     0.288 C 
HETATM    7  O8  UNL     1     -35.070  12.595  -4.397  1.00 20.00    -0.260 OA
BRANCH   6   8
HETATM    8  O9  UNL     1     -34.332  14.202  -5.891  1.00 20.00    -0.323 OA
HETATM    9  C7  UNL     1     -35.375  14.376  -6.857  1.00 20.00     0.213 C 
ENDBRANCH   6   8
ENDBRANCH   2   6
TORSDOF 2
ENDMDL
MODEL 4
REMARK VINA RESULT:      -4.0      9.745     11.000
REMARK  2 active torsions:
REMARK  status: ('A' for Active; 'I' for Inactive)
REMARK    1  A    between atoms: C2_2  and  C3_3 
REMARK    2  A    between atoms: C3_3  and  O9_9 
ROOT
HETATM    1  C1  UNL     1     -41.945   6.442  -2.060  1.00 20.00    -0.013 C 
HETATM    2  C2  UNL     1     -41.727   5.124  -1.989  1.00 20.00     0.013 C 
HETATM    3  C4  UNL     1     -41.183   7.183  -1.013  1.00 20.00     0.028 C 
HETATM    4  C5  UNL     1     -40.785   4.775  -0.882  1.00 20.00     0.045 C 
HETATM    5  C6  UNL     1     -40.731   6.069  -0.069  1.00 20.00     0.009 C 
ENDROOT
BRANCH   2   6
HETATM    6  C3  UNL     1     -42.284   4.128  -2.850  1.00 20.00     0.288 C 
HETATM    7  O8  UNL     1     -43.280   4.299  -3.548  1.00 20.00    -0.260 OA
BRANCH   6   8
HETATM    8  O9  UNL     1     -41.537   2.992  -2.764  1.00 20.00    -0.323 OA
HETATM    9  C7  UNL     1     -41.929   1.919  -3.627  1.00 20.00     0.213 C 
ENDBRANCH   6   8
ENDBRANCH   2   6
TORSDOF 2
ENDMDL
MODEL 5
REMARK VINA RESULT:      -4.0      2.239      3.805
REMARK  2 active torsions:
REMARK  status: ('A' for Active; 'I' for Inactive)
REMARK    1  A    between atoms: C2_2  and  C3_3 
REMARK    2  A    between atoms: C3_3  and  O9_9 
ROOT
HETATM    1  C1  UNL     1     -32.712   6.542   4.123  1.00 20.00    -0.013 C 
HETATM    2  C2  UNL     1     -33.877   6.176   4.671  1.00 20.00     0.013 C 
HETATM    3  C4  UNL     1     -32.706   6.327   2.647  1.00 20.00     0.028 C 
HETATM    4  C5  UNL     1     -34.834   5.657   3.646  1.00 20.00     0.045 C 
HETATM    5  C6  UNL     1     -33.935   5.447   2.427  1.00 20.00     0.009 C 
ENDROOT
BRANCH   2   6
HETATM    6  C3  UNL     1     -34.226   6.266   6.054  1.00 20.00     0.288 C 
HETATM    7  O8  UNL     1     -33.800   7.128   6.818  1.00 20.00    -0.260 OA
BRANCH   6   8
HETATM    8  O9  UNL     1     -35.088   5.259   6.365  1.00 20.00    -0.323 OA
HETATM    9  C7  UNL     1     -34.615   3.931   6.118  1.00 20.00     0.213 C 
ENDBRANCH   6   8
ENDBRANCH   2   6
TORSDOF 2
ENDMDL
MODEL 6
REMARK VINA RESULT:      -3.9     11.106     12.145
REMARK  2 active torsions:
REMARK  status: ('A' for Active; 'I' for Inactive)
REMARK    1  A    between atoms: C2_2  and  C3_3 
REMARK    2  A    between atoms: C3_3  and  O9_9 
ROOT
HETATM    1  C1  UNL     1     -35.034  13.572  -4.216  1.00 20.00    -0.013 C 
HETATM    2  C2  UNL     1     -35.678  14.639  -3.728  1.00 20.00     0.013 C 
HETATM    3  C4  UNL     1     -33.591  13.579  -3.838  1.00 20.00     0.028 C 
HETATM    4  C5  UNL     1     -34.765  15.529  -2.947  1.00 20.00     0.045 C 
HETATM    5  C6  UNL     1     -33.380  15.005  -3.329  1.00 20.00     0.009 C 
ENDROOT
BRANCH   2   6
HETATM    6  C3  UNL     1     -37.068  14.933  -3.886  1.00 20.00     0.288 C 
HETATM    7  O8  UNL     1     -37.968  14.113  -3.722  1.00 20.00    -0.260 OA
BRANCH   6   8
HETATM    8  O9  UNL     1     -37.213  16.241  -4.236  1.00 20.00    -0.323 OA
HETATM    9  C7  UNL     1     -37.161  16.522  -5.638  1.00 20.00     0.213 C 
ENDBRANCH   6   8
ENDBRANCH   2   6
TORSDOF 2
ENDMDL
MODEL 7
REMARK VINA RESULT:      -3.9     11.160     12.340
REMARK  2 active torsions:
REMARK  status: ('A' for Active; 'I' for Inactive)
REMARK    1  A    between atoms: C2_2  and  C3_3 
REMARK    2  A    between atoms: C3_3  and  O9_9 
ROOT
HETATM    1  C1  UNL     1     -34.099  15.459  -5.314  1.00 20.00    -0.013 C 
HETATM    2  C2  UNL     1     -34.608  14.855  -4.234  1.00 20.00     0.013 C 
HETATM    3  C4  UNL     1     -33.300  16.663  -4.946  1.00 20.00     0.028 C 
HETATM    4  C5  UNL     1     -34.230  15.562  -2.972  1.00 20.00     0.045 C 
HETATM    5  C6  UNL     1     -33.689  16.896  -3.486  1.00 20.00     0.009 C 
ENDROOT
BRANCH   2   6
HETATM    6  C3  UNL     1     -35.405  13.668  -4.226  1.00 20.00     0.288 C 
HETATM    7  O8  UNL     1     -35.017  12.575  -4.628  1.00 20.00    -0.260 OA
BRANCH   6   8
HETATM    8  O9  UNL     1     -36.632  13.955  -3.709  1.00 20.00    -0.323 OA
HETATM    9  C7  UNL     1     -37.471  14.791  -4.514  1.00 20.00     0.213 C 
ENDBRANCH   6   8
ENDBRANCH   2   6
TORSDOF 2
ENDMDL
MODEL 8
REMARK VINA RESULT:      -3.9     11.077     11.591
REMARK  2 active torsions:
REMARK  status: ('A' for Active; 'I' for Inactive)
REMARK    1  A    between atoms: C2_2  and  C3_3 
REMARK    2  A    between atoms: C3_3  and  O9_9 
ROOT
HETATM    1  C1  UNL     1     -35.704  14.845  -3.469  1.00 20.00    -0.013 C 
HETATM    2  C2  UNL     1     -34.493  15.261  -3.080  1.00 20.00     0.013 C 
HETATM    3  C4  UNL     1     -35.623  13.591  -4.273  1.00 20.00     0.028 C 
HETATM    4  C5  UNL     1     -33.411  14.350  -3.564  1.00 20.00     0.045 C 
HETATM    5  C6  UNL     1     -34.134  13.495  -4.604  1.00 20.00     0.009 C 
ENDROOT
BRANCH   2   6
HETATM    6  C3  UNL     1     -34.211  16.415  -2.283  1.00 20.00     0.288 C 
HETATM    7  O8  UNL     1     -33.635  17.416  -2.701  1.00 20.00    -0.260 OA
BRANCH   6   8
HETATM    8  O9  UNL     1     -34.680  16.214  -1.021  1.00 20.00    -0.323 OA
HETATM    9  C7  UNL     1     -34.575  17.329  -0.129  1.00 20.00     0.213 C 
ENDBRANCH   6   8
ENDBRANCH   2   6
TORSDOF 2
ENDMDL
MODEL 9
REMARK VINA RESULT:      -3.8     11.634     12.445
REMARK  2 active torsions:
REMARK  status: ('A' for Active; 'I' for Inactive)
REMARK    1  A    between atoms: C2_2  and  C3_3 
REMARK    2  A    between atoms: C3_3  and  O9_9 
ROOT
HETATM    1  C1  UNL     1     -34.620  15.973  -1.910  1.00 20.00    -0.013 C 
HETATM    2  C2  UNL     1     -34.040  16.689  -2.880  1.00 20.00     0.013 C 
HETATM    3  C4  UNL     1     -34.678  16.731  -0.626  1.00 20.00     0.028 C 
HETATM    4  C5  UNL     1     -33.619  18.040  -2.397  1.00 20.00     0.045 C 
HETATM    5  C6  UNL     1     -33.728  17.901  -0.879  1.00 20.00     0.009 C 
ENDROOT
BRANCH   2   6
HETATM    6  C3  UNL     1     -33.841  16.274  -4.233  1.00 20.00     0.288 C 
HETATM    7  O8  UNL     1     -32.882  16.612  -4.924  1.00 20.00    -0.260 OA
BRANCH   6   8
HETATM    8  O9  UNL     1     -34.867  15.461  -4.609  1.00 20.00    -0.323 OA
HETATM    9  C7  UNL     1     -34.495  14.257  -5.287  1.00 20.00     0.213 C 
ENDBRANCH   6   8
ENDBRANCH   2   6
TORSDOF 2
ENDMDL
