MODEL 1
REMARK VINA RESULT:      -5.5      0.000      0.000
REMARK  2 active torsions:
REMARK  status: ('A' for Active; 'I' for Inactive)
REMARK    1  A    between atoms: C1_1  and  C2_2 
REMARK    2  A    between atoms: C1_1  and  C3_3 
ROOT
HETATM    1  C1  UNL     1     -34.147   6.268   4.634  1.00 20.00     0.341 C 
HETATM    2  F4  UNL     1     -32.894   6.347   4.103  1.00 20.00    -0.234 F 
ENDROOT
BRANCH   1   3
HETATM    3  C2  UNL     1     -34.014   5.910   6.098  1.00 20.00     0.395 C 
HETATM    4  F5  UNL     1     -35.234   5.594   6.597  1.00 20.00    -0.211 F 
HETATM    5  F6  UNL     1     -33.567   6.979   6.801  1.00 20.00    -0.211 F 
ENDBRANCH   1   3
BRANCH   1   6
HETATM    6  C3  UNL     1     -34.926   5.242   3.847  1.00 20.00     0.423 C 
HETATM    7  F7  UNL     1     -34.368   5.052   2.632  1.00 20.00    -0.168 F 
HETATM    8  F8  UNL     1     -36.200   5.644   3.651  1.00 20.00    -0.168 F 
HETATM    9  F9  UNL     1     -34.958   4.050   4.479  1.00 20.00    -0.168 F 
ENDBRANCH   1   6
TORSDOF 2
ENDMDL
MODEL 2
REMARK VINA RESULT:      -5.4      0.927      2.768
REMARK  2 active torsions:
REMARK  status: ('A' for Active; 'I' for Inactive)
REMARK    1  A    between atoms: C1_1  and  C2_2 
REMARK    2  A    between atoms: C1_1  and  C3_3 
ROOT
HETATM    1  C1  UNL     1     -33.859   5.606   4.979  1.00 20.00     0.341 C 
HETATM    2  F4  UNL     1     -33.919   6.609   5.900  1.00 20.00    -0.234 F 
ENDROOT
BRANCH   1   3
HETATM    3  C2  UNL     1     -33.693   6.235   3.613  1.00 20.00     0.395 C 
HETATM    4  F5  UNL     1     -33.840   5.282   2.659  1.00 20.00    -0.211 F 
HETATM    5  F6  UNL     1     -32.440   6.735   3.478  1.00 20.00    -0.211 F 
ENDBRANCH   1   3
BRANCH   1   6
HETATM    6  C3  UNL     1     -35.119   4.784   5.098  1.00 20.00     0.423 C 
HETATM    7  F7  UNL     1     -35.597   4.828   6.360  1.00 20.00    -0.168 F 
HETATM    8  F8  UNL     1     -34.885   3.489   4.796  1.00 20.00    -0.168 F 
HETATM    9  F9  UNL     1     -36.087   5.235   4.273  1.00 20.00    -0.168 F 
ENDBRANCH   1   6
TORSDOF 2
ENDMDL
MODEL 3
REMARK VINA RESULT:      -5.3      1.035      2.140
REMARK  2 active torsions:
REMARK  status: ('A' for Active; 'I' for Inactive)
REMARK    1  A    between atoms: C1_1  and  C2_2 
REMARK    2  A    between atoms: C1_1  and  C3_3 
ROOT
HETATM    1  C1  UNL     1     -34.503   4.697   4.768  1.00 20.00     0.341 C 
HETATM    2  F4  UNL     1     -35.151   3.519   4.537  1.00 20.00    -0.234 F 
ENDROOT
BRANCH   1   3
HETATM    3  C2  UNL     1     -35.002   5.255   6.082  1.00 20.00     0.395 C 
HETATM    4  F5  UNL     1     -33.954   5.745   6.789  1.00 20.00    -0.211 F 
HETATM    5  F6  UNL     1     -35.554   4.269   6.829  1.00 20.00    -0.211 F 
ENDBRANCH   1   3
BRANCH   1   6
HETATM    6  C3  UNL     1     -34.769   5.615   3.599  1.00 20.00     0.423 C 
HETATM    7  F7  UNL     1     -34.288   6.852   3.848  1.00 20.00    -0.168 F 
HETATM    8  F8  UNL     1     -36.093   5.732   3.364  1.00 20.00    -0.168 F 
HETATM    9  F9  UNL     1     -34.185   5.163   2.470  1.00 20.00    -0.168 F 
ENDBRANCH   1   6
TORSDOF 2
ENDMDL
MODEL 4
REMARK VINA RESULT:      -5.3      1.225      3.251
REMARK  2 active torsions:
REMARK  status: ('A' for Active; 'I' for Inactive)
REMARK    1  A    between atoms: C1_1  and  C2_2 
REMARK    2  A    between atoms: C1_1  and  C3_3 
ROOT
HETATM    1  C1  UNL     1     -35.119   5.013   4.696  1.00 20.00     0.341 C 
HETATM    2  F4  UNL     1     -35.220   3.702   4.336  1.00 20.00    -0.234 F 
ENDROOT
BRANCH   1   3
HETATM    3  C2  UNL     1     -34.073   5.661   3.817  1.00 20.00     0.395 C 
HETATM    4  F5  UNL     1     -34.285   7.000   3.779  1.00 20.00    -0.211 F 
HETATM    5  F6  UNL     1     -34.187   5.209   2.545  1.00 20.00    -0.211 F 
ENDBRANCH   1   3
BRANCH   1   6
HETATM    6  C3  UNL     1     -34.771   5.070   6.164  1.00 20.00     0.423 C 
HETATM    7  F7  UNL     1     -33.747   4.235   6.442  1.00 20.00    -0.168 F 
HETATM    8  F8  UNL     1     -35.820   4.697   6.928  1.00 20.00    -0.168 F 
HETATM    9  F9  UNL     1     -34.405   6.313   6.540  1.00 20.00    -0.168 F 
ENDBRANCH   1   6
TORSDOF 2
ENDMDL
MODEL 5
REMARK VINA RESULT:      -5.3      1.087      2.184
REMARK  2 active torsions:
REMARK  status: ('A' for Active; 'I' for Inactive)
REMARK    1  A    between atoms: C1_1  and  C2_2 
REMARK    2  A    between atoms: C1_1  and  C3_3 
ROOT
HETATM    1  C1  UNL     1     -34.829   4.878   4.423  1.00 20.00     0.341 C 
HETATM    2  F4  UNL     1     -36.129   5.250   4.249  1.00 20.00    -0.234 F 
ENDROOT
BRANCH   1   3
HETATM    3  C2  UNL     1     -34.552   4.828   5.909  1.00 20.00     0.395 C 
HETATM    4  F5  UNL     1     -35.478   4.043   6.513  1.00 20.00    -0.211 F 
HETATM    5  F6  UNL     1     -34.673   6.065   6.450  1.00 20.00    -0.211 F 
ENDBRANCH   1   3
BRANCH   1   6
HETATM    6  C3  UNL     1     -33.955   5.872   3.696  1.00 20.00     0.423 C 
HETATM    7  F7  UNL     1     -34.481   7.113   3.774  1.00 20.00    -0.168 F 
HETATM    8  F8  UNL     1     -33.845   5.557   2.388  1.00 20.00    -0.168 F 
HETATM    9  F9  UNL     1     -32.712   5.915   4.219  1.00 20.00    -0.168 F 
ENDBRANCH   1   6
TORSDOF 2
ENDMDL
MODEL 6
REMARK VINA RESULT:      -5.3      1.151      2.996
REMARK  2 active torsions:
REMARK  status: ('A' for Active; 'I' for Inactive)
REMARK    1  A    between atoms: C1_1  and  C2_2 
REMARK    2  A    between atoms: C1_1  and  C3_3 
ROOT
HETATM    1  C1  UNL     1     -34.048   5.565   4.958  1.00 20.00     0.341 C 
HETATM    2  F4  UNL     1     -34.135   6.694   5.716  1.00 20.00    -0.234 F 
ENDROOT
BRANCH   1   3
HETATM    3  C2  UNL     1     -34.783   5.814   3.660  1.00 20.00     0.395 C 
HETATM    4  F5  UNL     1     -36.087   5.470   3.808  1.00 20.00    -0.211 F 
HETATM    5  F6  UNL     1     -34.278   5.028   2.678  1.00 20.00    -0.211 F 
ENDBRANCH   1   3
BRANCH   1   6
HETATM    6  C3  UNL     1     -34.629   4.420   5.752  1.00 20.00     0.423 C 
HETATM    7  F7  UNL     1     -35.683   4.838   6.485  1.00 20.00    -0.168 F 
HETATM    8  F8  UNL     1     -33.717   3.906   6.605  1.00 20.00    -0.168 F 
HETATM    9  F9  UNL     1     -35.054   3.423   4.948  1.00 20.00    -0.168 F 
ENDBRANCH   1   6
TORSDOF 2
ENDMDL
MODEL 7
REMARK VINA RESULT:      -5.2      1.107      2.261
REMARK  2 active torsions:
REMARK  status: ('A' for Active; 'I' for Inactive)
REMARK    1  A    between atoms: C1_1  and  C2_2 
REMARK    2  A    between atoms: C1_1  and  C3_3 
ROOT
HETATM    1  C1  UNL     1     -34.754   4.939   4.439  1.00 20.00     0.341 C 
HETATM    2  F4  UNL     1     -36.067   5.215   4.201  1.00 20.00    -0.234 F 
ENDROOT
BRANCH   1   3
HETATM    3  C2  UNL     1     -34.556   4.855   5.936  1.00 20.00     0.395 C 
HETATM    4  F5  UNL     1     -35.467   3.999   6.463  1.00 20.00    -0.211 F 
HETATM    5  F6  UNL     1     -34.779   6.064   6.506  1.00 20.00    -0.211 F 
ENDBRANCH   1   3
BRANCH   1   6
HETATM    6  C3  UNL     1     -33.923   6.023   3.797  1.00 20.00     0.423 C 
HETATM    7  F7  UNL     1     -33.650   5.714   2.511  1.00 20.00    -0.168 F 
HETATM    8  F8  UNL     1     -32.745   6.178   4.437  1.00 20.00    -0.168 F 
HETATM    9  F9  UNL     1     -34.562   7.212   3.810  1.00 20.00    -0.168 F 
ENDBRANCH   1   6
TORSDOF 2
ENDMDL
MODEL 8
REMARK VINA RESULT:      -5.2      1.079      3.083
REMARK  2 active torsions:
REMARK  status: ('A' for Active; 'I' for Inactive)
REMARK    1  A    between atoms: C1_1  and  C2_2 
REMARK    2  A    between atoms: C1_1  and  C3_3 
ROOT
HETATM    1  C1  UNL     1     -34.034   5.579   4.751  1.00 20.00     0.341 C 
HETATM    2  F4  UNL     1     -34.082   6.941   4.709  1.00 20.00    -0.234 F 
ENDROOT
BRANCH   1   3
HETATM    3  C2  UNL     1     -34.874   5.046   3.611  1.00 20.00     0.395 C 
HETATM    4  F5  UNL     1     -34.194   5.188   2.446  1.00 20.00    -0.211 F 
HETATM    5  F6  UNL     1     -36.013   5.771   3.492  1.00 20.00    -0.211 F 
ENDBRANCH   1   3
BRANCH   1   6
HETATM    6  C3  UNL     1     -34.531   5.133   6.105  1.00 20.00     0.423 C 
HETATM    7  F7  UNL     1     -35.668   4.417   5.982  1.00 20.00    -0.168 F 
HETATM    8  F8  UNL     1     -34.800   6.192   6.898  1.00 20.00    -0.168 F 
HETATM    9  F9  UNL     1     -33.622   4.361   6.737  1.00 20.00    -0.168 F 
ENDBRANCH   1   6
TORSDOF 2
ENDMDL
MODEL 9
REMARK VINA RESULT:      -5.1      1.157      2.324
REMARK  2 active torsions:
REMARK  status: ('A' for Active; 'I' for Inactive)
REMARK    1  A    between atoms: C1_1  and  C2_2 
REMARK    2  A    between atoms: C1_1  and  C3_3 
ROOT
HETATM    1  C1  UNL     1     -34.011   6.370   4.569  1.00 20.00     0.341 C 
HETATM    2  F4  UNL     1     -33.183   6.707   5.598  1.00 20.00    -0.234 F 
ENDROOT
BRANCH   1   3
HETATM    3  C2  UNL     1     -34.734   5.096   4.948  1.00 20.00     0.395 C 
HETATM    4  F5  UNL     1     -35.935   5.056   4.319  1.00 20.00    -0.211 F 
HETATM    5  F6  UNL     1     -34.986   5.081   6.280  1.00 20.00    -0.211 F 
ENDBRANCH   1   3
BRANCH   1   6
HETATM    6  C3  UNL     1     -33.174   6.223   3.322  1.00 20.00     0.423 C 
HETATM    7  F7  UNL     1     -32.985   7.422   2.732  1.00 20.00    -0.168 F 
HETATM    8  F8  UNL     1     -33.777   5.417   2.423  1.00 20.00    -0.168 F 
HETATM    9  F9  UNL     1     -31.960   5.702   3.598  1.00 20.00    -0.168 F 
ENDBRANCH   1   6
TORSDOF 2
ENDMDL
