MODEL 1
REMARK VINA RESULT:      -3.7      0.000      0.000
REMARK  1 active torsions:
REMARK  status: ('A' for Active; 'I' for Inactive)
REMARK    1  A    between atoms: C4_4  and  N7_7 
ROOT
HETATM    1  C1  UNL     1     -32.082   8.047   2.409  1.00 20.00     0.163 C 
HETATM    2  N7  UNL     1     -31.800   7.214   3.204  1.00 20.00    -0.231 NA
HETATM    3  S9  UNL     1     -32.448   9.169   1.338  1.00 20.00    -0.055 SA
ENDROOT
BRANCH   2   4
HETATM    4  C4  UNL     1     -32.883   6.477   3.651  1.00 20.00     0.094 A 
HETATM    5  C2  UNL     1     -33.841   5.799   2.872  1.00 20.00     0.171 A 
HETATM    6  N6  UNL     1     -34.763   5.179   3.611  1.00 20.00    -0.183 NA
HETATM    7  N8  UNL     1     -34.388   5.465   4.870  1.00 20.00    -0.283 N 
HETATM    8  C3  UNL     1     -33.268   6.239   4.949  1.00 20.00     0.145 A 
HETATM    9  C5  UNL     1     -35.158   4.957   5.980  1.00 20.00     0.179 C 
ENDBRANCH   2   4
TORSDOF 1
ENDMDL
MODEL 2
REMARK VINA RESULT:      -3.5     11.161     12.158
REMARK  1 active torsions:
REMARK  status: ('A' for Active; 'I' for Inactive)
REMARK    1  A    between atoms: C4_4  and  N7_7 
ROOT
HETATM    1  C1  UNL     1     -33.811  16.160  -2.401  1.00 20.00     0.163 C 
HETATM    2  N7  UNL     1     -33.121  15.759  -3.279  1.00 20.00    -0.231 NA
HETATM    3  S9  UNL     1     -34.726  16.706  -1.216  1.00 20.00    -0.055 SA
ENDROOT
BRANCH   2   4
HETATM    4  C4  UNL     1     -33.805  15.036  -4.242  1.00 20.00     0.094 A 
HETATM    5  C2  UNL     1     -34.228  13.695  -4.168  1.00 20.00     0.171 A 
HETATM    6  N6  UNL     1     -34.866  13.294  -5.270  1.00 20.00    -0.183 NA
HETATM    7  N8  UNL     1     -34.849  14.388  -6.049  1.00 20.00    -0.283 N 
HETATM    8  C3  UNL     1     -34.225  15.460  -5.479  1.00 20.00     0.145 A 
HETATM    9  C5  UNL     1     -35.459  14.348  -7.356  1.00 20.00     0.179 C 
ENDBRANCH   2   4
TORSDOF 1
ENDMDL
MODEL 3
REMARK VINA RESULT:      -3.4     11.384     12.350
REMARK  1 active torsions:
REMARK  status: ('A' for Active; 'I' for Inactive)
REMARK    1  A    between atoms: C4_4  and  N7_7 
ROOT
HETATM    1  C1  UNL     1     -38.195  15.180  -3.631  1.00 20.00     0.163 C 
HETATM    2  N7  UNL     1     -37.581  14.185  -3.831  1.00 20.00    -0.231 NA
HETATM    3  S9  UNL     1     -39.031  16.509  -3.358  1.00 20.00    -0.055 SA
ENDROOT
BRANCH   2   4
HETATM    4  C4  UNL     1     -36.240  14.401  -4.102  1.00 20.00     0.094 A 
HETATM    5  C2  UNL     1     -35.238  13.431  -4.298  1.00 20.00     0.171 A 
HETATM    6  N6  UNL     1     -34.041  13.968  -4.542  1.00 20.00    -0.183 NA
HETATM    7  N8  UNL     1     -34.284  15.289  -4.501  1.00 20.00    -0.283 N 
HETATM    8  C3  UNL     1     -35.587  15.601  -4.241  1.00 20.00     0.145 A 
HETATM    9  C5  UNL     1     -33.208  16.224  -4.724  1.00 20.00     0.179 C 
ENDBRANCH   2   4
TORSDOF 1
ENDMDL
MODEL 4
REMARK VINA RESULT:      -3.4     11.220     11.518
REMARK  1 active torsions:
REMARK  status: ('A' for Active; 'I' for Inactive)
REMARK    1  A    between atoms: C4_4  and  N7_7 
ROOT
HETATM    1  C1  UNL     1     -34.279  17.125  -0.786  1.00 20.00     0.163 C 
HETATM    2  N7  UNL     1     -33.680  16.831  -1.766  1.00 20.00    -0.231 NA
HETATM    3  S9  UNL     1     -35.075  17.530   0.534  1.00 20.00    -0.055 SA
ENDROOT
BRANCH   2   4
HETATM    4  C4  UNL     1     -34.339  15.919  -2.573  1.00 20.00     0.094 A 
HETATM    5  C2  UNL     1     -35.727  15.811  -2.789  1.00 20.00     0.171 A 
HETATM    6  N6  UNL     1     -36.042  14.822  -3.628  1.00 20.00    -0.183 NA
HETATM    7  N8  UNL     1     -34.847  14.298  -3.947  1.00 20.00    -0.283 N 
HETATM    8  C3  UNL     1     -33.794  14.920  -3.341  1.00 20.00     0.145 A 
HETATM    9  C5  UNL     1     -34.773  13.180  -4.857  1.00 20.00     0.179 C 
ENDBRANCH   2   4
TORSDOF 1
ENDMDL
MODEL 5
REMARK VINA RESULT:      -3.4     11.116     11.551
REMARK  1 active torsions:
REMARK  status: ('A' for Active; 'I' for Inactive)
REMARK    1  A    between atoms: C4_4  and  N7_7 
ROOT
HETATM    1  C1  UNL     1     -34.099  16.613  -1.607  1.00 20.00     0.163 C 
HETATM    2  N7  UNL     1     -33.844  15.992  -2.584  1.00 20.00    -0.231 NA
HETATM    3  S9  UNL     1     -34.430  17.453  -0.294  1.00 20.00    -0.055 SA
ENDROOT
BRANCH   2   4
HETATM    4  C4  UNL     1     -34.933  15.331  -3.128  1.00 20.00     0.094 A 
HETATM    5  C2  UNL     1     -34.941  14.081  -3.777  1.00 20.00     0.171 A 
HETATM    6  N6  UNL     1     -36.159  13.721  -4.187  1.00 20.00    -0.183 NA
HETATM    7  N8  UNL     1     -36.930  14.749  -3.795  1.00 20.00    -0.283 N 
HETATM    8  C3  UNL     1     -36.244  15.740  -3.155  1.00 20.00     0.145 A 
HETATM    9  C5  UNL     1     -38.348  14.728  -4.066  1.00 20.00     0.179 C 
ENDBRANCH   2   4
TORSDOF 1
ENDMDL
MODEL 6
REMARK VINA RESULT:      -3.4     11.428     13.101
REMARK  1 active torsions:
REMARK  status: ('A' for Active; 'I' for Inactive)
REMARK    1  A    between atoms: C4_4  and  N7_7 
ROOT
HETATM    1  C1  UNL     1     -34.575  16.682  -1.011  1.00 20.00     0.163 C 
HETATM    2  N7  UNL     1     -34.629  15.883  -1.885  1.00 20.00    -0.231 NA
HETATM    3  S9  UNL     1     -34.508  17.746   0.173  1.00 20.00    -0.055 SA
ENDROOT
BRANCH   2   4
HETATM    4  C4  UNL     1     -34.116  16.336  -3.090  1.00 20.00     0.094 A 
HETATM    5  C2  UNL     1     -33.173  15.694  -3.916  1.00 20.00     0.171 A 
HETATM    6  N6  UNL     1     -32.887  16.397  -5.014  1.00 20.00    -0.183 NA
HETATM    7  N8  UNL     1     -33.654  17.493  -4.884  1.00 20.00    -0.283 N 
HETATM    8  C3  UNL     1     -34.410  17.505  -3.748  1.00 20.00     0.145 A 
HETATM    9  C5  UNL     1     -33.620  18.516  -5.901  1.00 20.00     0.179 C 
ENDBRANCH   2   4
TORSDOF 1
ENDMDL
MODEL 7
REMARK VINA RESULT:      -3.3     11.584     12.246
REMARK  1 active torsions:
REMARK  status: ('A' for Active; 'I' for Inactive)
REMARK    1  A    between atoms: C4_4  and  N7_7 
ROOT
HETATM    1  C1  UNL     1     -34.875  14.259  -6.334  1.00 20.00     0.163 C 
HETATM    2  N7  UNL     1     -34.409  13.877  -5.313  1.00 20.00    -0.231 NA
HETATM    3  S9  UNL     1     -35.500  14.759  -7.712  1.00 20.00    -0.055 SA
ENDROOT
BRANCH   2   4
HETATM    4  C4  UNL     1     -34.239  14.875  -4.367  1.00 20.00     0.094 A 
HETATM    5  C2  UNL     1     -33.563  16.100  -4.526  1.00 20.00     0.171 A 
HETATM    6  N6  UNL     1     -33.579  16.845  -3.419  1.00 20.00    -0.183 NA
HETATM    7  N8  UNL     1     -34.270  16.088  -2.551  1.00 20.00    -0.283 N 
HETATM    8  C3  UNL     1     -34.688  14.897  -3.070  1.00 20.00     0.145 A 
HETATM    9  C5  UNL     1     -34.503  16.566  -1.209  1.00 20.00     0.179 C 
ENDBRANCH   2   4
TORSDOF 1
ENDMDL
MODEL 8
REMARK VINA RESULT:      -3.2     10.368     11.557
REMARK  1 active torsions:
REMARK  status: ('A' for Active; 'I' for Inactive)
REMARK    1  A    between atoms: C4_4  and  N7_7 
ROOT
HETATM    1  C1  UNL     1     -42.263   2.321  -2.943  1.00 20.00     0.163 C 
HETATM    2  N7  UNL     1     -42.782   3.025  -2.142  1.00 20.00    -0.231 NA
HETATM    3  S9  UNL     1     -41.572   1.364  -4.015  1.00 20.00    -0.055 SA
ENDROOT
BRANCH   2   4
HETATM    4  C4  UNL     1     -42.377   4.347  -2.214  1.00 20.00     0.094 A 
HETATM    5  C2  UNL     1     -41.319   4.960  -1.514  1.00 20.00     0.171 A 
HETATM    6  N6  UNL     1     -41.188   6.255  -1.808  1.00 20.00    -0.183 NA
HETATM    7  N8  UNL     1     -42.170   6.467  -2.701  1.00 20.00    -0.283 N 
HETATM    8  C3  UNL     1     -42.911   5.355  -2.979  1.00 20.00     0.145 A 
HETATM    9  C5  UNL     1     -42.353   7.782  -3.267  1.00 20.00     0.179 C 
ENDBRANCH   2   4
TORSDOF 1
ENDMDL
MODEL 9
REMARK VINA RESULT:      -3.2     11.654     13.025
REMARK  1 active torsions:
REMARK  status: ('A' for Active; 'I' for Inactive)
REMARK    1  A    between atoms: C4_4  and  N7_7 
ROOT
HETATM    1  C1  UNL     1     -33.816  16.031  -2.588  1.00 20.00     0.163 C 
HETATM    2  N7  UNL     1     -33.145  15.505  -3.412  1.00 20.00    -0.231 NA
HETATM    3  S9  UNL     1     -34.708  16.735  -1.471  1.00 20.00    -0.055 SA
ENDROOT
BRANCH   2   4
HETATM    4  C4  UNL     1     -33.681  15.557  -4.688  1.00 20.00     0.094 A 
HETATM    5  C2  UNL     1     -33.621  16.628  -5.601  1.00 20.00     0.171 A 
HETATM    6  N6  UNL     1     -34.240  16.359  -6.752  1.00 20.00    -0.183 NA
HETATM    7  N8  UNL     1     -34.697  15.109  -6.569  1.00 20.00    -0.283 N 
HETATM    8  C3  UNL     1     -34.388  14.583  -5.349  1.00 20.00     0.145 A 
HETATM    9  C5  UNL     1     -35.438  14.454  -7.621  1.00 20.00     0.179 C 
ENDBRANCH   2   4
TORSDOF 1
ENDMDL
