MODEL 1
REMARK VINA RESULT:      -4.2      0.000      0.000
REMARK  2 active torsions:
REMARK  status: ('A' for Active; 'I' for Inactive)
REMARK    1  A    between atoms: C1_1  and  C4_4 
REMARK    2  A    between atoms: C1_1  and  O8_8 
ROOT
HETATM    1  C2  UNL     1     -35.169   5.004   6.269  1.00 20.00     0.020 A 
HETATM    2  C3  UNL     1     -34.470   3.940   5.480  1.00 20.00     0.020 A 
HETATM    3  C4  UNL     1     -34.692   5.306   4.865  1.00 20.00     0.044 A 
HETATM    4  C5  UNL     1     -35.746   5.410   3.791  1.00 20.00     0.026 C 
ENDROOT
BRANCH   3   5
HETATM    5  C1  UNL     1     -33.505   6.184   4.731  1.00 20.00     0.266 C 
HETATM    6  O7  UNL     1     -33.100   6.927   5.616  1.00 20.00    -0.264 OA
BRANCH   5   7
HETATM    7  O8  UNL     1     -32.958   6.027   3.493  1.00 20.00    -0.326 OA
HETATM    8  C6  UNL     1     -32.224   7.152   2.997  1.00 20.00     0.213 C 
ENDBRANCH   5   7
ENDBRANCH   3   5
TORSDOF 2
ENDMDL
MODEL 2
REMARK VINA RESULT:      -4.2      1.064      1.870
REMARK  2 active torsions:
REMARK  status: ('A' for Active; 'I' for Inactive)
REMARK    1  A    between atoms: C1_1  and  C4_4 
REMARK    2  A    between atoms: C1_1  and  O8_8 
ROOT
HETATM    1  C2  UNL     1     -34.200   4.100   5.609  1.00 20.00     0.020 A 
HETATM    2  C3  UNL     1     -35.483   4.767   5.221  1.00 20.00     0.020 A 
HETATM    3  C4  UNL     1     -34.192   5.558   5.202  1.00 20.00     0.044 A 
HETATM    4  C5  UNL     1     -33.995   6.575   6.299  1.00 20.00     0.026 C 
ENDROOT
BRANCH   3   5
HETATM    5  C1  UNL     1     -33.623   5.882   3.872  1.00 20.00     0.266 C 
HETATM    6  O7  UNL     1     -34.046   5.430   2.817  1.00 20.00    -0.264 OA
BRANCH   5   7
HETATM    7  O8  UNL     1     -32.578   6.745   4.021  1.00 20.00    -0.326 OA
HETATM    8  C6  UNL     1     -32.150   7.406   2.825  1.00 20.00     0.213 C 
ENDBRANCH   5   7
ENDBRANCH   3   5
TORSDOF 2
ENDMDL
MODEL 3
REMARK VINA RESULT:      -3.7     12.262     13.179
REMARK  2 active torsions:
REMARK  status: ('A' for Active; 'I' for Inactive)
REMARK    1  A    between atoms: C1_1  and  C4_4 
REMARK    2  A    between atoms: C1_1  and  O8_8 
ROOT
HETATM    1  C2  UNL     1     -33.196  15.949  -4.504  1.00 20.00     0.020 A 
HETATM    2  C3  UNL     1     -32.692  14.886  -3.578  1.00 20.00     0.020 A 
HETATM    3  C4  UNL     1     -34.134  14.855  -4.041  1.00 20.00     0.044 A 
HETATM    4  C5  UNL     1     -35.186  15.237  -3.030  1.00 20.00     0.026 C 
ENDROOT
BRANCH   3   5
HETATM    5  C1  UNL     1     -34.498  13.816  -5.034  1.00 20.00     0.266 C 
HETATM    6  O7  UNL     1     -34.775  12.660  -4.745  1.00 20.00    -0.264 OA
BRANCH   5   7
HETATM    7  O8  UNL     1     -34.474  14.354  -6.286  1.00 20.00    -0.326 OA
HETATM    8  C6  UNL     1     -35.755  14.621  -6.867  1.00 20.00     0.213 C 
ENDBRANCH   5   7
ENDBRANCH   3   5
TORSDOF 2
ENDMDL
MODEL 4
REMARK VINA RESULT:      -3.7      1.362      3.167
REMARK  2 active torsions:
REMARK  status: ('A' for Active; 'I' for Inactive)
REMARK    1  A    between atoms: C1_1  and  C4_4 
REMARK    2  A    between atoms: C1_1  and  O8_8 
ROOT
HETATM    1  C2  UNL     1     -32.064   6.121   3.326  1.00 20.00     0.020 A 
HETATM    2  C3  UNL     1     -32.895   7.338   3.056  1.00 20.00     0.020 A 
HETATM    3  C4  UNL     1     -33.560   6.070   3.550  1.00 20.00     0.044 A 
HETATM    4  C5  UNL     1     -34.377   5.290   2.550  1.00 20.00     0.026 C 
ENDROOT
BRANCH   3   5
HETATM    5  C1  UNL     1     -34.030   6.063   4.957  1.00 20.00     0.266 C 
HETATM    6  O7  UNL     1     -33.495   6.691   5.861  1.00 20.00    -0.264 OA
BRANCH   5   7
HETATM    7  O8  UNL     1     -35.126   5.260   5.067  1.00 20.00    -0.326 OA
HETATM    8  C6  UNL     1     -34.980   4.138   5.944  1.00 20.00     0.213 C 
ENDBRANCH   5   7
ENDBRANCH   3   5
TORSDOF 2
ENDMDL
MODEL 5
REMARK VINA RESULT:      -3.6      1.290      2.595
REMARK  2 active torsions:
REMARK  status: ('A' for Active; 'I' for Inactive)
REMARK    1  A    between atoms: C1_1  and  C4_4 
REMARK    2  A    between atoms: C1_1  and  O8_8 
ROOT
HETATM    1  C2  UNL     1     -34.562   4.993   3.074  1.00 20.00     0.020 A 
HETATM    2  C3  UNL     1     -35.743   5.713   3.646  1.00 20.00     0.020 A 
HETATM    3  C4  UNL     1     -34.646   5.224   4.567  1.00 20.00     0.044 A 
HETATM    4  C5  UNL     1     -34.959   4.026   5.430  1.00 20.00     0.026 C 
ENDROOT
BRANCH   3   5
HETATM    5  C1  UNL     1     -33.743   6.250   5.141  1.00 20.00     0.266 C 
HETATM    6  O7  UNL     1     -32.843   6.796   4.517  1.00 20.00    -0.264 OA
BRANCH   5   7
HETATM    7  O8  UNL     1     -34.076   6.475   6.443  1.00 20.00    -0.326 OA
HETATM    8  C6  UNL     1     -33.384   7.556   7.078  1.00 20.00     0.213 C 
ENDBRANCH   5   7
ENDBRANCH   3   5
TORSDOF 2
ENDMDL
MODEL 6
REMARK VINA RESULT:      -3.5     12.170     13.003
REMARK  2 active torsions:
REMARK  status: ('A' for Active; 'I' for Inactive)
REMARK    1  A    between atoms: C1_1  and  C4_4 
REMARK    2  A    between atoms: C1_1  and  O8_8 
ROOT
HETATM    1  C2  UNL     1     -32.806  14.638  -3.637  1.00 20.00     0.020 A 
HETATM    2  C3  UNL     1     -33.811  15.570  -3.035  1.00 20.00     0.020 A 
HETATM    3  C4  UNL     1     -34.062  14.983  -4.408  1.00 20.00     0.044 A 
HETATM    4  C5  UNL     1     -33.909  15.910  -5.588  1.00 20.00     0.026 C 
ENDROOT
BRANCH   3   5
HETATM    5  C1  UNL     1     -35.100  13.929  -4.509  1.00 20.00     0.266 C 
HETATM    6  O7  UNL     1     -34.915  12.755  -4.218  1.00 20.00    -0.264 OA
BRANCH   5   7
HETATM    7  O8  UNL     1     -36.262  14.476  -4.966  1.00 20.00    -0.326 OA
HETATM    8  C6  UNL     1     -37.287  14.657  -3.982  1.00 20.00     0.213 C 
ENDBRANCH   5   7
ENDBRANCH   3   5
TORSDOF 2
ENDMDL
MODEL 7
REMARK VINA RESULT:      -3.4     12.377     13.543
REMARK  2 active torsions:
REMARK  status: ('A' for Active; 'I' for Inactive)
REMARK    1  A    between atoms: C1_1  and  C4_4 
REMARK    2  A    between atoms: C1_1  and  O8_8 
ROOT
HETATM    1  C2  UNL     1     -35.465  14.295  -7.156  1.00 20.00     0.020 A 
HETATM    2  C3  UNL     1     -34.287  15.182  -6.895  1.00 20.00     0.020 A 
HETATM    3  C4  UNL     1     -35.221  14.823  -5.759  1.00 20.00     0.044 A 
HETATM    4  C5  UNL     1     -36.147  15.907  -5.264  1.00 20.00     0.026 C 
ENDROOT
BRANCH   3   5
HETATM    5  C1  UNL     1     -34.716  13.857  -4.753  1.00 20.00     0.266 C 
HETATM    6  O7  UNL     1     -34.695  12.645  -4.918  1.00 20.00    -0.264 OA
BRANCH   5   7
HETATM    7  O8  UNL     1     -34.292  14.531  -3.646  1.00 20.00    -0.326 OA
HETATM    8  C6  UNL     1     -32.898  14.853  -3.619  1.00 20.00     0.213 C 
ENDBRANCH   5   7
ENDBRANCH   3   5
TORSDOF 2
ENDMDL
MODEL 8
REMARK VINA RESULT:      -3.4     12.456     13.445
REMARK  2 active torsions:
REMARK  status: ('A' for Active; 'I' for Inactive)
REMARK    1  A    between atoms: C1_1  and  C4_4 
REMARK    2  A    between atoms: C1_1  and  O8_8 
ROOT
HETATM    1  C2  UNL     1     -35.636  14.971  -3.420  1.00 20.00     0.020 A 
HETATM    2  C3  UNL     1     -34.599  15.636  -2.568  1.00 20.00     0.020 A 
HETATM    3  C4  UNL     1     -34.188  14.967  -3.862  1.00 20.00     0.044 A 
HETATM    4  C5  UNL     1     -33.441  13.661  -3.751  1.00 20.00     0.026 C 
ENDROOT
BRANCH   3   5
HETATM    5  C1  UNL     1     -33.828  15.856  -4.993  1.00 20.00     0.266 C 
HETATM    6  O7  UNL     1     -32.811  16.535  -5.033  1.00 20.00    -0.264 OA
BRANCH   5   7
HETATM    7  O8  UNL     1     -34.794  15.788  -5.952  1.00 20.00    -0.326 OA
HETATM    8  C6  UNL     1     -34.457  15.022  -7.113  1.00 20.00     0.213 C 
ENDBRANCH   5   7
ENDBRANCH   3   5
TORSDOF 2
ENDMDL
MODEL 9
REMARK VINA RESULT:      -3.4     11.952     12.736
REMARK  2 active torsions:
REMARK  status: ('A' for Active; 'I' for Inactive)
REMARK    1  A    between atoms: C1_1  and  C4_4 
REMARK    2  A    between atoms: C1_1  and  O8_8 
ROOT
HETATM    1  C2  UNL     1     -36.612  15.841  -3.657  1.00 20.00     0.020 A 
HETATM    2  C3  UNL     1     -37.509  14.672  -3.921  1.00 20.00     0.020 A 
HETATM    3  C4  UNL     1     -36.145  14.732  -4.575  1.00 20.00     0.044 A 
HETATM    4  C5  UNL     1     -36.106  15.036  -6.052  1.00 20.00     0.026 C 
ENDROOT
BRANCH   3   5
HETATM    5  C1  UNL     1     -35.106  13.814  -4.049  1.00 20.00     0.266 C 
HETATM    6  O7  UNL     1     -35.012  12.635  -4.362  1.00 20.00    -0.264 OA
BRANCH   5   7
HETATM    7  O8  UNL     1     -34.299  14.488  -3.182  1.00 20.00    -0.326 OA
HETATM    8  C6  UNL     1     -33.028  14.886  -3.708  1.00 20.00     0.213 C 
ENDBRANCH   5   7
ENDBRANCH   3   5
TORSDOF 2
ENDMDL
