MODEL 1
REMARK VINA RESULT:      -5.3      0.000      0.000
REMARK  4 active torsions:
REMARK  status: ('A' for Active; 'I' for Inactive)
REMARK    1  A    between atoms: C3_3  and  C6_6 
REMARK    2  A    between atoms: C5_5  and  C7_7 
REMARK    3  A    between atoms: C6_6  and  C8_8 
REMARK    4  A    between atoms: C7_7  and  C8_8 
ROOT
HETATM    1  C1  UNL     1     -32.065   8.112   2.148  1.00 20.00     0.059 C 
HETATM    2  C5  UNL     1     -32.135   7.306   3.375  1.00 20.00     0.124 C 
HETATM    3  N9  UNL     1     -32.009   8.749   1.181  1.00 20.00    -0.197 NA
ENDROOT
BRANCH   2   4
HETATM    4  C7  UNL     1     -32.313   5.815   3.078  1.00 20.00     0.014 C 
BRANCH   4   5
HETATM    5  C8  UNL     1     -33.787   5.414   2.929  1.00 20.00     0.005 C 
BRANCH   5   6
HETATM    6  C6  UNL     1     -34.693   6.046   3.992  1.00 20.00     0.033 C 
BRANCH   6   7
HETATM    7  C3  UNL     1     -34.588   5.420   5.364  1.00 20.00    -0.093 C 
HETATM    8  C2  UNL     1     -34.883   4.127   5.568  1.00 20.00     0.014 C 
HETATM    9  C4  UNL     1     -34.106   6.298   6.482  1.00 20.00     0.042 C 
ENDBRANCH   6   7
ENDBRANCH   5   6
ENDBRANCH   4   5
ENDBRANCH   2   4
TORSDOF 4
ENDMDL
MODEL 2
REMARK VINA RESULT:      -5.3      0.220      1.189
REMARK  4 active torsions:
REMARK  status: ('A' for Active; 'I' for Inactive)
REMARK    1  A    between atoms: C3_3  and  C6_6 
REMARK    2  A    between atoms: C5_5  and  C7_7 
REMARK    3  A    between atoms: C6_6  and  C8_8 
REMARK    4  A    between atoms: C7_7  and  C8_8 
ROOT
HETATM    1  C1  UNL     1     -32.025   8.244   1.994  1.00 20.00     0.059 C 
HETATM    2  C5  UNL     1     -32.077   7.491   3.255  1.00 20.00     0.124 C 
HETATM    3  N9  UNL     1     -31.983   8.839   1.000  1.00 20.00    -0.197 NA
ENDROOT
BRANCH   2   4
HETATM    4  C7  UNL     1     -32.176   5.982   3.023  1.00 20.00     0.014 C 
BRANCH   4   5
HETATM    5  C8  UNL     1     -33.625   5.475   3.035  1.00 20.00     0.005 C 
BRANCH   5   6
HETATM    6  C6  UNL     1     -34.509   6.206   4.052  1.00 20.00     0.033 C 
BRANCH   6   7
HETATM    7  C3  UNL     1     -34.429   5.663   5.461  1.00 20.00    -0.093 C 
HETATM    8  C2  UNL     1     -34.001   6.422   6.481  1.00 20.00     0.014 C 
HETATM    9  C4  UNL     1     -34.882   4.248   5.676  1.00 20.00     0.042 C 
ENDBRANCH   6   7
ENDBRANCH   5   6
ENDBRANCH   4   5
ENDBRANCH   2   4
TORSDOF 4
ENDMDL
MODEL 3
REMARK VINA RESULT:      -4.6      2.132      4.310
REMARK  4 active torsions:
REMARK  status: ('A' for Active; 'I' for Inactive)
REMARK    1  A    between atoms: C3_3  and  C6_6 
REMARK    2  A    between atoms: C5_5  and  C7_7 
REMARK    3  A    between atoms: C6_6  and  C8_8 
REMARK    4  A    between atoms: C7_7  and  C8_8 
ROOT
HETATM    1  C1  UNL     1     -34.181   6.129   6.340  1.00 20.00     0.059 C 
HETATM    2  C5  UNL     1     -34.808   4.915   5.800  1.00 20.00     0.124 C 
HETATM    3  N9  UNL     1     -33.685   7.087   6.766  1.00 20.00    -0.197 NA
ENDROOT
BRANCH   2   4
HETATM    4  C7  UNL     1     -34.909   4.947   4.273  1.00 20.00     0.014 C 
BRANCH   4   5
HETATM    5  C8  UNL     1     -34.371   6.252   3.671  1.00 20.00     0.005 C 
BRANCH   5   6
HETATM    6  C6  UNL     1     -33.015   6.080   2.977  1.00 20.00     0.033 C 
BRANCH   6   7
HETATM    7  C3  UNL     1     -32.132   7.307   3.006  1.00 20.00    -0.093 C 
HETATM    8  C2  UNL     1     -31.357   7.588   4.064  1.00 20.00     0.014 C 
HETATM    9  C4  UNL     1     -32.135   8.180   1.785  1.00 20.00     0.042 C 
ENDBRANCH   6   7
ENDBRANCH   5   6
ENDBRANCH   4   5
ENDBRANCH   2   4
TORSDOF 4
ENDMDL
MODEL 4
REMARK VINA RESULT:      -4.5      2.696      5.077
REMARK  4 active torsions:
REMARK  status: ('A' for Active; 'I' for Inactive)
REMARK    1  A    between atoms: C3_3  and  C6_6 
REMARK    2  A    between atoms: C5_5  and  C7_7 
REMARK    3  A    between atoms: C6_6  and  C8_8 
REMARK    4  A    between atoms: C7_7  and  C8_8 
ROOT
HETATM    1  C1  UNL     1     -34.987   4.675   4.971  1.00 20.00     0.059 C 
HETATM    2  C5  UNL     1     -34.794   5.433   3.726  1.00 20.00     0.124 C 
HETATM    3  N9  UNL     1     -35.139   4.076   5.952  1.00 20.00    -0.197 NA
ENDROOT
BRANCH   2   4
HETATM    4  C7  UNL     1     -33.798   6.582   3.898  1.00 20.00     0.014 C 
BRANCH   4   5
HETATM    5  C8  UNL     1     -32.612   6.487   2.928  1.00 20.00     0.005 C 
BRANCH   5   6
HETATM    6  C6  UNL     1     -31.766   7.765   2.885  1.00 20.00     0.033 C 
BRANCH   6   7
HETATM    7  C3  UNL     1     -32.040   8.664   1.701  1.00 20.00    -0.093 C 
HETATM    8  C2  UNL     1     -31.673   8.317   0.459  1.00 20.00     0.014 C 
HETATM    9  C4  UNL     1     -32.773   9.946   1.971  1.00 20.00     0.042 C 
ENDBRANCH   6   7
ENDBRANCH   5   6
ENDBRANCH   4   5
ENDBRANCH   2   4
TORSDOF 4
ENDMDL
MODEL 5
REMARK VINA RESULT:      -4.4      2.560      4.695
REMARK  4 active torsions:
REMARK  status: ('A' for Active; 'I' for Inactive)
REMARK    1  A    between atoms: C3_3  and  C6_6 
REMARK    2  A    between atoms: C5_5  and  C7_7 
REMARK    3  A    between atoms: C6_6  and  C8_8 
REMARK    4  A    between atoms: C7_7  and  C8_8 
ROOT
HETATM    1  C1  UNL     1     -34.885   4.401   5.714  1.00 20.00     0.059 C 
HETATM    2  C5  UNL     1     -34.515   5.629   6.433  1.00 20.00     0.124 C 
HETATM    3  N9  UNL     1     -35.178   3.433   5.148  1.00 20.00    -0.197 NA
ENDROOT
BRANCH   2   4
HETATM    4  C7  UNL     1     -33.758   6.615   5.541  1.00 20.00     0.014 C 
BRANCH   4   5
HETATM    5  C8  UNL     1     -34.058   6.415   4.050  1.00 20.00     0.005 C 
BRANCH   5   6
HETATM    6  C6  UNL     1     -32.794   6.231   3.201  1.00 20.00     0.033 C 
BRANCH   6   7
HETATM    7  C3  UNL     1     -31.936   7.469   3.073  1.00 20.00    -0.093 C 
HETATM    8  C2  UNL     1     -31.019   7.786   4.000  1.00 20.00     0.014 C 
HETATM    9  C4  UNL     1     -32.130   8.312   1.845  1.00 20.00     0.042 C 
ENDBRANCH   6   7
ENDBRANCH   5   6
ENDBRANCH   4   5
ENDBRANCH   2   4
TORSDOF 4
ENDMDL
MODEL 6
REMARK VINA RESULT:      -4.1     10.984     11.844
REMARK  4 active torsions:
REMARK  status: ('A' for Active; 'I' for Inactive)
REMARK    1  A    between atoms: C3_3  and  C6_6 
REMARK    2  A    between atoms: C5_5  and  C7_7 
REMARK    3  A    between atoms: C6_6  and  C8_8 
REMARK    4  A    between atoms: C7_7  and  C8_8 
ROOT
HETATM    1  C1  UNL     1     -34.095  13.593  -4.125  1.00 20.00     0.059 C 
HETATM    2  C5  UNL     1     -33.172  14.573  -3.537  1.00 20.00     0.124 C 
HETATM    3  N9  UNL     1     -34.824  12.819  -4.589  1.00 20.00    -0.197 NA
ENDROOT
BRANCH   2   4
HETATM    4  C7  UNL     1     -33.472  16.000  -3.999  1.00 20.00     0.014 C 
BRANCH   4   5
HETATM    5  C8  UNL     1     -34.514  16.701  -3.117  1.00 20.00     0.005 C 
BRANCH   5   6
HETATM    6  C6  UNL     1     -34.502  16.208  -1.665  1.00 20.00     0.033 C 
BRANCH   6   7
HETATM    7  C3  UNL     1     -34.187  17.273  -0.640  1.00 20.00    -0.093 C 
HETATM    8  C2  UNL     1     -33.169  18.131  -0.812  1.00 20.00     0.014 C 
HETATM    9  C4  UNL     1     -35.082  17.353   0.562  1.00 20.00     0.042 C 
ENDBRANCH   6   7
ENDBRANCH   5   6
ENDBRANCH   4   5
ENDBRANCH   2   4
TORSDOF 4
ENDMDL
MODEL 7
REMARK VINA RESULT:      -3.9     11.207     12.189
REMARK  4 active torsions:
REMARK  status: ('A' for Active; 'I' for Inactive)
REMARK    1  A    between atoms: C3_3  and  C6_6 
REMARK    2  A    between atoms: C5_5  and  C7_7 
REMARK    3  A    between atoms: C6_6  and  C8_8 
REMARK    4  A    between atoms: C7_7  and  C8_8 
ROOT
HETATM    1  C1  UNL     1     -32.656  18.858   0.097  1.00 20.00     0.059 C 
HETATM    2  C5  UNL     1     -34.098  18.581   0.148  1.00 20.00     0.124 C 
HETATM    3  N9  UNL     1     -31.517  19.077   0.058  1.00 20.00    -0.197 NA
ENDROOT
BRANCH   2   4
HETATM    4  C7  UNL     1     -34.426  17.145  -0.267  1.00 20.00     0.014 C 
BRANCH   4   5
HETATM    5  C8  UNL     1     -33.956  16.819  -1.691  1.00 20.00     0.005 C 
BRANCH   5   6
HETATM    6  C6  UNL     1     -34.806  15.740  -2.373  1.00 20.00     0.033 C 
BRANCH   6   7
HETATM    7  C3  UNL     1     -34.049  14.856  -3.337  1.00 20.00    -0.093 C 
HETATM    8  C2  UNL     1     -32.773  15.109  -3.665  1.00 20.00     0.014 C 
HETATM    9  C4  UNL     1     -34.775  13.662  -3.886  1.00 20.00     0.042 C 
ENDBRANCH   6   7
ENDBRANCH   5   6
ENDBRANCH   4   5
ENDBRANCH   2   4
TORSDOF 4
ENDMDL
MODEL 8
REMARK VINA RESULT:      -3.9     10.970     12.181
REMARK  4 active torsions:
REMARK  status: ('A' for Active; 'I' for Inactive)
REMARK    1  A    between atoms: C3_3  and  C6_6 
REMARK    2  A    between atoms: C5_5  and  C7_7 
REMARK    3  A    between atoms: C6_6  and  C8_8 
REMARK    4  A    between atoms: C7_7  and  C8_8 
ROOT
HETATM    1  C1  UNL     1     -36.838  14.449  -4.376  1.00 20.00     0.059 C 
HETATM    2  C5  UNL     1     -35.736  14.470  -5.348  1.00 20.00     0.124 C 
HETATM    3  N9  UNL     1     -37.708  14.432  -3.610  1.00 20.00    -0.197 NA
ENDROOT
BRANCH   2   4
HETATM    4  C7  UNL     1     -34.584  13.549  -4.937  1.00 20.00     0.014 C 
BRANCH   4   5
HETATM    5  C8  UNL     1     -34.038  13.874  -3.540  1.00 20.00     0.005 C 
BRANCH   5   6
HETATM    6  C6  UNL     1     -33.165  15.135  -3.514  1.00 20.00     0.033 C 
BRANCH   6   7
HETATM    7  C3  UNL     1     -33.841  16.357  -2.937  1.00 20.00    -0.093 C 
HETATM    8  C2  UNL     1     -33.783  17.547  -3.554  1.00 20.00     0.014 C 
HETATM    9  C4  UNL     1     -34.609  16.176  -1.660  1.00 20.00     0.042 C 
ENDBRANCH   6   7
ENDBRANCH   5   6
ENDBRANCH   4   5
ENDBRANCH   2   4
TORSDOF 4
ENDMDL
MODEL 9
REMARK VINA RESULT:      -3.8     11.171     11.998
REMARK  4 active torsions:
REMARK  status: ('A' for Active; 'I' for Inactive)
REMARK    1  A    between atoms: C3_3  and  C6_6 
REMARK    2  A    between atoms: C5_5  and  C7_7 
REMARK    3  A    between atoms: C6_6  and  C8_8 
REMARK    4  A    between atoms: C7_7  and  C8_8 
ROOT
HETATM    1  C1  UNL     1     -34.986  13.967  -5.833  1.00 20.00     0.059 C 
HETATM    2  C5  UNL     1     -34.808  13.344  -4.514  1.00 20.00     0.124 C 
HETATM    3  N9  UNL     1     -35.127  14.458  -6.874  1.00 20.00    -0.197 NA
ENDROOT
BRANCH   2   4
HETATM    4  C7  UNL     1     -33.508  13.785  -3.837  1.00 20.00     0.014 C 
BRANCH   4   5
HETATM    5  C8  UNL     1     -33.522  15.267  -3.439  1.00 20.00     0.005 C 
BRANCH   5   6
HETATM    6  C6  UNL     1     -34.648  15.616  -2.457  1.00 20.00     0.033 C 
BRANCH   6   7
HETATM    7  C3  UNL     1     -34.398  16.854  -1.626  1.00 20.00    -0.093 C 
HETATM    8  C2  UNL     1     -34.721  16.902  -0.325  1.00 20.00     0.014 C 
HETATM    9  C4  UNL     1     -33.740  18.016  -2.311  1.00 20.00     0.042 C 
ENDBRANCH   6   7
ENDBRANCH   5   6
ENDBRANCH   4   5
ENDBRANCH   2   4
TORSDOF 4
ENDMDL
