MODEL 1
REMARK VINA RESULT:      -3.8      0.000      0.000
REMARK  2 active torsions:
REMARK  status: ('A' for Active; 'I' for Inactive)
REMARK    1  A    between atoms: C1_1  and  C3_3 
REMARK    2  A    between atoms: C2_2  and  C3_3 
ROOT
HETATM    1  C3  UNL     1     -33.900   5.575   4.912  1.00 20.00     0.139 C 
HETATM    2 CL6  UNL     1     -34.045   6.572   6.392  1.00 20.00    -0.120 Cl
ENDROOT
BRANCH   1   3
HETATM    3  C1  UNL     1     -35.236   4.916   4.609  1.00 20.00     0.244 C 
HETATM    4  F4  UNL     1     -35.172   3.589   4.900  1.00 20.00    -0.254 F 
ENDBRANCH   1   3
BRANCH   1   5
HETATM    5  C2  UNL     1     -33.425   6.449   3.761  1.00 20.00     0.244 C 
HETATM    6  F5  UNL     1     -32.266   5.938   3.262  1.00 20.00    -0.254 F 
ENDBRANCH   1   5
TORSDOF 2
ENDMDL
MODEL 2
REMARK VINA RESULT:      -3.7      2.126      2.744
REMARK  2 active torsions:
REMARK  status: ('A' for Active; 'I' for Inactive)
REMARK    1  A    between atoms: C1_1  and  C3_3 
REMARK    2  A    between atoms: C2_2  and  C3_3 
ROOT
HETATM    1  C3  UNL     1     -33.862   5.625   4.755  1.00 20.00     0.139 C 
HETATM    2 CL6  UNL     1     -33.195   6.673   3.465  1.00 20.00    -0.120 Cl
ENDROOT
BRANCH   1   3
HETATM    3  C1  UNL     1     -34.009   6.428   6.037  1.00 20.00     0.244 C 
HETATM    4  F4  UNL     1     -34.914   5.829   6.856  1.00 20.00    -0.254 F 
ENDBRANCH   1   3
BRANCH   1   5
HETATM    5  C2  UNL     1     -35.190   5.043   4.296  1.00 20.00     0.244 C 
HETATM    6  F5  UNL     1     -35.250   3.731   4.655  1.00 20.00    -0.254 F 
ENDBRANCH   1   5
TORSDOF 2
ENDMDL
MODEL 3
REMARK VINA RESULT:      -3.7      1.886      1.887
REMARK  2 active torsions:
REMARK  status: ('A' for Active; 'I' for Inactive)
REMARK    1  A    between atoms: C1_1  and  C3_3 
REMARK    2  A    between atoms: C2_2  and  C3_3 
ROOT
HETATM    1  C3  UNL     1     -34.068   5.264   5.097  1.00 20.00     0.139 C 
HETATM    2 CL6  UNL     1     -34.074   6.528   6.365  1.00 20.00    -0.120 Cl
ENDROOT
BRANCH   1   3
HETATM    3  C1  UNL     1     -34.884   4.070   5.565  1.00 20.00     0.244 C 
HETATM    4  F4  UNL     1     -35.622   4.414   6.655  1.00 20.00    -0.254 F 
ENDBRANCH   1   3
BRANCH   1   5
HETATM    5  C2  UNL     1     -34.610   5.847   3.801  1.00 20.00     0.244 C 
HETATM    6  F5  UNL     1     -35.921   5.503   3.671  1.00 20.00    -0.254 F 
ENDBRANCH   1   5
TORSDOF 2
ENDMDL
MODEL 4
REMARK VINA RESULT:      -3.7      1.833      3.176
REMARK  2 active torsions:
REMARK  status: ('A' for Active; 'I' for Inactive)
REMARK    1  A    between atoms: C1_1  and  C3_3 
REMARK    2  A    between atoms: C2_2  and  C3_3 
ROOT
HETATM    1  C3  UNL     1     -33.873   5.696   4.591  1.00 20.00     0.139 C 
HETATM    2 CL6  UNL     1     -35.489   5.423   3.869  1.00 20.00    -0.120 Cl
ENDROOT
BRANCH   1   3
HETATM    3  C1  UNL     1     -33.029   6.536   3.645  1.00 20.00     0.244 C 
HETATM    4  F4  UNL     1     -31.947   5.821   3.235  1.00 20.00    -0.254 F 
ENDBRANCH   1   3
BRANCH   1   5
HETATM    5  C2  UNL     1     -34.034   6.362   5.949  1.00 20.00     0.244 C 
HETATM    6  F5  UNL     1     -34.902   5.634   6.703  1.00 20.00    -0.254 F 
ENDBRANCH   1   5
TORSDOF 2
ENDMDL
MODEL 5
REMARK VINA RESULT:      -3.7      2.370      2.490
REMARK  2 active torsions:
REMARK  status: ('A' for Active; 'I' for Inactive)
REMARK    1  A    between atoms: C1_1  and  C3_3 
REMARK    2  A    between atoms: C2_2  and  C3_3 
ROOT
HETATM    1  C3  UNL     1     -34.103   5.199   4.882  1.00 20.00     0.139 C 
HETATM    2 CL6  UNL     1     -35.061   4.062   5.880  1.00 20.00    -0.120 Cl
ENDROOT
BRANCH   1   3
HETATM    3  C1  UNL     1     -34.824   5.454   3.568  1.00 20.00     0.244 C 
HETATM    4  F4  UNL     1     -36.168   5.475   3.775  1.00 20.00    -0.254 F 
ENDBRANCH   1   3
BRANCH   1   5
HETATM    5  C2  UNL     1     -33.874   6.485   5.661  1.00 20.00     0.244 C 
HETATM    6  F5  UNL     1     -34.549   6.418   6.841  1.00 20.00    -0.254 F 
ENDBRANCH   1   5
TORSDOF 2
ENDMDL
MODEL 6
REMARK VINA RESULT:      -3.7      1.008      2.752
REMARK  2 active torsions:
REMARK  status: ('A' for Active; 'I' for Inactive)
REMARK    1  A    between atoms: C1_1  and  C3_3 
REMARK    2  A    between atoms: C2_2  and  C3_3 
ROOT
HETATM    1  C3  UNL     1     -34.511   5.951   4.807  1.00 20.00     0.139 C 
HETATM    2 CL6  UNL     1     -33.980   6.550   6.409  1.00 20.00    -0.120 Cl
ENDROOT
BRANCH   1   3
HETATM    3  C1  UNL     1     -33.351   6.023   3.827  1.00 20.00     0.244 C 
HETATM    4  F4  UNL     1     -33.718   5.477   2.637  1.00 20.00    -0.254 F 
ENDBRANCH   1   3
BRANCH   1   5
HETATM    5  C2  UNL     1     -35.043   4.533   4.950  1.00 20.00     0.244 C 
HETATM    6  F5  UNL     1     -35.317   4.289   6.261  1.00 20.00    -0.254 F 
ENDBRANCH   1   5
TORSDOF 2
ENDMDL
MODEL 7
REMARK VINA RESULT:      -3.6      2.154      2.341
REMARK  2 active torsions:
REMARK  status: ('A' for Active; 'I' for Inactive)
REMARK    1  A    between atoms: C1_1  and  C3_3 
REMARK    2  A    between atoms: C2_2  and  C3_3 
ROOT
HETATM    1  C3  UNL     1     -34.526   5.943   4.846  1.00 20.00     0.139 C 
HETATM    2 CL6  UNL     1     -33.025   6.188   3.901  1.00 20.00    -0.120 Cl
ENDROOT
BRANCH   1   3
HETATM    3  C1  UNL     1     -35.222   4.675   4.376  1.00 20.00     0.244 C 
HETATM    4  F4  UNL     1     -35.054   3.688   5.296  1.00 20.00    -0.254 F 
ENDBRANCH   1   3
BRANCH   1   5
HETATM    5  C2  UNL     1     -34.185   5.886   6.327  1.00 20.00     0.244 C 
HETATM    6  F5  UNL     1     -34.047   7.154   6.802  1.00 20.00    -0.254 F 
ENDBRANCH   1   5
TORSDOF 2
ENDMDL
MODEL 8
REMARK VINA RESULT:      -3.6      1.087      2.803
REMARK  2 active torsions:
REMARK  status: ('A' for Active; 'I' for Inactive)
REMARK    1  A    between atoms: C1_1  and  C3_3 
REMARK    2  A    between atoms: C2_2  and  C3_3 
ROOT
HETATM    1  C3  UNL     1     -33.998   6.502   4.192  1.00 20.00     0.139 C 
HETATM    2 CL6  UNL     1     -33.993   6.355   5.977  1.00 20.00    -0.120 Cl
ENDROOT
BRANCH   1   3
HETATM    3  C1  UNL     1     -32.568   6.605   3.686  1.00 20.00     0.244 C 
HETATM    4  F4  UNL     1     -32.341   5.647   2.748  1.00 20.00    -0.254 F 
ENDBRANCH   1   3
BRANCH   1   5
HETATM    5  C2  UNL     1     -34.727   5.310   3.591  1.00 20.00     0.244 C 
HETATM    6  F5  UNL     1     -35.881   5.097   4.282  1.00 20.00    -0.254 F 
ENDBRANCH   1   5
TORSDOF 2
ENDMDL
MODEL 9
REMARK VINA RESULT:      -3.6      2.521      2.898
REMARK  2 active torsions:
REMARK  status: ('A' for Active; 'I' for Inactive)
REMARK    1  A    between atoms: C1_1  and  C3_3 
REMARK    2  A    between atoms: C2_2  and  C3_3 
ROOT
HETATM    1  C3  UNL     1     -34.938   5.470   5.202  1.00 20.00     0.139 C 
HETATM    2 CL6  UNL     1     -34.747   3.827   5.887  1.00 20.00    -0.120 Cl
ENDROOT
BRANCH   1   3
HETATM    3  C1  UNL     1     -33.795   6.355   5.674  1.00 20.00     0.244 C 
HETATM    4  F4  UNL     1     -34.165   7.025   6.798  1.00 20.00    -0.254 F 
ENDBRANCH   1   3
BRANCH   1   5
HETATM    5  C2  UNL     1     -34.995   5.381   3.684  1.00 20.00     0.244 C 
HETATM    6  F5  UNL     1     -36.218   5.801   3.258  1.00 20.00    -0.254 F 
ENDBRANCH   1   5
TORSDOF 2
ENDMDL
