MODEL 1
REMARK VINA RESULT:      -4.3      0.000      0.000
REMARK  1 active torsions:
REMARK  status: ('A' for Active; 'I' for Inactive)
REMARK    1  A    between atoms: C1_1  and  C4_4 
ROOT
HETATM    1  C1  UNL     1     -34.148   5.703   4.117  1.00 20.00    -0.080 C 
HETATM    2  C2  UNL     1     -33.274   6.343   3.597  1.00 20.00    -0.106 C 
HETATM    3  C5  UNL     1     -32.211   7.122   2.964  1.00 20.00     0.112 C 
ENDROOT
BRANCH   1   4
HETATM    4  C4  UNL     1     -35.177   4.944   4.733  1.00 20.00     0.054 C 
HETATM    5  C3  UNL     1     -34.973   4.268   5.867  1.00 20.00     0.020 C 
ENDBRANCH   1   4
TORSDOF 1
ENDMDL
MODEL 2
REMARK VINA RESULT:      -3.9      0.653      3.552
REMARK  1 active torsions:
REMARK  status: ('A' for Active; 'I' for Inactive)
REMARK    1  A    between atoms: C1_1  and  C4_4 
ROOT
HETATM    1  C1  UNL     1     -33.680   5.882   4.115  1.00 20.00    -0.080 C 
HETATM    2  C2  UNL     1     -34.300   5.341   4.990  1.00 20.00    -0.106 C 
HETATM    3  C5  UNL     1     -35.054   4.683   6.056  1.00 20.00     0.112 C 
ENDROOT
BRANCH   1   4
HETATM    4  C4  UNL     1     -32.946   6.516   3.078  1.00 20.00     0.054 C 
HETATM    5  C3  UNL     1     -31.869   7.265   3.331  1.00 20.00     0.020 C 
ENDBRANCH   1   4
TORSDOF 1
ENDMDL
MODEL 3
REMARK VINA RESULT:      -3.9      0.722      3.763
REMARK  1 active torsions:
REMARK  status: ('A' for Active; 'I' for Inactive)
REMARK    1  A    between atoms: C1_1  and  C4_4 
ROOT
HETATM    1  C1  UNL     1     -33.171   6.319   3.682  1.00 20.00    -0.080 C 
HETATM    2  C2  UNL     1     -34.133   5.706   4.058  1.00 20.00    -0.106 C 
HETATM    3  C5  UNL     1     -35.304   4.961   4.517  1.00 20.00     0.112 C 
ENDROOT
BRANCH   1   4
HETATM    4  C4  UNL     1     -32.036   7.043   3.232  1.00 20.00     0.054 C 
HETATM    5  C3  UNL     1     -32.122   7.967   2.271  1.00 20.00     0.020 C 
ENDBRANCH   1   4
TORSDOF 1
ENDMDL
MODEL 4
REMARK VINA RESULT:      -3.7      0.834      1.044
REMARK  1 active torsions:
REMARK  status: ('A' for Active; 'I' for Inactive)
REMARK    1  A    between atoms: C1_1  and  C4_4 
ROOT
HETATM    1  C1  UNL     1     -33.464   6.340   4.128  1.00 20.00    -0.080 C 
HETATM    2  C2  UNL     1     -32.807   6.961   3.336  1.00 20.00    -0.106 C 
HETATM    3  C5  UNL     1     -32.008   7.717   2.374  1.00 20.00     0.112 C 
ENDROOT
BRANCH   1   4
HETATM    4  C4  UNL     1     -34.237   5.603   5.063  1.00 20.00     0.054 C 
HETATM    5  C3  UNL     1     -35.219   4.784   4.679  1.00 20.00     0.020 C 
ENDBRANCH   1   4
TORSDOF 1
ENDMDL
MODEL 5
REMARK VINA RESULT:      -3.5      1.312      2.490
REMARK  1 active torsions:
REMARK  status: ('A' for Active; 'I' for Inactive)
REMARK    1  A    between atoms: C1_1  and  C4_4 
ROOT
HETATM    1  C1  UNL     1     -32.578   7.092   2.947  1.00 20.00    -0.080 C 
HETATM    2  C2  UNL     1     -32.203   7.884   2.125  1.00 20.00    -0.106 C 
HETATM    3  C5  UNL     1     -31.747   8.848   1.125  1.00 20.00     0.112 C 
ENDROOT
BRANCH   1   4
HETATM    4  C4  UNL     1     -33.026   6.158   3.917  1.00 20.00     0.054 C 
HETATM    5  C3  UNL     1     -34.308   5.794   4.009  1.00 20.00     0.020 C 
ENDBRANCH   1   4
TORSDOF 1
ENDMDL
MODEL 6
REMARK VINA RESULT:      -3.4      2.497      2.704
REMARK  1 active torsions:
REMARK  status: ('A' for Active; 'I' for Inactive)
REMARK    1  A    between atoms: C1_1  and  C4_4 
ROOT
HETATM    1  C1  UNL     1     -34.468   5.495   6.254  1.00 20.00    -0.080 C 
HETATM    2  C2  UNL     1     -33.949   6.511   6.630  1.00 20.00    -0.106 C 
HETATM    3  C5  UNL     1     -33.317   7.747   7.088  1.00 20.00     0.112 C 
ENDROOT
BRANCH   1   4
HETATM    4  C4  UNL     1     -35.084   4.297   5.805  1.00 20.00     0.054 C 
HETATM    5  C3  UNL     1     -35.151   3.980   4.509  1.00 20.00     0.020 C 
ENDBRANCH   1   4
TORSDOF 1
ENDMDL
MODEL 7
REMARK VINA RESULT:      -3.2      1.932      2.364
REMARK  1 active torsions:
REMARK  status: ('A' for Active; 'I' for Inactive)
REMARK    1  A    between atoms: C1_1  and  C4_4 
ROOT
HETATM    1  C1  UNL     1     -34.270   5.820   5.040  1.00 20.00    -0.080 C 
HETATM    2  C2  UNL     1     -34.302   5.547   3.870  1.00 20.00    -0.106 C 
HETATM    3  C5  UNL     1     -34.341   5.215   2.447  1.00 20.00     0.112 C 
ENDROOT
BRANCH   1   4
HETATM    4  C4  UNL     1     -34.228   6.141   6.422  1.00 20.00     0.054 C 
HETATM    5  C3  UNL     1     -33.601   7.230   6.875  1.00 20.00     0.020 C 
ENDBRANCH   1   4
TORSDOF 1
ENDMDL
MODEL 8
REMARK VINA RESULT:      -3.1     11.681     12.146
REMARK  1 active torsions:
REMARK  status: ('A' for Active; 'I' for Inactive)
REMARK    1  A    between atoms: C1_1  and  C4_4 
ROOT
HETATM    1  C1  UNL     1     -34.398  15.428  -2.761  1.00 20.00    -0.080 C 
HETATM    2  C2  UNL     1     -34.673  14.489  -3.458  1.00 20.00    -0.106 C 
HETATM    3  C5  UNL     1     -35.007  13.346  -4.306  1.00 20.00     0.112 C 
ENDROOT
BRANCH   1   4
HETATM    4  C4  UNL     1     -34.071  16.535  -1.935  1.00 20.00     0.054 C 
HETATM    5  C3  UNL     1     -34.614  16.700  -0.726  1.00 20.00     0.020 C 
ENDBRANCH   1   4
TORSDOF 1
ENDMDL
MODEL 9
REMARK VINA RESULT:      -3.0     11.575     12.276
REMARK  1 active torsions:
REMARK  status: ('A' for Active; 'I' for Inactive)
REMARK    1  A    between atoms: C1_1  and  C4_4 
ROOT
HETATM    1  C1  UNL     1     -34.193  15.851  -2.463  1.00 20.00    -0.080 C 
HETATM    2  C2  UNL     1     -34.468  16.413  -1.438  1.00 20.00    -0.106 C 
HETATM    3  C5  UNL     1     -34.803  17.096  -0.190  1.00 20.00     0.112 C 
ENDROOT
BRANCH   1   4
HETATM    4  C4  UNL     1     -33.864  15.184  -3.673  1.00 20.00     0.054 C 
HETATM    5  C3  UNL     1     -33.672  13.863  -3.722  1.00 20.00     0.020 C 
ENDBRANCH   1   4
TORSDOF 1
ENDMDL
