MODEL 1
REMARK VINA RESULT:      -4.0      0.000      0.000
REMARK  1 active torsions:
REMARK  status: ('A' for Active; 'I' for Inactive)
REMARK    1  A    between atoms: C1_1  and  C5_5 
ROOT
HETATM    1  C2  UNL     1     -34.417   5.765   6.085  1.00 20.00     0.040 C 
HETATM    2  C3  UNL     1     -34.469   4.252   6.032  1.00 20.00     0.168 C 
HETATM    3  C4  UNL     1     -35.257   5.059   3.988  1.00 20.00     0.179 C 
HETATM    4  C5  UNL     1     -34.442   6.159   4.632  1.00 20.00     0.073 C 
HETATM    5  O7  UNL     1     -35.167   3.901   4.832  1.00 20.00    -0.390 OA
ENDROOT
BRANCH   4   6
HETATM    6  C1  UNL     1     -33.026   6.138   4.082  1.00 20.00     0.237 C 
HETATM    7  O6  UNL     1     -32.732   6.528   2.957  1.00 20.00    -0.306 OA
ENDBRANCH   4   6
TORSDOF 1
ENDMDL
MODEL 2
REMARK VINA RESULT:      -3.5      0.914      3.052
REMARK  1 active torsions:
REMARK  status: ('A' for Active; 'I' for Inactive)
REMARK    1  A    between atoms: C1_1  and  C5_5 
ROOT
HETATM    1  C2  UNL     1     -35.258   5.546   3.672  1.00 20.00     0.040 C 
HETATM    2  C3  UNL     1     -33.980   5.395   2.874  1.00 20.00     0.168 C 
HETATM    3  C4  UNL     1     -33.448   6.507   4.855  1.00 20.00     0.179 C 
HETATM    4  C5  UNL     1     -34.759   5.785   5.073  1.00 20.00     0.073 C 
HETATM    5  O7  UNL     1     -32.976   6.166   3.543  1.00 20.00    -0.390 OA
ENDROOT
BRANCH   4   6
HETATM    6  C1  UNL     1     -34.504   4.449   5.750  1.00 20.00     0.237 C 
HETATM    7  O6  UNL     1     -35.045   3.403   5.406  1.00 20.00    -0.306 OA
ENDBRANCH   4   6
TORSDOF 1
ENDMDL
MODEL 3
REMARK VINA RESULT:      -3.4     12.030     13.054
REMARK  1 active torsions:
REMARK  status: ('A' for Active; 'I' for Inactive)
REMARK    1  A    between atoms: C1_1  and  C5_5 
ROOT
HETATM    1  C2  UNL     1     -35.002  15.661  -2.916  1.00 20.00     0.040 C 
HETATM    2  C3  UNL     1     -34.401  16.643  -3.901  1.00 20.00     0.168 C 
HETATM    3  C4  UNL     1     -32.966  14.808  -3.767  1.00 20.00     0.179 C 
HETATM    4  C5  UNL     1     -34.324  14.364  -3.271  1.00 20.00     0.073 C 
HETATM    5  O7  UNL     1     -33.090  16.165  -4.219  1.00 20.00    -0.390 OA
ENDROOT
BRANCH   4   6
HETATM    6  C1  UNL     1     -35.088  13.690  -4.397  1.00 20.00     0.237 C 
HETATM    7  O6  UNL     1     -34.827  12.566  -4.813  1.00 20.00    -0.306 OA
ENDBRANCH   4   6
TORSDOF 1
ENDMDL
MODEL 4
REMARK VINA RESULT:      -3.4      1.703      2.439
REMARK  1 active torsions:
REMARK  status: ('A' for Active; 'I' for Inactive)
REMARK    1  A    between atoms: C1_1  and  C5_5 
ROOT
HETATM    1  C2  UNL     1     -33.727   5.759   4.115  1.00 20.00     0.040 C 
HETATM    2  C3  UNL     1     -35.172   5.583   3.693  1.00 20.00     0.168 C 
HETATM    3  C4  UNL     1     -34.833   4.300   5.614  1.00 20.00     0.179 C 
HETATM    4  C5  UNL     1     -33.741   5.346   5.563  1.00 20.00     0.073 C 
HETATM    5  O7  UNL     1     -35.721   4.544   4.512  1.00 20.00    -0.390 OA
ENDROOT
BRANCH   4   6
HETATM    6  C1  UNL     1     -34.129   6.537   6.422  1.00 20.00     0.237 C 
HETATM    7  O6  UNL     1     -33.314   7.325   6.892  1.00 20.00    -0.306 OA
ENDBRANCH   4   6
TORSDOF 1
ENDMDL
MODEL 5
REMARK VINA RESULT:      -3.3     12.180     12.918
REMARK  1 active torsions:
REMARK  status: ('A' for Active; 'I' for Inactive)
REMARK    1  A    between atoms: C1_1  and  C5_5 
ROOT
HETATM    1  C2  UNL     1     -33.708  13.829  -3.753  1.00 20.00     0.040 C 
HETATM    2  C3  UNL     1     -34.816  13.302  -4.641  1.00 20.00     0.168 C 
HETATM    3  C4  UNL     1     -35.721  14.991  -3.309  1.00 20.00     0.179 C 
HETATM    4  C5  UNL     1     -34.221  15.182  -3.334  1.00 20.00     0.073 C 
HETATM    5  O7  UNL     1     -36.036  13.899  -4.185  1.00 20.00    -0.390 OA
ENDROOT
BRANCH   4   6
HETATM    6  C1  UNL     1     -33.850  16.208  -4.391  1.00 20.00     0.237 C 
HETATM    7  O6  UNL     1     -32.731  16.298  -4.883  1.00 20.00    -0.306 OA
ENDBRANCH   4   6
TORSDOF 1
ENDMDL
MODEL 6
REMARK VINA RESULT:      -3.2     12.119     12.981
REMARK  1 active torsions:
REMARK  status: ('A' for Active; 'I' for Inactive)
REMARK    1  A    between atoms: C1_1  and  C5_5 
ROOT
HETATM    1  C2  UNL     1     -34.887  14.401  -5.657  1.00 20.00     0.040 C 
HETATM    2  C3  UNL     1     -34.559  13.085  -4.982  1.00 20.00     0.168 C 
HETATM    3  C4  UNL     1     -34.966  14.657  -3.306  1.00 20.00     0.179 C 
HETATM    4  C5  UNL     1     -35.605  15.168  -4.578  1.00 20.00     0.073 C 
HETATM    5  O7  UNL     1     -34.426  13.356  -3.582  1.00 20.00    -0.390 OA
ENDROOT
BRANCH   4   6
HETATM    6  C1  UNL     1     -37.079  14.801  -4.596  1.00 20.00     0.237 C 
HETATM    7  O6  UNL     1     -37.643  14.224  -3.673  1.00 20.00    -0.306 OA
ENDBRANCH   4   6
TORSDOF 1
ENDMDL
MODEL 7
REMARK VINA RESULT:      -3.2     12.142     13.181
REMARK  1 active torsions:
REMARK  status: ('A' for Active; 'I' for Inactive)
REMARK    1  A    between atoms: C1_1  and  C5_5 
ROOT
HETATM    1  C2  UNL     1     -34.085  13.678  -3.717  1.00 20.00     0.040 C 
HETATM    2  C3  UNL     1     -33.326  14.989  -3.725  1.00 20.00     0.168 C 
HETATM    3  C4  UNL     1     -34.658  14.931  -5.641  1.00 20.00     0.179 C 
HETATM    4  C5  UNL     1     -35.236  13.944  -4.651  1.00 20.00     0.073 C 
HETATM    5  O7  UNL     1     -33.561  15.599  -4.999  1.00 20.00    -0.390 OA
ENDROOT
BRANCH   4   6
HETATM    6  C1  UNL     1     -36.370  14.596  -3.878  1.00 20.00     0.237 C 
HETATM    7  O6  UNL     1     -37.490  14.105  -3.778  1.00 20.00    -0.306 OA
ENDBRANCH   4   6
TORSDOF 1
ENDMDL
MODEL 8
REMARK VINA RESULT:      -3.1      8.603      9.564
REMARK  1 active torsions:
REMARK  status: ('A' for Active; 'I' for Inactive)
REMARK    1  A    between atoms: C1_1  and  C5_5 
ROOT
HETATM    1  C2  UNL     1     -40.754   6.112   0.072  1.00 20.00     0.040 C 
HETATM    2  C3  UNL     1     -41.162   6.902  -1.154  1.00 20.00     0.168 C 
HETATM    3  C4  UNL     1     -41.451   4.639  -1.644  1.00 20.00     0.179 C 
HETATM    4  C5  UNL     1     -41.431   4.783  -0.138  1.00 20.00     0.073 C 
HETATM    5  O7  UNL     1     -41.375   5.957  -2.208  1.00 20.00    -0.390 OA
ENDROOT
BRANCH   4   6
HETATM    6  C1  UNL     1     -42.853   4.854   0.390  1.00 20.00     0.237 C 
HETATM    7  O6  UNL     1     -43.170   5.481   1.396  1.00 20.00    -0.306 OA
ENDBRANCH   4   6
TORSDOF 1
ENDMDL
MODEL 9
REMARK VINA RESULT:      -3.1     12.392     13.268
REMARK  1 active torsions:
REMARK  status: ('A' for Active; 'I' for Inactive)
REMARK    1  A    between atoms: C1_1  and  C5_5 
ROOT
HETATM    1  C2  UNL     1     -35.850  15.142  -5.313  1.00 20.00     0.040 C 
HETATM    2  C3  UNL     1     -36.397  14.301  -4.178  1.00 20.00     0.168 C 
HETATM    3  C4  UNL     1     -34.506  13.217  -5.012  1.00 20.00     0.179 C 
HETATM    4  C5  UNL     1     -34.425  14.668  -5.431  1.00 20.00     0.073 C 
HETATM    5  O7  UNL     1     -35.669  13.068  -4.182  1.00 20.00    -0.390 OA
ENDROOT
BRANCH   4   6
HETATM    6  C1  UNL     1     -33.556  15.439  -4.453  1.00 20.00     0.237 C 
HETATM    7  O6  UNL     1     -32.805  16.349  -4.787  1.00 20.00    -0.306 OA
ENDBRANCH   4   6
TORSDOF 1
ENDMDL
