MODEL 1
REMARK VINA RESULT:      -4.5      0.000      0.000
REMARK  0 active torsions:
REMARK  status: ('A' for Active; 'I' for Inactive)
ROOT
HETATM    1  C1  UNL     1     -34.944  13.604  -4.417  1.00 20.00     0.131 C 
HETATM    2  C2  UNL     1     -34.045  14.150  -3.338  1.00 20.00     0.087 C 
HETATM    3  C3  UNL     1     -35.710  15.806  -3.954  1.00 20.00     0.021 C 
HETATM    4  C4  UNL     1     -36.011  14.590  -4.837  1.00 20.00     0.052 C 
HETATM    5  C5  UNL     1     -34.256  15.667  -3.456  1.00 20.00    -0.041 C 
HETATM    6  C6  UNL     1     -35.969  14.877  -6.328  1.00 20.00     0.018 C 
HETATM    7  C7  UNL     1     -34.080  16.353  -2.097  1.00 20.00     0.015 C 
HETATM    8  C8  UNL     1     -33.255  16.280  -4.448  1.00 20.00     0.015 C 
HETATM    9  O9  UNL     1     -34.842  12.471  -4.873  1.00 20.00    -0.298 OA
ENDROOT
TORSDOF 0
ENDMDL
MODEL 2
REMARK VINA RESULT:      -4.3      1.368      3.135
REMARK  0 active torsions:
REMARK  status: ('A' for Active; 'I' for Inactive)
ROOT
HETATM    1  C1  UNL     1     -33.955  14.131  -4.121  1.00 20.00     0.131 C 
HETATM    2  C2  UNL     1     -34.548  14.134  -5.506  1.00 20.00     0.087 C 
HETATM    3  C3  UNL     1     -33.430  16.245  -5.071  1.00 20.00     0.021 C 
HETATM    4  C4  UNL     1     -33.235  15.420  -3.794  1.00 20.00     0.052 C 
HETATM    5  C5  UNL     1     -34.618  15.632  -5.840  1.00 20.00    -0.041 C 
HETATM    6  C6  UNL     1     -33.781  16.077  -2.538  1.00 20.00     0.018 C 
HETATM    7  C7  UNL     1     -34.468  15.866  -7.348  1.00 20.00     0.015 C 
HETATM    8  C8  UNL     1     -35.960  16.229  -5.384  1.00 20.00     0.015 C 
HETATM    9  O9  UNL     1     -34.019  13.172  -3.361  1.00 20.00    -0.298 OA
ENDROOT
TORSDOF 0
ENDMDL
MODEL 3
REMARK VINA RESULT:      -4.2      1.158      3.153
REMARK  0 active torsions:
REMARK  status: ('A' for Active; 'I' for Inactive)
ROOT
HETATM    1  C1  UNL     1     -33.723  13.908  -4.136  1.00 20.00     0.131 C 
HETATM    2  C2  UNL     1     -34.751  13.483  -5.152  1.00 20.00     0.087 C 
HETATM    3  C3  UNL     1     -34.675  15.905  -5.003  1.00 20.00     0.021 C 
HETATM    4  C4  UNL     1     -33.622  15.412  -4.005  1.00 20.00     0.052 C 
HETATM    5  C5  UNL     1     -35.637  14.731  -5.279  1.00 20.00    -0.041 C 
HETATM    6  C6  UNL     1     -33.850  15.877  -2.577  1.00 20.00     0.018 C 
HETATM    7  C7  UNL     1     -36.236  14.839  -6.686  1.00 20.00     0.015 C 
HETATM    8  C8  UNL     1     -36.788  14.688  -4.259  1.00 20.00     0.015 C 
HETATM    9  O9  UNL     1     -33.021  13.119  -3.515  1.00 20.00    -0.298 OA
ENDROOT
TORSDOF 0
ENDMDL
MODEL 4
REMARK VINA RESULT:      -4.1     11.293     12.607
REMARK  0 active torsions:
REMARK  status: ('A' for Active; 'I' for Inactive)
ROOT
HETATM    1  C1  UNL     1     -40.854   5.928  -0.672  1.00 20.00     0.131 C 
HETATM    2  C2  UNL     1     -40.719   4.462  -0.993  1.00 20.00     0.087 C 
HETATM    3  C3  UNL     1     -42.239   5.524  -2.560  1.00 20.00     0.021 C 
HETATM    4  C4  UNL     1     -41.784   6.648  -1.622  1.00 20.00     0.052 C 
HETATM    5  C5  UNL     1     -41.968   4.185  -1.843  1.00 20.00    -0.041 C 
HETATM    6  C6  UNL     1     -42.918   7.348  -0.893  1.00 20.00     0.018 C 
HETATM    7  C7  UNL     1     -41.704   3.068  -2.859  1.00 20.00     0.015 C 
HETATM    8  C8  UNL     1     -43.151   3.768  -0.953  1.00 20.00     0.015 C 
HETATM    9  O9  UNL     1     -40.246   6.479   0.238  1.00 20.00    -0.298 OA
ENDROOT
TORSDOF 0
ENDMDL
MODEL 5
REMARK VINA RESULT:      -4.1     11.539     12.681
REMARK  0 active torsions:
REMARK  status: ('A' for Active; 'I' for Inactive)
ROOT
HETATM    1  C1  UNL     1     -42.604   5.335  -2.756  1.00 20.00     0.131 C 
HETATM    2  C2  UNL     1     -42.153   6.406  -1.798  1.00 20.00     0.087 C 
HETATM    3  C3  UNL     1     -40.994   4.324  -1.330  1.00 20.00     0.021 C 
HETATM    4  C4  UNL     1     -41.908   4.013  -2.520  1.00 20.00     0.052 C 
HETATM    5  C5  UNL     1     -41.542   5.594  -0.646  1.00 20.00    -0.041 C 
HETATM    6  C6  UNL     1     -42.894   2.885  -2.270  1.00 20.00     0.018 C 
HETATM    7  C7  UNL     1     -40.412   6.373   0.037  1.00 20.00     0.015 C 
HETATM    8  C8  UNL     1     -42.610   5.256   0.407  1.00 20.00     0.015 C 
HETATM    9  O9  UNL     1     -43.417   5.529  -3.652  1.00 20.00    -0.298 OA
ENDROOT
TORSDOF 0
ENDMDL
MODEL 6
REMARK VINA RESULT:      -4.1     12.078     13.402
REMARK  0 active torsions:
REMARK  status: ('A' for Active; 'I' for Inactive)
ROOT
HETATM    1  C1  UNL     1     -42.514   4.827   0.148  1.00 20.00     0.131 C 
HETATM    2  C2  UNL     1     -43.169   3.823  -0.764  1.00 20.00     0.087 C 
HETATM    3  C3  UNL     1     -40.942   4.355  -1.572  1.00 20.00     0.021 C 
HETATM    4  C4  UNL     1     -41.116   5.193  -0.300  1.00 20.00     0.052 C 
HETATM    5  C5  UNL     1     -42.351   3.955  -2.057  1.00 20.00    -0.041 C 
HETATM    6  C6  UNL     1     -40.956   6.688  -0.512  1.00 20.00     0.018 C 
HETATM    7  C7  UNL     1     -42.306   2.624  -2.816  1.00 20.00     0.015 C 
HETATM    8  C8  UNL     1     -42.959   5.024  -2.980  1.00 20.00     0.015 C 
HETATM    9  O9  UNL     1     -43.045   5.268   1.160  1.00 20.00    -0.298 OA
ENDROOT
TORSDOF 0
ENDMDL
MODEL 7
REMARK VINA RESULT:      -4.1      1.333      2.466
REMARK  0 active torsions:
REMARK  status: ('A' for Active; 'I' for Inactive)
ROOT
HETATM    1  C1  UNL     1     -34.874  14.116  -3.910  1.00 20.00     0.131 C 
HETATM    2  C2  UNL     1     -36.002  14.971  -3.394  1.00 20.00     0.087 C 
HETATM    3  C3  UNL     1     -34.101  16.363  -3.982  1.00 20.00     0.021 C 
HETATM    4  C4  UNL     1     -33.661  14.930  -4.303  1.00 20.00     0.052 C 
HETATM    5  C5  UNL     1     -35.288  16.273  -3.000  1.00 20.00    -0.041 C 
HETATM    6  C6  UNL     1     -32.410  14.482  -3.566  1.00 20.00     0.018 C 
HETATM    7  C7  UNL     1     -36.218  17.480  -3.160  1.00 20.00     0.015 C 
HETATM    8  C8  UNL     1     -34.812  16.211  -1.539  1.00 20.00     0.015 C 
HETATM    9  O9  UNL     1     -34.951  12.899  -4.032  1.00 20.00    -0.298 OA
ENDROOT
TORSDOF 0
ENDMDL
MODEL 8
REMARK VINA RESULT:      -4.1      2.249      3.569
REMARK  0 active torsions:
REMARK  status: ('A' for Active; 'I' for Inactive)
ROOT
HETATM    1  C1  UNL     1     -33.995  16.794  -4.090  1.00 20.00     0.131 C 
HETATM    2  C2  UNL     1     -33.841  15.655  -5.063  1.00 20.00     0.087 C 
HETATM    3  C3  UNL     1     -35.218  14.968  -3.185  1.00 20.00     0.021 C 
HETATM    4  C4  UNL     1     -34.853  16.429  -2.899  1.00 20.00     0.052 C 
HETATM    5  C5  UNL     1     -34.197  14.429  -4.209  1.00 20.00    -0.041 C 
HETATM    6  C6  UNL     1     -34.126  16.644  -1.583  1.00 20.00     0.018 C 
HETATM    7  C7  UNL     1     -34.822  13.324  -5.067  1.00 20.00     0.015 C 
HETATM    8  C8  UNL     1     -32.944  13.864  -3.519  1.00 20.00     0.015 C 
HETATM    9  O9  UNL     1     -33.509  17.905  -4.267  1.00 20.00    -0.298 OA
ENDROOT
TORSDOF 0
ENDMDL
MODEL 9
REMARK VINA RESULT:      -4.0      1.714      2.460
REMARK  0 active torsions:
REMARK  status: ('A' for Active; 'I' for Inactive)
ROOT
HETATM    1  C1  UNL     1     -36.666  14.514  -3.711  1.00 20.00     0.131 C 
HETATM    2  C2  UNL     1     -35.523  13.627  -4.131  1.00 20.00     0.087 C 
HETATM    3  C3  UNL     1     -34.683  15.556  -2.920  1.00 20.00     0.021 C 
HETATM    4  C4  UNL     1     -36.205  15.732  -2.943  1.00 20.00     0.052 C 
HETATM    5  C5  UNL     1     -34.315  14.571  -4.049  1.00 20.00    -0.041 C 
HETATM    6  C6  UNL     1     -36.674  17.025  -3.586  1.00 20.00     0.018 C 
HETATM    7  C7  UNL     1     -33.037  13.799  -3.701  1.00 20.00     0.015 C 
HETATM    8  C8  UNL     1     -34.098  15.296  -5.388  1.00 20.00     0.015 C 
HETATM    9  O9  UNL     1     -37.842  14.253  -3.938  1.00 20.00    -0.298 OA
ENDROOT
TORSDOF 0
ENDMDL
