MODEL 1
REMARK VINA RESULT:      -4.4      0.000      0.000
REMARK  2 active torsions:
REMARK  status: ('A' for Active; 'I' for Inactive)
REMARK    1  A    between atoms: C3_3  and  O6_6 
REMARK    2  A    between atoms: C4_4  and  O6_6 
ROOT
HETATM    1  C1  UNL     1     -32.147   6.830   3.418  1.00 20.00     0.014 C 
HETATM    2  C2  UNL     1     -33.121   6.163   3.199  1.00 20.00    -0.091 C 
HETATM    3  C4  UNL     1     -34.307   5.350   2.931  1.00 20.00     0.272 C 
ENDROOT
BRANCH   3   4
HETATM    4  O6  UNL     1     -35.251   5.482   3.987  1.00 20.00    -0.297 OA
BRANCH   4   5
HETATM    5  C3  UNL     1     -34.991   4.768   5.134  1.00 20.00     0.358 C 
HETATM    6  O5  UNL     1     -35.081   3.545   5.191  1.00 20.00    -0.245 OA
HETATM    7 CL7  UNL     1     -34.528   5.785   6.472  1.00 20.00    -0.012 Cl
ENDBRANCH   4   5
ENDBRANCH   3   4
TORSDOF 2
ENDMDL
MODEL 2
REMARK VINA RESULT:      -4.1      2.592      3.636
REMARK  2 active torsions:
REMARK  status: ('A' for Active; 'I' for Inactive)
REMARK    1  A    between atoms: C3_3  and  O6_6 
REMARK    2  A    between atoms: C4_4  and  O6_6 
ROOT
HETATM    1  C1  UNL     1     -35.003   4.386   6.006  1.00 20.00     0.014 C 
HETATM    2  C2  UNL     1     -34.867   4.929   4.944  1.00 20.00    -0.091 C 
HETATM    3  C4  UNL     1     -34.702   5.589   3.649  1.00 20.00     0.272 C 
ENDROOT
BRANCH   3   4
HETATM    4  O6  UNL     1     -33.861   6.728   3.774  1.00 20.00    -0.297 OA
BRANCH   4   5
HETATM    5  C3  UNL     1     -32.643   6.664   3.136  1.00 20.00     0.358 C 
HETATM    6  O5  UNL     1     -31.927   5.667   3.168  1.00 20.00    -0.245 OA
HETATM    7 CL7  UNL     1     -32.244   8.137   2.293  1.00 20.00    -0.012 Cl
ENDBRANCH   4   5
ENDBRANCH   3   4
TORSDOF 2
ENDMDL
MODEL 3
REMARK VINA RESULT:      -4.0      1.408      1.891
REMARK  2 active torsions:
REMARK  status: ('A' for Active; 'I' for Inactive)
REMARK    1  A    between atoms: C3_3  and  O6_6 
REMARK    2  A    between atoms: C4_4  and  O6_6 
ROOT
HETATM    1  C1  UNL     1     -32.081   8.479   1.914  1.00 20.00     0.014 C 
HETATM    2  C2  UNL     1     -32.235   7.472   2.550  1.00 20.00    -0.091 C 
HETATM    3  C4  UNL     1     -32.421   6.244   3.323  1.00 20.00     0.272 C 
ENDROOT
BRANCH   3   4
HETATM    4  O6  UNL     1     -33.275   6.481   4.436  1.00 20.00    -0.297 OA
BRANCH   4   5
HETATM    5  C3  UNL     1     -34.372   5.659   4.552  1.00 20.00     0.358 C 
HETATM    6  O5  UNL     1     -35.022   5.275   3.584  1.00 20.00    -0.245 OA
HETATM    7 CL7  UNL     1     -34.726   5.235   6.206  1.00 20.00    -0.012 Cl
ENDBRANCH   4   5
ENDBRANCH   3   4
TORSDOF 2
ENDMDL
MODEL 4
REMARK VINA RESULT:      -4.0      1.753      2.024
REMARK  2 active torsions:
REMARK  status: ('A' for Active; 'I' for Inactive)
REMARK    1  A    between atoms: C3_3  and  O6_6 
REMARK    2  A    between atoms: C4_4  and  O6_6 
ROOT
HETATM    1  C1  UNL     1     -32.092   8.226   2.050  1.00 20.00     0.014 C 
HETATM    2  C2  UNL     1     -32.346   7.282   2.749  1.00 20.00    -0.091 C 
HETATM    3  C4  UNL     1     -32.653   6.133   3.599  1.00 20.00     0.272 C 
ENDROOT
BRANCH   3   4
HETATM    4  O6  UNL     1     -34.005   6.186   4.039  1.00 20.00    -0.297 OA
BRANCH   4   5
HETATM    5  C3  UNL     1     -34.234   5.855   5.355  1.00 20.00     0.358 C 
HETATM    6  O5  UNL     1     -33.953   6.601   6.288  1.00 20.00    -0.245 OA
HETATM    7 CL7  UNL     1     -34.958   4.279   5.538  1.00 20.00    -0.012 Cl
ENDBRANCH   4   5
ENDBRANCH   3   4
TORSDOF 2
ENDMDL
MODEL 5
REMARK VINA RESULT:      -4.0      2.142      2.964
REMARK  2 active torsions:
REMARK  status: ('A' for Active; 'I' for Inactive)
REMARK    1  A    between atoms: C3_3  and  O6_6 
REMARK    2  A    between atoms: C4_4  and  O6_6 
ROOT
HETATM    1  C1  UNL     1     -33.727   6.959   6.648  1.00 20.00     0.014 C 
HETATM    2  C2  UNL     1     -34.313   5.946   6.379  1.00 20.00    -0.091 C 
HETATM    3  C4  UNL     1     -35.027   4.712   6.055  1.00 20.00     0.272 C 
ENDROOT
BRANCH   3   4
HETATM    4  O6  UNL     1     -34.768   4.325   4.711  1.00 20.00    -0.297 OA
BRANCH   4   5
HETATM    5  C3  UNL     1     -34.969   5.286   3.747  1.00 20.00     0.358 C 
HETATM    6  O5  UNL     1     -36.079   5.726   3.467  1.00 20.00    -0.245 OA
HETATM    7 CL7  UNL     1     -33.486   5.795   2.983  1.00 20.00    -0.012 Cl
ENDBRANCH   4   5
ENDBRANCH   3   4
TORSDOF 2
ENDMDL
MODEL 6
REMARK VINA RESULT:      -3.8      2.366      3.631
REMARK  2 active torsions:
REMARK  status: ('A' for Active; 'I' for Inactive)
REMARK    1  A    between atoms: C3_3  and  O6_6 
REMARK    2  A    between atoms: C4_4  and  O6_6 
ROOT
HETATM    1  C1  UNL     1     -35.148   4.172   6.121  1.00 20.00     0.014 C 
HETATM    2  C2  UNL     1     -34.551   5.200   5.956  1.00 20.00    -0.091 C 
HETATM    3  C4  UNL     1     -33.823   6.453   5.757  1.00 20.00     0.272 C 
ENDROOT
BRANCH   3   4
HETATM    4  O6  UNL     1     -33.947   6.893   4.410  1.00 20.00    -0.297 OA
BRANCH   4   5
HETATM    5  C3  UNL     1     -33.214   6.204   3.471  1.00 20.00     0.358 C 
HETATM    6  O5  UNL     1     -31.996   6.307   3.370  1.00 20.00    -0.245 OA
HETATM    7 CL7  UNL     1     -34.203   5.184   2.459  1.00 20.00    -0.012 Cl
ENDBRANCH   4   5
ENDBRANCH   3   4
TORSDOF 2
ENDMDL
MODEL 7
REMARK VINA RESULT:      -3.8     12.278     12.610
REMARK  2 active torsions:
REMARK  status: ('A' for Active; 'I' for Inactive)
REMARK    1  A    between atoms: C3_3  and  O6_6 
REMARK    2  A    between atoms: C4_4  and  O6_6 
ROOT
HETATM    1  C1  UNL     1     -34.474  16.391  -1.784  1.00 20.00     0.014 C 
HETATM    2  C2  UNL     1     -33.800  15.898  -2.647  1.00 20.00    -0.091 C 
HETATM    3  C4  UNL     1     -32.978  15.299  -3.699  1.00 20.00     0.272 C 
ENDROOT
BRANCH   3   4
HETATM    4  O6  UNL     1     -33.251  13.907  -3.812  1.00 20.00    -0.297 OA
BRANCH   4   5
HETATM    5  C3  UNL     1     -34.314  13.554  -4.611  1.00 20.00     0.358 C 
HETATM    6  O5  UNL     1     -35.073  12.630  -4.338  1.00 20.00    -0.245 OA
HETATM    7 CL7  UNL     1     -34.454  14.557  -6.031  1.00 20.00    -0.012 Cl
ENDBRANCH   4   5
ENDBRANCH   3   4
TORSDOF 2
ENDMDL
MODEL 8
REMARK VINA RESULT:      -3.7     11.936     12.261
REMARK  2 active torsions:
REMARK  status: ('A' for Active; 'I' for Inactive)
REMARK    1  A    between atoms: C3_3  and  O6_6 
REMARK    2  A    between atoms: C4_4  and  O6_6 
ROOT
HETATM    1  C1  UNL     1     -34.647  16.626  -0.770  1.00 20.00     0.014 C 
HETATM    2  C2  UNL     1     -34.476  16.187  -1.874  1.00 20.00    -0.091 C 
HETATM    3  C4  UNL     1     -34.269  15.654  -3.220  1.00 20.00     0.272 C 
ENDROOT
BRANCH   3   4
HETATM    4  O6  UNL     1     -34.263  14.231  -3.197  1.00 20.00    -0.297 OA
BRANCH   4   5
HETATM    5  C3  UNL     1     -35.152  13.601  -4.037  1.00 20.00     0.358 C 
HETATM    6  O5  UNL     1     -34.858  12.608  -4.694  1.00 20.00    -0.245 OA
HETATM    7 CL7  UNL     1     -36.719  14.367  -4.057  1.00 20.00    -0.012 Cl
ENDBRANCH   4   5
ENDBRANCH   3   4
TORSDOF 2
ENDMDL
MODEL 9
REMARK VINA RESULT:      -3.4     11.983     12.742
REMARK  2 active torsions:
REMARK  status: ('A' for Active; 'I' for Inactive)
REMARK    1  A    between atoms: C3_3  and  O6_6 
REMARK    2  A    between atoms: C4_4  and  O6_6 
ROOT
HETATM    1  C1  UNL     1     -33.491  16.901  -5.288  1.00 20.00     0.014 C 
HETATM    2  C2  UNL     1     -33.291  15.957  -4.575  1.00 20.00    -0.091 C 
HETATM    3  C4  UNL     1     -33.045  14.806  -3.706  1.00 20.00     0.272 C 
ENDROOT
BRANCH   3   4
HETATM    4  O6  UNL     1     -34.268  14.310  -3.177  1.00 20.00    -0.297 OA
BRANCH   4   5
HETATM    5  C3  UNL     1     -35.094  13.651  -4.058  1.00 20.00     0.358 C 
HETATM    6  O5  UNL     1     -34.734  12.669  -4.700  1.00 20.00    -0.245 OA
HETATM    7 CL7  UNL     1     -36.684  14.362  -4.154  1.00 20.00    -0.012 Cl
ENDBRANCH   4   5
ENDBRANCH   3   4
TORSDOF 2
ENDMDL
