MODEL 1
REMARK VINA RESULT:      -4.4      0.000      0.000
REMARK  3 active torsions:
REMARK  status: ('A' for Active; 'I' for Inactive)
REMARK    1  A    between atoms: C3_3  and  C4_4 
REMARK    2  A    between atoms: C4_4  and  O10_10 
REMARK    3  A    between atoms: C7_7  and  O10_10 
ROOT
HETATM    1  C1  UNL     1     -32.168   8.363   1.864  1.00 20.00     0.105 C 
HETATM    2  C2  UNL     1     -31.292   7.594   3.958  1.00 20.00     0.042 C 
HETATM    3  C3  UNL     1     -32.185   7.462   2.966  1.00 20.00     0.110 C 
HETATM    4  N8  UNL     1     -32.157   9.099   0.965  1.00 20.00    -0.191 NA
ENDROOT
BRANCH   3   5
HETATM    5  C4  UNL     1     -33.176   6.354   3.067  1.00 20.00     0.303 C 
HETATM    6  O9  UNL     1     -33.180   5.360   2.355  1.00 20.00    -0.258 OA
BRANCH   5   7
HETATM    7  O10 UNL     1     -34.061   6.624   4.066  1.00 20.00    -0.312 OA
BRANCH   7   8
HETATM    8  C7  UNL     1     -34.054   5.706   5.165  1.00 20.00     0.124 C 
HETATM    9  C5  UNL     1     -34.046   6.488   6.470  1.00 20.00     0.040 C 
HETATM   10  C6  UNL     1     -35.265   4.791   5.061  1.00 20.00     0.040 C 
ENDBRANCH   7   8
ENDBRANCH   5   7
ENDBRANCH   3   5
TORSDOF 3
ENDMDL
MODEL 2
REMARK VINA RESULT:      -4.4      2.127      4.154
REMARK  3 active torsions:
REMARK  status: ('A' for Active; 'I' for Inactive)
REMARK    1  A    between atoms: C3_3  and  C4_4 
REMARK    2  A    between atoms: C4_4  and  O10_10 
REMARK    3  A    between atoms: C7_7  and  O10_10 
ROOT
HETATM    1  C1  UNL     1     -34.062   6.317   5.908  1.00 20.00     0.105 C 
HETATM    2  C2  UNL     1     -35.130   4.393   4.958  1.00 20.00     0.042 C 
HETATM    3  C3  UNL     1     -34.404   5.508   4.787  1.00 20.00     0.110 C 
HETATM    4  N8  UNL     1     -33.784   6.980   6.820  1.00 20.00    -0.191 NA
ENDROOT
BRANCH   3   5
HETATM    5  C4  UNL     1     -33.981   5.854   3.402  1.00 20.00     0.303 C 
HETATM    6  O9  UNL     1     -34.063   5.101   2.442  1.00 20.00    -0.258 OA
BRANCH   5   7
HETATM    7  O10 UNL     1     -33.495   7.127   3.379  1.00 20.00    -0.312 OA
BRANCH   7   8
HETATM    8  C7  UNL     1     -32.184   7.280   2.824  1.00 20.00     0.124 C 
HETATM    9  C5  UNL     1     -32.212   8.378   1.771  1.00 20.00     0.040 C 
HETATM   10  C6  UNL     1     -31.201   7.592   3.941  1.00 20.00     0.040 C 
ENDBRANCH   7   8
ENDBRANCH   5   7
ENDBRANCH   3   5
TORSDOF 3
ENDMDL
MODEL 3
REMARK VINA RESULT:      -4.2     11.146     12.554
REMARK  3 active torsions:
REMARK  status: ('A' for Active; 'I' for Inactive)
REMARK    1  A    between atoms: C3_3  and  C4_4 
REMARK    2  A    between atoms: C4_4  and  O10_10 
REMARK    3  A    between atoms: C7_7  and  O10_10 
ROOT
HETATM    1  C1  UNL     1     -37.052  14.496  -3.799  1.00 20.00     0.105 C 
HETATM    2  C2  UNL     1     -34.962  15.349  -2.993  1.00 20.00     0.042 C 
HETATM    3  C3  UNL     1     -35.631  14.567  -3.853  1.00 20.00     0.110 C 
HETATM    4  N8  UNL     1     -38.211  14.436  -3.756  1.00 20.00    -0.191 NA
ENDROOT
BRANCH   3   5
HETATM    5  C4  UNL     1     -34.836  13.791  -4.846  1.00 20.00     0.303 C 
HETATM    6  O9  UNL     1     -34.747  12.572  -4.864  1.00 20.00    -0.258 OA
BRANCH   5   7
HETATM    7  O10 UNL     1     -34.235  14.649  -5.717  1.00 20.00    -0.312 OA
BRANCH   7   8
HETATM    8  C7  UNL     1     -35.114  15.344  -6.608  1.00 20.00     0.124 C 
HETATM    9  C5  UNL     1     -34.444  16.630  -7.069  1.00 20.00     0.040 C 
HETATM   10  C6  UNL     1     -35.463  14.436  -7.777  1.00 20.00     0.040 C 
ENDBRANCH   7   8
ENDBRANCH   5   7
ENDBRANCH   3   5
TORSDOF 3
ENDMDL
MODEL 4
REMARK VINA RESULT:      -4.2     11.127     12.141
REMARK  3 active torsions:
REMARK  status: ('A' for Active; 'I' for Inactive)
REMARK    1  A    between atoms: C3_3  and  C4_4 
REMARK    2  A    between atoms: C4_4  and  O10_10 
REMARK    3  A    between atoms: C7_7  and  O10_10 
ROOT
HETATM    1  C1  UNL     1     -34.608  13.657  -4.971  1.00 20.00     0.105 C 
HETATM    2  C2  UNL     1     -34.374  15.277  -6.722  1.00 20.00     0.042 C 
HETATM    3  C3  UNL     1     -34.223  14.949  -5.431  1.00 20.00     0.110 C 
HETATM    4  N8  UNL     1     -34.923  12.605  -4.594  1.00 20.00    -0.191 NA
ENDROOT
BRANCH   3   5
HETATM    5  C4  UNL     1     -33.646  15.975  -4.517  1.00 20.00     0.303 C 
HETATM    6  O9  UNL     1     -32.951  16.913  -4.878  1.00 20.00    -0.258 OA
BRANCH   5   7
HETATM    7  O10 UNL     1     -34.015  15.701  -3.235  1.00 20.00    -0.312 OA
BRANCH   7   8
HETATM    8  C7  UNL     1     -34.708  16.751  -2.552  1.00 20.00     0.124 C 
HETATM    9  C5  UNL     1     -36.169  16.745  -2.976  1.00 20.00     0.040 C 
HETATM   10  C6  UNL     1     -34.553  16.559  -1.051  1.00 20.00     0.040 C 
ENDBRANCH   7   8
ENDBRANCH   5   7
ENDBRANCH   3   5
TORSDOF 3
ENDMDL
MODEL 5
REMARK VINA RESULT:      -4.1     10.611     12.173
REMARK  3 active torsions:
REMARK  status: ('A' for Active; 'I' for Inactive)
REMARK    1  A    between atoms: C3_3  and  C4_4 
REMARK    2  A    between atoms: C4_4  and  O10_10 
REMARK    3  A    between atoms: C7_7  and  O10_10 
ROOT
HETATM    1  C1  UNL     1     -34.557  15.493  -2.678  1.00 20.00     0.105 C 
HETATM    2  C2  UNL     1     -32.719  14.236  -3.565  1.00 20.00     0.042 C 
HETATM    3  C3  UNL     1     -34.031  14.513  -3.568  1.00 20.00     0.110 C 
HETATM    4  N8  UNL     1     -34.987  16.290  -1.952  1.00 20.00    -0.191 NA
ENDROOT
BRANCH   3   5
HETATM    5  C4  UNL     1     -34.896  13.766  -4.523  1.00 20.00     0.303 C 
HETATM    6  O9  UNL     1     -35.057  12.554  -4.512  1.00 20.00    -0.258 OA
BRANCH   5   7
HETATM    7  O10 UNL     1     -35.470  14.640  -5.396  1.00 20.00    -0.312 OA
BRANCH   7   8
HETATM    8  C7  UNL     1     -34.753  14.858  -6.616  1.00 20.00     0.124 C 
HETATM    9  C5  UNL     1     -35.611  14.407  -7.788  1.00 20.00     0.040 C 
HETATM   10  C6  UNL     1     -34.379  16.329  -6.721  1.00 20.00     0.040 C 
ENDBRANCH   7   8
ENDBRANCH   5   7
ENDBRANCH   3   5
TORSDOF 3
ENDMDL
MODEL 6
REMARK VINA RESULT:      -4.1     10.980     11.597
REMARK  3 active torsions:
REMARK  status: ('A' for Active; 'I' for Inactive)
REMARK    1  A    between atoms: C3_3  and  C4_4 
REMARK    2  A    between atoms: C4_4  and  O10_10 
REMARK    3  A    between atoms: C7_7  and  O10_10 
ROOT
HETATM    1  C1  UNL     1     -36.628  14.339  -4.079  1.00 20.00     0.105 C 
HETATM    2  C2  UNL     1     -34.889  14.040  -5.701  1.00 20.00     0.042 C 
HETATM    3  C3  UNL     1     -35.253  14.355  -4.449  1.00 20.00     0.110 C 
HETATM    4  N8  UNL     1     -37.749  14.329  -3.777  1.00 20.00    -0.191 NA
ENDROOT
BRANCH   3   5
HETATM    5  C4  UNL     1     -34.178  14.715  -3.483  1.00 20.00     0.303 C 
HETATM    6  O9  UNL     1     -32.993  14.453  -3.634  1.00 20.00    -0.258 OA
BRANCH   5   7
HETATM    7  O10 UNL     1     -34.721  15.373  -2.422  1.00 20.00    -0.312 OA
BRANCH   7   8
HETATM    8  C7  UNL     1     -34.003  16.527  -1.974  1.00 20.00     0.124 C 
HETATM    9  C5  UNL     1     -34.186  17.653  -2.981  1.00 20.00     0.040 C 
HETATM   10  C6  UNL     1     -34.497  16.920  -0.590  1.00 20.00     0.040 C 
ENDBRANCH   7   8
ENDBRANCH   5   7
ENDBRANCH   3   5
TORSDOF 3
ENDMDL
MODEL 7
REMARK VINA RESULT:      -4.1      2.297      4.120
REMARK  3 active torsions:
REMARK  status: ('A' for Active; 'I' for Inactive)
REMARK    1  A    between atoms: C3_3  and  C4_4 
REMARK    2  A    between atoms: C4_4  and  O10_10 
REMARK    3  A    between atoms: C7_7  and  O10_10 
ROOT
HETATM    1  C1  UNL     1     -33.947   6.596   6.385  1.00 20.00     0.105 C 
HETATM    2  C2  UNL     1     -34.833   4.419   5.918  1.00 20.00     0.042 C 
HETATM    3  C3  UNL     1     -34.415   5.611   5.469  1.00 20.00     0.110 C 
HETATM    4  N8  UNL     1     -33.566   7.401   7.130  1.00 20.00    -0.191 NA
ENDROOT
BRANCH   3   5
HETATM    5  C4  UNL     1     -34.462   5.855   4.000  1.00 20.00     0.303 C 
HETATM    6  O9  UNL     1     -34.990   5.108   3.189  1.00 20.00    -0.258 OA
BRANCH   5   7
HETATM    7  O10 UNL     1     -33.832   7.028   3.713  1.00 20.00    -0.312 OA
BRANCH   7   8
HETATM    8  C7  UNL     1     -32.439   6.922   3.400  1.00 20.00     0.124 C 
HETATM    9  C5  UNL     1     -32.139   5.508   2.924  1.00 20.00     0.040 C 
HETATM   10  C6  UNL     1     -32.082   7.961   2.348  1.00 20.00     0.040 C 
ENDBRANCH   7   8
ENDBRANCH   5   7
ENDBRANCH   3   5
TORSDOF 3
ENDMDL
MODEL 8
REMARK VINA RESULT:      -4.0     10.854     11.986
REMARK  3 active torsions:
REMARK  status: ('A' for Active; 'I' for Inactive)
REMARK    1  A    between atoms: C3_3  and  C4_4 
REMARK    2  A    between atoms: C4_4  and  O10_10 
REMARK    3  A    between atoms: C7_7  and  O10_10 
ROOT
HETATM    1  C1  UNL     1     -36.598  14.287  -4.263  1.00 20.00     0.105 C 
HETATM    2  C2  UNL     1     -35.234  14.260  -6.233  1.00 20.00     0.042 C 
HETATM    3  C3  UNL     1     -35.323  14.237  -4.896  1.00 20.00     0.110 C 
HETATM    4  N8  UNL     1     -37.636  14.330  -3.745  1.00 20.00    -0.191 NA
ENDROOT
BRANCH   3   5
HETATM    5  C4  UNL     1     -34.055  14.159  -4.117  1.00 20.00     0.303 C 
HETATM    6  O9  UNL     1     -33.681  13.173  -3.498  1.00 20.00    -0.258 OA
BRANCH   5   7
HETATM    7  O10 UNL     1     -33.392  15.345  -4.208  1.00 20.00    -0.312 OA
BRANCH   7   8
HETATM    8  C7  UNL     1     -34.073  16.479  -3.662  1.00 20.00     0.124 C 
HETATM    9  C5  UNL     1     -33.797  16.558  -2.168  1.00 20.00     0.040 C 
HETATM   10  C6  UNL     1     -33.616  17.735  -4.389  1.00 20.00     0.040 C 
ENDBRANCH   7   8
ENDBRANCH   5   7
ENDBRANCH   3   5
TORSDOF 3
ENDMDL
MODEL 9
REMARK VINA RESULT:      -4.0      2.531      4.629
REMARK  3 active torsions:
REMARK  status: ('A' for Active; 'I' for Inactive)
REMARK    1  A    between atoms: C3_3  and  C4_4 
REMARK    2  A    between atoms: C4_4  and  O10_10 
REMARK    3  A    between atoms: C7_7  and  O10_10 
ROOT
HETATM    1  C1  UNL     1     -33.934   6.151   5.226  1.00 20.00     0.105 C 
HETATM    2  C2  UNL     1     -34.207   5.446   2.952  1.00 20.00     0.042 C 
HETATM    3  C3  UNL     1     -33.563   6.202   3.853  1.00 20.00     0.110 C 
HETATM    4  N8  UNL     1     -34.237   6.112   6.347  1.00 20.00    -0.191 NA
ENDROOT
BRANCH   3   5
HETATM    5  C4  UNL     1     -32.464   7.080   3.362  1.00 20.00     0.303 C 
HETATM    6  O9  UNL     1     -31.433   7.312   3.977  1.00 20.00    -0.258 OA
BRANCH   5   7
HETATM    7  O10 UNL     1     -32.790   7.575   2.135  1.00 20.00    -0.312 OA
BRANCH   7   8
HETATM    8  C7  UNL     1     -31.981   8.660   1.669  1.00 20.00     0.124 C 
HETATM    9  C5  UNL     1     -31.631   8.431   0.207  1.00 20.00     0.040 C 
HETATM   10  C6  UNL     1     -32.730   9.968   1.874  1.00 20.00     0.040 C 
ENDBRANCH   7   8
ENDBRANCH   5   7
ENDBRANCH   3   5
TORSDOF 3
ENDMDL
