MODEL 1
REMARK VINA RESULT:      -4.9      0.000      0.000
REMARK  2 active torsions:
REMARK  status: ('A' for Active; 'I' for Inactive)
REMARK    1  A    between atoms: C2_2  and  C3_3 
REMARK    2  A    between atoms: C3_3  and  C4_4 
ROOT
HETATM    1  C1  UNL     1     -33.265   6.149   3.551  1.00 20.00     0.059 C 
HETATM    2  C2  UNL     1     -34.680   6.167   3.942  1.00 20.00     0.132 C 
HETATM    3  N5  UNL     1     -32.146   6.136   3.240  1.00 20.00    -0.197 NA
ENDROOT
BRANCH   2   4
HETATM    4  C3  UNL     1     -35.108   4.818   4.517  1.00 20.00     0.131 C 
BRANCH   4   5
HETATM    5  C4  UNL     1     -34.799   4.710   5.994  1.00 20.00     0.388 C 
HETATM    6  F6  UNL     1     -34.670   5.928   6.560  1.00 20.00    -0.171 F 
HETATM    7  F7  UNL     1     -35.770   4.043   6.652  1.00 20.00    -0.171 F 
HETATM    8  F8  UNL     1     -33.640   4.042   6.188  1.00 20.00    -0.171 F 
ENDBRANCH   4   5
ENDBRANCH   2   4
TORSDOF 2
ENDMDL
MODEL 2
REMARK VINA RESULT:      -4.9      1.241      1.779
REMARK  2 active torsions:
REMARK  status: ('A' for Active; 'I' for Inactive)
REMARK    1  A    between atoms: C2_2  and  C3_3 
REMARK    2  A    between atoms: C3_3  and  C4_4 
ROOT
HETATM    1  C1  UNL     1     -32.658   7.018   3.002  1.00 20.00     0.059 C 
HETATM    2  C2  UNL     1     -33.518   5.976   3.578  1.00 20.00     0.132 C 
HETATM    3  N5  UNL     1     -31.977   7.840   2.545  1.00 20.00    -0.197 NA
ENDROOT
BRANCH   2   4
HETATM    4  C3  UNL     1     -33.751   6.219   5.068  1.00 20.00     0.131 C 
BRANCH   4   5
HETATM    5  C4  UNL     1     -34.692   5.196   5.665  1.00 20.00     0.388 C 
HETATM    6  F6  UNL     1     -34.076   4.010   5.852  1.00 20.00    -0.171 F 
HETATM    7  F7  UNL     1     -35.176   5.608   6.856  1.00 20.00    -0.171 F 
HETATM    8  F8  UNL     1     -35.747   4.986   4.846  1.00 20.00    -0.171 F 
ENDBRANCH   4   5
ENDBRANCH   2   4
TORSDOF 2
ENDMDL
MODEL 3
REMARK VINA RESULT:      -4.7      2.376      2.798
REMARK  2 active torsions:
REMARK  status: ('A' for Active; 'I' for Inactive)
REMARK    1  A    between atoms: C2_2  and  C3_3 
REMARK    2  A    between atoms: C3_3  and  C4_4 
ROOT
HETATM    1  C1  UNL     1     -32.269   7.469   2.632  1.00 20.00     0.059 C 
HETATM    2  C2  UNL     1     -32.527   6.334   3.527  1.00 20.00     0.132 C 
HETATM    3  N5  UNL     1     -32.064   8.366   1.924  1.00 20.00    -0.197 NA
ENDROOT
BRANCH   2   4
HETATM    4  C3  UNL     1     -33.929   6.415   4.127  1.00 20.00     0.131 C 
BRANCH   4   5
HETATM    5  C4  UNL     1     -34.842   5.342   3.573  1.00 20.00     0.388 C 
HETATM    6  F6  UNL     1     -34.911   4.279   4.401  1.00 20.00    -0.171 F 
HETATM    7  F7  UNL     1     -36.095   5.810   3.388  1.00 20.00    -0.171 F 
HETATM    8  F8  UNL     1     -34.388   4.903   2.378  1.00 20.00    -0.171 F 
ENDBRANCH   4   5
ENDBRANCH   2   4
TORSDOF 2
ENDMDL
MODEL 4
REMARK VINA RESULT:      -4.6      3.353      4.139
REMARK  2 active torsions:
REMARK  status: ('A' for Active; 'I' for Inactive)
REMARK    1  A    between atoms: C2_2  and  C3_3 
REMARK    2  A    between atoms: C3_3  and  C4_4 
ROOT
HETATM    1  C1  UNL     1     -34.837   4.806   4.978  1.00 20.00     0.059 C 
HETATM    2  C2  UNL     1     -34.439   5.483   3.738  1.00 20.00     0.132 C 
HETATM    3  N5  UNL     1     -35.153   4.270   5.958  1.00 20.00    -0.197 NA
ENDROOT
BRANCH   2   4
HETATM    4  C3  UNL     1     -33.666   6.767   4.037  1.00 20.00     0.131 C 
BRANCH   4   5
HETATM    5  C4  UNL     1     -32.387   6.856   3.233  1.00 20.00     0.388 C 
HETATM    6  F6  UNL     1     -31.924   5.631   2.908  1.00 20.00    -0.171 F 
HETATM    7  F7  UNL     1     -32.571   7.550   2.090  1.00 20.00    -0.171 F 
HETATM    8  F8  UNL     1     -31.424   7.484   3.943  1.00 20.00    -0.171 F 
ENDBRANCH   4   5
ENDBRANCH   2   4
TORSDOF 2
ENDMDL
MODEL 5
REMARK VINA RESULT:      -4.6      3.356      4.065
REMARK  2 active torsions:
REMARK  status: ('A' for Active; 'I' for Inactive)
REMARK    1  A    between atoms: C2_2  and  C3_3 
REMARK    2  A    between atoms: C3_3  and  C4_4 
ROOT
HETATM    1  C1  UNL     1     -34.852   4.804   4.973  1.00 20.00     0.059 C 
HETATM    2  C2  UNL     1     -34.474   5.508   3.741  1.00 20.00     0.132 C 
HETATM    3  N5  UNL     1     -35.153   4.246   5.945  1.00 20.00    -0.197 NA
ENDROOT
BRANCH   2   4
HETATM    4  C3  UNL     1     -33.666   6.766   4.054  1.00 20.00     0.131 C 
BRANCH   4   5
HETATM    5  C4  UNL     1     -32.400   6.844   3.230  1.00 20.00     0.388 C 
HETATM    6  F6  UNL     1     -31.400   7.434   3.918  1.00 20.00    -0.171 F 
HETATM    7  F7  UNL     1     -31.982   5.617   2.854  1.00 20.00    -0.171 F 
HETATM    8  F8  UNL     1     -32.608   7.567   2.107  1.00 20.00    -0.171 F 
ENDBRANCH   4   5
ENDBRANCH   2   4
TORSDOF 2
ENDMDL
MODEL 6
REMARK VINA RESULT:      -4.4      2.665      3.259
REMARK  2 active torsions:
REMARK  status: ('A' for Active; 'I' for Inactive)
REMARK    1  A    between atoms: C2_2  and  C3_3 
REMARK    2  A    between atoms: C3_3  and  C4_4 
ROOT
HETATM    1  C1  UNL     1     -34.282   6.140   6.441  1.00 20.00     0.059 C 
HETATM    2  C2  UNL     1     -35.055   4.980   5.980  1.00 20.00     0.132 C 
HETATM    3  N5  UNL     1     -33.672   7.058   6.806  1.00 20.00    -0.197 NA
ENDROOT
BRANCH   2   4
HETATM    4  C3  UNL     1     -34.535   4.471   4.637  1.00 20.00     0.131 C 
BRANCH   4   5
HETATM    5  C4  UNL     1     -34.807   5.453   3.518  1.00 20.00     0.388 C 
HETATM    6  F6  UNL     1     -34.159   6.619   3.717  1.00 20.00    -0.171 F 
HETATM    7  F7  UNL     1     -34.418   4.957   2.324  1.00 20.00    -0.171 F 
HETATM    8  F8  UNL     1     -36.128   5.725   3.437  1.00 20.00    -0.171 F 
ENDBRANCH   4   5
ENDBRANCH   2   4
TORSDOF 2
ENDMDL
MODEL 7
REMARK VINA RESULT:      -3.9     12.385     13.098
REMARK  2 active torsions:
REMARK  status: ('A' for Active; 'I' for Inactive)
REMARK    1  A    between atoms: C2_2  and  C3_3 
REMARK    2  A    between atoms: C3_3  and  C4_4 
ROOT
HETATM    1  C1  UNL     1     -34.469  13.693  -4.024  1.00 20.00     0.059 C 
HETATM    2  C2  UNL     1     -33.974  14.899  -3.349  1.00 20.00     0.132 C 
HETATM    3  N5  UNL     1     -34.859  12.739  -4.559  1.00 20.00    -0.197 NA
ENDROOT
BRANCH   2   4
HETATM    4  C3  UNL     1     -35.096  15.601  -2.586  1.00 20.00     0.131 C 
BRANCH   4   5
HETATM    5  C4  UNL     1     -34.559  16.617  -1.601  1.00 20.00     0.388 C 
HETATM    6  F6  UNL     1     -34.828  16.259  -0.328  1.00 20.00    -0.171 F 
HETATM    7  F7  UNL     1     -33.222  16.760  -1.722  1.00 20.00    -0.171 F 
HETATM    8  F8  UNL     1     -35.121  17.827  -1.815  1.00 20.00    -0.171 F 
ENDBRANCH   4   5
ENDBRANCH   2   4
TORSDOF 2
ENDMDL
MODEL 8
REMARK VINA RESULT:      -3.8      5.230      6.057
REMARK  2 active torsions:
REMARK  status: ('A' for Active; 'I' for Inactive)
REMARK    1  A    between atoms: C2_2  and  C3_3 
REMARK    2  A    between atoms: C3_3  and  C4_4 
ROOT
HETATM    1  C1  UNL     1     -32.985   6.526   3.522  1.00 20.00     0.059 C 
HETATM    2  C2  UNL     1     -32.098   7.281   2.628  1.00 20.00     0.132 C 
HETATM    3  N5  UNL     1     -33.686   5.929   4.228  1.00 20.00    -0.197 NA
ENDROOT
BRANCH   2   4
HETATM    4  C3  UNL     1     -32.738   8.601   2.203  1.00 20.00     0.131 C 
BRANCH   4   5
HETATM    5  C4  UNL     1     -32.135   9.135   0.923  1.00 20.00     0.388 C 
HETATM    6  F6  UNL     1     -32.936   8.896  -0.136  1.00 20.00    -0.171 F 
HETATM    7  F7  UNL     1     -31.926  10.467   0.996  1.00 20.00    -0.171 F 
HETATM    8  F8  UNL     1     -30.944   8.546   0.678  1.00 20.00    -0.171 F 
ENDBRANCH   4   5
ENDBRANCH   2   4
TORSDOF 2
ENDMDL
MODEL 9
REMARK VINA RESULT:      -3.8     12.788     13.359
REMARK  2 active torsions:
REMARK  status: ('A' for Active; 'I' for Inactive)
REMARK    1  A    between atoms: C2_2  and  C3_3 
REMARK    2  A    between atoms: C3_3  and  C4_4 
ROOT
HETATM    1  C1  UNL     1     -36.314  14.070  -4.239  1.00 20.00     0.059 C 
HETATM    2  C2  UNL     1     -35.021  13.739  -4.851  1.00 20.00     0.132 C 
HETATM    3  N5  UNL     1     -37.337  14.333  -3.757  1.00 20.00    -0.197 NA
ENDROOT
BRANCH   2   4
HETATM    4  C3  UNL     1     -33.925  13.627  -3.792  1.00 20.00     0.131 C 
BRANCH   4   5
HETATM    5  C4  UNL     1     -33.127  14.906  -3.667  1.00 20.00     0.388 C 
HETATM    6  F6  UNL     1     -31.822  14.652  -3.439  1.00 20.00    -0.171 F 
HETATM    7  F7  UNL     1     -33.219  15.654  -4.788  1.00 20.00    -0.171 F 
HETATM    8  F8  UNL     1     -33.586  15.653  -2.639  1.00 20.00    -0.171 F 
ENDBRANCH   4   5
ENDBRANCH   2   4
TORSDOF 2
ENDMDL
