MODEL 1
REMARK VINA RESULT:      -4.6      0.000      0.000
REMARK  1 active torsions:
REMARK  status: ('A' for Active; 'I' for Inactive)
REMARK    1  A    between atoms: C1_1  and  C6_6 
ROOT
HETATM    1  C2  UNL     1     -35.428  17.192  -3.835  1.00 20.00     0.005 C 
HETATM    2  C3  UNL     1     -35.934  15.925  -3.132  1.00 20.00     0.006 C 
HETATM    3  C4  UNL     1     -33.337  16.008  -4.537  1.00 20.00     0.017 C 
HETATM    4  C5  UNL     1     -33.808  16.475  -2.245  1.00 20.00     0.010 C 
HETATM    5  C6  UNL     1     -33.803  14.720  -3.837  1.00 20.00     0.059 C 
HETATM    6  C7  UNL     1     -33.907  17.116  -3.629  1.00 20.00    -0.013 C 
HETATM    7  C8  UNL     1     -34.634  15.252  -2.651  1.00 20.00    -0.003 C 
ENDROOT
BRANCH   5   8
HETATM    8  C1  UNL     1     -34.560  13.797  -4.738  1.00 20.00     0.127 C 
HETATM    9  C9  UNL     1     -34.792  14.268  -6.149  1.00 20.00     0.091 C 
HETATM   10  O10 UNL     1     -34.972  12.706  -4.347  1.00 20.00    -0.298 OA
ENDBRANCH   5   8
TORSDOF 1
ENDMDL
MODEL 2
REMARK VINA RESULT:      -4.4      1.478      2.037
REMARK  1 active torsions:
REMARK  status: ('A' for Active; 'I' for Inactive)
REMARK    1  A    between atoms: C1_1  and  C6_6 
ROOT
HETATM    1  C2  UNL     1     -33.817  16.796  -3.259  1.00 20.00     0.005 C 
HETATM    2  C3  UNL     1     -34.599  15.761  -2.440  1.00 20.00     0.006 C 
HETATM    3  C4  UNL     1     -34.336  15.564  -5.375  1.00 20.00     0.017 C 
HETATM    4  C5  UNL     1     -32.935  14.627  -3.687  1.00 20.00     0.010 C 
HETATM    5  C6  UNL     1     -35.122  14.500  -4.591  1.00 20.00     0.059 C 
HETATM    6  C7  UNL     1     -33.214  15.954  -4.394  1.00 20.00    -0.013 C 
HETATM    7  C8  UNL     1     -34.388  14.458  -3.235  1.00 20.00    -0.003 C 
ENDROOT
BRANCH   5   8
HETATM    8  C1  UNL     1     -36.582  14.805  -4.477  1.00 20.00     0.127 C 
HETATM    9  C9  UNL     1     -37.079  16.020  -5.214  1.00 20.00     0.091 C 
HETATM   10  O10 UNL     1     -37.340  14.097  -3.815  1.00 20.00    -0.298 OA
ENDBRANCH   5   8
TORSDOF 1
ENDMDL
MODEL 3
REMARK VINA RESULT:      -4.3     11.460     12.611
REMARK  1 active torsions:
REMARK  status: ('A' for Active; 'I' for Inactive)
REMARK    1  A    between atoms: C1_1  and  C6_6 
ROOT
HETATM    1  C2  UNL     1     -42.481   5.159   0.424  1.00 20.00     0.005 C 
HETATM    2  C3  UNL     1     -42.864   4.491  -0.903  1.00 20.00     0.006 C 
HETATM    3  C4  UNL     1     -41.193   6.924  -0.798  1.00 20.00     0.017 C 
HETATM    4  C5  UNL     1     -40.502   4.640  -0.793  1.00 20.00     0.010 C 
HETATM    5  C6  UNL     1     -41.546   6.280  -2.149  1.00 20.00     0.059 C 
HETATM    6  C7  UNL     1     -41.073   5.708   0.141  1.00 20.00    -0.013 C 
HETATM    7  C8  UNL     1     -41.646   4.780  -1.802  1.00 20.00    -0.003 C 
ENDROOT
BRANCH   5   8
HETATM    8  C1  UNL     1     -42.788   6.839  -2.766  1.00 20.00     0.127 C 
HETATM    9  C9  UNL     1     -43.417   8.017  -2.071  1.00 20.00     0.091 C 
HETATM   10  O10 UNL     1     -43.270   6.363  -3.793  1.00 20.00    -0.298 OA
ENDBRANCH   5   8
TORSDOF 1
ENDMDL
MODEL 4
REMARK VINA RESULT:      -4.3      1.972      3.488
REMARK  1 active torsions:
REMARK  status: ('A' for Active; 'I' for Inactive)
REMARK    1  A    between atoms: C1_1  and  C6_6 
ROOT
HETATM    1  C2  UNL     1     -36.487  14.346  -4.085  1.00 20.00     0.005 C 
HETATM    2  C3  UNL     1     -36.175  15.585  -4.935  1.00 20.00     0.006 C 
HETATM    3  C4  UNL     1     -34.064  14.087  -3.512  1.00 20.00     0.017 C 
HETATM    4  C5  UNL     1     -34.870  13.777  -5.736  1.00 20.00     0.010 C 
HETATM    5  C6  UNL     1     -33.707  15.318  -4.361  1.00 20.00     0.059 C 
HETATM    6  C7  UNL     1     -35.243  13.466  -4.286  1.00 20.00    -0.013 C 
HETATM    7  C8  UNL     1     -34.766  15.284  -5.482  1.00 20.00    -0.003 C 
ENDROOT
BRANCH   5   8
HETATM    8  C1  UNL     1     -33.697  16.594  -3.581  1.00 20.00     0.127 C 
HETATM    9  C9  UNL     1     -33.939  16.483  -2.099  1.00 20.00     0.091 C 
HETATM   10  O10 UNL     1     -33.497  17.680  -4.122  1.00 20.00    -0.298 OA
ENDBRANCH   5   8
TORSDOF 1
ENDMDL
MODEL 5
REMARK VINA RESULT:      -4.3      1.871      3.512
REMARK  1 active torsions:
REMARK  status: ('A' for Active; 'I' for Inactive)
REMARK    1  A    between atoms: C1_1  and  C6_6 
ROOT
HETATM    1  C2  UNL     1     -34.274  15.493  -5.625  1.00 20.00     0.005 C 
HETATM    2  C3  UNL     1     -33.299  15.869  -4.501  1.00 20.00     0.006 C 
HETATM    3  C4  UNL     1     -35.938  14.660  -3.949  1.00 20.00     0.017 C 
HETATM    4  C5  UNL     1     -33.841  13.573  -4.285  1.00 20.00     0.010 C 
HETATM    5  C6  UNL     1     -34.987  15.014  -2.794  1.00 20.00     0.059 C 
HETATM    6  C7  UNL     1     -34.971  14.238  -5.072  1.00 20.00    -0.013 C 
HETATM    7  C8  UNL     1     -33.591  14.810  -3.420  1.00 20.00    -0.003 C 
ENDROOT
BRANCH   5   8
HETATM    8  C1  UNL     1     -35.206  16.388  -2.245  1.00 20.00     0.127 C 
HETATM    9  C9  UNL     1     -34.446  16.747  -0.996  1.00 20.00     0.091 C 
HETATM   10  O10 UNL     1     -35.968  17.186  -2.788  1.00 20.00    -0.298 OA
ENDBRANCH   5   8
TORSDOF 1
ENDMDL
MODEL 6
REMARK VINA RESULT:      -4.2     11.980     13.007
REMARK  1 active torsions:
REMARK  status: ('A' for Active; 'I' for Inactive)
REMARK    1  A    between atoms: C1_1  and  C6_6 
ROOT
HETATM    1  C2  UNL     1     -43.147   6.429  -0.048  1.00 20.00     0.005 C 
HETATM    2  C3  UNL     1     -42.872   4.925   0.092  1.00 20.00     0.006 C 
HETATM    3  C4  UNL     1     -41.807   6.512  -2.161  1.00 20.00     0.017 C 
HETATM    4  C5  UNL     1     -40.795   6.056  -0.049  1.00 20.00     0.010 C 
HETATM    5  C6  UNL     1     -41.500   5.008  -2.054  1.00 20.00     0.059 C 
HETATM    6  C7  UNL     1     -41.852   6.958  -0.687  1.00 20.00    -0.013 C 
HETATM    7  C8  UNL     1     -41.471   4.769  -0.530  1.00 20.00    -0.003 C 
ENDROOT
BRANCH   5   8
HETATM    8  C1  UNL     1     -42.486   4.149  -2.779  1.00 20.00     0.127 C 
HETATM    9  C9  UNL     1     -42.285   2.660  -2.683  1.00 20.00     0.091 C 
HETATM   10  O10 UNL     1     -43.417   4.634  -3.420  1.00 20.00    -0.298 OA
ENDBRANCH   5   8
TORSDOF 1
ENDMDL
MODEL 7
REMARK VINA RESULT:      -4.2      1.815      2.966
REMARK  1 active torsions:
REMARK  status: ('A' for Active; 'I' for Inactive)
REMARK    1  A    between atoms: C1_1  and  C6_6 
ROOT
HETATM    1  C2  UNL     1     -34.112  13.546  -3.764  1.00 20.00     0.005 C 
HETATM    2  C3  UNL     1     -34.693  13.715  -5.174  1.00 20.00     0.006 C 
HETATM    3  C4  UNL     1     -35.430  15.512  -2.949  1.00 20.00     0.017 C 
HETATM    4  C5  UNL     1     -33.667  15.753  -4.538  1.00 20.00     0.010 C 
HETATM    5  C6  UNL     1     -36.029  15.722  -4.350  1.00 20.00     0.059 C 
HETATM    6  C7  UNL     1     -34.012  14.994  -3.256  1.00 20.00    -0.013 C 
HETATM    7  C8  UNL     1     -34.900  15.238  -5.284  1.00 20.00    -0.003 C 
ENDROOT
BRANCH   5   8
HETATM    8  C1  UNL     1     -37.327  15.007  -4.553  1.00 20.00     0.127 C 
HETATM    9  C9  UNL     1     -38.069  15.303  -5.829  1.00 20.00     0.091 C 
HETATM   10  O10 UNL     1     -37.766  14.216  -3.720  1.00 20.00    -0.298 OA
ENDBRANCH   5   8
TORSDOF 1
ENDMDL
MODEL 8
REMARK VINA RESULT:      -4.1      1.840      2.461
REMARK  1 active torsions:
REMARK  status: ('A' for Active; 'I' for Inactive)
REMARK    1  A    between atoms: C1_1  and  C6_6 
ROOT
HETATM    1  C2  UNL     1     -34.948  15.417  -2.898  1.00 20.00     0.005 C 
HETATM    2  C3  UNL     1     -35.688  14.400  -3.778  1.00 20.00     0.006 C 
HETATM    3  C4  UNL     1     -33.431  16.008  -4.799  1.00 20.00     0.017 C 
HETATM    4  C5  UNL     1     -33.384  13.853  -3.777  1.00 20.00     0.010 C 
HETATM    5  C6  UNL     1     -34.139  14.993  -5.712  1.00 20.00     0.059 C 
HETATM    6  C7  UNL     1     -33.503  15.334  -3.416  1.00 20.00    -0.013 C 
HETATM    7  C8  UNL     1     -34.584  13.893  -4.726  1.00 20.00    -0.003 C 
ENDROOT
BRANCH   5   8
HETATM    8  C1  UNL     1     -35.264  15.588  -6.499  1.00 20.00     0.127 C 
HETATM    9  C9  UNL     1     -35.923  14.695  -7.516  1.00 20.00     0.091 C 
HETATM   10  O10 UNL     1     -35.633  16.748  -6.323  1.00 20.00    -0.298 OA
ENDBRANCH   5   8
TORSDOF 1
ENDMDL
MODEL 9
REMARK VINA RESULT:      -4.1      1.153      2.092
REMARK  1 active torsions:
REMARK  status: ('A' for Active; 'I' for Inactive)
REMARK    1  A    between atoms: C1_1  and  C6_6 
ROOT
HETATM    1  C2  UNL     1     -34.316  17.167  -4.649  1.00 20.00     0.005 C 
HETATM    2  C3  UNL     1     -35.068  16.124  -5.486  1.00 20.00     0.006 C 
HETATM    3  C4  UNL     1     -34.676  15.810  -2.576  1.00 20.00     0.017 C 
HETATM    4  C5  UNL     1     -36.490  16.841  -3.733  1.00 20.00     0.010 C 
HETATM    5  C6  UNL     1     -35.443  14.745  -3.377  1.00 20.00     0.059 C 
HETATM    6  C7  UNL     1     -35.050  17.119  -3.298  1.00 20.00    -0.013 C 
HETATM    7  C8  UNL     1     -36.111  15.570  -4.497  1.00 20.00    -0.003 C 
ENDROOT
BRANCH   5   8
HETATM    8  C1  UNL     1     -34.571  13.640  -3.881  1.00 20.00     0.127 C 
HETATM    9  C9  UNL     1     -33.094  13.771  -3.620  1.00 20.00     0.091 C 
HETATM   10  O10 UNL     1     -35.037  12.670  -4.478  1.00 20.00    -0.298 OA
ENDBRANCH   5   8
TORSDOF 1
ENDMDL
