MODEL 1
REMARK VINA RESULT:      -5.3      0.000      0.000
REMARK  5 active torsions:
REMARK  status: ('A' for Active; 'I' for Inactive)
REMARK    1  A    between atoms: C3_3  and  C7_7 
REMARK    2  A    between atoms: C4_4  and  C8_8 
REMARK    3  A    between atoms: C7_7  and  C9_9 
REMARK    4  A    between atoms: C8_8  and  C10_10 
REMARK    5  A    between atoms: C9_9  and  C10_10 
ROOT
HETATM    1  C9  UNL     1     -33.775   5.317   2.745  1.00 20.00     0.004 C 
ENDROOT
BRANCH   1   2
HETATM    2  C7  UNL     1     -32.489   6.042   3.150  1.00 20.00     0.026 C 
BRANCH   2   3
HETATM    3  C3  UNL     1     -32.576   7.510   2.848  1.00 20.00    -0.031 C 
HETATM    4  C1  UNL     1     -32.141   8.062   1.705  1.00 20.00    -0.035 C 
HETATM    5  C5  UNL     1     -32.220   9.523   1.406  1.00 20.00     0.035 C 
ENDBRANCH   2   3
ENDBRANCH   1   2
BRANCH   1   6
HETATM    6  C10 UNL     1     -34.926   5.656   3.695  1.00 20.00     0.004 C 
BRANCH   6   7
HETATM    7  C8  UNL     1     -34.914   4.750   4.929  1.00 20.00     0.026 C 
BRANCH   7   8
HETATM    8  C4  UNL     1     -34.474   5.502   6.151  1.00 20.00    -0.031 C 
HETATM    9  C2  UNL     1     -33.939   6.731   6.118  1.00 20.00    -0.035 C 
HETATM   10  C6  UNL     1     -33.507   7.482   7.334  1.00 20.00     0.035 C 
ENDBRANCH   7   8
ENDBRANCH   6   7
ENDBRANCH   1   6
TORSDOF 5
ENDMDL
MODEL 2
REMARK VINA RESULT:      -5.3      0.044      4.387
REMARK  5 active torsions:
REMARK  status: ('A' for Active; 'I' for Inactive)
REMARK    1  A    between atoms: C3_3  and  C7_7 
REMARK    2  A    between atoms: C4_4  and  C8_8 
REMARK    3  A    between atoms: C7_7  and  C9_9 
REMARK    4  A    between atoms: C8_8  and  C10_10 
REMARK    5  A    between atoms: C9_9  and  C10_10 
ROOT
HETATM    1  C9  UNL     1     -34.966   5.626   3.690  1.00 20.00     0.004 C 
ENDROOT
BRANCH   1   2
HETATM    2  C7  UNL     1     -34.913   4.721   4.924  1.00 20.00     0.026 C 
BRANCH   2   3
HETATM    3  C3  UNL     1     -34.483   5.487   6.141  1.00 20.00    -0.031 C 
HETATM    4  C1  UNL     1     -33.954   6.719   6.097  1.00 20.00    -0.035 C 
HETATM    5  C5  UNL     1     -33.520   7.479   7.307  1.00 20.00     0.035 C 
ENDBRANCH   2   3
ENDBRANCH   1   2
BRANCH   1   6
HETATM    6  C10 UNL     1     -33.831   5.303   2.716  1.00 20.00     0.004 C 
BRANCH   6   7
HETATM    7  C8  UNL     1     -32.530   5.995   3.130  1.00 20.00     0.026 C 
BRANCH   7   8
HETATM    8  C4  UNL     1     -32.587   7.469   2.858  1.00 20.00    -0.031 C 
HETATM    9  C2  UNL     1     -32.153   8.035   1.723  1.00 20.00    -0.035 C 
HETATM   10  C6  UNL     1     -32.215   9.501   1.448  1.00 20.00     0.035 C 
ENDBRANCH   7   8
ENDBRANCH   6   7
ENDBRANCH   1   6
TORSDOF 5
ENDMDL
MODEL 3
REMARK VINA RESULT:      -4.8      1.571      5.099
REMARK  5 active torsions:
REMARK  status: ('A' for Active; 'I' for Inactive)
REMARK    1  A    between atoms: C3_3  and  C7_7 
REMARK    2  A    between atoms: C4_4  and  C8_8 
REMARK    3  A    between atoms: C7_7  and  C9_9 
REMARK    4  A    between atoms: C8_8  and  C10_10 
REMARK    5  A    between atoms: C9_9  and  C10_10 
ROOT
HETATM    1  C9  UNL     1     -33.155   5.776   2.739  1.00 20.00     0.004 C 
ENDROOT
BRANCH   1   2
HETATM    2  C7  UNL     1     -34.599   5.332   2.987  1.00 20.00     0.026 C 
BRANCH   2   3
HETATM    3  C3  UNL     1     -34.943   5.393   4.447  1.00 20.00    -0.031 C 
HETATM    4  C1  UNL     1     -34.932   4.327   5.261  1.00 20.00    -0.035 C 
HETATM    5  C5  UNL     1     -35.280   4.385   6.711  1.00 20.00     0.035 C 
ENDBRANCH   2   3
ENDBRANCH   1   2
BRANCH   1   6
HETATM    6  C10 UNL     1     -32.607   6.570   3.927  1.00 20.00     0.004 C 
BRANCH   6   7
HETATM    7  C8  UNL     1     -31.657   7.677   3.464  1.00 20.00     0.026 C 
BRANCH   7   8
HETATM    8  C4  UNL     1     -31.885   8.022   2.021  1.00 20.00    -0.031 C 
HETATM    9  C2  UNL     1     -32.331   9.214   1.602  1.00 20.00    -0.035 C 
HETATM   10  C6  UNL     1     -32.552   9.561   0.166  1.00 20.00     0.035 C 
ENDBRANCH   7   8
ENDBRANCH   6   7
ENDBRANCH   1   6
TORSDOF 5
ENDMDL
MODEL 4
REMARK VINA RESULT:      -4.8      1.557      2.116
REMARK  5 active torsions:
REMARK  status: ('A' for Active; 'I' for Inactive)
REMARK    1  A    between atoms: C3_3  and  C7_7 
REMARK    2  A    between atoms: C4_4  and  C8_8 
REMARK    3  A    between atoms: C7_7  and  C9_9 
REMARK    4  A    between atoms: C8_8  and  C10_10 
REMARK    5  A    between atoms: C9_9  and  C10_10 
ROOT
HETATM    1  C9  UNL     1     -32.528   6.517   3.885  1.00 20.00     0.004 C 
ENDROOT
BRANCH   1   2
HETATM    2  C7  UNL     1     -31.671   7.699   3.426  1.00 20.00     0.026 C 
BRANCH   2   3
HETATM    3  C3  UNL     1     -31.929   8.031   1.984  1.00 20.00    -0.031 C 
HETATM    4  C1  UNL     1     -32.314   9.242   1.556  1.00 20.00    -0.035 C 
HETATM    5  C5  UNL     1     -32.576   9.571   0.123  1.00 20.00     0.035 C 
ENDBRANCH   2   3
ENDBRANCH   1   2
BRANCH   1   6
HETATM    6  C10 UNL     1     -33.126   5.768   2.691  1.00 20.00     0.004 C 
BRANCH   6   7
HETATM    7  C8  UNL     1     -34.575   5.359   2.961  1.00 20.00     0.026 C 
BRANCH   7   8
HETATM    8  C4  UNL     1     -34.893   5.416   4.427  1.00 20.00    -0.031 C 
HETATM    9  C2  UNL     1     -34.946   4.337   5.220  1.00 20.00    -0.035 C 
HETATM   10  C6  UNL     1     -35.255   4.393   6.680  1.00 20.00     0.035 C 
ENDBRANCH   7   8
ENDBRANCH   6   7
ENDBRANCH   1   6
TORSDOF 5
ENDMDL
MODEL 5
REMARK VINA RESULT:      -4.5     10.834     12.404
REMARK  5 active torsions:
REMARK  status: ('A' for Active; 'I' for Inactive)
REMARK    1  A    between atoms: C3_3  and  C7_7 
REMARK    2  A    between atoms: C4_4  and  C8_8 
REMARK    3  A    between atoms: C7_7  and  C9_9 
REMARK    4  A    between atoms: C8_8  and  C10_10 
REMARK    5  A    between atoms: C9_9  and  C10_10 
ROOT
HETATM    1  C9  UNL     1     -33.569  16.227  -2.968  1.00 20.00     0.004 C 
ENDROOT
BRANCH   1   2
HETATM    2  C7  UNL     1     -34.746  15.900  -2.045  1.00 20.00     0.026 C 
BRANCH   2   3
HETATM    3  C3  UNL     1     -34.665  16.679  -0.764  1.00 20.00    -0.031 C 
HETATM    4  C1  UNL     1     -33.781  17.665  -0.547  1.00 20.00    -0.035 C 
HETATM    5  C5  UNL     1     -33.696  18.436   0.729  1.00 20.00     0.035 C 
ENDBRANCH   2   3
ENDBRANCH   1   2
BRANCH   1   6
HETATM    6  C10 UNL     1     -33.075  14.978  -3.700  1.00 20.00     0.004 C 
BRANCH   6   7
HETATM    7  C8  UNL     1     -34.136  13.875  -3.697  1.00 20.00     0.026 C 
BRANCH   7   8
HETATM    8  C4  UNL     1     -34.715  13.673  -5.067  1.00 20.00    -0.031 C 
HETATM    9  C2  UNL     1     -34.690  14.603  -6.031  1.00 20.00    -0.035 C 
HETATM   10  C6  UNL     1     -35.260  14.401  -7.396  1.00 20.00     0.035 C 
ENDBRANCH   7   8
ENDBRANCH   6   7
ENDBRANCH   1   6
TORSDOF 5
ENDMDL
MODEL 6
REMARK VINA RESULT:      -4.4     10.803     11.835
REMARK  5 active torsions:
REMARK  status: ('A' for Active; 'I' for Inactive)
REMARK    1  A    between atoms: C3_3  and  C7_7 
REMARK    2  A    between atoms: C4_4  and  C8_8 
REMARK    3  A    between atoms: C7_7  and  C9_9 
REMARK    4  A    between atoms: C8_8  and  C10_10 
REMARK    5  A    between atoms: C9_9  and  C10_10 
ROOT
HETATM    1  C9  UNL     1     -33.196  14.577  -3.616  1.00 20.00     0.004 C 
ENDROOT
BRANCH   1   2
HETATM    2  C7  UNL     1     -34.418  13.674  -3.801  1.00 20.00     0.026 C 
BRANCH   2   3
HETATM    3  C3  UNL     1     -34.780  13.539  -5.252  1.00 20.00    -0.031 C 
HETATM    4  C1  UNL     1     -34.904  14.581  -6.088  1.00 20.00    -0.035 C 
HETATM    5  C5  UNL     1     -35.270  14.448  -7.529  1.00 20.00     0.035 C 
ENDBRANCH   2   3
ENDBRANCH   1   2
BRANCH   1   6
HETATM    6  C10 UNL     1     -33.595  15.943  -3.055  1.00 20.00     0.004 C 
BRANCH   6   7
HETATM    7  C8  UNL     1     -34.788  15.827  -2.103  1.00 20.00     0.026 C 
BRANCH   7   8
HETATM    8  C4  UNL     1     -34.580  16.650  -0.866  1.00 20.00    -0.031 C 
HETATM    9  C2  UNL     1     -33.673  17.632  -0.768  1.00 20.00    -0.035 C 
HETATM   10  C6  UNL     1     -33.469  18.456   0.461  1.00 20.00     0.035 C 
ENDBRANCH   7   8
ENDBRANCH   6   7
ENDBRANCH   1   6
TORSDOF 5
ENDMDL
MODEL 7
REMARK VINA RESULT:      -4.3     10.841     12.009
REMARK  5 active torsions:
REMARK  status: ('A' for Active; 'I' for Inactive)
REMARK    1  A    between atoms: C3_3  and  C7_7 
REMARK    2  A    between atoms: C4_4  and  C8_8 
REMARK    3  A    between atoms: C7_7  and  C9_9 
REMARK    4  A    between atoms: C8_8  and  C10_10 
REMARK    5  A    between atoms: C9_9  and  C10_10 
ROOT
HETATM    1  C9  UNL     1     -33.647  13.874  -3.711  1.00 20.00     0.004 C 
ENDROOT
BRANCH   1   2
HETATM    2  C7  UNL     1     -33.286  15.332  -4.006  1.00 20.00     0.026 C 
BRANCH   2   3
HETATM    3  C3  UNL     1     -33.547  16.208  -2.814  1.00 20.00    -0.031 C 
HETATM    4  C1  UNL     1     -34.510  15.970  -1.911  1.00 20.00    -0.035 C 
HETATM    5  C5  UNL     1     -34.773  16.844  -0.730  1.00 20.00     0.035 C 
ENDBRANCH   2   3
ENDBRANCH   1   2
BRANCH   1   6
HETATM    6  C10 UNL     1     -34.802  13.398  -4.594  1.00 20.00     0.004 C 
BRANCH   6   7
HETATM    7  C8  UNL     1     -35.288  14.514  -5.522  1.00 20.00     0.026 C 
BRANCH   7   8
HETATM    8  C4  UNL     1     -36.636  15.023  -5.102  1.00 20.00    -0.031 C 
HETATM    9  C2  UNL     1     -37.286  14.598  -4.010  1.00 20.00    -0.035 C 
HETATM   10  C6  UNL     1     -38.624  15.108  -3.587  1.00 20.00     0.035 C 
ENDBRANCH   7   8
ENDBRANCH   6   7
ENDBRANCH   1   6
TORSDOF 5
ENDMDL
MODEL 8
REMARK VINA RESULT:      -4.2     10.955     12.538
REMARK  5 active torsions:
REMARK  status: ('A' for Active; 'I' for Inactive)
REMARK    1  A    between atoms: C3_3  and  C7_7 
REMARK    2  A    between atoms: C4_4  and  C8_8 
REMARK    3  A    between atoms: C7_7  and  C9_9 
REMARK    4  A    between atoms: C8_8  and  C10_10 
REMARK    5  A    between atoms: C9_9  and  C10_10 
ROOT
HETATM    1  C9  UNL     1     -35.329  14.315  -5.757  1.00 20.00     0.004 C 
ENDROOT
BRANCH   1   2
HETATM    2  C7  UNL     1     -34.434  14.950  -6.823  1.00 20.00     0.026 C 
BRANCH   2   3
HETATM    3  C3  UNL     1     -34.390  16.444  -6.677  1.00 20.00    -0.031 C 
HETATM    4  C1  UNL     1     -33.653  17.081  -5.755  1.00 20.00    -0.035 C 
HETATM    5  C5  UNL     1     -33.614  18.566  -5.605  1.00 20.00     0.035 C 
ENDBRANCH   2   3
ENDBRANCH   1   2
BRANCH   1   6
HETATM    6  C10 UNL     1     -34.571  13.254  -4.955  1.00 20.00     0.004 C 
BRANCH   6   7
HETATM    7  C8  UNL     1     -33.744  13.889  -3.836  1.00 20.00     0.026 C 
BRANCH   7   8
HETATM    8  C4  UNL     1     -34.579  14.813  -2.998  1.00 20.00    -0.031 C 
HETATM    9  C2  UNL     1     -34.090  15.881  -2.353  1.00 20.00    -0.035 C 
HETATM   10  C6  UNL     1     -34.921  16.804  -1.524  1.00 20.00     0.035 C 
ENDBRANCH   7   8
ENDBRANCH   6   7
ENDBRANCH   1   6
TORSDOF 5
ENDMDL
MODEL 9
REMARK VINA RESULT:      -4.2     10.634     11.760
REMARK  5 active torsions:
REMARK  status: ('A' for Active; 'I' for Inactive)
REMARK    1  A    between atoms: C3_3  and  C7_7 
REMARK    2  A    between atoms: C4_4  and  C8_8 
REMARK    3  A    between atoms: C7_7  and  C9_9 
REMARK    4  A    between atoms: C8_8  and  C10_10 
REMARK    5  A    between atoms: C9_9  and  C10_10 
ROOT
HETATM    1  C9  UNL     1     -33.849  13.814  -3.473  1.00 20.00     0.004 C 
ENDROOT
BRANCH   1   2
HETATM    2  C7  UNL     1     -34.474  13.463  -4.826  1.00 20.00     0.026 C 
BRANCH   2   3
HETATM    3  C3  UNL     1     -35.852  14.045  -4.956  1.00 20.00    -0.031 C 
HETATM    4  C1  UNL     1     -36.609  14.407  -3.909  1.00 20.00    -0.035 C 
HETATM    5  C5  UNL     1     -37.982  14.979  -4.037  1.00 20.00     0.035 C 
ENDBRANCH   2   3
ENDBRANCH   1   2
BRANCH   1   6
HETATM    6  C10 UNL     1     -32.869  14.982  -3.600  1.00 20.00     0.004 C 
BRANCH   6   7
HETATM    7  C8  UNL     1     -33.594  16.327  -3.531  1.00 20.00     0.026 C 
BRANCH   7   8
HETATM    8  C4  UNL     1     -33.690  16.823  -2.118  1.00 20.00    -0.031 C 
HETATM    9  C2  UNL     1     -34.762  16.640  -1.335  1.00 20.00    -0.035 C 
HETATM   10  C6  UNL     1     -34.856  17.126   0.073  1.00 20.00     0.035 C 
ENDBRANCH   7   8
ENDBRANCH   6   7
ENDBRANCH   1   6
TORSDOF 5
ENDMDL
