MODEL 1
REMARK VINA RESULT:      -4.2      0.000      0.000
REMARK  1 active torsions:
REMARK  status: ('A' for Active; 'I' for Inactive)
REMARK    1  A    between atoms: C7_7  and  O8_8 
ROOT
HETATM    1  C1  UNL     1     -32.954   5.774   3.607  1.00 20.00    -0.025 C 
HETATM    2  C2  UNL     1     -33.943   5.168   2.935  1.00 20.00    -0.023 C 
HETATM    3  C3  UNL     1     -34.887   6.980   4.017  1.00 20.00     0.019 C 
HETATM    4  C4  UNL     1     -34.127   5.539   5.762  1.00 20.00     0.041 C 
HETATM    5  C5  UNL     1     -33.595   6.558   4.728  1.00 20.00     0.011 C 
HETATM    6  C6  UNL     1     -35.243   5.547   3.609  1.00 20.00     0.037 C 
HETATM    7  C7  UNL     1     -35.308   4.875   5.000  1.00 20.00     0.126 C 
ENDROOT
BRANCH   7   8
HETATM    8  O8  UNL     1     -35.167   3.469   4.934  1.00 20.00    -0.395 OA
HETATM    9  H18 UNL     1     -35.624   3.173   4.127  1.00 20.00     0.210 HD
ENDBRANCH   7   8
TORSDOF 1
ENDMDL
MODEL 2
REMARK VINA RESULT:      -4.1     12.106     13.060
REMARK  1 active torsions:
REMARK  status: ('A' for Active; 'I' for Inactive)
REMARK    1  A    between atoms: C7_7  and  O8_8 
ROOT
HETATM    1  C1  UNL     1     -34.742  13.284  -4.622  1.00 20.00    -0.025 C 
HETATM    2  C2  UNL     1     -33.860  13.623  -3.672  1.00 20.00    -0.023 C 
HETATM    3  C3  UNL     1     -35.656  15.062  -3.457  1.00 20.00     0.019 C 
HETATM    4  C4  UNL     1     -34.722  15.546  -5.599  1.00 20.00     0.041 C 
HETATM    5  C5  UNL     1     -35.603  14.497  -4.882  1.00 20.00     0.011 C 
HETATM    6  C6  UNL     1     -34.132  15.063  -3.298  1.00 20.00     0.037 C 
HETATM    7  C7  UNL     1     -33.735  15.977  -4.480  1.00 20.00     0.126 C 
ENDROOT
BRANCH   7   8
HETATM    8  O8  UNL     1     -32.386  15.806  -4.872  1.00 20.00    -0.395 OA
HETATM    9  H18 UNL     1     -32.215  16.436  -5.593  1.00 20.00     0.210 HD
ENDBRANCH   7   8
TORSDOF 1
ENDMDL
MODEL 3
REMARK VINA RESULT:      -4.1     11.877     12.863
REMARK  1 active torsions:
REMARK  status: ('A' for Active; 'I' for Inactive)
REMARK    1  A    between atoms: C7_7  and  O8_8 
ROOT
HETATM    1  C1  UNL     1     -35.471  16.072  -4.193  1.00 20.00    -0.025 C 
HETATM    2  C2  UNL     1     -35.184  15.323  -3.119  1.00 20.00    -0.023 C 
HETATM    3  C3  UNL     1     -33.193  15.665  -4.244  1.00 20.00     0.019 C 
HETATM    4  C4  UNL     1     -34.546  14.395  -5.745  1.00 20.00     0.041 C 
HETATM    5  C5  UNL     1     -34.376  15.834  -5.206  1.00 20.00     0.011 C 
HETATM    6  C6  UNL     1     -33.898  14.586  -3.416  1.00 20.00     0.037 C 
HETATM    7  C7  UNL     1     -34.161  13.529  -4.514  1.00 20.00     0.126 C 
ENDROOT
BRANCH   7   8
HETATM    8  O8  UNL     1     -35.190  12.624  -4.163  1.00 20.00    -0.395 OA
HETATM    9  H18 UNL     1     -35.663  13.007  -3.404  1.00 20.00     0.210 HD
ENDBRANCH   7   8
TORSDOF 1
ENDMDL
MODEL 4
REMARK VINA RESULT:      -4.1     11.612     12.464
REMARK  1 active torsions:
REMARK  status: ('A' for Active; 'I' for Inactive)
REMARK    1  A    between atoms: C7_7  and  O8_8 
ROOT
HETATM    1  C1  UNL     1     -33.752  15.921  -4.904  1.00 20.00    -0.025 C 
HETATM    2  C2  UNL     1     -35.029  15.521  -4.987  1.00 20.00    -0.023 C 
HETATM    3  C3  UNL     1     -34.494  15.579  -2.738  1.00 20.00     0.019 C 
HETATM    4  C4  UNL     1     -33.085  13.894  -3.671  1.00 20.00     0.041 C 
HETATM    5  C5  UNL     1     -33.219  15.431  -3.578  1.00 20.00     0.011 C 
HETATM    6  C6  UNL     1     -35.347  14.765  -3.717  1.00 20.00     0.037 C 
HETATM    7  C7  UNL     1     -34.567  13.430  -3.713  1.00 20.00     0.126 C 
ENDROOT
BRANCH   7   8
HETATM    8  O8  UNL     1     -34.839  12.637  -4.852  1.00 20.00    -0.395 OA
HETATM    9  H18 UNL     1     -35.452  13.142  -5.414  1.00 20.00     0.210 HD
ENDBRANCH   7   8
TORSDOF 1
ENDMDL
MODEL 5
REMARK VINA RESULT:      -4.0      8.251      9.220
REMARK  1 active torsions:
REMARK  status: ('A' for Active; 'I' for Inactive)
REMARK    1  A    between atoms: C7_7  and  O8_8 
ROOT
HETATM    1  C1  UNL     1     -41.780   6.927  -2.318  1.00 20.00    -0.025 C 
HETATM    2  C2  UNL     1     -42.242   5.688  -2.538  1.00 20.00    -0.023 C 
HETATM    3  C3  UNL     1     -42.977   6.309  -0.436  1.00 20.00     0.019 C 
HETATM    4  C4  UNL     1     -40.597   6.238  -0.269  1.00 20.00     0.041 C 
HETATM    5  C5  UNL     1     -41.736   7.125  -0.822  1.00 20.00     0.011 C 
HETATM    6  C6  UNL     1     -42.507   5.060  -1.188  1.00 20.00     0.037 C 
HETATM    7  C7  UNL     1     -41.158   4.804  -0.476  1.00 20.00     0.126 C 
ENDROOT
BRANCH   7   8
HETATM    8  O8  UNL     1     -40.282   4.000  -1.241  1.00 20.00    -0.395 OA
HETATM    9  H18 UNL     1     -40.650   3.950  -2.140  1.00 20.00     0.210 HD
ENDBRANCH   7   8
TORSDOF 1
ENDMDL
MODEL 6
REMARK VINA RESULT:      -3.9     12.236     13.104
REMARK  1 active torsions:
REMARK  status: ('A' for Active; 'I' for Inactive)
REMARK    1  A    between atoms: C7_7  and  O8_8 
ROOT
HETATM    1  C1  UNL     1     -32.872  14.756  -3.583  1.00 20.00    -0.025 C 
HETATM    2  C2  UNL     1     -33.168  15.870  -4.267  1.00 20.00    -0.023 C 
HETATM    3  C3  UNL     1     -35.160  15.061  -3.417  1.00 20.00     0.019 C 
HETATM    4  C4  UNL     1     -34.405  13.385  -4.940  1.00 20.00     0.041 C 
HETATM    5  C5  UNL     1     -34.132  13.926  -3.518  1.00 20.00     0.011 C 
HETATM    6  C6  UNL     1     -34.626  15.783  -4.659  1.00 20.00     0.037 C 
HETATM    7  C7  UNL     1     -34.801  14.670  -5.718  1.00 20.00     0.126 C 
ENDROOT
BRANCH   7   8
HETATM    8  O8  UNL     1     -33.986  14.869  -6.857  1.00 20.00    -0.395 OA
HETATM    9  H18 UNL     1     -34.343  15.637  -7.334  1.00 20.00     0.210 HD
ENDBRANCH   7   8
TORSDOF 1
ENDMDL
MODEL 7
REMARK VINA RESULT:      -3.9     11.702     12.536
REMARK  1 active torsions:
REMARK  status: ('A' for Active; 'I' for Inactive)
REMARK    1  A    between atoms: C7_7  and  O8_8 
ROOT
HETATM    1  C1  UNL     1     -33.731  13.604  -3.818  1.00 20.00    -0.025 C 
HETATM    2  C2  UNL     1     -34.575  13.257  -4.799  1.00 20.00    -0.023 C 
HETATM    3  C3  UNL     1     -34.084  15.496  -5.104  1.00 20.00     0.019 C 
HETATM    4  C4  UNL     1     -35.230  15.388  -3.013  1.00 20.00     0.041 C 
HETATM    5  C5  UNL     1     -33.847  15.100  -3.641  1.00 20.00     0.011 C 
HETATM    6  C6  UNL     1     -35.254  14.522  -5.277  1.00 20.00     0.037 C 
HETATM    7  C7  UNL     1     -36.204  15.036  -4.171  1.00 20.00     0.126 C 
ENDROOT
BRANCH   7   8
HETATM    8  O8  UNL     1     -37.160  14.070  -3.780  1.00 20.00    -0.395 OA
HETATM    9  H18 UNL     1     -37.545  14.371  -2.939  1.00 20.00     0.210 HD
ENDBRANCH   7   8
TORSDOF 1
ENDMDL
MODEL 8
REMARK VINA RESULT:      -3.9      8.084      9.172
REMARK  1 active torsions:
REMARK  status: ('A' for Active; 'I' for Inactive)
REMARK    1  A    between atoms: C7_7  and  O8_8 
ROOT
HETATM    1  C1  UNL     1     -41.165   6.760  -1.159  1.00 20.00    -0.025 C 
HETATM    2  C2  UNL     1     -40.648   6.142  -0.087  1.00 20.00    -0.023 C 
HETATM    3  C3  UNL     1     -41.232   4.488  -1.593  1.00 20.00     0.019 C 
HETATM    4  C4  UNL     1     -43.291   5.527  -0.980  1.00 20.00     0.041 C 
HETATM    5  C5  UNL     1     -42.046   5.759  -1.867  1.00 20.00     0.011 C 
HETATM    6  C6  UNL     1     -41.186   4.729  -0.080  1.00 20.00     0.037 C 
HETATM    7  C7  UNL     1     -42.699   4.763   0.237  1.00 20.00     0.126 C 
ENDROOT
BRANCH   7   8
HETATM    8  O8  UNL     1     -42.985   5.416   1.459  1.00 20.00    -0.395 OA
HETATM    9  H18 UNL     1     -42.211   5.296   2.036  1.00 20.00     0.210 HD
ENDBRANCH   7   8
TORSDOF 1
ENDMDL
MODEL 9
REMARK VINA RESULT:      -3.9      8.577      9.511
REMARK  1 active torsions:
REMARK  status: ('A' for Active; 'I' for Inactive)
REMARK    1  A    between atoms: C7_7  and  O8_8 
ROOT
HETATM    1  C1  UNL     1     -42.877   4.480  -1.670  1.00 20.00    -0.025 C 
HETATM    2  C2  UNL     1     -41.571   4.421  -1.963  1.00 20.00    -0.023 C 
HETATM    3  C3  UNL     1     -41.728   4.662   0.331  1.00 20.00     0.019 C 
HETATM    4  C4  UNL     1     -42.642   6.674  -0.572  1.00 20.00     0.041 C 
HETATM    5  C5  UNL     1     -43.003   5.188  -0.342  1.00 20.00     0.011 C 
HETATM    6  C6  UNL     1     -40.825   5.090  -0.831  1.00 20.00     0.037 C 
HETATM    7  C7  UNL     1     -41.117   6.608  -0.859  1.00 20.00     0.126 C 
ENDROOT
BRANCH   7   8
HETATM    8  O8  UNL     1     -40.787   7.204  -2.099  1.00 20.00    -0.395 OA
HETATM    9  H18 UNL     1     -39.827   7.104  -2.219  1.00 20.00     0.210 HD
ENDBRANCH   7   8
TORSDOF 1
ENDMDL
