MODEL 1
REMARK VINA RESULT:      -4.3      0.000      0.000
REMARK  1 active torsions:
REMARK  status: ('A' for Active; 'I' for Inactive)
REMARK    1  A    between atoms: C4_4  and  C7_7 
ROOT
HETATM    1  C1  UNL     1     -35.674  15.040  -7.366  1.00 20.00     0.063 C 
HETATM    2  C7  UNL     1     -34.257  15.138  -6.983  1.00 20.00     0.165 C 
HETATM    3  N8  UNL     1     -36.791  14.960  -7.668  1.00 20.00    -0.197 NA
ENDROOT
BRANCH   2   4
HETATM    4  C4  UNL     1     -34.125  15.542  -5.555  1.00 20.00    -0.006 A 
HETATM    5  C3  UNL     1     -33.825  16.858  -5.242  1.00 20.00     0.128 A 
HETATM    6  N9  UNL     1     -33.684  17.323  -3.982  1.00 20.00    -0.248 NA
HETATM    7  C6  UNL     1     -33.853  16.424  -2.987  1.00 20.00     0.127 A 
HETATM    8  C2  UNL     1     -34.154  15.087  -3.193  1.00 20.00     0.068 A 
HETATM    9 CL11 UNL     1     -33.664  17.058  -1.404  1.00 20.00    -0.062 Cl
HETATM   10  C5  UNL     1     -34.291  14.645  -4.504  1.00 20.00     0.045 A 
HETATM   11 CL10 UNL     1     -34.667  12.986  -4.790  1.00 20.00    -0.084 Cl
ENDBRANCH   2   4
TORSDOF 1
ENDMDL
MODEL 2
REMARK VINA RESULT:      -4.3      2.508      2.945
REMARK  1 active torsions:
REMARK  status: ('A' for Active; 'I' for Inactive)
REMARK    1  A    between atoms: C4_4  and  C7_7 
ROOT
HETATM    1  C1  UNL     1     -34.759  13.763  -5.042  1.00 20.00     0.063 C 
HETATM    2  C7  UNL     1     -34.783  15.210  -5.310  1.00 20.00     0.165 C 
HETATM    3  N8  UNL     1     -34.737  12.623  -4.831  1.00 20.00    -0.197 NA
ENDROOT
BRANCH   2   4
HETATM    4  C4  UNL     1     -34.493  15.980  -4.068  1.00 20.00    -0.006 A 
HETATM    5  C3  UNL     1     -34.792  15.425  -2.835  1.00 20.00     0.128 A 
HETATM    6  N9  UNL     1     -34.568  16.040  -1.653  1.00 20.00    -0.248 NA
HETATM    7  C6  UNL     1     -34.017  17.273  -1.713  1.00 20.00     0.127 A 
HETATM    8  C2  UNL     1     -33.681  17.916  -2.894  1.00 20.00     0.068 A 
HETATM    9 CL11 UNL     1     -33.751  18.018  -0.190  1.00 20.00    -0.062 Cl
HETATM   10  C5  UNL     1     -33.927  17.251  -4.089  1.00 20.00     0.045 A 
HETATM   11 CL10 UNL     1     -33.518  18.027  -5.575  1.00 20.00    -0.084 Cl
ENDBRANCH   2   4
TORSDOF 1
ENDMDL
MODEL 3
REMARK VINA RESULT:      -4.3      1.688      1.917
REMARK  1 active torsions:
REMARK  status: ('A' for Active; 'I' for Inactive)
REMARK    1  A    between atoms: C4_4  and  C7_7 
ROOT
HETATM    1  C1  UNL     1     -34.999  14.342  -6.741  1.00 20.00     0.063 C 
HETATM    2  C7  UNL     1     -35.032  13.619  -5.461  1.00 20.00     0.165 C 
HETATM    3  N8  UNL     1     -34.976  14.913  -7.751  1.00 20.00    -0.197 NA
ENDROOT
BRANCH   2   4
HETATM    4  C4  UNL     1     -34.791  14.551  -4.323  1.00 20.00    -0.006 A 
HETATM    5  C3  UNL     1     -33.497  14.948  -4.029  1.00 20.00     0.128 A 
HETATM    6  N9  UNL     1     -33.173  15.788  -3.021  1.00 20.00    -0.248 NA
HETATM    7  C6  UNL     1     -34.200  16.252  -2.273  1.00 20.00     0.127 A 
HETATM    8  C2  UNL     1     -35.527  15.917  -2.486  1.00 20.00     0.068 A 
HETATM    9 CL11 UNL     1     -33.743  17.314  -1.005  1.00 20.00    -0.062 Cl
HETATM   10  C5  UNL     1     -35.820  15.050  -3.532  1.00 20.00     0.045 A 
HETATM   11 CL10 UNL     1     -37.465  14.616  -3.819  1.00 20.00    -0.084 Cl
ENDBRANCH   2   4
TORSDOF 1
ENDMDL
MODEL 4
REMARK VINA RESULT:      -4.2      1.264      1.276
REMARK  1 active torsions:
REMARK  status: ('A' for Active; 'I' for Inactive)
REMARK    1  A    between atoms: C4_4  and  C7_7 
ROOT
HETATM    1  C1  UNL     1     -34.527  16.622  -7.290  1.00 20.00     0.063 C 
HETATM    2  C7  UNL     1     -34.080  15.469  -6.494  1.00 20.00     0.165 C 
HETATM    3  N8  UNL     1     -34.882  17.531  -7.918  1.00 20.00    -0.197 NA
ENDROOT
BRANCH   2   4
HETATM    4  C4  UNL     1     -34.123  15.785  -5.039  1.00 20.00    -0.006 A 
HETATM    5  C3  UNL     1     -33.699  17.028  -4.597  1.00 20.00     0.128 A 
HETATM    6  N9  UNL     1     -33.698  17.411  -3.302  1.00 20.00    -0.248 NA
HETATM    7  C6  UNL     1     -34.146  16.503  -2.406  1.00 20.00     0.127 A 
HETATM    8  C2  UNL     1     -34.592  15.235  -2.744  1.00 20.00     0.068 A 
HETATM    9 CL11 UNL     1     -34.127  17.032  -0.774  1.00 20.00    -0.062 Cl
HETATM   10  C5  UNL     1     -34.577  14.877  -4.087  1.00 20.00     0.045 A 
HETATM   11 CL10 UNL     1     -35.126  13.305  -4.537  1.00 20.00    -0.084 Cl
ENDBRANCH   2   4
TORSDOF 1
ENDMDL
MODEL 5
REMARK VINA RESULT:      -4.1      2.968      3.423
REMARK  1 active torsions:
REMARK  status: ('A' for Active; 'I' for Inactive)
REMARK    1  A    between atoms: C4_4  and  C7_7 
ROOT
HETATM    1  C1  UNL     1     -33.892  13.662  -4.080  1.00 20.00     0.063 C 
HETATM    2  C7  UNL     1     -33.060  14.807  -3.681  1.00 20.00     0.165 C 
HETATM    3  N8  UNL     1     -34.548  12.758  -4.393  1.00 20.00    -0.197 NA
ENDROOT
BRANCH   2   4
HETATM    4  C4  UNL     1     -33.912  15.961  -3.276  1.00 20.00    -0.006 A 
HETATM    5  C3  UNL     1     -34.524  15.954  -2.033  1.00 20.00     0.128 A 
HETATM    6  N9  UNL     1     -35.313  16.950  -1.573  1.00 20.00    -0.248 NA
HETATM    7  C6  UNL     1     -35.496  18.003  -2.401  1.00 20.00     0.127 A 
HETATM    8  C2  UNL     1     -34.930  18.106  -3.661  1.00 20.00     0.068 A 
HETATM    9 CL11 UNL     1     -36.506  19.242  -1.777  1.00 20.00    -0.062 Cl
HETATM   10  C5  UNL     1     -34.124  17.062  -4.100  1.00 20.00     0.045 A 
HETATM   11 CL10 UNL     1     -33.405  17.164  -5.665  1.00 20.00    -0.084 Cl
ENDBRANCH   2   4
TORSDOF 1
ENDMDL
MODEL 6
REMARK VINA RESULT:      -4.1     12.063     13.400
REMARK  1 active torsions:
REMARK  status: ('A' for Active; 'I' for Inactive)
REMARK    1  A    between atoms: C4_4  and  C7_7 
ROOT
HETATM    1  C1  UNL     1     -42.589   8.234  -3.441  1.00 20.00     0.063 C 
HETATM    2  C7  UNL     1     -42.545   7.540  -2.144  1.00 20.00     0.165 C 
HETATM    3  N8  UNL     1     -42.621   8.782  -4.463  1.00 20.00    -0.197 NA
ENDROOT
BRANCH   2   4
HETATM    4  C4  UNL     1     -42.392   6.071  -2.338  1.00 20.00    -0.006 A 
HETATM    5  C3  UNL     1     -43.159   5.425  -3.295  1.00 20.00     0.128 A 
HETATM    6  N9  UNL     1     -43.095   4.100  -3.548  1.00 20.00    -0.248 NA
HETATM    7  C6  UNL     1     -42.219   3.388  -2.804  1.00 20.00     0.127 A 
HETATM    8  C2  UNL     1     -41.408   3.937  -1.824  1.00 20.00     0.068 A 
HETATM    9 CL11 UNL     1     -42.172   1.709  -3.158  1.00 20.00    -0.062 Cl
HETATM   10  C5  UNL     1     -41.502   5.304  -1.592  1.00 20.00     0.045 A 
HETATM   11 CL10 UNL     1     -40.504   6.015  -0.378  1.00 20.00    -0.084 Cl
ENDBRANCH   2   4
TORSDOF 1
ENDMDL
MODEL 7
REMARK VINA RESULT:      -4.1      2.452      3.615
REMARK  1 active torsions:
REMARK  status: ('A' for Active; 'I' for Inactive)
REMARK    1  A    between atoms: C4_4  and  C7_7 
ROOT
HETATM    1  C1  UNL     1     -34.537  13.384  -4.036  1.00 20.00     0.063 C 
HETATM    2  C7  UNL     1     -33.715  14.406  -3.369  1.00 20.00     0.165 C 
HETATM    3  N8  UNL     1     -35.188  12.579  -4.560  1.00 20.00    -0.197 NA
ENDROOT
BRANCH   2   4
HETATM    4  C4  UNL     1     -33.712  15.673  -4.154  1.00 20.00    -0.006 A 
HETATM    5  C3  UNL     1     -33.770  15.620  -5.537  1.00 20.00     0.128 A 
HETATM    6  N9  UNL     1     -33.772  16.708  -6.337  1.00 20.00    -0.248 NA
HETATM    7  C6  UNL     1     -33.714  17.909  -5.718  1.00 20.00     0.127 A 
HETATM    8  C2  UNL     1     -33.654  18.070  -4.343  1.00 20.00     0.068 A 
HETATM    9 CL11 UNL     1     -33.719  19.263  -6.772  1.00 20.00    -0.062 Cl
HETATM   10  C5  UNL     1     -33.653  16.927  -3.553  1.00 20.00     0.045 A 
HETATM   11 CL10 UNL     1     -33.579  17.098  -1.838  1.00 20.00    -0.084 Cl
ENDBRANCH   2   4
TORSDOF 1
ENDMDL
MODEL 8
REMARK VINA RESULT:      -4.1      3.033      4.884
REMARK  1 active torsions:
REMARK  status: ('A' for Active; 'I' for Inactive)
REMARK    1  A    between atoms: C4_4  and  C7_7 
ROOT
HETATM    1  C1  UNL     1     -34.503  16.858  -0.717  1.00 20.00     0.063 C 
HETATM    2  C7  UNL     1     -34.130  16.373  -2.055  1.00 20.00     0.165 C 
HETATM    3  N8  UNL     1     -34.797  17.243   0.337  1.00 20.00    -0.197 NA
ENDROOT
BRANCH   2   4
HETATM    4  C4  UNL     1     -35.333  15.904  -2.799  1.00 20.00    -0.006 A 
HETATM    5  C3  UNL     1     -36.481  16.681  -2.800  1.00 20.00     0.128 A 
HETATM    6  N9  UNL     1     -37.621  16.346  -3.442  1.00 20.00    -0.248 NA
HETATM    7  C6  UNL     1     -37.609  15.173  -4.116  1.00 20.00     0.127 A 
HETATM    8  C2  UNL     1     -36.514  14.325  -4.177  1.00 20.00     0.068 A 
HETATM    9 CL11 UNL     1     -39.077  14.787  -4.916  1.00 20.00    -0.062 Cl
HETATM   10  C5  UNL     1     -35.359  14.705  -3.504  1.00 20.00     0.045 A 
HETATM   11 CL10 UNL     1     -33.981  13.668  -3.562  1.00 20.00    -0.084 Cl
ENDBRANCH   2   4
TORSDOF 1
ENDMDL
MODEL 9
REMARK VINA RESULT:      -4.1      2.020      2.361
REMARK  1 active torsions:
REMARK  status: ('A' for Active; 'I' for Inactive)
REMARK    1  A    between atoms: C4_4  and  C7_7 
ROOT
HETATM    1  C1  UNL     1     -35.116  14.013  -6.135  1.00 20.00     0.063 C 
HETATM    2  C7  UNL     1     -34.985  13.556  -4.742  1.00 20.00     0.165 C 
HETATM    3  N8  UNL     1     -35.222  14.373  -7.232  1.00 20.00    -0.197 NA
ENDROOT
BRANCH   2   4
HETATM    4  C4  UNL     1     -35.026  14.712  -3.803  1.00 20.00    -0.006 A 
HETATM    5  C3  UNL     1     -36.241  15.308  -3.506  1.00 20.00     0.128 A 
HETATM    6  N9  UNL     1     -36.384  16.358  -2.669  1.00 20.00    -0.248 NA
HETATM    7  C6  UNL     1     -35.252  16.833  -2.101  1.00 20.00     0.127 A 
HETATM    8  C2  UNL     1     -33.990  16.308  -2.332  1.00 20.00     0.068 A 
HETATM    9 CL11 UNL     1     -35.480  18.167  -1.047  1.00 20.00    -0.062 Cl
HETATM   10  C5  UNL     1     -33.883  15.228  -3.199  1.00 20.00     0.045 A 
HETATM   11 CL10 UNL     1     -32.325  14.554  -3.505  1.00 20.00    -0.084 Cl
ENDBRANCH   2   4
TORSDOF 1
ENDMDL
