MODEL 1
REMARK VINA RESULT:      -4.5      0.000      0.000
REMARK  1 active torsions:
REMARK  status: ('A' for Active; 'I' for Inactive)
REMARK    1  A    between atoms: C1_1  and  C6_6 
ROOT
HETATM    1  C2  UNL     1     -33.081  15.218  -3.677  1.00 20.00     0.002 C 
HETATM    2  C3  UNL     1     -34.034  14.030  -3.537  1.00 20.00     0.012 C 
HETATM    3  C4  UNL     1     -33.757  16.587  -3.615  1.00 20.00     0.009 C 
HETATM    4  C5  UNL     1     -36.045  15.587  -3.153  1.00 20.00     0.021 C 
HETATM    5  C6  UNL     1     -35.487  14.348  -3.872  1.00 20.00     0.055 C 
HETATM    6  C7  UNL     1     -34.992  16.631  -2.696  1.00 20.00    -0.047 C 
HETATM    7  C9  UNL     1     -35.616  18.039  -2.767  1.00 20.00     0.015 C 
HETATM    8  C10 UNL     1     -34.584  16.382  -1.230  1.00 20.00     0.015 C 
ENDROOT
BRANCH   5   9
HETATM    9  C1  UNL     1     -35.663  14.487  -5.358  1.00 20.00     0.127 C 
HETATM   10  C8  UNL     1     -36.642  15.528  -5.828  1.00 20.00     0.091 C 
HETATM   11  O11 UNL     1     -35.038  13.785  -6.150  1.00 20.00    -0.298 OA
ENDBRANCH   5   9
TORSDOF 1
ENDMDL
MODEL 2
REMARK VINA RESULT:      -4.4      1.044      1.362
REMARK  1 active torsions:
REMARK  status: ('A' for Active; 'I' for Inactive)
REMARK    1  A    between atoms: C1_1  and  C6_6 
ROOT
HETATM    1  C2  UNL     1     -33.701  13.913  -3.745  1.00 20.00     0.002 C 
HETATM    2  C3  UNL     1     -35.174  13.739  -4.116  1.00 20.00     0.012 C 
HETATM    3  C4  UNL     1     -33.225  15.363  -3.688  1.00 20.00     0.009 C 
HETATM    4  C5  UNL     1     -35.543  16.284  -4.165  1.00 20.00     0.021 C 
HETATM    5  C6  UNL     1     -35.781  14.929  -4.851  1.00 20.00     0.055 C 
HETATM    6  C7  UNL     1     -34.308  16.356  -3.228  1.00 20.00    -0.047 C 
HETATM    7  C9  UNL     1     -33.727  17.784  -3.272  1.00 20.00     0.015 C 
HETATM    8  C10 UNL     1     -34.718  16.072  -1.769  1.00 20.00     0.015 C 
ENDROOT
BRANCH   5   9
HETATM    9  C1  UNL     1     -35.289  14.973  -6.270  1.00 20.00     0.127 C 
HETATM   10  C8  UNL     1     -34.898  16.323  -6.809  1.00 20.00     0.091 C 
HETATM   11  O11 UNL     1     -35.210  13.957  -6.958  1.00 20.00    -0.298 OA
ENDBRANCH   5   9
TORSDOF 1
ENDMDL
MODEL 3
REMARK VINA RESULT:      -4.4      1.527      2.060
REMARK  1 active torsions:
REMARK  status: ('A' for Active; 'I' for Inactive)
REMARK    1  A    between atoms: C1_1  and  C6_6 
ROOT
HETATM    1  C2  UNL     1     -33.216  15.564  -3.405  1.00 20.00     0.002 C 
HETATM    2  C3  UNL     1     -34.591  14.980  -3.081  1.00 20.00     0.012 C 
HETATM    3  C4  UNL     1     -33.170  16.422  -4.669  1.00 20.00     0.009 C 
HETATM    4  C5  UNL     1     -35.669  16.210  -5.065  1.00 20.00     0.021 C 
HETATM    5  C6  UNL     1     -35.536  14.899  -4.274  1.00 20.00     0.055 C 
HETATM    6  C7  UNL     1     -34.474  17.192  -4.946  1.00 20.00    -0.047 C 
HETATM    7  C9  UNL     1     -34.324  17.965  -6.272  1.00 20.00     0.015 C 
HETATM    8  C10 UNL     1     -34.735  18.230  -3.836  1.00 20.00     0.015 C 
ENDROOT
BRANCH   5   9
HETATM    9  C1  UNL     1     -35.127  13.780  -5.190  1.00 20.00     0.127 C 
HETATM   10  C8  UNL     1     -35.148  14.072  -6.666  1.00 20.00     0.091 C 
HETATM   11  O11 UNL     1     -34.792  12.680  -4.755  1.00 20.00    -0.298 OA
ENDBRANCH   5   9
TORSDOF 1
ENDMDL
MODEL 4
REMARK VINA RESULT:      -4.4      2.275      3.924
REMARK  1 active torsions:
REMARK  status: ('A' for Active; 'I' for Inactive)
REMARK    1  A    between atoms: C1_1  and  C6_6 
ROOT
HETATM    1  C2  UNL     1     -36.011  15.167  -3.986  1.00 20.00     0.002 C 
HETATM    2  C3  UNL     1     -34.729  14.737  -3.271  1.00 20.00     0.012 C 
HETATM    3  C4  UNL     1     -35.818  16.257  -5.038  1.00 20.00     0.009 C 
HETATM    4  C5  UNL     1     -33.297  16.291  -4.737  1.00 20.00     0.021 C 
HETATM    5  C6  UNL     1     -33.605  15.765  -3.326  1.00 20.00     0.055 C 
HETATM    6  C7  UNL     1     -34.460  16.193  -5.760  1.00 20.00    -0.047 C 
HETATM    7  C9  UNL     1     -34.363  17.376  -6.745  1.00 20.00     0.015 C 
HETATM    8  C10 UNL     1     -34.347  14.896  -6.586  1.00 20.00     0.015 C 
ENDROOT
BRANCH   5   9
HETATM    9  C1  UNL     1     -33.898  16.911  -2.398  1.00 20.00     0.127 C 
HETATM   10  C8  UNL     1     -34.495  16.564  -1.062  1.00 20.00     0.091 C 
HETATM   11  O11 UNL     1     -33.661  18.075  -2.716  1.00 20.00    -0.298 OA
ENDBRANCH   5   9
TORSDOF 1
ENDMDL
MODEL 5
REMARK VINA RESULT:      -4.4      1.906      3.373
REMARK  1 active torsions:
REMARK  status: ('A' for Active; 'I' for Inactive)
REMARK    1  A    between atoms: C1_1  and  C6_6 
ROOT
HETATM    1  C2  UNL     1     -36.724  15.675  -5.348  1.00 20.00     0.002 C 
HETATM    2  C3  UNL     1     -36.040  14.650  -6.254  1.00 20.00     0.012 C 
HETATM    3  C4  UNL     1     -35.774  16.666  -4.678  1.00 20.00     0.009 C 
HETATM    4  C5  UNL     1     -33.739  15.736  -5.880  1.00 20.00     0.021 C 
HETATM    5  C6  UNL     1     -34.560  14.439  -5.958  1.00 20.00     0.055 C 
HETATM    6  C7  UNL     1     -34.539  17.018  -5.528  1.00 20.00    -0.047 C 
HETATM    7  C9  UNL     1     -33.633  17.970  -4.721  1.00 20.00     0.015 C 
HETATM    8  C10 UNL     1     -34.961  17.762  -6.811  1.00 20.00     0.015 C 
ENDROOT
BRANCH   5   9
HETATM    9  C1  UNL     1     -34.388  13.639  -4.697  1.00 20.00     0.127 C 
HETATM   10  C8  UNL     1     -33.287  14.071  -3.767  1.00 20.00     0.091 C 
HETATM   11  O11 UNL     1     -35.111  12.679  -4.438  1.00 20.00    -0.298 OA
ENDBRANCH   5   9
TORSDOF 1
ENDMDL
MODEL 6
REMARK VINA RESULT:      -4.4      1.336      2.526
REMARK  1 active torsions:
REMARK  status: ('A' for Active; 'I' for Inactive)
REMARK    1  A    between atoms: C1_1  and  C6_6 
ROOT
HETATM    1  C2  UNL     1     -35.200  17.595  -4.680  1.00 20.00     0.002 C 
HETATM    2  C3  UNL     1     -33.869  17.063  -5.213  1.00 20.00     0.012 C 
HETATM    3  C4  UNL     1     -35.528  17.169  -3.250  1.00 20.00     0.009 C 
HETATM    4  C5  UNL     1     -33.311  15.967  -2.955  1.00 20.00     0.021 C 
HETATM    5  C6  UNL     1     -33.349  15.829  -4.485  1.00 20.00     0.055 C 
HETATM    6  C7  UNL     1     -34.290  17.007  -2.349  1.00 20.00    -0.047 C 
HETATM    7  C9  UNL     1     -34.747  16.518  -0.959  1.00 20.00     0.015 C 
HETATM    8  C10 UNL     1     -33.585  18.363  -2.149  1.00 20.00     0.015 C 
ENDROOT
BRANCH   5   9
HETATM    9  C1  UNL     1     -34.144  14.616  -4.877  1.00 20.00     0.127 C 
HETATM   10  C8  UNL     1     -34.476  13.641  -3.780  1.00 20.00     0.091 C 
HETATM   11  O11 UNL     1     -34.507  14.429  -6.037  1.00 20.00    -0.298 OA
ENDBRANCH   5   9
TORSDOF 1
ENDMDL
MODEL 7
REMARK VINA RESULT:      -4.3      2.189      3.902
REMARK  1 active torsions:
REMARK  status: ('A' for Active; 'I' for Inactive)
REMARK    1  A    between atoms: C1_1  and  C6_6 
ROOT
HETATM    1  C2  UNL     1     -36.001  15.486  -3.155  1.00 20.00     0.002 C 
HETATM    2  C3  UNL     1     -34.699  15.750  -2.397  1.00 20.00     0.012 C 
HETATM    3  C4  UNL     1     -35.851  15.420  -4.674  1.00 20.00     0.009 C 
HETATM    4  C5  UNL     1     -33.328  15.692  -4.572  1.00 20.00     0.021 C 
HETATM    5  C6  UNL     1     -33.605  16.399  -3.236  1.00 20.00     0.055 C 
HETATM    6  C7  UNL     1     -34.500  14.849  -5.142  1.00 20.00    -0.047 C 
HETATM    7  C9  UNL     1     -34.448  14.894  -6.683  1.00 20.00     0.015 C 
HETATM    8  C10 UNL     1     -34.361  13.373  -4.720  1.00 20.00     0.015 C 
ENDROOT
BRANCH   5   9
HETATM    9  C1  UNL     1     -33.919  17.850  -3.472  1.00 20.00     0.127 C 
HETATM   10  C8  UNL     1     -33.595  18.399  -4.835  1.00 20.00     0.091 C 
HETATM   11  O11 UNL     1     -34.415  18.554  -2.594  1.00 20.00    -0.298 OA
ENDBRANCH   5   9
TORSDOF 1
ENDMDL
MODEL 8
REMARK VINA RESULT:      -4.3      1.977      3.072
REMARK  1 active torsions:
REMARK  status: ('A' for Active; 'I' for Inactive)
REMARK    1  A    between atoms: C1_1  and  C6_6 
ROOT
HETATM    1  C2  UNL     1     -34.737  13.993  -3.780  1.00 20.00     0.002 C 
HETATM    2  C3  UNL     1     -35.555  15.086  -3.091  1.00 20.00     0.012 C 
HETATM    3  C4  UNL     1     -34.554  14.187  -5.284  1.00 20.00     0.009 C 
HETATM    4  C5  UNL     1     -35.759  16.422  -5.279  1.00 20.00     0.021 C 
HETATM    5  C6  UNL     1     -36.463  15.874  -4.027  1.00 20.00     0.055 C 
HETATM    6  C7  UNL     1     -34.479  15.663  -5.717  1.00 20.00    -0.047 C 
HETATM    7  C9  UNL     1     -34.358  15.726  -7.253  1.00 20.00     0.015 C 
HETATM    8  C10 UNL     1     -33.222  16.335  -5.129  1.00 20.00     0.015 C 
ENDROOT
BRANCH   5   9
HETATM    9  C1  UNL     1     -37.653  15.045  -4.423  1.00 20.00     0.127 C 
HETATM   10  C8  UNL     1     -38.208  15.275  -5.803  1.00 20.00     0.091 C 
HETATM   11  O11 UNL     1     -38.148  14.220  -3.658  1.00 20.00    -0.298 OA
ENDBRANCH   5   9
TORSDOF 1
ENDMDL
MODEL 9
REMARK VINA RESULT:      -4.3      2.216      3.958
REMARK  1 active torsions:
REMARK  status: ('A' for Active; 'I' for Inactive)
REMARK    1  A    between atoms: C1_1  and  C6_6 
ROOT
HETATM    1  C2  UNL     1     -33.700  17.290  -5.060  1.00 20.00     0.002 C 
HETATM    2  C3  UNL     1     -35.163  17.516  -4.679  1.00 20.00     0.012 C 
HETATM    3  C4  UNL     1     -33.083  16.014  -4.490  1.00 20.00     0.009 C 
HETATM    4  C5  UNL     1     -35.270  15.266  -3.438  1.00 20.00     0.021 C 
HETATM    5  C6  UNL     1     -35.610  16.765  -3.430  1.00 20.00     0.055 C 
HETATM    6  C7  UNL     1     -34.081  14.851  -4.345  1.00 20.00    -0.047 C 
HETATM    7  C9  UNL     1     -33.356  13.649  -3.704  1.00 20.00     0.015 C 
HETATM    8  C10 UNL     1     -34.587  14.397  -5.728  1.00 20.00     0.015 C 
ENDROOT
BRANCH   5   9
HETATM    9  C1  UNL     1     -35.048  17.418  -2.198  1.00 20.00     0.127 C 
HETATM   10  C8  UNL     1     -34.615  16.502  -1.086  1.00 20.00     0.091 C 
HETATM   11  O11 UNL     1     -34.947  18.640  -2.105  1.00 20.00    -0.298 OA
ENDBRANCH   5   9
TORSDOF 1
ENDMDL
