MODEL 1
REMARK VINA RESULT:      -4.8      0.000      0.000
REMARK  1 active torsions:
REMARK  status: ('A' for Active; 'I' for Inactive)
REMARK    1  A    between atoms: C2_2  and  C3_3 
ROOT
HETATM    1  C1  UNL     1     -32.790   6.743   4.068  1.00 20.00    -0.019 C 
HETATM    2  C2  UNL     1     -33.891   6.016   4.331  1.00 20.00    -0.004 C 
HETATM    3  C4  UNL     1     -32.241   7.112   2.724  1.00 20.00     0.036 C 
HETATM    4  C5  UNL     1     -34.782   5.395   3.290  1.00 20.00     0.053 C 
ENDROOT
BRANCH   2   5
HETATM    5  C3  UNL     1     -34.321   5.761   5.763  1.00 20.00     0.247 C 
HETATM    6  O6  UNL     1     -34.073   6.630   6.601  1.00 20.00    -0.274 OA
HETATM    7 CL7  UNL     1     -35.152   4.274   6.191  1.00 20.00    -0.039 Cl
ENDBRANCH   2   5
TORSDOF 1
ENDMDL
MODEL 2
REMARK VINA RESULT:      -4.6      1.602      1.971
REMARK  1 active torsions:
REMARK  status: ('A' for Active; 'I' for Inactive)
REMARK    1  A    between atoms: C2_2  and  C3_3 
ROOT
HETATM    1  C1  UNL     1     -33.093   6.382   3.577  1.00 20.00    -0.019 C 
HETATM    2  C2  UNL     1     -33.825   6.151   4.682  1.00 20.00    -0.004 C 
HETATM    3  C4  UNL     1     -31.908   7.287   3.439  1.00 20.00     0.036 C 
HETATM    4  C5  UNL     1     -33.597   6.807   6.017  1.00 20.00     0.053 C 
ENDROOT
BRANCH   2   5
HETATM    5  C3  UNL     1     -34.983   5.173   4.650  1.00 20.00     0.247 C 
HETATM    6  O6  UNL     1     -35.850   5.337   3.789  1.00 20.00    -0.274 OA
HETATM    7 CL7  UNL     1     -35.064   3.851   5.803  1.00 20.00    -0.039 Cl
ENDBRANCH   2   5
TORSDOF 1
ENDMDL
MODEL 3
REMARK VINA RESULT:      -4.5      1.507      1.507
REMARK  1 active torsions:
REMARK  status: ('A' for Active; 'I' for Inactive)
REMARK    1  A    between atoms: C2_2  and  C3_3 
ROOT
HETATM    1  C1  UNL     1     -32.808   6.621   4.005  1.00 20.00    -0.019 C 
HETATM    2  C2  UNL     1     -33.943   6.073   4.476  1.00 20.00    -0.004 C 
HETATM    3  C4  UNL     1     -32.376   6.737   2.576  1.00 20.00     0.036 C 
HETATM    4  C5  UNL     1     -35.005   5.428   3.626  1.00 20.00     0.053 C 
ENDROOT
BRANCH   2   5
HETATM    5  C3  UNL     1     -34.236   6.067   5.964  1.00 20.00     0.247 C 
HETATM    6  O6  UNL     1     -34.929   5.151   6.409  1.00 20.00    -0.274 OA
HETATM    7 CL7  UNL     1     -33.592   7.327   7.003  1.00 20.00    -0.039 Cl
ENDBRANCH   2   5
TORSDOF 1
ENDMDL
MODEL 4
REMARK VINA RESULT:      -4.4      1.548      1.548
REMARK  1 active torsions:
REMARK  status: ('A' for Active; 'I' for Inactive)
REMARK    1  A    between atoms: C2_2  and  C3_3 
ROOT
HETATM    1  C1  UNL     1     -32.935   6.487   4.001  1.00 20.00    -0.019 C 
HETATM    2  C2  UNL     1     -33.974   5.646   3.841  1.00 20.00    -0.004 C 
HETATM    3  C4  UNL     1     -32.194   7.234   2.936  1.00 20.00     0.036 C 
HETATM    4  C5  UNL     1     -34.579   5.268   2.517  1.00 20.00     0.053 C 
ENDROOT
BRANCH   2   5
HETATM    5  C3  UNL     1     -34.629   4.993   5.044  1.00 20.00     0.247 C 
HETATM    6  O6  UNL     1     -35.169   3.898   4.878  1.00 20.00    -0.274 OA
HETATM    7 CL7  UNL     1     -34.598   5.782   6.612  1.00 20.00    -0.039 Cl
ENDBRANCH   2   5
TORSDOF 1
ENDMDL
MODEL 5
REMARK VINA RESULT:      -4.2      2.701      3.792
REMARK  1 active torsions:
REMARK  status: ('A' for Active; 'I' for Inactive)
REMARK    1  A    between atoms: C2_2  and  C3_3 
ROOT
HETATM    1  C1  UNL     1     -34.694   4.665   5.201  1.00 20.00    -0.019 C 
HETATM    2  C2  UNL     1     -33.979   5.782   4.975  1.00 20.00    -0.004 C 
HETATM    3  C4  UNL     1     -35.334   4.236   6.485  1.00 20.00     0.036 C 
HETATM    4  C5  UNL     1     -33.654   6.821   6.013  1.00 20.00     0.053 C 
ENDROOT
BRANCH   2   5
HETATM    5  C3  UNL     1     -33.424   6.075   3.593  1.00 20.00     0.247 C 
HETATM    6  O6  UNL     1     -33.978   5.546   2.628  1.00 20.00    -0.274 OA
HETATM    7 CL7  UNL     1     -32.044   7.142   3.397  1.00 20.00    -0.039 Cl
ENDBRANCH   2   5
TORSDOF 1
ENDMDL
MODEL 6
REMARK VINA RESULT:      -4.1      1.853      2.651
REMARK  1 active torsions:
REMARK  status: ('A' for Active; 'I' for Inactive)
REMARK    1  A    between atoms: C2_2  and  C3_3 
ROOT
HETATM    1  C1  UNL     1     -34.022   6.558   6.294  1.00 20.00    -0.019 C 
HETATM    2  C2  UNL     1     -33.958   6.180   5.004  1.00 20.00    -0.004 C 
HETATM    3  C4  UNL     1     -33.161   7.565   6.992  1.00 20.00     0.036 C 
HETATM    4  C5  UNL     1     -32.959   6.694   4.004  1.00 20.00     0.053 C 
ENDROOT
BRANCH   2   5
HETATM    5  C3  UNL     1     -34.935   5.159   4.452  1.00 20.00     0.247 C 
HETATM    6  O6  UNL     1     -35.594   5.473   3.459  1.00 20.00    -0.274 OA
HETATM    7 CL7  UNL     1     -35.099   3.584   5.210  1.00 20.00    -0.039 Cl
ENDBRANCH   2   5
TORSDOF 1
ENDMDL
MODEL 7
REMARK VINA RESULT:      -4.0      2.875      3.575
REMARK  1 active torsions:
REMARK  status: ('A' for Active; 'I' for Inactive)
REMARK    1  A    between atoms: C2_2  and  C3_3 
ROOT
HETATM    1  C1  UNL     1     -33.580   6.274   5.461  1.00 20.00    -0.019 C 
HETATM    2  C2  UNL     1     -33.750   6.065   4.142  1.00 20.00    -0.004 C 
HETATM    3  C4  UNL     1     -34.546   5.969   6.564  1.00 20.00     0.036 C 
HETATM    4  C5  UNL     1     -34.995   5.500   3.514  1.00 20.00     0.053 C 
ENDROOT
BRANCH   2   5
HETATM    5  C3  UNL     1     -32.647   6.409   3.159  1.00 20.00     0.247 C 
HETATM    6  O6  UNL     1     -31.903   5.498   2.790  1.00 20.00    -0.274 OA
HETATM    7 CL7  UNL     1     -32.458   8.053   2.572  1.00 20.00    -0.039 Cl
ENDBRANCH   2   5
TORSDOF 1
ENDMDL
MODEL 8
REMARK VINA RESULT:      -4.0      2.879      3.451
REMARK  1 active torsions:
REMARK  status: ('A' for Active; 'I' for Inactive)
REMARK    1  A    between atoms: C2_2  and  C3_3 
ROOT
HETATM    1  C1  UNL     1     -33.688   6.612   5.453  1.00 20.00    -0.019 C 
HETATM    2  C2  UNL     1     -34.131   5.784   4.490  1.00 20.00    -0.004 C 
HETATM    3  C4  UNL     1     -34.112   6.651   6.889  1.00 20.00     0.036 C 
HETATM    4  C5  UNL     1     -35.192   4.733   4.678  1.00 20.00     0.053 C 
ENDROOT
BRANCH   2   5
HETATM    5  C3  UNL     1     -33.566   5.865   3.084  1.00 20.00     0.247 C 
HETATM    6  O6  UNL     1     -34.067   5.141   2.222  1.00 20.00    -0.274 OA
HETATM    7 CL7  UNL     1     -32.249   6.966   2.717  1.00 20.00    -0.039 Cl
ENDBRANCH   2   5
TORSDOF 1
ENDMDL
MODEL 9
REMARK VINA RESULT:      -4.0     12.411     12.563
REMARK  1 active torsions:
REMARK  status: ('A' for Active; 'I' for Inactive)
REMARK    1  A    between atoms: C2_2  and  C3_3 
ROOT
HETATM    1  C1  UNL     1     -34.949  15.304  -2.811  1.00 20.00    -0.019 C 
HETATM    2  C2  UNL     1     -34.131  14.658  -3.661  1.00 20.00    -0.004 C 
HETATM    3  C4  UNL     1     -34.563  16.244  -1.710  1.00 20.00     0.036 C 
HETATM    4  C5  UNL     1     -32.629  14.739  -3.639  1.00 20.00     0.053 C 
ENDROOT
BRANCH   2   5
HETATM    5  C3  UNL     1     -34.699  13.759  -4.743  1.00 20.00     0.247 C 
HETATM    6  O6  UNL     1     -35.061  12.627  -4.418  1.00 20.00    -0.274 OA
HETATM    7 CL7  UNL     1     -34.836  14.335  -6.396  1.00 20.00    -0.039 Cl
ENDBRANCH   2   5
TORSDOF 1
ENDMDL
