MODEL 1
REMARK VINA RESULT:      -4.0      0.000      0.000
REMARK  0 active torsions:
REMARK  status: ('A' for Active; 'I' for Inactive)
ROOT
HETATM    1  C1  UNL     1     -34.224  15.537  -5.063  1.00 20.00     0.048 C 
HETATM    2  C2  UNL     1     -34.922  13.280  -5.004  1.00 20.00     0.177 C 
HETATM    3  C3  UNL     1     -35.263  14.602  -5.681  1.00 20.00    -0.023 C 
HETATM    4  C4  UNL     1     -33.896  14.911  -3.698  1.00 20.00     0.054 C 
HETATM    5  C5  UNL     1     -35.133  14.513  -7.202  1.00 20.00     0.017 C 
HETATM    6  C6  UNL     1     -36.691  15.041  -5.320  1.00 20.00     0.017 C 
HETATM    7  C7  UNL     1     -34.430  15.739  -2.530  1.00 20.00     0.045 C 
HETATM    8  C8  UNL     1     -32.390  14.694  -3.530  1.00 20.00     0.045 C 
HETATM    9  O9  UNL     1     -34.538  13.621  -3.666  1.00 20.00    -0.380 OA
ENDROOT
TORSDOF 0
ENDMDL
MODEL 2
REMARK VINA RESULT:      -3.9      1.646      2.518
REMARK  0 active torsions:
REMARK  status: ('A' for Active; 'I' for Inactive)
ROOT
HETATM    1  C1  UNL     1     -35.118  15.470  -4.690  1.00 20.00     0.048 C 
HETATM    2  C2  UNL     1     -33.466  16.935  -5.532  1.00 20.00     0.177 C 
HETATM    3  C3  UNL     1     -34.688  16.149  -5.990  1.00 20.00    -0.023 C 
HETATM    4  C4  UNL     1     -33.826  15.351  -3.865  1.00 20.00     0.054 C 
HETATM    5  C5  UNL     1     -35.776  17.064  -6.554  1.00 20.00     0.017 C 
HETATM    6  C6  UNL     1     -34.297  15.113  -7.056  1.00 20.00     0.017 C 
HETATM    7  C7  UNL     1     -33.343  13.907  -3.736  1.00 20.00     0.045 C 
HETATM    8  C8  UNL     1     -33.994  15.964  -2.473  1.00 20.00     0.045 C 
HETATM    9  O9  UNL     1     -32.814  16.103  -4.563  1.00 20.00    -0.380 OA
ENDROOT
TORSDOF 0
ENDMDL
MODEL 3
REMARK VINA RESULT:      -3.9      1.686      2.828
REMARK  0 active torsions:
REMARK  status: ('A' for Active; 'I' for Inactive)
ROOT
HETATM    1  C1  UNL     1     -35.380  15.200  -3.543  1.00 20.00     0.048 C 
HETATM    2  C2  UNL     1     -33.534  16.038  -4.757  1.00 20.00     0.177 C 
HETATM    3  C3  UNL     1     -34.238  14.724  -4.440  1.00 20.00    -0.023 C 
HETATM    4  C4  UNL     1     -34.858  16.494  -2.898  1.00 20.00     0.054 C 
HETATM    5  C5  UNL     1     -34.744  14.030  -5.705  1.00 20.00     0.017 C 
HETATM    6  C6  UNL     1     -33.296  13.774  -3.685  1.00 20.00     0.017 C 
HETATM    7  C7  UNL     1     -34.576  16.333  -1.405  1.00 20.00     0.045 C 
HETATM    8  C8  UNL     1     -35.829  17.657  -3.116  1.00 20.00     0.045 C 
HETATM    9  O9  UNL     1     -33.619  16.819  -3.558  1.00 20.00    -0.380 OA
ENDROOT
TORSDOF 0
ENDMDL
MODEL 4
REMARK VINA RESULT:      -3.9      0.982      3.476
REMARK  0 active torsions:
REMARK  status: ('A' for Active; 'I' for Inactive)
ROOT
HETATM    1  C1  UNL     1     -34.928  16.023  -4.799  1.00 20.00     0.048 C 
HETATM    2  C2  UNL     1     -35.061  13.846  -3.888  1.00 20.00     0.177 C 
HETATM    3  C3  UNL     1     -34.381  15.188  -3.642  1.00 20.00    -0.023 C 
HETATM    4  C4  UNL     1     -35.253  15.001  -5.900  1.00 20.00     0.054 C 
HETATM    5  C5  UNL     1     -34.751  15.772  -2.278  1.00 20.00     0.017 C 
HETATM    6  C6  UNL     1     -32.854  15.045  -3.732  1.00 20.00     0.017 C 
HETATM    7  C7  UNL     1     -34.302  15.099  -7.091  1.00 20.00     0.045 C 
HETATM    8  C8  UNL     1     -36.699  15.140  -6.383  1.00 20.00     0.045 C 
HETATM    9  O9  UNL     1     -35.105  13.693  -5.313  1.00 20.00    -0.380 OA
ENDROOT
TORSDOF 0
ENDMDL
MODEL 5
REMARK VINA RESULT:      -3.9      1.737      2.749
REMARK  0 active torsions:
REMARK  status: ('A' for Active; 'I' for Inactive)
ROOT
HETATM    1  C1  UNL     1     -33.692  15.535  -3.040  1.00 20.00     0.048 C 
HETATM    2  C2  UNL     1     -35.992  15.223  -3.484  1.00 20.00     0.177 C 
HETATM    3  C3  UNL     1     -34.623  14.877  -4.058  1.00 20.00    -0.023 C 
HETATM    4  C4  UNL     1     -34.513  16.692  -2.448  1.00 20.00     0.054 C 
HETATM    5  C5  UNL     1     -34.409  13.366  -4.150  1.00 20.00     0.017 C 
HETATM    6  C6  UNL     1     -34.448  15.498  -5.453  1.00 20.00     0.017 C 
HETATM    7  C7  UNL     1     -33.994  18.061  -2.883  1.00 20.00     0.045 C 
HETATM    8  C8  UNL     1     -34.559  16.619  -0.920  1.00 20.00     0.045 C 
HETATM    9  O9  UNL     1     -35.859  16.543  -2.941  1.00 20.00    -0.380 OA
ENDROOT
TORSDOF 0
ENDMDL
MODEL 6
REMARK VINA RESULT:      -3.9      1.440      3.587
REMARK  0 active torsions:
REMARK  status: ('A' for Active; 'I' for Inactive)
ROOT
HETATM    1  C1  UNL     1     -35.730  15.383  -3.086  1.00 20.00     0.048 C 
HETATM    2  C2  UNL     1     -33.414  15.836  -3.208  1.00 20.00     0.177 C 
HETATM    3  C3  UNL     1     -34.696  16.404  -2.611  1.00 20.00    -0.023 C 
HETATM    4  C4  UNL     1     -35.138  14.798  -4.378  1.00 20.00     0.054 C 
HETATM    5  C5  UNL     1     -34.624  16.491  -1.086  1.00 20.00     0.017 C 
HETATM    6  C6  UNL     1     -34.988  17.799  -3.183  1.00 20.00     0.017 C 
HETATM    7  C7  UNL     1     -35.904  15.234  -5.625  1.00 20.00     0.045 C 
HETATM    8  C8  UNL     1     -35.074  13.269  -4.320  1.00 20.00     0.045 C 
HETATM    9  O9  UNL     1     -33.789  15.296  -4.481  1.00 20.00    -0.380 OA
ENDROOT
TORSDOF 0
ENDMDL
MODEL 7
REMARK VINA RESULT:      -3.8     10.843     12.044
REMARK  0 active torsions:
REMARK  status: ('A' for Active; 'I' for Inactive)
ROOT
HETATM    1  C1  UNL     1     -43.025   5.884  -1.257  1.00 20.00     0.048 C 
HETATM    2  C2  UNL     1     -41.152   7.283  -0.919  1.00 20.00     0.177 C 
HETATM    3  C3  UNL     1     -42.503   7.272  -1.623  1.00 20.00    -0.023 C 
HETATM    4  C4  UNL     1     -41.762   5.040  -1.022  1.00 20.00     0.054 C 
HETATM    5  C5  UNL     1     -43.417   8.389  -1.118  1.00 20.00     0.017 C 
HETATM    6  C6  UNL     1     -42.322   7.416  -3.143  1.00 20.00     0.017 C 
HETATM    7  C7  UNL     1     -41.544   3.993  -2.113  1.00 20.00     0.045 C 
HETATM    8  C8  UNL     1     -41.794   4.357   0.348  1.00 20.00     0.045 C 
HETATM    9  O9  UNL     1     -40.644   5.948  -1.040  1.00 20.00    -0.380 OA
ENDROOT
TORSDOF 0
ENDMDL
MODEL 8
REMARK VINA RESULT:      -3.8      1.649      3.525
REMARK  0 active torsions:
REMARK  status: ('A' for Active; 'I' for Inactive)
ROOT
HETATM    1  C1  UNL     1     -33.475  16.005  -3.773  1.00 20.00     0.048 C 
HETATM    2  C2  UNL     1     -35.659  16.900  -3.653  1.00 20.00     0.177 C 
HETATM    3  C3  UNL     1     -34.337  16.913  -2.896  1.00 20.00    -0.023 C 
HETATM    4  C4  UNL     1     -34.476  15.069  -4.470  1.00 20.00     0.054 C 
HETATM    5  C5  UNL     1     -33.762  18.325  -2.779  1.00 20.00     0.017 C 
HETATM    6  C6  UNL     1     -34.514  16.321  -1.489  1.00 20.00     0.017 C 
HETATM    7  C7  UNL     1     -34.384  13.631  -3.965  1.00 20.00     0.045 C 
HETATM    8  C8  UNL     1     -34.297  15.093  -5.990  1.00 20.00     0.045 C 
HETATM    9  O9  UNL     1     -35.794  15.569  -4.170  1.00 20.00    -0.380 OA
ENDROOT
TORSDOF 0
ENDMDL
MODEL 9
REMARK VINA RESULT:      -3.7      1.370      3.451
REMARK  0 active torsions:
REMARK  status: ('A' for Active; 'I' for Inactive)
ROOT
HETATM    1  C1  UNL     1     -34.443  14.221  -5.051  1.00 20.00     0.048 C 
HETATM    2  C2  UNL     1     -33.424  16.345  -4.861  1.00 20.00     0.177 C 
HETATM    3  C3  UNL     1     -33.719  15.101  -4.032  1.00 20.00    -0.023 C 
HETATM    4  C4  UNL     1     -35.079  15.210  -6.040  1.00 20.00     0.054 C 
HETATM    5  C5  UNL     1     -32.439  14.449  -3.507  1.00 20.00     0.017 C 
HETATM    6  C6  UNL     1     -34.634  15.445  -2.846  1.00 20.00     0.017 C 
HETATM    7  C7  UNL     1     -36.602  15.259  -5.924  1.00 20.00     0.045 C 
HETATM    8  C8  UNL     1     -34.682  14.890  -7.484  1.00 20.00     0.045 C 
HETATM    9  O9  UNL     1     -34.561  16.516  -5.716  1.00 20.00    -0.380 OA
ENDROOT
TORSDOF 0
ENDMDL
