MODEL 1
REMARK VINA RESULT:      -4.4      0.000      0.000
REMARK  0 active torsions:
REMARK  status: ('A' for Active; 'I' for Inactive)
ROOT
HETATM    1  C1  UNL     1     -33.209   5.825   4.353  1.00 20.00     0.027 A 
HETATM    2  C2  UNL     1     -34.060   6.680   5.257  1.00 20.00     0.027 A 
HETATM    3  C3  UNL     1     -34.635   5.411   4.659  1.00 20.00     0.120 A 
HETATM    4  C4  UNL     1     -32.788   6.346   3.021  1.00 20.00     0.014 C 
HETATM    5  C5  UNL     1     -33.712   6.806   6.702  1.00 20.00     0.014 C 
HETATM    6 CL6  UNL     1     -35.889   5.587   3.433  1.00 20.00    -0.101 Cl
HETATM    7 CL7  UNL     1     -34.868   3.984   5.668  1.00 20.00    -0.101 Cl
ENDROOT
TORSDOF 0
ENDMDL
MODEL 2
REMARK VINA RESULT:      -4.4      0.014      2.699
REMARK  0 active torsions:
REMARK  status: ('A' for Active; 'I' for Inactive)
ROOT
HETATM    1  C1  UNL     1     -34.061   6.688   5.265  1.00 20.00     0.027 A 
HETATM    2  C2  UNL     1     -33.209   5.837   4.358  1.00 20.00     0.027 A 
HETATM    3  C3  UNL     1     -34.631   5.415   4.669  1.00 20.00     0.120 A 
HETATM    4  C4  UNL     1     -33.710   6.818   6.707  1.00 20.00     0.014 C 
HETATM    5  C5  UNL     1     -32.794   6.358   3.024  1.00 20.00     0.014 C 
HETATM    6 CL6  UNL     1     -34.854   3.989   5.681  1.00 20.00    -0.101 Cl
HETATM    7 CL7  UNL     1     -35.891   5.583   3.447  1.00 20.00    -0.101 Cl
ENDROOT
TORSDOF 0
ENDMDL
MODEL 3
REMARK VINA RESULT:      -3.9      2.173      3.289
REMARK  0 active torsions:
REMARK  status: ('A' for Active; 'I' for Inactive)
ROOT
HETATM    1  C1  UNL     1     -34.407   4.655   4.849  1.00 20.00     0.027 A 
HETATM    2  C2  UNL     1     -35.268   5.787   4.349  1.00 20.00     0.027 A 
HETATM    3  C3  UNL     1     -33.894   6.079   4.917  1.00 20.00     0.120 A 
HETATM    4  C4  UNL     1     -34.820   3.887   6.057  1.00 20.00     0.014 C 
HETATM    5  C5  UNL     1     -35.581   5.895   2.894  1.00 20.00     0.014 C 
HETATM    6 CL6  UNL     1     -33.815   6.918   6.466  1.00 20.00    -0.101 Cl
HETATM    7 CL7  UNL     1     -32.567   6.517   3.842  1.00 20.00    -0.101 Cl
ENDROOT
TORSDOF 0
ENDMDL
MODEL 4
REMARK VINA RESULT:      -3.8      2.180      2.677
REMARK  0 active torsions:
REMARK  status: ('A' for Active; 'I' for Inactive)
ROOT
HETATM    1  C1  UNL     1     -35.242   5.794   4.321  1.00 20.00     0.027 A 
HETATM    2  C2  UNL     1     -34.376   4.672   4.836  1.00 20.00     0.027 A 
HETATM    3  C3  UNL     1     -33.877   6.102   4.903  1.00 20.00     0.120 A 
HETATM    4  C4  UNL     1     -35.538   5.893   2.863  1.00 20.00     0.014 C 
HETATM    5  C5  UNL     1     -34.797   3.906   6.044  1.00 20.00     0.014 C 
HETATM    6 CL6  UNL     1     -32.542   6.547   3.842  1.00 20.00    -0.101 Cl
HETATM    7 CL7  UNL     1     -33.826   6.949   6.449  1.00 20.00    -0.101 Cl
ENDROOT
TORSDOF 0
ENDMDL
MODEL 5
REMARK VINA RESULT:      -3.6     12.634     13.265
REMARK  0 active torsions:
REMARK  status: ('A' for Active; 'I' for Inactive)
ROOT
HETATM    1  C1  UNL     1     -33.884  15.995  -2.505  1.00 20.00     0.027 A 
HETATM    2  C2  UNL     1     -34.408  14.835  -3.313  1.00 20.00     0.027 A 
HETATM    3  C3  UNL     1     -34.398  16.227  -3.912  1.00 20.00     0.120 A 
HETATM    4  C4  UNL     1     -34.622  16.446  -1.291  1.00 20.00     0.014 C 
HETATM    5  C5  UNL     1     -33.476  13.758  -3.756  1.00 20.00     0.014 C 
HETATM    6 CL6  UNL     1     -35.955  17.014  -4.166  1.00 20.00    -0.101 Cl
HETATM    7 CL7  UNL     1     -33.215  16.649  -5.149  1.00 20.00    -0.101 Cl
ENDROOT
TORSDOF 0
ENDMDL
MODEL 6
REMARK VINA RESULT:      -3.6     12.636     13.144
REMARK  0 active torsions:
REMARK  status: ('A' for Active; 'I' for Inactive)
ROOT
HETATM    1  C1  UNL     1     -34.403  14.843  -3.308  1.00 20.00     0.027 A 
HETATM    2  C2  UNL     1     -33.884  16.005  -2.500  1.00 20.00     0.027 A 
HETATM    3  C3  UNL     1     -34.401  16.236  -3.906  1.00 20.00     0.120 A 
HETATM    4  C4  UNL     1     -33.467  13.772  -3.753  1.00 20.00     0.014 C 
HETATM    5  C5  UNL     1     -34.624  16.452  -1.284  1.00 20.00     0.014 C 
HETATM    6 CL6  UNL     1     -33.222  16.665  -5.145  1.00 20.00    -0.101 Cl
HETATM    7 CL7  UNL     1     -35.963  17.015  -4.158  1.00 20.00    -0.101 Cl
ENDROOT
TORSDOF 0
ENDMDL
MODEL 7
REMARK VINA RESULT:      -3.4     12.089     12.744
REMARK  0 active torsions:
REMARK  status: ('A' for Active; 'I' for Inactive)
ROOT
HETATM    1  C1  UNL     1     -34.939  16.105  -4.081  1.00 20.00     0.027 A 
HETATM    2  C2  UNL     1     -35.084  15.626  -2.659  1.00 20.00     0.027 A 
HETATM    3  C3  UNL     1     -34.300  14.798  -3.657  1.00 20.00     0.120 A 
HETATM    4  C4  UNL     1     -36.135  16.169  -4.968  1.00 20.00     0.014 C 
HETATM    5  C5  UNL     1     -34.434  16.385  -1.551  1.00 20.00     0.014 C 
HETATM    6 CL6  UNL     1     -35.001  13.263  -4.168  1.00 20.00    -0.101 Cl
HETATM    7 CL7  UNL     1     -32.540  14.743  -3.573  1.00 20.00    -0.101 Cl
ENDROOT
TORSDOF 0
ENDMDL
MODEL 8
REMARK VINA RESULT:      -3.4     12.033     12.837
REMARK  0 active torsions:
REMARK  status: ('A' for Active; 'I' for Inactive)
ROOT
HETATM    1  C1  UNL     1     -34.738  15.515  -2.328  1.00 20.00     0.027 A 
HETATM    2  C2  UNL     1     -35.648  15.735  -3.510  1.00 20.00     0.027 A 
HETATM    3  C3  UNL     1     -34.248  15.196  -3.727  1.00 20.00     0.120 A 
HETATM    4  C4  UNL     1     -34.242  16.683  -1.546  1.00 20.00     0.014 C 
HETATM    5  C5  UNL     1     -36.870  14.896  -3.671  1.00 20.00     0.014 C 
HETATM    6 CL6  UNL     1     -33.082  16.255  -4.519  1.00 20.00    -0.101 Cl
HETATM    7 CL7  UNL     1     -34.007  13.498  -4.135  1.00 20.00    -0.101 Cl
ENDROOT
TORSDOF 0
ENDMDL
MODEL 9
REMARK VINA RESULT:      -3.3     12.141     13.482
REMARK  0 active torsions:
REMARK  status: ('A' for Active; 'I' for Inactive)
ROOT
HETATM    1  C1  UNL     1     -34.659  15.984  -3.556  1.00 20.00     0.027 A 
HETATM    2  C2  UNL     1     -33.405  16.357  -4.306  1.00 20.00     0.027 A 
HETATM    3  C3  UNL     1     -33.952  14.947  -4.408  1.00 20.00     0.120 A 
HETATM    4  C4  UNL     1     -34.649  15.947  -2.067  1.00 20.00     0.014 C 
HETATM    5  C5  UNL     1     -33.476  17.334  -5.431  1.00 20.00     0.014 C 
HETATM    6 CL6  UNL     1     -33.024  13.658  -3.643  1.00 20.00    -0.101 Cl
HETATM    7 CL7  UNL     1     -34.762  14.417  -5.881  1.00 20.00    -0.101 Cl
ENDROOT
TORSDOF 0
ENDMDL
