MODEL 1
REMARK VINA RESULT:      -4.7      0.000      0.000
REMARK  2 active torsions:
REMARK  status: ('A' for Active; 'I' for Inactive)
REMARK    1  A    between atoms: C1_1  and  C2_2 
REMARK    2  A    between atoms: C1_1  and  C3_3 
ROOT
HETATM    1  C3  UNL     1     -34.929   5.184   3.884  1.00 20.00     0.390 C 
HETATM    2  F5  UNL     1     -34.340   4.970   2.687  1.00 20.00    -0.171 F 
HETATM    3  F6  UNL     1     -35.099   3.983   4.478  1.00 20.00    -0.171 F 
HETATM    4  F7  UNL     1     -36.150   5.709   3.650  1.00 20.00    -0.171 F 
ENDROOT
BRANCH   1   5
HETATM    5  C1  UNL     1     -34.083   6.105   4.735  1.00 20.00     0.148 C 
BRANCH   5   6
HETATM    6  C2  UNL     1     -34.343   5.914   6.219  1.00 20.00     0.230 C 
HETATM    7  F4  UNL     1     -34.066   7.072   6.876  1.00 20.00    -0.255 F 
ENDBRANCH   5   6
ENDBRANCH   1   5
TORSDOF 2
ENDMDL
MODEL 2
REMARK VINA RESULT:      -4.7      0.039      1.417
REMARK  2 active torsions:
REMARK  status: ('A' for Active; 'I' for Inactive)
REMARK    1  A    between atoms: C1_1  and  C2_2 
REMARK    2  A    between atoms: C1_1  and  C3_3 
ROOT
HETATM    1  C3  UNL     1     -34.914   5.206   3.863  1.00 20.00     0.390 C 
HETATM    2  F5  UNL     1     -36.127   5.745   3.606  1.00 20.00    -0.171 F 
HETATM    3  F6  UNL     1     -34.314   4.964   2.678  1.00 20.00    -0.171 F 
HETATM    4  F7  UNL     1     -35.116   4.022   4.479  1.00 20.00    -0.171 F 
ENDROOT
BRANCH   1   5
HETATM    5  C1  UNL     1     -34.088   6.142   4.718  1.00 20.00     0.148 C 
BRANCH   5   6
HETATM    6  C2  UNL     1     -34.319   5.918   6.201  1.00 20.00     0.230 C 
HETATM    7  F4  UNL     1     -34.090   7.078   6.872  1.00 20.00    -0.255 F 
ENDBRANCH   5   6
ENDBRANCH   1   5
TORSDOF 2
ENDMDL
MODEL 3
REMARK VINA RESULT:      -4.6      1.250      1.874
REMARK  2 active torsions:
REMARK  status: ('A' for Active; 'I' for Inactive)
REMARK    1  A    between atoms: C1_1  and  C2_2 
REMARK    2  A    between atoms: C1_1  and  C3_3 
ROOT
HETATM    1  C3  UNL     1     -34.991   5.456   3.778  1.00 20.00     0.390 C 
HETATM    2  F5  UNL     1     -36.228   5.818   3.371  1.00 20.00    -0.171 F 
HETATM    3  F6  UNL     1     -34.358   6.569   4.205  1.00 20.00    -0.171 F 
HETATM    4  F7  UNL     1     -34.328   4.986   2.701  1.00 20.00    -0.171 F 
ENDROOT
BRANCH   1   5
HETATM    5  C1  UNL     1     -35.077   4.416   4.874  1.00 20.00     0.148 C 
BRANCH   5   6
HETATM    6  C2  UNL     1     -34.317   4.832   6.120  1.00 20.00     0.230 C 
HETATM    7  F4  UNL     1     -35.039   5.766   6.796  1.00 20.00    -0.255 F 
ENDBRANCH   5   6
ENDBRANCH   1   5
TORSDOF 2
ENDMDL
MODEL 4
REMARK VINA RESULT:      -4.6      1.249      1.604
REMARK  2 active torsions:
REMARK  status: ('A' for Active; 'I' for Inactive)
REMARK    1  A    between atoms: C1_1  and  C2_2 
REMARK    2  A    between atoms: C1_1  and  C3_3 
ROOT
HETATM    1  C3  UNL     1     -35.005   5.456   3.786  1.00 20.00     0.390 C 
HETATM    2  F5  UNL     1     -34.343   4.979   2.709  1.00 20.00    -0.171 F 
HETATM    3  F6  UNL     1     -36.238   5.826   3.379  1.00 20.00    -0.171 F 
HETATM    4  F7  UNL     1     -34.356   6.562   4.208  1.00 20.00    -0.171 F 
ENDROOT
BRANCH   1   5
HETATM    5  C1  UNL     1     -35.075   4.407   4.873  1.00 20.00     0.148 C 
BRANCH   5   6
HETATM    6  C2  UNL     1     -34.320   4.823   6.122  1.00 20.00     0.230 C 
HETATM    7  F4  UNL     1     -35.040   5.761   6.792  1.00 20.00    -0.255 F 
ENDBRANCH   5   6
ENDBRANCH   1   5
TORSDOF 2
ENDMDL
MODEL 5
REMARK VINA RESULT:      -4.6      1.251      1.577
REMARK  2 active torsions:
REMARK  status: ('A' for Active; 'I' for Inactive)
REMARK    1  A    between atoms: C1_1  and  C2_2 
REMARK    2  A    between atoms: C1_1  and  C3_3 
ROOT
HETATM    1  C3  UNL     1     -35.012   5.456   3.773  1.00 20.00     0.390 C 
HETATM    2  F5  UNL     1     -34.361   6.560   4.201  1.00 20.00    -0.171 F 
HETATM    3  F6  UNL     1     -34.344   4.977   2.702  1.00 20.00    -0.171 F 
HETATM    4  F7  UNL     1     -36.239   5.838   3.363  1.00 20.00    -0.171 F 
ENDROOT
BRANCH   1   5
HETATM    5  C1  UNL     1     -35.092   4.425   4.878  1.00 20.00     0.148 C 
BRANCH   5   6
HETATM    6  C2  UNL     1     -34.316   4.847   6.113  1.00 20.00     0.230 C 
HETATM    7  F4  UNL     1     -35.042   5.762   6.809  1.00 20.00    -0.255 F 
ENDBRANCH   5   6
ENDBRANCH   1   5
TORSDOF 2
ENDMDL
MODEL 6
REMARK VINA RESULT:      -4.5      1.453      3.180
REMARK  2 active torsions:
REMARK  status: ('A' for Active; 'I' for Inactive)
REMARK    1  A    between atoms: C1_1  and  C2_2 
REMARK    2  A    between atoms: C1_1  and  C3_3 
ROOT
HETATM    1  C3  UNL     1     -34.777   4.770   5.952  1.00 20.00     0.390 C 
HETATM    2  F5  UNL     1     -35.772   4.254   6.706  1.00 20.00    -0.171 F 
HETATM    3  F6  UNL     1     -33.742   3.905   5.989  1.00 20.00    -0.171 F 
HETATM    4  F7  UNL     1     -34.379   5.922   6.533  1.00 20.00    -0.171 F 
ENDROOT
BRANCH   1   5
HETATM    5  C1  UNL     1     -35.252   5.001   4.534  1.00 20.00     0.148 C 
BRANCH   5   6
HETATM    6  C2  UNL     1     -34.230   5.755   3.702  1.00 20.00     0.230 C 
HETATM    7  F4  UNL     1     -34.159   5.198   2.464  1.00 20.00    -0.255 F 
ENDBRANCH   5   6
ENDBRANCH   1   5
TORSDOF 2
ENDMDL
MODEL 7
REMARK VINA RESULT:      -4.5      1.453      3.139
REMARK  2 active torsions:
REMARK  status: ('A' for Active; 'I' for Inactive)
REMARK    1  A    between atoms: C1_1  and  C2_2 
REMARK    2  A    between atoms: C1_1  and  C3_3 
ROOT
HETATM    1  C3  UNL     1     -34.787   4.771   5.950  1.00 20.00     0.390 C 
HETATM    2  F5  UNL     1     -33.760   3.893   5.984  1.00 20.00    -0.171 F 
HETATM    3  F6  UNL     1     -34.360   5.924   6.507  1.00 20.00    -0.171 F 
HETATM    4  F7  UNL     1     -35.775   4.274   6.723  1.00 20.00    -0.171 F 
ENDROOT
BRANCH   1   5
HETATM    5  C1  UNL     1     -35.253   4.987   4.526  1.00 20.00     0.148 C 
BRANCH   5   6
HETATM    6  C2  UNL     1     -34.235   5.751   3.699  1.00 20.00     0.230 C 
HETATM    7  F4  UNL     1     -34.151   5.193   2.463  1.00 20.00    -0.255 F 
ENDBRANCH   5   6
ENDBRANCH   1   5
TORSDOF 2
ENDMDL
MODEL 8
REMARK VINA RESULT:      -4.5      1.457      3.210
REMARK  2 active torsions:
REMARK  status: ('A' for Active; 'I' for Inactive)
REMARK    1  A    between atoms: C1_1  and  C2_2 
REMARK    2  A    between atoms: C1_1  and  C3_3 
ROOT
HETATM    1  C3  UNL     1     -34.787   4.767   5.949  1.00 20.00     0.390 C 
HETATM    2  F5  UNL     1     -34.398   5.936   6.505  1.00 20.00    -0.171 F 
HETATM    3  F6  UNL     1     -35.773   4.256   6.715  1.00 20.00    -0.171 F 
HETATM    4  F7  UNL     1     -33.736   3.921   6.001  1.00 20.00    -0.171 F 
ENDROOT
BRANCH   1   5
HETATM    5  C1  UNL     1     -35.252   4.986   4.526  1.00 20.00     0.148 C 
BRANCH   5   6
HETATM    6  C2  UNL     1     -34.233   5.750   3.700  1.00 20.00     0.230 C 
HETATM    7  F4  UNL     1     -34.159   5.202   2.458  1.00 20.00    -0.255 F 
ENDBRANCH   5   6
ENDBRANCH   1   5
TORSDOF 2
ENDMDL
MODEL 9
REMARK VINA RESULT:      -4.5      1.533      2.941
REMARK  2 active torsions:
REMARK  status: ('A' for Active; 'I' for Inactive)
REMARK    1  A    between atoms: C1_1  and  C2_2 
REMARK    2  A    between atoms: C1_1  and  C3_3 
ROOT
HETATM    1  C3  UNL     1     -34.671   5.195   5.633  1.00 20.00     0.390 C 
HETATM    2  F5  UNL     1     -35.143   5.605   6.831  1.00 20.00    -0.171 F 
HETATM    3  F6  UNL     1     -35.734   4.923   4.846  1.00 20.00    -0.171 F 
HETATM    4  F7  UNL     1     -33.995   4.044   5.833  1.00 20.00    -0.171 F 
ENDROOT
BRANCH   1   5
HETATM    5  C1  UNL     1     -33.788   6.258   5.018  1.00 20.00     0.148 C 
BRANCH   5   6
HETATM    6  C2  UNL     1     -33.557   6.025   3.536  1.00 20.00     0.230 C 
HETATM    7  F4  UNL     1     -32.228   5.851   3.309  1.00 20.00    -0.255 F 
ENDBRANCH   5   6
ENDBRANCH   1   5
TORSDOF 2
ENDMDL
