MODEL 1
REMARK VINA RESULT:      -4.9      0.000      0.000
REMARK  1 active torsions:
REMARK  status: ('A' for Active; 'I' for Inactive)
REMARK    1  A    between atoms: C1_1  and  C6_6 
ROOT
HETATM    1  C2  UNL     1     -33.499  16.982  -2.202  1.00 20.00     0.005 C 
HETATM    2  C3  UNL     1     -34.742  16.339  -1.562  1.00 20.00     0.006 C 
HETATM    3  C4  UNL     1     -33.325  15.084  -3.834  1.00 20.00     0.020 C 
HETATM    4  C5  UNL     1     -35.140  16.622  -3.885  1.00 20.00     0.010 C 
HETATM    5  C6  UNL     1     -34.532  14.421  -3.146  1.00 20.00     0.091 C 
HETATM    6  C7  UNL     1     -33.628  16.587  -3.684  1.00 20.00    -0.013 C 
HETATM    7  C8  UNL     1     -35.409  15.628  -2.752  1.00 20.00     0.000 C 
ENDROOT
BRANCH   5   8
HETATM    8  C1  UNL     1     -35.296  13.523  -4.101  1.00 20.00     0.177 C 
HETATM    9  O9  UNL     1     -34.583  12.770  -4.820  1.00 20.00    -0.648 OA
HETATM   10  O10 UNL     1     -36.552  13.647  -4.053  1.00 20.00    -0.648 OA
ENDBRANCH   5   8
TORSDOF 1
ENDMDL
MODEL 2
REMARK VINA RESULT:      -4.7      1.525      2.227
REMARK  1 active torsions:
REMARK  status: ('A' for Active; 'I' for Inactive)
REMARK    1  A    between atoms: C1_1  and  C6_6 
ROOT
HETATM    1  C2  UNL     1     -34.487  17.640  -4.721  1.00 20.00     0.005 C 
HETATM    2  C3  UNL     1     -35.759  16.775  -4.723  1.00 20.00     0.006 C 
HETATM    3  C4  UNL     1     -33.133  15.694  -3.899  1.00 20.00     0.020 C 
HETATM    4  C5  UNL     1     -34.113  15.716  -6.067  1.00 20.00     0.010 C 
HETATM    5  C6  UNL     1     -34.423  14.856  -3.848  1.00 20.00     0.091 C 
HETATM    6  C7  UNL     1     -33.382  16.635  -5.094  1.00 20.00    -0.013 C 
HETATM    7  C8  UNL     1     -35.219  15.375  -5.064  1.00 20.00     0.000 C 
ENDROOT
BRANCH   5   8
HETATM    8  C1  UNL     1     -34.136  13.376  -4.017  1.00 20.00     0.177 C 
HETATM    9  O9  UNL     1     -35.126  12.670  -4.353  1.00 20.00    -0.648 OA
HETATM   10  O10 UNL     1     -32.938  13.041  -3.799  1.00 20.00    -0.648 OA
ENDBRANCH   5   8
TORSDOF 1
ENDMDL
MODEL 3
REMARK VINA RESULT:      -4.7      1.544      2.192
REMARK  1 active torsions:
REMARK  status: ('A' for Active; 'I' for Inactive)
REMARK    1  A    between atoms: C1_1  and  C6_6 
ROOT
HETATM    1  C2  UNL     1     -34.560  17.655  -4.985  1.00 20.00     0.005 C 
HETATM    2  C3  UNL     1     -35.813  16.763  -4.981  1.00 20.00     0.006 C 
HETATM    3  C4  UNL     1     -33.205  15.802  -3.972  1.00 20.00     0.020 C 
HETATM    4  C5  UNL     1     -34.090  15.652  -6.177  1.00 20.00     0.010 C 
HETATM    5  C6  UNL     1     -34.479  14.940  -3.918  1.00 20.00     0.091 C 
HETATM    6  C7  UNL     1     -33.421  16.652  -5.240  1.00 20.00    -0.013 C 
HETATM    7  C8  UNL     1     -35.231  15.356  -5.200  1.00 20.00     0.000 C 
ENDROOT
BRANCH   5   8
HETATM    8  C1  UNL     1     -34.156  13.459  -3.971  1.00 20.00     0.177 C 
HETATM    9  O9  UNL     1     -32.976  13.153  -3.648  1.00 20.00    -0.648 OA
HETATM   10  O10 UNL     1     -35.114  12.721  -4.336  1.00 20.00    -0.648 OA
ENDBRANCH   5   8
TORSDOF 1
ENDMDL
MODEL 4
REMARK VINA RESULT:      -4.7      1.161      2.166
REMARK  1 active torsions:
REMARK  status: ('A' for Active; 'I' for Inactive)
REMARK    1  A    between atoms: C1_1  and  C6_6 
ROOT
HETATM    1  C2  UNL     1     -35.189  17.637  -3.435  1.00 20.00     0.005 C 
HETATM    2  C3  UNL     1     -33.705  17.252  -3.551  1.00 20.00     0.006 C 
HETATM    3  C4  UNL     1     -35.869  15.308  -4.076  1.00 20.00     0.020 C 
HETATM    4  C5  UNL     1     -34.758  15.772  -2.023  1.00 20.00     0.010 C 
HETATM    5  C6  UNL     1     -34.382  14.953  -4.248  1.00 20.00     0.091 C 
HETATM    6  C7  UNL     1     -35.846  16.339  -2.931  1.00 20.00    -0.013 C 
HETATM    7  C8  UNL     1     -33.701  15.772  -3.131  1.00 20.00     0.000 C 
ENDROOT
BRANCH   5   8
HETATM    8  C1  UNL     1     -34.130  13.474  -4.024  1.00 20.00     0.177 C 
HETATM    9  O9  UNL     1     -35.108  12.717  -4.273  1.00 20.00    -0.648 OA
HETATM   10  O10 UNL     1     -32.970  13.191  -3.613  1.00 20.00    -0.648 OA
ENDBRANCH   5   8
TORSDOF 1
ENDMDL
MODEL 5
REMARK VINA RESULT:      -4.5      1.291      2.272
REMARK  1 active torsions:
REMARK  status: ('A' for Active; 'I' for Inactive)
REMARK    1  A    between atoms: C1_1  and  C6_6 
ROOT
HETATM    1  C2  UNL     1     -34.774  17.569  -4.840  1.00 20.00     0.005 C 
HETATM    2  C3  UNL     1     -33.335  17.030  -4.900  1.00 20.00     0.006 C 
HETATM    3  C4  UNL     1     -35.676  15.228  -4.785  1.00 20.00     0.020 C 
HETATM    4  C5  UNL     1     -34.407  16.127  -2.984  1.00 20.00     0.010 C 
HETATM    5  C6  UNL     1     -34.235  14.702  -4.907  1.00 20.00     0.091 C 
HETATM    6  C7  UNL     1     -35.499  16.525  -3.972  1.00 20.00    -0.013 C 
HETATM    7  C8  UNL     1     -33.424  15.727  -4.087  1.00 20.00     0.000 C 
ENDROOT
BRANCH   5   8
HETATM    8  C1  UNL     1     -34.089  13.323  -4.291  1.00 20.00     0.177 C 
HETATM    9  O9  UNL     1     -32.950  13.064  -3.813  1.00 20.00    -0.648 OA
HETATM   10  O10 UNL     1     -35.129  12.609  -4.338  1.00 20.00    -0.648 OA
ENDBRANCH   5   8
TORSDOF 1
ENDMDL
MODEL 6
REMARK VINA RESULT:      -4.5      1.198      2.071
REMARK  1 active torsions:
REMARK  status: ('A' for Active; 'I' for Inactive)
REMARK    1  A    between atoms: C1_1  and  C6_6 
ROOT
HETATM    1  C2  UNL     1     -33.863  17.316  -3.023  1.00 20.00     0.005 C 
HETATM    2  C3  UNL     1     -33.728  17.289  -4.555  1.00 20.00     0.006 C 
HETATM    3  C4  UNL     1     -35.101  15.134  -3.067  1.00 20.00     0.020 C 
HETATM    4  C5  UNL     1     -32.805  15.287  -3.673  1.00 20.00     0.010 C 
HETATM    5  C6  UNL     1     -35.013  15.149  -4.603  1.00 20.00     0.091 C 
HETATM    6  C7  UNL     1     -33.792  15.826  -2.642  1.00 20.00    -0.013 C 
HETATM    7  C8  UNL     1     -33.631  15.784  -4.863  1.00 20.00     0.000 C 
ENDROOT
BRANCH   5   8
HETATM    8  C1  UNL     1     -35.047  13.746  -5.179  1.00 20.00     0.177 C 
HETATM    9  O9  UNL     1     -35.037  13.680  -6.439  1.00 20.00    -0.648 OA
HETATM   10  O10 UNL     1     -35.083  12.821  -4.320  1.00 20.00    -0.648 OA
ENDBRANCH   5   8
TORSDOF 1
ENDMDL
MODEL 7
REMARK VINA RESULT:      -4.3      2.505      3.342
REMARK  1 active torsions:
REMARK  status: ('A' for Active; 'I' for Inactive)
REMARK    1  A    between atoms: C1_1  and  C6_6 
ROOT
HETATM    1  C2  UNL     1     -34.687  16.649  -7.359  1.00 20.00     0.005 C 
HETATM    2  C3  UNL     1     -36.077  16.821  -6.723  1.00 20.00     0.006 C 
HETATM    3  C4  UNL     1     -34.106  14.882  -5.675  1.00 20.00     0.020 C 
HETATM    4  C5  UNL     1     -35.789  14.542  -7.323  1.00 20.00     0.010 C 
HETATM    5  C6  UNL     1     -35.476  15.106  -5.011  1.00 20.00     0.091 C 
HETATM    6  C7  UNL     1     -34.399  15.150  -7.164  1.00 20.00    -0.013 C 
HETATM    7  C8  UNL     1     -36.396  15.405  -6.214  1.00 20.00     0.000 C 
ENDROOT
BRANCH   5   8
HETATM    8  C1  UNL     1     -35.961  13.861  -4.293  1.00 20.00     0.177 C 
HETATM    9  O9  UNL     1     -35.150  12.895  -4.282  1.00 20.00    -0.648 OA
HETATM   10  O10 UNL     1     -37.119  13.952  -3.799  1.00 20.00    -0.648 OA
ENDBRANCH   5   8
TORSDOF 1
ENDMDL
MODEL 8
REMARK VINA RESULT:      -4.3      1.464      2.428
REMARK  1 active torsions:
REMARK  status: ('A' for Active; 'I' for Inactive)
REMARK    1  A    between atoms: C1_1  and  C6_6 
ROOT
HETATM    1  C2  UNL     1     -32.757  15.207  -3.923  1.00 20.00     0.005 C 
HETATM    2  C3  UNL     1     -33.492  13.868  -3.750  1.00 20.00     0.006 C 
HETATM    3  C4  UNL     1     -34.851  16.276  -4.798  1.00 20.00     0.020 C 
HETATM    4  C5  UNL     1     -34.664  15.542  -2.542  1.00 20.00     0.010 C 
HETATM    5  C6  UNL     1     -35.560  14.915  -4.678  1.00 20.00     0.091 C 
HETATM    6  C7  UNL     1     -33.853  16.246  -3.625  1.00 20.00    -0.013 C 
HETATM    7  C8  UNL     1     -34.927  14.307  -3.409  1.00 20.00     0.000 C 
ENDROOT
BRANCH   5   8
HETATM    8  C1  UNL     1     -37.055  15.078  -4.477  1.00 20.00     0.177 C 
HETATM    9  O9  UNL     1     -37.615  14.152  -3.828  1.00 20.00    -0.648 OA
HETATM   10  O10 UNL     1     -37.547  16.122  -4.988  1.00 20.00    -0.648 OA
ENDBRANCH   5   8
TORSDOF 1
ENDMDL
MODEL 9
REMARK VINA RESULT:      -4.3      2.408      3.499
REMARK  1 active torsions:
REMARK  status: ('A' for Active; 'I' for Inactive)
REMARK    1  A    between atoms: C1_1  and  C6_6 
ROOT
HETATM    1  C2  UNL     1     -34.603  13.341  -4.669  1.00 20.00     0.005 C 
HETATM    2  C3  UNL     1     -33.375  13.637  -3.791  1.00 20.00     0.006 C 
HETATM    3  C4  UNL     1     -35.921  15.105  -3.467  1.00 20.00     0.020 C 
HETATM    4  C5  UNL     1     -34.060  15.649  -4.847  1.00 20.00     0.010 C 
HETATM    5  C6  UNL     1     -34.706  15.349  -2.555  1.00 20.00     0.091 C 
HETATM    6  C7  UNL     1     -35.270  14.721  -4.810  1.00 20.00    -0.013 C 
HETATM    7  C8  UNL     1     -33.511  15.143  -3.510  1.00 20.00     0.000 C 
ENDROOT
BRANCH   5   8
HETATM    8  C1  UNL     1     -34.689  16.766  -2.013  1.00 20.00     0.177 C 
HETATM    9  O9  UNL     1     -33.620  17.111  -1.438  1.00 20.00    -0.648 OA
HETATM   10  O10 UNL     1     -35.752  17.420  -2.206  1.00 20.00    -0.648 OA
ENDBRANCH   5   8
TORSDOF 1
ENDMDL
