MODEL 1
REMARK VINA RESULT:      -5.4      0.000      0.000
REMARK  1 active torsions:
REMARK  status: ('A' for Active; 'I' for Inactive)
REMARK    1  A    between atoms: C5_5  and  C10_10 
ROOT
HETATM    1  C1  UNL     1     -33.157   6.630   5.475  1.00 20.00     0.011 C 
HETATM    2  C2  UNL     1     -34.233   5.339   3.584  1.00 20.00     0.011 C 
HETATM    3  C3  UNL     1     -34.268   6.174   6.419  1.00 20.00     0.079 C 
HETATM    4  C4  UNL     1     -35.345   4.884   4.527  1.00 20.00     0.079 C 
HETATM    5  C5  UNL     1     -33.639   6.687   4.018  1.00 20.00    -0.007 C 
HETATM    6  C6  UNL     1     -34.873   4.855   5.970  1.00 20.00     0.243 C 
HETATM    7  F11 UNL     1     -33.952   3.867   6.119  1.00 20.00    -0.206 F 
HETATM    8  F12 UNL     1     -35.913   4.536   6.780  1.00 20.00    -0.206 F 
ENDROOT
BRANCH   5   9
HETATM    9  C10 UNL     1     -32.498   7.097   3.090  1.00 20.00    -0.048 C 
HETATM   10  C7  UNL     1     -31.306   7.598   3.921  1.00 20.00     0.015 C 
HETATM   11  C8  UNL     1     -32.969   8.221   2.153  1.00 20.00     0.015 C 
HETATM   12  C9  UNL     1     -32.055   5.889   2.247  1.00 20.00     0.015 C 
ENDBRANCH   5   9
TORSDOF 1
ENDMDL
MODEL 2
REMARK VINA RESULT:      -5.3     11.825     12.770
REMARK  1 active torsions:
REMARK  status: ('A' for Active; 'I' for Inactive)
REMARK    1  A    between atoms: C5_5  and  C10_10 
ROOT
HETATM    1  C1  UNL     1     -33.420  15.430  -3.142  1.00 20.00     0.011 C 
HETATM    2  C2  UNL     1     -35.935  15.371  -3.424  1.00 20.00     0.011 C 
HETATM    3  C3  UNL     1     -33.315  14.052  -3.790  1.00 20.00     0.079 C 
HETATM    4  C4  UNL     1     -35.829  13.992  -4.071  1.00 20.00     0.079 C 
HETATM    5  C5  UNL     1     -34.776  15.628  -2.448  1.00 20.00    -0.007 C 
HETATM    6  C6  UNL     1     -34.478  13.790  -4.733  1.00 20.00     0.243 C 
HETATM    7  F11 UNL     1     -34.378  14.616  -5.807  1.00 20.00    -0.206 F 
HETATM    8  F12 UNL     1     -34.394  12.524  -5.213  1.00 20.00    -0.206 F 
ENDROOT
BRANCH   5   9
HETATM    9  C10 UNL     1     -34.876  17.030  -1.851  1.00 20.00    -0.048 C 
HETATM   10  C7  UNL     1     -33.776  17.926  -2.443  1.00 20.00     0.015 C 
HETATM   11  C8  UNL     1     -34.704  16.958  -0.325  1.00 20.00     0.015 C 
HETATM   12  C9  UNL     1     -36.252  17.636  -2.177  1.00 20.00     0.015 C 
ENDBRANCH   5   9
TORSDOF 1
ENDMDL
MODEL 3
REMARK VINA RESULT:      -4.9     12.201     13.416
REMARK  1 active torsions:
REMARK  status: ('A' for Active; 'I' for Inactive)
REMARK    1  A    between atoms: C5_5  and  C10_10 
ROOT
HETATM    1  C1  UNL     1     -33.666  17.380  -3.626  1.00 20.00     0.011 C 
HETATM    2  C2  UNL     1     -34.860  15.624  -2.249  1.00 20.00     0.011 C 
HETATM    3  C3  UNL     1     -33.366  16.335  -4.698  1.00 20.00     0.079 C 
HETATM    4  C4  UNL     1     -34.558  14.579  -3.320  1.00 20.00     0.079 C 
HETATM    5  C5  UNL     1     -33.806  16.741  -2.236  1.00 20.00    -0.007 C 
HETATM    6  C6  UNL     1     -34.395  15.216  -4.689  1.00 20.00     0.243 C 
HETATM    7  F11 UNL     1     -35.593  15.707  -5.100  1.00 20.00    -0.206 F 
HETATM    8  F12 UNL     1     -34.039  14.267  -5.590  1.00 20.00    -0.206 F 
ENDROOT
BRANCH   5   9
HETATM    9  C10 UNL     1     -34.155  17.799  -1.191  1.00 20.00    -0.048 C 
HETATM   10  C7  UNL     1     -34.849  17.134   0.009  1.00 20.00     0.015 C 
HETATM   11  C8  UNL     1     -35.099  18.845  -1.805  1.00 20.00     0.015 C 
HETATM   12  C9  UNL     1     -32.871  18.496  -0.710  1.00 20.00     0.015 C 
ENDBRANCH   5   9
TORSDOF 1
ENDMDL
MODEL 4
REMARK VINA RESULT:      -4.6     11.752     13.548
REMARK  1 active torsions:
REMARK  status: ('A' for Active; 'I' for Inactive)
REMARK    1  A    between atoms: C5_5  and  C10_10 
ROOT
HETATM    1  C1  UNL     1     -35.546  14.278  -3.835  1.00 20.00     0.011 C 
HETATM    2  C2  UNL     1     -34.811  16.409  -4.986  1.00 20.00     0.011 C 
HETATM    3  C3  UNL     1     -34.085  13.874  -3.650  1.00 20.00     0.079 C 
HETATM    4  C4  UNL     1     -33.350  16.004  -4.802  1.00 20.00     0.079 C 
HETATM    5  C5  UNL     1     -35.732  15.182  -5.063  1.00 20.00    -0.007 C 
HETATM    6  C6  UNL     1     -33.173  15.090  -3.603  1.00 20.00     0.243 C 
HETATM    7  F11 UNL     1     -33.420  15.790  -2.465  1.00 20.00    -0.206 F 
HETATM    8  F12 UNL     1     -31.882  14.683  -3.531  1.00 20.00    -0.206 F 
ENDROOT
BRANCH   5   9
HETATM    9  C10 UNL     1     -37.191  15.611  -5.199  1.00 20.00    -0.048 C 
HETATM   10  C7  UNL     1     -37.675  15.360  -6.636  1.00 20.00     0.015 C 
HETATM   11  C8  UNL     1     -37.324  17.109  -4.875  1.00 20.00     0.015 C 
HETATM   12  C9  UNL     1     -38.063  14.803  -4.223  1.00 20.00     0.015 C 
ENDBRANCH   5   9
TORSDOF 1
ENDMDL
MODEL 5
REMARK VINA RESULT:      -4.6      9.617     11.053
REMARK  1 active torsions:
REMARK  status: ('A' for Active; 'I' for Inactive)
REMARK    1  A    between atoms: C5_5  and  C10_10 
ROOT
HETATM    1  C1  UNL     1     -41.344   4.638  -0.802  1.00 20.00     0.011 C 
HETATM    2  C2  UNL     1     -42.555   5.831  -2.677  1.00 20.00     0.011 C 
HETATM    3  C3  UNL     1     -40.653   5.944  -0.417  1.00 20.00     0.079 C 
HETATM    4  C4  UNL     1     -41.863   7.137  -2.292  1.00 20.00     0.079 C 
HETATM    5  C5  UNL     1     -41.709   4.608  -2.294  1.00 20.00    -0.007 C 
HETATM    6  C6  UNL     1     -41.480   7.152  -0.823  1.00 20.00     0.243 C 
HETATM    7  F11 UNL     1     -42.608   7.196  -0.067  1.00 20.00    -0.206 F 
HETATM    8  F12 UNL     1     -40.789   8.286  -0.547  1.00 20.00    -0.206 F 
ENDROOT
BRANCH   5   9
HETATM    9  C10 UNL     1     -42.442   3.315  -2.643  1.00 20.00    -0.048 C 
HETATM   10  C7  UNL     1     -43.417   3.569  -3.805  1.00 20.00     0.015 C 
HETATM   11  C8  UNL     1     -43.231   2.818  -1.420  1.00 20.00     0.015 C 
HETATM   12  C9  UNL     1     -41.426   2.238  -3.061  1.00 20.00     0.015 C 
ENDBRANCH   5   9
TORSDOF 1
ENDMDL
MODEL 6
REMARK VINA RESULT:      -4.5     12.171     13.307
REMARK  1 active torsions:
REMARK  status: ('A' for Active; 'I' for Inactive)
REMARK    1  A    between atoms: C5_5  and  C10_10 
ROOT
HETATM    1  C1  UNL     1     -35.137  16.380  -3.031  1.00 20.00     0.011 C 
HETATM    2  C2  UNL     1     -35.381  14.515  -4.723  1.00 20.00     0.011 C 
HETATM    3  C3  UNL     1     -33.760  15.848  -2.641  1.00 20.00     0.079 C 
HETATM    4  C4  UNL     1     -34.004  13.981  -4.333  1.00 20.00     0.079 C 
HETATM    5  C5  UNL     1     -36.048  15.263  -3.560  1.00 20.00    -0.007 C 
HETATM    6  C6  UNL     1     -33.115  15.083  -3.785  1.00 20.00     0.243 C 
HETATM    7  F11 UNL     1     -32.810  15.951  -4.786  1.00 20.00    -0.206 F 
HETATM    8  F12 UNL     1     -31.940  14.551  -3.367  1.00 20.00    -0.206 F 
ENDROOT
BRANCH   5   9
HETATM    9  C10 UNL     1     -37.400  15.828  -3.989  1.00 20.00    -0.048 C 
HETATM   10  C7  UNL     1     -37.342  16.249  -5.467  1.00 20.00     0.015 C 
HETATM   11  C8  UNL     1     -37.748  17.053  -3.127  1.00 20.00     0.015 C 
HETATM   12  C9  UNL     1     -38.491  14.758  -3.810  1.00 20.00     0.015 C 
ENDBRANCH   5   9
TORSDOF 1
ENDMDL
MODEL 7
REMARK VINA RESULT:      -4.5     12.114     13.853
REMARK  1 active torsions:
REMARK  status: ('A' for Active; 'I' for Inactive)
REMARK    1  A    between atoms: C5_5  and  C10_10 
ROOT
HETATM    1  C1  UNL     1     -33.738  16.374  -4.892  1.00 20.00     0.011 C 
HETATM    2  C2  UNL     1     -36.101  15.490  -4.686  1.00 20.00     0.011 C 
HETATM    3  C3  UNL     1     -33.677  16.563  -3.379  1.00 20.00     0.079 C 
HETATM    4  C4  UNL     1     -36.040  15.681  -3.173  1.00 20.00     0.079 C 
HETATM    5  C5  UNL     1     -35.178  16.476  -5.418  1.00 20.00    -0.007 C 
HETATM    6  C6  UNL     1     -34.613  15.605  -2.660  1.00 20.00     0.243 C 
HETATM    7  F11 UNL     1     -34.151  14.335  -2.805  1.00 20.00    -0.206 F 
HETATM    8  F12 UNL     1     -34.595  15.870  -1.330  1.00 20.00    -0.206 F 
ENDROOT
BRANCH   5   9
HETATM    9  C10 UNL     1     -35.219  16.235  -6.925  1.00 20.00    -0.048 C 
HETATM   10  C7  UNL     1     -34.442  14.952  -7.267  1.00 20.00     0.015 C 
HETATM   11  C8  UNL     1     -34.580  17.425  -7.660  1.00 20.00     0.015 C 
HETATM   12  C9  UNL     1     -36.678  16.080  -7.387  1.00 20.00     0.015 C 
ENDBRANCH   5   9
TORSDOF 1
ENDMDL
MODEL 8
REMARK VINA RESULT:      -4.5     12.382     13.331
REMARK  1 active torsions:
REMARK  status: ('A' for Active; 'I' for Inactive)
REMARK    1  A    between atoms: C5_5  and  C10_10 
ROOT
HETATM    1  C1  UNL     1     -34.820  16.276  -1.368  1.00 20.00     0.011 C 
HETATM    2  C2  UNL     1     -33.637  18.151  -2.588  1.00 20.00     0.011 C 
HETATM    3  C3  UNL     1     -34.777  17.088  -0.077  1.00 20.00     0.079 C 
HETATM    4  C4  UNL     1     -33.592  18.963  -1.296  1.00 20.00     0.079 C 
HETATM    5  C5  UNL     1     -33.660  16.641  -2.306  1.00 20.00    -0.007 C 
HETATM    6  C6  UNL     1     -34.725  18.581  -0.359  1.00 20.00     0.243 C 
HETATM    7  F11 UNL     1     -35.907  18.974  -0.902  1.00 20.00    -0.206 F 
HETATM    8  F12 UNL     1     -34.594  19.257   0.809  1.00 20.00    -0.206 F 
ENDROOT
BRANCH   5   9
HETATM    9  C10 UNL     1     -33.754  15.852  -3.610  1.00 20.00    -0.048 C 
HETATM   10  C7  UNL     1     -32.697  14.734  -3.618  1.00 20.00     0.015 C 
HETATM   11  C8  UNL     1     -33.507  16.789  -4.804  1.00 20.00     0.015 C 
HETATM   12  C9  UNL     1     -35.153  15.225  -3.740  1.00 20.00     0.015 C 
ENDBRANCH   5   9
TORSDOF 1
ENDMDL
MODEL 9
REMARK VINA RESULT:      -4.5     11.737     13.953
REMARK  1 active torsions:
REMARK  status: ('A' for Active; 'I' for Inactive)
REMARK    1  A    between atoms: C5_5  and  C10_10 
ROOT
HETATM    1  C1  UNL     1     -35.224  14.385  -5.696  1.00 20.00     0.011 C 
HETATM    2  C2  UNL     1     -33.713  16.318  -5.073  1.00 20.00     0.011 C 
HETATM    3  C3  UNL     1     -34.311  13.426  -4.935  1.00 20.00     0.079 C 
HETATM    4  C4  UNL     1     -32.800  15.359  -4.313  1.00 20.00     0.079 C 
HETATM    5  C5  UNL     1     -34.453  15.608  -6.216  1.00 20.00    -0.007 C 
HETATM    6  C6  UNL     1     -33.558  14.139  -3.823  1.00 20.00     0.243 C 
HETATM    7  F11 UNL     1     -34.439  14.516  -2.859  1.00 20.00    -0.206 F 
HETATM    8  F12 UNL     1     -32.694  13.273  -3.237  1.00 20.00    -0.206 F 
ENDROOT
BRANCH   5   9
HETATM    9  C10 UNL     1     -35.396  16.575  -6.929  1.00 20.00    -0.048 C 
HETATM   10  C7  UNL     1     -36.086  17.484  -5.898  1.00 20.00     0.015 C 
HETATM   11  C8  UNL     1     -36.465  15.784  -7.701  1.00 20.00     0.015 C 
HETATM   12  C9  UNL     1     -34.600  17.444  -7.917  1.00 20.00     0.015 C 
ENDBRANCH   5   9
TORSDOF 1
ENDMDL
