MODEL 1
REMARK VINA RESULT:      -4.3      0.000      0.000
REMARK  1 active torsions:
REMARK  status: ('A' for Active; 'I' for Inactive)
REMARK    1  A    between atoms: C1_1  and  C6_6 
ROOT
HETATM    1  C2  UNL     1     -34.409   5.234   3.492  1.00 20.00     0.038 C 
HETATM    2  C3  UNL     1     -33.328   6.433   5.412  1.00 20.00     0.038 C 
HETATM    3  C4  UNL     1     -35.507   4.813   4.463  1.00 20.00     0.168 C 
HETATM    4  C5  UNL     1     -34.486   5.946   6.276  1.00 20.00     0.168 C 
HETATM    5  C6  UNL     1     -33.763   6.534   3.955  1.00 20.00     0.051 C 
HETATM    6  O8  UNL     1     -34.993   4.704   5.790  1.00 20.00    -0.391 OA
ENDROOT
BRANCH   5   7
HETATM    7  C1  UNL     1     -32.529   6.780   3.108  1.00 20.00     0.235 C 
HETATM    8  O7  UNL     1     -32.294   7.846   2.550  1.00 20.00    -0.306 OA
ENDBRANCH   5   7
TORSDOF 1
ENDMDL
MODEL 2
REMARK VINA RESULT:      -4.2      0.540      1.805
REMARK  1 active torsions:
REMARK  status: ('A' for Active; 'I' for Inactive)
REMARK    1  A    between atoms: C1_1  and  C6_6 
ROOT
HETATM    1  C2  UNL     1     -33.604   6.631   5.411  1.00 20.00     0.038 C 
HETATM    2  C3  UNL     1     -34.577   5.290   3.528  1.00 20.00     0.038 C 
HETATM    3  C4  UNL     1     -34.263   5.641   6.365  1.00 20.00     0.168 C 
HETATM    4  C5  UNL     1     -35.181   4.373   4.586  1.00 20.00     0.168 C 
HETATM    5  C6  UNL     1     -33.323   5.966   4.069  1.00 20.00     0.051 C 
HETATM    6  O8  UNL     1     -35.448   5.095   5.787  1.00 20.00    -0.391 OA
ENDROOT
BRANCH   5   7
HETATM    7  C1  UNL     1     -32.902   7.041   3.085  1.00 20.00     0.235 C 
HETATM    8  O7  UNL     1     -31.799   7.576   3.099  1.00 20.00    -0.306 OA
ENDBRANCH   5   7
TORSDOF 1
ENDMDL
MODEL 3
REMARK VINA RESULT:      -3.7     11.518     12.920
REMARK  1 active torsions:
REMARK  status: ('A' for Active; 'I' for Inactive)
REMARK    1  A    between atoms: C1_1  and  C6_6 
ROOT
HETATM    1  C2  UNL     1     -34.080  15.506  -5.169  1.00 20.00     0.038 C 
HETATM    2  C3  UNL     1     -34.595  15.479  -2.715  1.00 20.00     0.038 C 
HETATM    3  C4  UNL     1     -33.314  16.801  -4.924  1.00 20.00     0.168 C 
HETATM    4  C5  UNL     1     -33.800  16.775  -2.605  1.00 20.00     0.168 C 
HETATM    5  C6  UNL     1     -34.107  14.659  -3.903  1.00 20.00     0.051 C 
HETATM    6  O8  UNL     1     -33.872  17.517  -3.822  1.00 20.00    -0.391 OA
ENDROOT
BRANCH   5   7
HETATM    7  C1  UNL     1     -35.077  13.513  -4.118  1.00 20.00     0.235 C 
HETATM    8  O7  UNL     1     -34.817  12.527  -4.799  1.00 20.00    -0.306 OA
ENDBRANCH   5   7
TORSDOF 1
ENDMDL
MODEL 4
REMARK VINA RESULT:      -3.7     11.567     13.327
REMARK  1 active torsions:
REMARK  status: ('A' for Active; 'I' for Inactive)
REMARK    1  A    between atoms: C1_1  and  C6_6 
ROOT
HETATM    1  C2  UNL     1     -34.098  15.355  -3.346  1.00 20.00     0.038 C 
HETATM    2  C3  UNL     1     -34.437  15.083  -5.816  1.00 20.00     0.038 C 
HETATM    3  C4  UNL     1     -33.565  16.752  -3.643  1.00 20.00     0.168 C 
HETATM    4  C5  UNL     1     -33.885  16.495  -5.976  1.00 20.00     0.168 C 
HETATM    5  C6  UNL     1     -35.065  14.914  -4.438  1.00 20.00     0.051 C 
HETATM    6  O8  UNL     1     -32.958  16.797  -4.934  1.00 20.00    -0.391 OA
ENDROOT
BRANCH   5   7
HETATM    7  C1  UNL     1     -35.374  13.444  -4.234  1.00 20.00     0.235 C 
HETATM    8  O7  UNL     1     -34.740  12.540  -4.769  1.00 20.00    -0.306 OA
ENDBRANCH   5   7
TORSDOF 1
ENDMDL
MODEL 5
REMARK VINA RESULT:      -3.7     11.531     11.939
REMARK  1 active torsions:
REMARK  status: ('A' for Active; 'I' for Inactive)
REMARK    1  A    between atoms: C1_1  and  C6_6 
ROOT
HETATM    1  C2  UNL     1     -33.437  14.332  -3.517  1.00 20.00     0.038 C 
HETATM    2  C3  UNL     1     -35.821  15.056  -3.226  1.00 20.00     0.038 C 
HETATM    3  C4  UNL     1     -33.940  13.329  -4.549  1.00 20.00     0.168 C 
HETATM    4  C5  UNL     1     -36.192  14.014  -4.275  1.00 20.00     0.168 C 
HETATM    5  C6  UNL     1     -34.384  15.522  -3.429  1.00 20.00     0.051 C 
HETATM    6  O8  UNL     1     -35.274  12.921  -4.249  1.00 20.00    -0.391 OA
ENDROOT
BRANCH   5   7
HETATM    7  C1  UNL     1     -33.984  16.361  -2.232  1.00 20.00     0.235 C 
HETATM    8  O7  UNL     1     -34.554  16.306  -1.148  1.00 20.00    -0.306 OA
ENDBRANCH   5   7
TORSDOF 1
ENDMDL
MODEL 6
REMARK VINA RESULT:      -3.7     11.634     12.302
REMARK  1 active torsions:
REMARK  status: ('A' for Active; 'I' for Inactive)
REMARK    1  A    between atoms: C1_1  and  C6_6 
ROOT
HETATM    1  C2  UNL     1     -34.853  15.483  -3.054  1.00 20.00     0.038 C 
HETATM    2  C3  UNL     1     -35.555  13.483  -4.394  1.00 20.00     0.038 C 
HETATM    3  C4  UNL     1     -33.418  15.162  -3.456  1.00 20.00     0.168 C 
HETATM    4  C5  UNL     1     -34.082  13.273  -4.723  1.00 20.00     0.168 C 
HETATM    5  C6  UNL     1     -35.827  14.953  -4.099  1.00 20.00     0.051 C 
HETATM    6  O8  UNL     1     -33.254  13.760  -3.668  1.00 20.00    -0.391 OA
ENDROOT
BRANCH   5   7
HETATM    7  C1  UNL     1     -37.233  15.073  -3.543  1.00 20.00     0.235 C 
HETATM    8  O7  UNL     1     -38.093  14.212  -3.690  1.00 20.00    -0.306 OA
ENDBRANCH   5   7
TORSDOF 1
ENDMDL
MODEL 7
REMARK VINA RESULT:      -3.6     11.563     12.357
REMARK  1 active torsions:
REMARK  status: ('A' for Active; 'I' for Inactive)
REMARK    1  A    between atoms: C1_1  and  C6_6 
ROOT
HETATM    1  C2  UNL     1     -34.870  13.644  -4.301  1.00 20.00     0.038 C 
HETATM    2  C3  UNL     1     -35.140  15.991  -3.459  1.00 20.00     0.038 C 
HETATM    3  C4  UNL     1     -33.432  13.703  -3.800  1.00 20.00     0.168 C 
HETATM    4  C5  UNL     1     -33.687  15.920  -3.004  1.00 20.00     0.168 C 
HETATM    5  C6  UNL     1     -35.750  14.595  -3.499  1.00 20.00     0.051 C 
HETATM    6  O8  UNL     1     -32.937  15.041  -3.841  1.00 20.00    -0.391 OA
ENDROOT
BRANCH   5   7
HETATM    7  C1  UNL     1     -37.099  14.687  -4.185  1.00 20.00     0.235 C 
HETATM    8  O7  UNL     1     -38.126  14.201  -3.724  1.00 20.00    -0.306 OA
ENDBRANCH   5   7
TORSDOF 1
ENDMDL
MODEL 8
REMARK VINA RESULT:      -3.6      2.073      2.668
REMARK  1 active torsions:
REMARK  status: ('A' for Active; 'I' for Inactive)
REMARK    1  A    between atoms: C1_1  and  C6_6 
ROOT
HETATM    1  C2  UNL     1     -34.036   6.311   4.362  1.00 20.00     0.038 C 
HETATM    2  C3  UNL     1     -34.339   4.932   6.436  1.00 20.00     0.038 C 
HETATM    3  C4  UNL     1     -34.969   5.332   3.658  1.00 20.00     0.168 C 
HETATM    4  C5  UNL     1     -35.256   4.030   5.617  1.00 20.00     0.168 C 
HETATM    5  C6  UNL     1     -34.331   6.342   5.857  1.00 20.00     0.051 C 
HETATM    6  O8  UNL     1     -34.873   4.033   4.243  1.00 20.00    -0.391 OA
ENDROOT
BRANCH   5   7
HETATM    7  C1  UNL     1     -33.231   7.130   6.542  1.00 20.00     0.235 C 
HETATM    8  O7  UNL     1     -33.435   7.916   7.460  1.00 20.00    -0.306 OA
ENDBRANCH   5   7
TORSDOF 1
ENDMDL
MODEL 9
REMARK VINA RESULT:      -3.5     11.980     13.162
REMARK  1 active torsions:
REMARK  status: ('A' for Active; 'I' for Inactive)
REMARK    1  A    between atoms: C1_1  and  C6_6 
ROOT
HETATM    1  C2  UNL     1     -35.219  16.022  -5.232  1.00 20.00     0.038 C 
HETATM    2  C3  UNL     1     -34.329  15.009  -3.117  1.00 20.00     0.038 C 
HETATM    3  C4  UNL     1     -33.776  16.108  -5.716  1.00 20.00     0.168 C 
HETATM    4  C5  UNL     1     -32.936  15.151  -3.718  1.00 20.00     0.168 C 
HETATM    5  C6  UNL     1     -35.372  14.891  -4.222  1.00 20.00     0.051 C 
HETATM    6  O8  UNL     1     -32.882  16.260  -4.614  1.00 20.00    -0.391 OA
ENDROOT
BRANCH   5   7
HETATM    7  C1  UNL     1     -36.747  15.000  -3.590  1.00 20.00     0.235 C 
HETATM    8  O7  UNL     1     -37.638  14.177  -3.766  1.00 20.00    -0.306 OA
ENDBRANCH   5   7
TORSDOF 1
ENDMDL
