MODEL 1
REMARK VINA RESULT:      -3.7      0.000      0.000
REMARK  2 active torsions:
REMARK  status: ('A' for Active; 'I' for Inactive)
REMARK    1  A    between atoms: C5_5  and  C6_6 
REMARK    2  A    between atoms: C5_5  and  N7_7 
ROOT
HETATM    1  C1  UNL     1     -32.294   7.318   2.940  1.00 20.00     0.157 C 
HETATM    2  N7  UNL     1     -32.477   6.544   3.804  1.00 20.00    -0.275 NA
HETATM    3  S8  UNL     1     -32.029   8.382   1.786  1.00 20.00    -0.055 SA
ENDROOT
BRANCH   2   4
HETATM    4  C5  UNL     1     -33.402   5.456   3.472  1.00 20.00     0.158 C 
BRANCH   4   5
HETATM    5  C6  UNL     1     -34.542   5.362   4.508  1.00 20.00    -0.033 C 
HETATM    6  C2  UNL     1     -34.723   3.912   4.987  1.00 20.00     0.016 C 
HETATM    7  C3  UNL     1     -35.848   5.829   3.840  1.00 20.00     0.016 C 
HETATM    8  C4  UNL     1     -34.254   6.267   5.718  1.00 20.00     0.016 C 
ENDBRANCH   4   5
ENDBRANCH   2   4
TORSDOF 2
ENDMDL
MODEL 2
REMARK VINA RESULT:      -3.7      0.039      1.527
REMARK  2 active torsions:
REMARK  status: ('A' for Active; 'I' for Inactive)
REMARK    1  A    between atoms: C5_5  and  C6_6 
REMARK    2  A    between atoms: C5_5  and  N7_7 
ROOT
HETATM    1  C1  UNL     1     -32.299   7.340   2.930  1.00 20.00     0.157 C 
HETATM    2  N7  UNL     1     -32.495   6.597   3.818  1.00 20.00    -0.275 NA
HETATM    3  S8  UNL     1     -32.016   8.364   1.744  1.00 20.00    -0.055 SA
ENDROOT
BRANCH   2   4
HETATM    4  C5  UNL     1     -33.377   5.471   3.495  1.00 20.00     0.158 C 
BRANCH   4   5
HETATM    5  C6  UNL     1     -34.543   5.375   4.503  1.00 20.00    -0.033 C 
HETATM    6  C2  UNL     1     -35.862   5.828   3.853  1.00 20.00     0.016 C 
HETATM    7  C3  UNL     1     -34.236   6.299   5.695  1.00 20.00     0.016 C 
HETATM    8  C4  UNL     1     -34.697   3.935   5.020  1.00 20.00     0.016 C 
ENDBRANCH   4   5
ENDBRANCH   2   4
TORSDOF 2
ENDMDL
MODEL 3
REMARK VINA RESULT:      -3.7      0.027      1.532
REMARK  2 active torsions:
REMARK  status: ('A' for Active; 'I' for Inactive)
REMARK    1  A    between atoms: C5_5  and  C6_6 
REMARK    2  A    between atoms: C5_5  and  N7_7 
ROOT
HETATM    1  C1  UNL     1     -32.289   7.329   2.935  1.00 20.00     0.157 C 
HETATM    2  N7  UNL     1     -32.467   6.570   3.814  1.00 20.00    -0.275 NA
HETATM    3  S8  UNL     1     -32.029   8.374   1.763  1.00 20.00    -0.055 SA
ENDROOT
BRANCH   2   4
HETATM    4  C5  UNL     1     -33.372   5.461   3.494  1.00 20.00     0.158 C 
BRANCH   4   5
HETATM    5  C6  UNL     1     -34.539   5.390   4.502  1.00 20.00    -0.033 C 
HETATM    6  C2  UNL     1     -34.250   6.270   5.731  1.00 20.00     0.016 C 
HETATM    7  C3  UNL     1     -34.695   3.931   4.966  1.00 20.00     0.016 C 
HETATM    8  C4  UNL     1     -35.854   5.845   3.847  1.00 20.00     0.016 C 
ENDBRANCH   4   5
ENDBRANCH   2   4
TORSDOF 2
ENDMDL
MODEL 4
REMARK VINA RESULT:      -3.4     11.340     11.968
REMARK  2 active torsions:
REMARK  status: ('A' for Active; 'I' for Inactive)
REMARK    1  A    between atoms: C5_5  and  C6_6 
REMARK    2  A    between atoms: C5_5  and  N7_7 
ROOT
HETATM    1  C1  UNL     1     -34.388  16.703  -1.200  1.00 20.00     0.157 C 
HETATM    2  N7  UNL     1     -33.978  16.202  -2.180  1.00 20.00    -0.275 NA
HETATM    3  S8  UNL     1     -34.917  17.392   0.135  1.00 20.00    -0.055 SA
ENDROOT
BRANCH   2   4
HETATM    4  C5  UNL     1     -34.974  15.449  -2.949  1.00 20.00     0.158 C 
BRANCH   4   5
HETATM    5  C6  UNL     1     -34.296  14.577  -4.028  1.00 20.00    -0.033 C 
HETATM    6  C2  UNL     1     -32.880  14.169  -3.587  1.00 20.00     0.016 C 
HETATM    7  C3  UNL     1     -34.193  15.398  -5.326  1.00 20.00     0.016 C 
HETATM    8  C4  UNL     1     -35.127  13.313  -4.308  1.00 20.00     0.016 C 
ENDBRANCH   4   5
ENDBRANCH   2   4
TORSDOF 2
ENDMDL
MODEL 5
REMARK VINA RESULT:      -3.4     11.342     11.967
REMARK  2 active torsions:
REMARK  status: ('A' for Active; 'I' for Inactive)
REMARK    1  A    between atoms: C5_5  and  C6_6 
REMARK    2  A    between atoms: C5_5  and  N7_7 
ROOT
HETATM    1  C1  UNL     1     -34.378  16.727  -1.238  1.00 20.00     0.157 C 
HETATM    2  N7  UNL     1     -33.994  16.256  -2.243  1.00 20.00    -0.275 NA
HETATM    3  S8  UNL     1     -34.871  17.379   0.129  1.00 20.00    -0.055 SA
ENDROOT
BRANCH   2   4
HETATM    4  C5  UNL     1     -34.949  15.364  -2.908  1.00 20.00     0.158 C 
BRANCH   4   5
HETATM    5  C6  UNL     1     -34.264  14.556  -4.030  1.00 20.00    -0.033 C 
HETATM    6  C2  UNL     1     -34.139  15.401  -5.310  1.00 20.00     0.016 C 
HETATM    7  C3  UNL     1     -35.125  13.318  -4.338  1.00 20.00     0.016 C 
HETATM    8  C4  UNL     1     -32.866  14.088  -3.589  1.00 20.00     0.016 C 
ENDBRANCH   4   5
ENDBRANCH   2   4
TORSDOF 2
ENDMDL
MODEL 6
REMARK VINA RESULT:      -3.4     11.346     11.965
REMARK  2 active torsions:
REMARK  status: ('A' for Active; 'I' for Inactive)
REMARK    1  A    between atoms: C5_5  and  C6_6 
REMARK    2  A    between atoms: C5_5  and  N7_7 
ROOT
HETATM    1  C1  UNL     1     -34.363  16.707  -1.252  1.00 20.00     0.157 C 
HETATM    2  N7  UNL     1     -33.990  16.239  -2.262  1.00 20.00    -0.275 NA
HETATM    3  S8  UNL     1     -34.842  17.357   0.121  1.00 20.00    -0.055 SA
ENDROOT
BRANCH   2   4
HETATM    4  C5  UNL     1     -34.936  15.319  -2.900  1.00 20.00     0.158 C 
BRANCH   4   5
HETATM    5  C6  UNL     1     -34.261  14.534  -4.045  1.00 20.00    -0.033 C 
HETATM    6  C2  UNL     1     -35.089  13.292  -4.415  1.00 20.00     0.016 C 
HETATM    7  C3  UNL     1     -32.870  14.077  -3.569  1.00 20.00     0.016 C 
HETATM    8  C4  UNL     1     -34.090  15.423  -5.288  1.00 20.00     0.016 C 
ENDBRANCH   4   5
ENDBRANCH   2   4
TORSDOF 2
ENDMDL
MODEL 7
REMARK VINA RESULT:      -3.3     12.010     13.059
REMARK  2 active torsions:
REMARK  status: ('A' for Active; 'I' for Inactive)
REMARK    1  A    between atoms: C5_5  and  C6_6 
REMARK    2  A    between atoms: C5_5  and  N7_7 
ROOT
HETATM    1  C1  UNL     1     -33.464  17.739  -5.505  1.00 20.00     0.157 C 
HETATM    2  N7  UNL     1     -33.107  16.666  -5.186  1.00 20.00    -0.275 NA
HETATM    3  S8  UNL     1     -33.920  19.202  -5.935  1.00 20.00    -0.055 SA
ENDROOT
BRANCH   2   4
HETATM    4  C5  UNL     1     -34.172  15.661  -5.107  1.00 20.00     0.158 C 
BRANCH   4   5
HETATM    5  C6  UNL     1     -34.045  14.820  -3.819  1.00 20.00    -0.033 C 
HETATM    6  C2  UNL     1     -34.610  15.586  -2.611  1.00 20.00     0.016 C 
HETATM    7  C3  UNL     1     -32.554  14.532  -3.569  1.00 20.00     0.016 C 
HETATM    8  C4  UNL     1     -34.789  13.482  -3.968  1.00 20.00     0.016 C 
ENDBRANCH   4   5
ENDBRANCH   2   4
TORSDOF 2
ENDMDL
MODEL 8
REMARK VINA RESULT:      -3.2     11.546     12.396
REMARK  2 active torsions:
REMARK  status: ('A' for Active; 'I' for Inactive)
REMARK    1  A    between atoms: C5_5  and  C6_6 
REMARK    2  A    between atoms: C5_5  and  N7_7 
ROOT
HETATM    1  C1  UNL     1     -38.040  14.746  -3.925  1.00 20.00     0.157 C 
HETATM    2  N7  UNL     1     -36.976  14.765  -3.429  1.00 20.00    -0.275 NA
HETATM    3  S8  UNL     1     -39.494  14.735  -4.573  1.00 20.00    -0.055 SA
ENDROOT
BRANCH   2   4
HETATM    4  C5  UNL     1     -35.925  14.092  -4.200  1.00 20.00     0.158 C 
BRANCH   4   5
HETATM    5  C6  UNL     1     -34.549  14.743  -3.947  1.00 20.00    -0.033 C 
HETATM    6  C2  UNL     1     -33.462  13.668  -3.777  1.00 20.00     0.016 C 
HETATM    7  C3  UNL     1     -34.631  15.573  -2.654  1.00 20.00     0.016 C 
HETATM    8  C4  UNL     1     -34.166  15.676  -5.109  1.00 20.00     0.016 C 
ENDBRANCH   4   5
ENDBRANCH   2   4
TORSDOF 2
ENDMDL
MODEL 9
REMARK VINA RESULT:      -3.2     11.838     12.564
REMARK  2 active torsions:
REMARK  status: ('A' for Active; 'I' for Inactive)
REMARK    1  A    between atoms: C5_5  and  C6_6 
REMARK    2  A    between atoms: C5_5  and  N7_7 
ROOT
HETATM    1  C1  UNL     1     -38.017  14.750  -3.798  1.00 20.00     0.157 C 
HETATM    2  N7  UNL     1     -36.982  14.201  -3.876  1.00 20.00    -0.275 NA
HETATM    3  S8  UNL     1     -39.435  15.468  -3.701  1.00 20.00    -0.055 SA
ENDROOT
BRANCH   2   4
HETATM    4  C5  UNL     1     -35.821  15.027  -3.530  1.00 20.00     0.158 C 
BRANCH   4   5
HETATM    5  C6  UNL     1     -34.603  14.665  -4.408  1.00 20.00    -0.033 C 
HETATM    6  C2  UNL     1     -33.290  14.963  -3.664  1.00 20.00     0.016 C 
HETATM    7  C3  UNL     1     -34.651  15.521  -5.686  1.00 20.00     0.016 C 
HETATM    8  C4  UNL     1     -34.639  13.180  -4.804  1.00 20.00     0.016 C 
ENDBRANCH   4   5
ENDBRANCH   2   4
TORSDOF 2
ENDMDL
