MODEL 1
REMARK VINA RESULT:      -4.1      0.000      0.000
REMARK  5 active torsions:
REMARK  status: ('A' for Active; 'I' for Inactive)
REMARK    1  A    between atoms: C1_1  and  C6_6 
REMARK    2  A    between atoms: C2_2  and  C7_7 
REMARK    3  A    between atoms: C2_2  and  C8_8 
REMARK    4  A    between atoms: C7_7  and  C9_9 
REMARK    5  A    between atoms: C8_8  and  C10_10 
ROOT
HETATM    1  C1  UNL     1     -34.127  17.140  -4.164  1.00 20.00    -0.024 C 
HETATM    2  C2  UNL     1     -33.835  16.111  -3.344  1.00 20.00    -0.084 C 
ENDROOT
BRANCH   2   3
HETATM    3  C7  UNL     1     -34.487  16.026  -1.978  1.00 20.00     0.033 C 
BRANCH   3   4
HETATM    4  C9  UNL     1     -34.022  17.143  -1.041  1.00 20.00    -0.000 C 
HETATM    5  C4  UNL     1     -34.914  17.244   0.186  1.00 20.00     0.005 C 
ENDBRANCH   3   4
ENDBRANCH   2   3
BRANCH   2   6
HETATM    6  C8  UNL     1     -32.876  14.996  -3.698  1.00 20.00     0.033 C 
BRANCH   6   7
HETATM    7  C10 UNL     1     -33.554  13.625  -3.675  1.00 20.00    -0.000 C 
HETATM    8  C5  UNL     1     -34.482  13.444  -4.866  1.00 20.00     0.005 C 
ENDBRANCH   6   7
ENDBRANCH   2   6
BRANCH   1   9
HETATM    9  C6  UNL     1     -33.555  17.411  -5.526  1.00 20.00     0.023 C 
HETATM   10  C3  UNL     1     -34.408  16.786  -6.618  1.00 20.00     0.009 C 
ENDBRANCH   1   9
TORSDOF 5
ENDMDL
MODEL 2
REMARK VINA RESULT:      -4.1      1.468      4.100
REMARK  5 active torsions:
REMARK  status: ('A' for Active; 'I' for Inactive)
REMARK    1  A    between atoms: C1_1  and  C6_6 
REMARK    2  A    between atoms: C2_2  and  C7_7 
REMARK    3  A    between atoms: C2_2  and  C8_8 
REMARK    4  A    between atoms: C7_7  and  C9_9 
REMARK    5  A    between atoms: C8_8  and  C10_10 
ROOT
HETATM    1  C1  UNL     1     -34.807  15.833  -2.066  1.00 20.00    -0.024 C 
HETATM    2  C2  UNL     1     -34.357  15.221  -3.180  1.00 20.00    -0.084 C 
ENDROOT
BRANCH   2   3
HETATM    3  C7  UNL     1     -35.184  14.125  -3.824  1.00 20.00     0.033 C 
BRANCH   3   4
HETATM    4  C9  UNL     1     -36.650  14.528  -3.998  1.00 20.00    -0.000 C 
HETATM    5  C4  UNL     1     -36.869  15.272  -5.306  1.00 20.00     0.005 C 
ENDBRANCH   3   4
ENDBRANCH   2   3
BRANCH   2   6
HETATM    6  C8  UNL     1     -33.048  15.559  -3.858  1.00 20.00     0.033 C 
BRANCH   6   7
HETATM    7  C10 UNL     1     -33.260  16.287  -5.187  1.00 20.00    -0.000 C 
HETATM    8  C5  UNL     1     -33.570  17.760  -4.968  1.00 20.00     0.005 C 
ENDBRANCH   6   7
ENDBRANCH   2   6
BRANCH   1   9
HETATM    9  C6  UNL     1     -34.114  16.903  -1.271  1.00 20.00     0.023 C 
HETATM   10  C3  UNL     1     -34.847  17.185   0.031  1.00 20.00     0.009 C 
ENDBRANCH   1   9
TORSDOF 5
ENDMDL
MODEL 3
REMARK VINA RESULT:      -4.1      0.870      2.705
REMARK  5 active torsions:
REMARK  status: ('A' for Active; 'I' for Inactive)
REMARK    1  A    between atoms: C1_1  and  C6_6 
REMARK    2  A    between atoms: C2_2  and  C7_7 
REMARK    3  A    between atoms: C2_2  and  C8_8 
REMARK    4  A    between atoms: C7_7  and  C9_9 
REMARK    5  A    between atoms: C8_8  and  C10_10 
ROOT
HETATM    1  C1  UNL     1     -33.860  14.761  -3.093  1.00 20.00    -0.024 C 
HETATM    2  C2  UNL     1     -33.680  16.068  -3.370  1.00 20.00    -0.084 C 
ENDROOT
BRANCH   2   3
HETATM    3  C7  UNL     1     -33.917  17.107  -2.291  1.00 20.00     0.033 C 
BRANCH   3   4
HETATM    4  C9  UNL     1     -34.642  16.528  -1.074  1.00 20.00    -0.000 C 
HETATM    5  C4  UNL     1     -34.593  17.485   0.107  1.00 20.00     0.005 C 
ENDBRANCH   3   4
ENDBRANCH   2   3
BRANCH   2   6
HETATM    6  C8  UNL     1     -33.243  16.592  -4.720  1.00 20.00     0.033 C 
BRANCH   6   7
HETATM    7  C10 UNL     1     -34.430  16.839  -5.653  1.00 20.00    -0.000 C 
HETATM    8  C5  UNL     1     -34.319  16.007  -6.921  1.00 20.00     0.005 C 
ENDBRANCH   6   7
ENDBRANCH   2   6
BRANCH   1   9
HETATM    9  C6  UNL     1     -33.713  13.601  -4.036  1.00 20.00     0.023 C 
HETATM   10  C3  UNL     1     -35.056  13.183  -4.612  1.00 20.00     0.009 C 
ENDBRANCH   1   9
TORSDOF 5
ENDMDL
MODEL 4
REMARK VINA RESULT:      -4.1      1.087      3.946
REMARK  5 active torsions:
REMARK  status: ('A' for Active; 'I' for Inactive)
REMARK    1  A    between atoms: C1_1  and  C6_6 
REMARK    2  A    between atoms: C2_2  and  C7_7 
REMARK    3  A    between atoms: C2_2  and  C8_8 
REMARK    4  A    between atoms: C7_7  and  C9_9 
REMARK    5  A    between atoms: C8_8  and  C10_10 
ROOT
HETATM    1  C1  UNL     1     -33.965  16.540  -2.513  1.00 20.00    -0.024 C 
HETATM    2  C2  UNL     1     -33.718  15.596  -3.443  1.00 20.00    -0.084 C 
ENDROOT
BRANCH   2   3
HETATM    3  C7  UNL     1     -32.995  15.968  -4.723  1.00 20.00     0.033 C 
BRANCH   3   4
HETATM    4  C9  UNL     1     -33.731  17.053  -5.513  1.00 20.00    -0.000 C 
HETATM    5  C4  UNL     1     -34.390  16.480  -6.758  1.00 20.00     0.005 C 
ENDBRANCH   3   4
ENDBRANCH   2   3
BRANCH   2   6
HETATM    6  C8  UNL     1     -34.119  14.145  -3.300  1.00 20.00     0.033 C 
BRANCH   6   7
HETATM    7  C10 UNL     1     -35.157  13.729  -4.344  1.00 20.00    -0.000 C 
HETATM    8  C5  UNL     1     -36.493  14.413  -4.101  1.00 20.00     0.005 C 
ENDBRANCH   6   7
ENDBRANCH   2   6
BRANCH   1   9
HETATM    9  C6  UNL     1     -34.697  16.369  -1.213  1.00 20.00     0.023 C 
HETATM   10  C3  UNL     1     -34.324  17.459  -0.221  1.00 20.00     0.009 C 
ENDBRANCH   1   9
TORSDOF 5
ENDMDL
MODEL 5
REMARK VINA RESULT:      -4.1     11.205     13.181
REMARK  5 active torsions:
REMARK  status: ('A' for Active; 'I' for Inactive)
REMARK    1  A    between atoms: C1_1  and  C6_6 
REMARK    2  A    between atoms: C2_2  and  C7_7 
REMARK    3  A    between atoms: C2_2  and  C8_8 
REMARK    4  A    between atoms: C7_7  and  C9_9 
REMARK    5  A    between atoms: C8_8  and  C10_10 
ROOT
HETATM    1  C1  UNL     1     -33.303   6.708   5.172  1.00 20.00    -0.024 C 
HETATM    2  C2  UNL     1     -33.753   6.140   4.035  1.00 20.00    -0.084 C 
ENDROOT
BRANCH   2   3
HETATM    3  C7  UNL     1     -32.912   6.205   2.775  1.00 20.00     0.033 C 
BRANCH   3   4
HETATM    4  C9  UNL     1     -31.852   7.308   2.839  1.00 20.00    -0.000 C 
HETATM    5  C4  UNL     1     -32.149   8.419   1.844  1.00 20.00     0.005 C 
ENDBRANCH   3   4
ENDBRANCH   2   3
BRANCH   2   6
HETATM    6  C8  UNL     1     -35.077   5.417   3.919  1.00 20.00     0.033 C 
BRANCH   6   7
HETATM    7  C10 UNL     1     -35.000   3.987   4.458  1.00 20.00    -0.000 C 
HETATM    8  C5  UNL     1     -35.203   3.951   5.965  1.00 20.00     0.005 C 
ENDBRANCH   6   7
ENDBRANCH   2   6
BRANCH   1   9
HETATM    9  C6  UNL     1     -34.008   6.779   6.496  1.00 20.00     0.023 C 
HETATM   10  C3  UNL     1     -33.345   7.786   7.422  1.00 20.00     0.009 C 
ENDBRANCH   1   9
TORSDOF 5
ENDMDL
MODEL 6
REMARK VINA RESULT:      -4.0      0.512      4.177
REMARK  5 active torsions:
REMARK  status: ('A' for Active; 'I' for Inactive)
REMARK    1  A    between atoms: C1_1  and  C6_6 
REMARK    2  A    between atoms: C2_2  and  C7_7 
REMARK    3  A    between atoms: C2_2  and  C8_8 
REMARK    4  A    between atoms: C7_7  and  C9_9 
REMARK    5  A    between atoms: C8_8  and  C10_10 
ROOT
HETATM    1  C1  UNL     1     -34.428  16.018  -2.040  1.00 20.00    -0.024 C 
HETATM    2  C2  UNL     1     -33.719  16.124  -3.181  1.00 20.00    -0.084 C 
ENDROOT
BRANCH   2   3
HETATM    3  C7  UNL     1     -32.949  14.928  -3.706  1.00 20.00     0.033 C 
BRANCH   3   4
HETATM    4  C9  UNL     1     -33.778  13.641  -3.671  1.00 20.00    -0.000 C 
HETATM    5  C4  UNL     1     -34.592  13.472  -4.945  1.00 20.00     0.005 C 
ENDBRANCH   3   4
ENDBRANCH   2   3
BRANCH   2   6
HETATM    6  C8  UNL     1     -33.633  17.389  -4.007  1.00 20.00     0.033 C 
BRANCH   6   7
HETATM    7  C10 UNL     1     -33.534  17.093  -5.504  1.00 20.00    -0.000 C 
HETATM    8  C5  UNL     1     -34.911  17.004  -6.144  1.00 20.00     0.005 C 
ENDBRANCH   6   7
ENDBRANCH   2   6
BRANCH   1   9
HETATM    9  C6  UNL     1     -35.215  17.096  -1.352  1.00 20.00     0.023 C 
HETATM   10  C3  UNL     1     -34.813  17.227   0.109  1.00 20.00     0.009 C 
ENDBRANCH   1   9
TORSDOF 5
ENDMDL
MODEL 7
REMARK VINA RESULT:      -4.0      0.930      3.456
REMARK  5 active torsions:
REMARK  status: ('A' for Active; 'I' for Inactive)
REMARK    1  A    between atoms: C1_1  and  C6_6 
REMARK    2  A    between atoms: C2_2  and  C7_7 
REMARK    3  A    between atoms: C2_2  and  C8_8 
REMARK    4  A    between atoms: C7_7  and  C9_9 
REMARK    5  A    between atoms: C8_8  and  C10_10 
ROOT
HETATM    1  C1  UNL     1     -33.374  16.350  -5.106  1.00 20.00    -0.024 C 
HETATM    2  C2  UNL     1     -33.401  15.855  -3.853  1.00 20.00    -0.084 C 
ENDROOT
BRANCH   2   3
HETATM    3  C7  UNL     1     -33.240  14.364  -3.626  1.00 20.00     0.033 C 
BRANCH   3   4
HETATM    4  C9  UNL     1     -34.102  13.534  -4.581  1.00 20.00    -0.000 C 
HETATM    5  C4  UNL     1     -35.571  13.590  -4.192  1.00 20.00     0.005 C 
ENDBRANCH   3   4
ENDBRANCH   2   3
BRANCH   2   6
HETATM    6  C8  UNL     1     -33.583  16.704  -2.614  1.00 20.00     0.033 C 
BRANCH   6   7
HETATM    7  C10 UNL     1     -34.710  16.183  -1.720  1.00 20.00    -0.000 C 
HETATM    8  C5  UNL     1     -34.728  16.898  -0.378  1.00 20.00     0.005 C 
ENDBRANCH   6   7
ENDBRANCH   2   6
BRANCH   1   9
HETATM    9  C6  UNL     1     -33.554  17.780  -5.526  1.00 20.00     0.023 C 
HETATM   10  C3  UNL     1     -35.016  18.097  -5.795  1.00 20.00     0.009 C 
ENDBRANCH   1   9
TORSDOF 5
ENDMDL
MODEL 8
REMARK VINA RESULT:      -3.8     10.992     13.100
REMARK  5 active torsions:
REMARK  status: ('A' for Active; 'I' for Inactive)
REMARK    1  A    between atoms: C1_1  and  C6_6 
REMARK    2  A    between atoms: C2_2  and  C7_7 
REMARK    3  A    between atoms: C2_2  and  C8_8 
REMARK    4  A    between atoms: C7_7  and  C9_9 
REMARK    5  A    between atoms: C8_8  and  C10_10 
ROOT
HETATM    1  C1  UNL     1     -34.320   5.091   3.592  1.00 20.00    -0.024 C 
HETATM    2  C2  UNL     1     -33.495   6.142   3.769  1.00 20.00    -0.084 C 
ENDROOT
BRANCH   2   3
HETATM    3  C7  UNL     1     -32.296   6.322   2.858  1.00 20.00     0.033 C 
BRANCH   3   4
HETATM    4  C9  UNL     1     -31.749   7.751   2.890  1.00 20.00    -0.000 C 
HETATM    5  C4  UNL     1     -32.069   8.495   1.603  1.00 20.00     0.005 C 
ENDBRANCH   3   4
ENDBRANCH   2   3
BRANCH   2   6
HETATM    6  C8  UNL     1     -33.683   7.192   4.841  1.00 20.00     0.033 C 
BRANCH   6   7
HETATM    7  C10 UNL     1     -33.325   6.666   6.232  1.00 20.00    -0.000 C 
HETATM    8  C5  UNL     1     -33.647   7.687   7.311  1.00 20.00     0.005 C 
ENDBRANCH   6   7
ENDBRANCH   2   6
BRANCH   1   9
HETATM    9  C6  UNL     1     -35.524   4.730   4.413  1.00 20.00     0.023 C 
HETATM   10  C3  UNL     1     -35.132   3.942   5.653  1.00 20.00     0.009 C 
ENDBRANCH   1   9
TORSDOF 5
ENDMDL
MODEL 9
REMARK VINA RESULT:      -3.8      1.726      2.180
REMARK  5 active torsions:
REMARK  status: ('A' for Active; 'I' for Inactive)
REMARK    1  A    between atoms: C1_1  and  C6_6 
REMARK    2  A    between atoms: C2_2  and  C7_7 
REMARK    3  A    between atoms: C2_2  and  C8_8 
REMARK    4  A    between atoms: C7_7  and  C9_9 
REMARK    5  A    between atoms: C8_8  and  C10_10 
ROOT
HETATM    1  C1  UNL     1     -35.924  16.437  -2.993  1.00 20.00    -0.024 C 
HETATM    2  C2  UNL     1     -34.608  16.176  -2.872  1.00 20.00    -0.084 C 
ENDROOT
BRANCH   2   3
HETATM    3  C7  UNL     1     -33.847  16.677  -1.660  1.00 20.00     0.033 C 
BRANCH   3   4
HETATM    4  C9  UNL     1     -34.750  16.850  -0.436  1.00 20.00    -0.000 C 
HETATM    5  C4  UNL     1     -34.268  17.987   0.451  1.00 20.00     0.005 C 
ENDBRANCH   3   4
ENDBRANCH   2   3
BRANCH   2   6
HETATM    6  C8  UNL     1     -33.807  15.390  -3.887  1.00 20.00     0.033 C 
BRANCH   6   7
HETATM    7  C10 UNL     1     -33.885  13.883  -3.640  1.00 20.00    -0.000 C 
HETATM    8  C5  UNL     1     -34.550  13.164  -4.803  1.00 20.00     0.005 C 
ENDBRANCH   6   7
ENDBRANCH   2   6
BRANCH   1   9
HETATM    9  C6  UNL     1     -36.828  16.060  -4.131  1.00 20.00     0.023 C 
HETATM   10  C3  UNL     1     -37.735  14.898  -3.755  1.00 20.00     0.009 C 
ENDBRANCH   1   9
TORSDOF 5
ENDMDL
