MODEL 1
REMARK VINA RESULT:      -5.1      0.000      0.000
REMARK  3 active torsions:
REMARK  status: ('A' for Active; 'I' for Inactive)
REMARK    1  A    between atoms: C3_3  and  C5_5 
REMARK    2  A    between atoms: C4_4  and  C6_6 
REMARK    3  A    between atoms: C5_5  and  C6_6 
ROOT
HETATM    1  C1  UNL     1     -32.116   7.890   2.365  1.00 20.00     0.059 C 
HETATM    2  C4  UNL     1     -32.158   6.905   3.453  1.00 20.00     0.124 C 
HETATM    3  N7  UNL     1     -32.080   8.669   1.505  1.00 20.00    -0.197 NA
ENDROOT
BRANCH   2   4
HETATM    4  C6  UNL     1     -33.164   5.785   3.182  1.00 20.00     0.020 C 
BRANCH   4   5
HETATM    5  C5  UNL     1     -34.510   6.014   3.883  1.00 20.00     0.051 C 
BRANCH   5   6
HETATM    6  C3  UNL     1     -34.519   5.480   5.287  1.00 20.00     0.002 C 
HETATM    7  C2  UNL     1     -34.842   4.221   5.608  1.00 20.00     0.032 C 
HETATM    8 CL8  UNL     1     -34.023   6.585   6.524  1.00 20.00    -0.090 Cl
ENDBRANCH   5   6
ENDBRANCH   4   5
ENDBRANCH   2   4
TORSDOF 3
ENDMDL
MODEL 2
REMARK VINA RESULT:      -5.0      1.159      1.340
REMARK  3 active torsions:
REMARK  status: ('A' for Active; 'I' for Inactive)
REMARK    1  A    between atoms: C3_3  and  C5_5 
REMARK    2  A    between atoms: C4_4  and  C6_6 
REMARK    3  A    between atoms: C5_5  and  C6_6 
ROOT
HETATM    1  C1  UNL     1     -32.093   7.923   2.321  1.00 20.00     0.059 C 
HETATM    2  C4  UNL     1     -32.111   6.927   3.400  1.00 20.00     0.124 C 
HETATM    3  N7  UNL     1     -32.075   8.711   1.468  1.00 20.00    -0.197 NA
ENDROOT
BRANCH   2   4
HETATM    4  C6  UNL     1     -33.165   5.842   3.168  1.00 20.00     0.020 C 
BRANCH   4   5
HETATM    5  C5  UNL     1     -34.467   6.108   3.935  1.00 20.00     0.051 C 
BRANCH   5   6
HETATM    6  C3  UNL     1     -34.406   5.611   5.351  1.00 20.00     0.002 C 
HETATM    7  C2  UNL     1     -34.062   6.371   6.398  1.00 20.00     0.032 C 
HETATM    8 CL8  UNL     1     -34.870   3.962   5.599  1.00 20.00    -0.090 Cl
ENDBRANCH   5   6
ENDBRANCH   4   5
ENDBRANCH   2   4
TORSDOF 3
ENDMDL
MODEL 3
REMARK VINA RESULT:      -4.2      3.063      4.266
REMARK  3 active torsions:
REMARK  status: ('A' for Active; 'I' for Inactive)
REMARK    1  A    between atoms: C3_3  and  C5_5 
REMARK    2  A    between atoms: C4_4  and  C6_6 
REMARK    3  A    between atoms: C5_5  and  C6_6 
ROOT
HETATM    1  C1  UNL     1     -34.837   4.479   5.583  1.00 20.00     0.059 C 
HETATM    2  C4  UNL     1     -34.495   5.653   6.398  1.00 20.00     0.124 C 
HETATM    3  N7  UNL     1     -35.109   3.552   4.941  1.00 20.00    -0.197 NA
ENDROOT
BRANCH   2   4
HETATM    4  C6  UNL     1     -33.672   6.680   5.617  1.00 20.00     0.020 C 
BRANCH   4   5
HETATM    5  C5  UNL     1     -34.018   6.704   4.122  1.00 20.00     0.051 C 
BRANCH   5   6
HETATM    6  C3  UNL     1     -32.796   6.605   3.253  1.00 20.00     0.002 C 
HETATM    7  C2  UNL     1     -32.123   5.469   3.032  1.00 20.00     0.032 C 
HETATM    8 CL8  UNL     1     -32.301   8.067   2.470  1.00 20.00    -0.090 Cl
ENDBRANCH   5   6
ENDBRANCH   4   5
ENDBRANCH   2   4
TORSDOF 3
ENDMDL
MODEL 4
REMARK VINA RESULT:      -4.1      3.005      4.589
REMARK  3 active torsions:
REMARK  status: ('A' for Active; 'I' for Inactive)
REMARK    1  A    between atoms: C3_3  and  C5_5 
REMARK    2  A    between atoms: C4_4  and  C6_6 
REMARK    3  A    between atoms: C5_5  and  C6_6 
ROOT
HETATM    1  C1  UNL     1     -35.072   4.579   5.037  1.00 20.00     0.059 C 
HETATM    2  C4  UNL     1     -35.034   5.369   3.799  1.00 20.00     0.124 C 
HETATM    3  N7  UNL     1     -35.103   3.953   6.013  1.00 20.00    -0.197 NA
ENDROOT
BRANCH   2   4
HETATM    4  C6  UNL     1     -34.022   6.514   3.874  1.00 20.00     0.020 C 
BRANCH   4   5
HETATM    5  C5  UNL     1     -32.809   6.295   2.959  1.00 20.00     0.051 C 
BRANCH   5   6
HETATM    6  C3  UNL     1     -31.982   7.540   2.802  1.00 20.00     0.002 C 
HETATM    7  C2  UNL     1     -32.008   8.325   1.718  1.00 20.00     0.032 C 
HETATM    8 CL8  UNL     1     -30.992   7.969   4.154  1.00 20.00    -0.090 Cl
ENDBRANCH   5   6
ENDBRANCH   4   5
ENDBRANCH   2   4
TORSDOF 3
ENDMDL
MODEL 5
REMARK VINA RESULT:      -4.1      3.349      4.668
REMARK  3 active torsions:
REMARK  status: ('A' for Active; 'I' for Inactive)
REMARK    1  A    between atoms: C3_3  and  C5_5 
REMARK    2  A    between atoms: C4_4  and  C6_6 
REMARK    3  A    between atoms: C5_5  and  C6_6 
ROOT
HETATM    1  C1  UNL     1     -35.068   4.554   5.062  1.00 20.00     0.059 C 
HETATM    2  C4  UNL     1     -35.053   5.321   3.810  1.00 20.00     0.124 C 
HETATM    3  N7  UNL     1     -35.081   3.945   6.050  1.00 20.00    -0.197 NA
ENDROOT
BRANCH   2   4
HETATM    4  C6  UNL     1     -34.077   6.499   3.865  1.00 20.00     0.020 C 
BRANCH   4   5
HETATM    5  C5  UNL     1     -32.827   6.275   3.004  1.00 20.00     0.051 C 
BRANCH   5   6
HETATM    6  C3  UNL     1     -31.940   7.487   2.961  1.00 20.00     0.002 C 
HETATM    7  C2  UNL     1     -31.138   7.865   3.965  1.00 20.00     0.032 C 
HETATM    8 CL8  UNL     1     -31.951   8.385   1.483  1.00 20.00    -0.090 Cl
ENDBRANCH   5   6
ENDBRANCH   4   5
ENDBRANCH   2   4
TORSDOF 3
ENDMDL
MODEL 6
REMARK VINA RESULT:      -4.0      2.549      4.051
REMARK  3 active torsions:
REMARK  status: ('A' for Active; 'I' for Inactive)
REMARK    1  A    between atoms: C3_3  and  C5_5 
REMARK    2  A    between atoms: C4_4  and  C6_6 
REMARK    3  A    between atoms: C5_5  and  C6_6 
ROOT
HETATM    1  C1  UNL     1     -34.115   6.209   5.762  1.00 20.00     0.059 C 
HETATM    2  C4  UNL     1     -34.492   5.347   4.634  1.00 20.00     0.124 C 
HETATM    3  N7  UNL     1     -33.817   6.888   6.655  1.00 20.00    -0.197 NA
ENDROOT
BRANCH   2   4
HETATM    4  C6  UNL     1     -34.026   5.914   3.291  1.00 20.00     0.020 C 
BRANCH   4   5
HETATM    5  C5  UNL     1     -32.497   5.945   3.159  1.00 20.00     0.051 C 
BRANCH   5   6
HETATM    6  C3  UNL     1     -31.964   7.345   3.039  1.00 20.00     0.002 C 
HETATM    7  C2  UNL     1     -32.151   8.129   1.970  1.00 20.00     0.032 C 
HETATM    8 CL8  UNL     1     -31.110   7.953   4.415  1.00 20.00    -0.090 Cl
ENDBRANCH   5   6
ENDBRANCH   4   5
ENDBRANCH   2   4
TORSDOF 3
ENDMDL
MODEL 7
REMARK VINA RESULT:      -3.8     10.996     11.700
REMARK  3 active torsions:
REMARK  status: ('A' for Active; 'I' for Inactive)
REMARK    1  A    between atoms: C3_3  and  C5_5 
REMARK    2  A    between atoms: C4_4  and  C6_6 
REMARK    3  A    between atoms: C5_5  and  C6_6 
ROOT
HETATM    1  C1  UNL     1     -34.083  13.661  -4.049  1.00 20.00     0.059 C 
HETATM    2  C4  UNL     1     -33.150  14.687  -3.565  1.00 20.00     0.124 C 
HETATM    3  N7  UNL     1     -34.818  12.849  -4.430  1.00 20.00    -0.197 NA
ENDROOT
BRANCH   2   4
HETATM    4  C6  UNL     1     -33.855  16.009  -3.252  1.00 20.00     0.020 C 
BRANCH   4   5
HETATM    5  C5  UNL     1     -34.624  15.971  -1.925  1.00 20.00     0.051 C 
BRANCH   5   6
HETATM    6  C3  UNL     1     -34.250  17.109  -1.017  1.00 20.00     0.002 C 
HETATM    7  C2  UNL     1     -33.378  18.072  -1.342  1.00 20.00     0.032 C 
HETATM    8 CL8  UNL     1     -35.064  17.163   0.509  1.00 20.00    -0.090 Cl
ENDBRANCH   5   6
ENDBRANCH   4   5
ENDBRANCH   2   4
TORSDOF 3
ENDMDL
MODEL 8
REMARK VINA RESULT:      -3.8     11.373     11.833
REMARK  3 active torsions:
REMARK  status: ('A' for Active; 'I' for Inactive)
REMARK    1  A    between atoms: C3_3  and  C5_5 
REMARK    2  A    between atoms: C4_4  and  C6_6 
REMARK    3  A    between atoms: C5_5  and  C6_6 
ROOT
HETATM    1  C1  UNL     1     -34.034  13.702  -4.089  1.00 20.00     0.059 C 
HETATM    2  C4  UNL     1     -33.027  14.729  -3.792  1.00 20.00     0.124 C 
HETATM    3  N7  UNL     1     -34.827  12.888  -4.324  1.00 20.00    -0.197 NA
ENDROOT
BRANCH   2   4
HETATM    4  C6  UNL     1     -33.661  16.050  -3.350  1.00 20.00     0.020 C 
BRANCH   4   5
HETATM    5  C5  UNL     1     -34.464  15.916  -2.049  1.00 20.00     0.051 C 
BRANCH   5   6
HETATM    6  C3  UNL     1     -34.309  17.115  -1.157  1.00 20.00     0.002 C 
HETATM    7  C2  UNL     1     -34.794  17.192   0.089  1.00 20.00     0.032 C 
HETATM    8 CL8  UNL     1     -33.392  18.431  -1.807  1.00 20.00    -0.090 Cl
ENDBRANCH   5   6
ENDBRANCH   4   5
ENDBRANCH   2   4
TORSDOF 3
ENDMDL
MODEL 9
REMARK VINA RESULT:      -3.8      3.110      4.755
REMARK  3 active torsions:
REMARK  status: ('A' for Active; 'I' for Inactive)
REMARK    1  A    between atoms: C3_3  and  C5_5 
REMARK    2  A    between atoms: C4_4  and  C6_6 
REMARK    3  A    between atoms: C5_5  and  C6_6 
ROOT
HETATM    1  C1  UNL     1     -34.520   5.439   4.443  1.00 20.00     0.059 C 
HETATM    2  C4  UNL     1     -33.485   6.480   4.397  1.00 20.00     0.124 C 
HETATM    3  N7  UNL     1     -35.339   4.617   4.480  1.00 20.00    -0.197 NA
ENDROOT
BRANCH   2   4
HETATM    4  C6  UNL     1     -32.810   6.566   3.027  1.00 20.00     0.020 C 
BRANCH   4   5
HETATM    5  C5  UNL     1     -31.788   7.708   2.939  1.00 20.00     0.051 C 
BRANCH   5   6
HETATM    6  C3  UNL     1     -32.036   8.606   1.761  1.00 20.00     0.002 C 
HETATM    7  C2  UNL     1     -31.730   8.287   0.497  1.00 20.00     0.032 C 
HETATM    8 CL8  UNL     1     -32.816  10.112   2.104  1.00 20.00    -0.090 Cl
ENDBRANCH   5   6
ENDBRANCH   4   5
ENDBRANCH   2   4
TORSDOF 3
ENDMDL
