MODEL 1
REMARK VINA RESULT:      -4.2      0.000      0.000
REMARK  4 active torsions:
REMARK  status: ('A' for Active; 'I' for Inactive)
REMARK    1  A    between atoms: C1_1  and  C6_6 
REMARK    2  A    between atoms: C6_6  and  C8_8 
REMARK    3  A    between atoms: C7_7  and  C8_8 
REMARK    4  A    between atoms: C7_7  and  C9_9 
ROOT
HETATM    1  C2  UNL     1     -34.426  16.301  -1.689  1.00 20.00     0.010 C 
HETATM    2  C8  UNL     1     -34.571  15.895  -3.161  1.00 20.00    -0.010 C 
ENDROOT
BRANCH   2   3
HETATM    3  C6  UNL     1     -34.187  14.406  -3.288  1.00 20.00     0.100 C 
BRANCH   3   4
HETATM    4  C1  UNL     1     -35.189  13.587  -4.087  1.00 20.00     0.219 C 
HETATM    5  O10 UNL     1     -34.881  12.570  -4.699  1.00 20.00    -0.280 OA
HETATM    6 CL11 UNL     1     -36.776  14.305  -4.058  1.00 20.00    -0.044 Cl
ENDBRANCH   3   4
ENDBRANCH   2   3
BRANCH   2   7
HETATM    7  C7  UNL     1     -33.676  16.772  -4.076  1.00 20.00     0.013 C 
BRANCH   7   8
HETATM    8  C9  UNL     1     -34.287  17.251  -5.425  1.00 20.00    -0.051 C 
HETATM    9  C3  UNL     1     -35.781  17.553  -5.189  1.00 20.00     0.014 C 
HETATM   10  C4  UNL     1     -34.178  16.191  -6.530  1.00 20.00     0.014 C 
HETATM   11  C5  UNL     1     -33.607  18.547  -5.904  1.00 20.00     0.014 C 
ENDBRANCH   7   8
ENDBRANCH   2   7
TORSDOF 4
ENDMDL
MODEL 2
REMARK VINA RESULT:      -4.2      0.052      1.313
REMARK  4 active torsions:
REMARK  status: ('A' for Active; 'I' for Inactive)
REMARK    1  A    between atoms: C1_1  and  C6_6 
REMARK    2  A    between atoms: C6_6  and  C8_8 
REMARK    3  A    between atoms: C7_7  and  C8_8 
REMARK    4  A    between atoms: C7_7  and  C9_9 
ROOT
HETATM    1  C2  UNL     1     -34.427  16.269  -1.679  1.00 20.00     0.010 C 
HETATM    2  C8  UNL     1     -34.565  15.876  -3.155  1.00 20.00    -0.010 C 
ENDROOT
BRANCH   2   3
HETATM    3  C6  UNL     1     -34.185  14.386  -3.292  1.00 20.00     0.100 C 
BRANCH   3   4
HETATM    4  C1  UNL     1     -35.189  13.577  -4.099  1.00 20.00     0.219 C 
HETATM    5  O10 UNL     1     -34.884  12.559  -4.712  1.00 20.00    -0.280 OA
HETATM    6 CL11 UNL     1     -36.771  14.307  -4.078  1.00 20.00    -0.044 Cl
ENDBRANCH   3   4
ENDBRANCH   2   3
BRANCH   2   7
HETATM    7  C7  UNL     1     -33.660  16.757  -4.057  1.00 20.00     0.013 C 
BRANCH   7   8
HETATM    8  C9  UNL     1     -34.288  17.317  -5.367  1.00 20.00    -0.051 C 
HETATM    9  C3  UNL     1     -34.124  16.248  -6.466  1.00 20.00     0.014 C 
HETATM   10  C4  UNL     1     -33.605  18.606  -5.843  1.00 20.00     0.014 C 
HETATM   11  C5  UNL     1     -35.793  17.585  -5.181  1.00 20.00     0.014 C 
ENDBRANCH   7   8
ENDBRANCH   2   7
TORSDOF 4
ENDMDL
MODEL 3
REMARK VINA RESULT:      -4.2      0.261      1.335
REMARK  4 active torsions:
REMARK  status: ('A' for Active; 'I' for Inactive)
REMARK    1  A    between atoms: C1_1  and  C6_6 
REMARK    2  A    between atoms: C6_6  and  C8_8 
REMARK    3  A    between atoms: C7_7  and  C8_8 
REMARK    4  A    between atoms: C7_7  and  C9_9 
ROOT
HETATM    1  C2  UNL     1     -34.097  16.427  -1.922  1.00 20.00     0.010 C 
HETATM    2  C8  UNL     1     -34.412  15.915  -3.333  1.00 20.00    -0.010 C 
ENDROOT
BRANCH   2   3
HETATM    3  C6  UNL     1     -34.088  14.406  -3.378  1.00 20.00     0.100 C 
BRANCH   3   4
HETATM    4  C1  UNL     1     -35.127  13.585  -4.127  1.00 20.00     0.219 C 
HETATM    5  O10 UNL     1     -34.847  12.571  -4.757  1.00 20.00    -0.280 OA
HETATM    6 CL11 UNL     1     -36.713  14.297  -4.014  1.00 20.00    -0.044 Cl
ENDBRANCH   3   4
ENDBRANCH   2   3
BRANCH   2   7
HETATM    7  C7  UNL     1     -33.593  16.683  -4.404  1.00 20.00     0.013 C 
BRANCH   7   8
HETATM    8  C9  UNL     1     -34.346  17.134  -5.690  1.00 20.00    -0.051 C 
HETATM    9  C3  UNL     1     -33.669  18.417  -6.212  1.00 20.00     0.014 C 
HETATM   10  C4  UNL     1     -35.826  17.443  -5.427  1.00 20.00     0.014 C 
HETATM   11  C5  UNL     1     -34.245  16.060  -6.788  1.00 20.00     0.014 C 
ENDBRANCH   7   8
ENDBRANCH   2   7
TORSDOF 4
ENDMDL
MODEL 4
REMARK VINA RESULT:      -4.1      2.142      3.093
REMARK  4 active torsions:
REMARK  status: ('A' for Active; 'I' for Inactive)
REMARK    1  A    between atoms: C1_1  and  C6_6 
REMARK    2  A    between atoms: C6_6  and  C8_8 
REMARK    3  A    between atoms: C7_7  and  C8_8 
REMARK    4  A    between atoms: C7_7  and  C9_9 
ROOT
HETATM    1  C2  UNL     1     -36.445  15.143  -3.303  1.00 20.00     0.010 C 
HETATM    2  C8  UNL     1     -34.980  15.582  -3.181  1.00 20.00    -0.010 C 
ENDROOT
BRANCH   2   3
HETATM    3  C6  UNL     1     -34.087  14.367  -3.513  1.00 20.00     0.100 C 
BRANCH   3   4
HETATM    4  C1  UNL     1     -34.467  13.672  -4.810  1.00 20.00     0.219 C 
HETATM    5  O10 UNL     1     -34.779  12.486  -4.864  1.00 20.00    -0.280 OA
HETATM    6 CL11 UNL     1     -34.348  14.747  -6.176  1.00 20.00    -0.044 Cl
ENDBRANCH   3   4
ENDBRANCH   2   3
BRANCH   2   7
HETATM    7  C7  UNL     1     -34.672  16.117  -1.758  1.00 20.00     0.013 C 
BRANCH   7   8
HETATM    8  C9  UNL     1     -34.434  17.648  -1.608  1.00 20.00    -0.051 C 
HETATM    9  C3  UNL     1     -35.770  18.298  -1.196  1.00 20.00     0.014 C 
HETATM   10  C4  UNL     1     -33.962  18.302  -2.914  1.00 20.00     0.014 C 
HETATM   11  C5  UNL     1     -33.402  17.935  -0.501  1.00 20.00     0.014 C 
ENDBRANCH   7   8
ENDBRANCH   2   7
TORSDOF 4
ENDMDL
MODEL 5
REMARK VINA RESULT:      -4.1      2.176      3.313
REMARK  4 active torsions:
REMARK  status: ('A' for Active; 'I' for Inactive)
REMARK    1  A    between atoms: C1_1  and  C6_6 
REMARK    2  A    between atoms: C6_6  and  C8_8 
REMARK    3  A    between atoms: C7_7  and  C8_8 
REMARK    4  A    between atoms: C7_7  and  C9_9 
ROOT
HETATM    1  C2  UNL     1     -36.402  15.141  -3.314  1.00 20.00     0.010 C 
HETATM    2  C8  UNL     1     -34.942  15.594  -3.180  1.00 20.00    -0.010 C 
ENDROOT
BRANCH   2   3
HETATM    3  C6  UNL     1     -34.035  14.405  -3.561  1.00 20.00     0.100 C 
BRANCH   3   4
HETATM    4  C1  UNL     1     -34.481  13.683  -4.824  1.00 20.00     0.219 C 
HETATM    5  O10 UNL     1     -34.843  12.512  -4.828  1.00 20.00    -0.280 OA
HETATM    6 CL11 UNL     1     -34.357  14.706  -6.229  1.00 20.00    -0.044 Cl
ENDBRANCH   3   4
ENDBRANCH   2   3
BRANCH   2   7
HETATM    7  C7  UNL     1     -34.635  16.076  -1.737  1.00 20.00     0.013 C 
BRANCH   7   8
HETATM    8  C9  UNL     1     -34.489  17.610  -1.514  1.00 20.00    -0.051 C 
HETATM    9  C3  UNL     1     -33.823  18.211  -2.769  1.00 20.00     0.014 C 
HETATM   10  C4  UNL     1     -33.616  17.947  -0.297  1.00 20.00     0.014 C 
HETATM   11  C5  UNL     1     -35.869  18.271  -1.341  1.00 20.00     0.014 C 
ENDBRANCH   7   8
ENDBRANCH   2   7
TORSDOF 4
ENDMDL
MODEL 6
REMARK VINA RESULT:      -3.9      2.122      3.238
REMARK  4 active torsions:
REMARK  status: ('A' for Active; 'I' for Inactive)
REMARK    1  A    between atoms: C1_1  and  C6_6 
REMARK    2  A    between atoms: C6_6  and  C8_8 
REMARK    3  A    between atoms: C7_7  and  C8_8 
REMARK    4  A    between atoms: C7_7  and  C9_9 
ROOT
HETATM    1  C2  UNL     1     -32.876  14.815  -3.607  1.00 20.00     0.010 C 
HETATM    2  C8  UNL     1     -34.115  15.415  -2.932  1.00 20.00    -0.010 C 
ENDROOT
BRANCH   2   3
HETATM    3  C6  UNL     1     -35.366  14.863  -3.647  1.00 20.00     0.100 C 
BRANCH   3   4
HETATM    4  C1  UNL     1     -35.051  13.785  -4.673  1.00 20.00     0.219 C 
HETATM    5  O10 UNL     1     -34.987  12.593  -4.388  1.00 20.00    -0.280 OA
HETATM    6 CL11 UNL     1     -34.747  14.464  -6.248  1.00 20.00    -0.044 Cl
ENDBRANCH   3   4
ENDBRANCH   2   3
BRANCH   2   7
HETATM    7  C7  UNL     1     -34.090  16.966  -2.991  1.00 20.00     0.013 C 
BRANCH   7   8
HETATM    8  C9  UNL     1     -34.461  17.735  -1.690  1.00 20.00    -0.051 C 
HETATM    9  C3  UNL     1     -33.300  18.696  -1.360  1.00 20.00     0.014 C 
HETATM   10  C4  UNL     1     -34.667  16.800  -0.491  1.00 20.00     0.014 C 
HETATM   11  C5  UNL     1     -35.734  18.577  -1.896  1.00 20.00     0.014 C 
ENDBRANCH   7   8
ENDBRANCH   2   7
TORSDOF 4
ENDMDL
MODEL 7
REMARK VINA RESULT:      -3.9      2.234      3.771
REMARK  4 active torsions:
REMARK  status: ('A' for Active; 'I' for Inactive)
REMARK    1  A    between atoms: C1_1  and  C6_6 
REMARK    2  A    between atoms: C6_6  and  C8_8 
REMARK    3  A    between atoms: C7_7  and  C8_8 
REMARK    4  A    between atoms: C7_7  and  C9_9 
ROOT
HETATM    1  C2  UNL     1     -35.234  14.677  -7.289  1.00 20.00     0.010 C 
HETATM    2  C8  UNL     1     -35.685  14.723  -5.824  1.00 20.00    -0.010 C 
ENDROOT
BRANCH   2   3
HETATM    3  C6  UNL     1     -37.145  15.225  -5.787  1.00 20.00     0.100 C 
BRANCH   3   4
HETATM    4  C1  UNL     1     -37.758  15.204  -4.396  1.00 20.00     0.219 C 
HETATM    5  O10 UNL     1     -38.037  14.164  -3.807  1.00 20.00    -0.280 OA
HETATM    6 CL11 UNL     1     -38.052  16.813  -3.796  1.00 20.00    -0.044 Cl
ENDBRANCH   3   4
ENDBRANCH   2   3
BRANCH   2   7
HETATM    7  C7  UNL     1     -34.766  15.649  -4.983  1.00 20.00     0.013 C 
BRANCH   7   8
HETATM    8  C9  UNL     1     -34.134  15.047  -3.695  1.00 20.00    -0.051 C 
HETATM    9  C3  UNL     1     -34.487  13.546  -3.649  1.00 20.00     0.014 C 
HETATM   10  C4  UNL     1     -34.666  15.706  -2.414  1.00 20.00     0.014 C 
HETATM   11  C5  UNL     1     -32.600  15.176  -3.726  1.00 20.00     0.014 C 
ENDBRANCH   7   8
ENDBRANCH   2   7
TORSDOF 4
ENDMDL
MODEL 8
REMARK VINA RESULT:      -3.8      1.916      3.197
REMARK  4 active torsions:
REMARK  status: ('A' for Active; 'I' for Inactive)
REMARK    1  A    between atoms: C1_1  and  C6_6 
REMARK    2  A    between atoms: C6_6  and  C8_8 
REMARK    3  A    between atoms: C7_7  and  C8_8 
REMARK    4  A    between atoms: C7_7  and  C9_9 
ROOT
HETATM    1  C2  UNL     1     -36.812  15.453  -5.923  1.00 20.00     0.010 C 
HETATM    2  C8  UNL     1     -35.500  15.689  -5.164  1.00 20.00    -0.010 C 
ENDROOT
BRANCH   2   3
HETATM    3  C6  UNL     1     -34.491  14.607  -5.605  1.00 20.00     0.100 C 
BRANCH   3   4
HETATM    4  C1  UNL     1     -34.309  13.496  -4.582  1.00 20.00     0.219 C 
HETATM    5  O10 UNL     1     -35.094  12.561  -4.467  1.00 20.00    -0.280 OA
HETATM    6 CL11 UNL     1     -32.901  13.760  -3.588  1.00 20.00    -0.044 Cl
ENDBRANCH   3   4
ENDBRANCH   2   3
BRANCH   2   7
HETATM    7  C7  UNL     1     -35.722  15.638  -3.629  1.00 20.00     0.013 C 
BRANCH   7   8
HETATM    8  C9  UNL     1     -35.198  16.842  -2.793  1.00 20.00    -0.051 C 
HETATM    9  C3  UNL     1     -34.626  16.288  -1.472  1.00 20.00     0.014 C 
HETATM   10  C4  UNL     1     -36.304  17.850  -2.454  1.00 20.00     0.014 C 
HETATM   11  C5  UNL     1     -34.063  17.571  -3.536  1.00 20.00     0.014 C 
ENDBRANCH   7   8
ENDBRANCH   2   7
TORSDOF 4
ENDMDL
MODEL 9
REMARK VINA RESULT:      -3.8      2.231      3.780
REMARK  4 active torsions:
REMARK  status: ('A' for Active; 'I' for Inactive)
REMARK    1  A    between atoms: C1_1  and  C6_6 
REMARK    2  A    between atoms: C6_6  and  C8_8 
REMARK    3  A    between atoms: C7_7  and  C8_8 
REMARK    4  A    between atoms: C7_7  and  C9_9 
ROOT
HETATM    1  C2  UNL     1     -35.256  14.699  -7.316  1.00 20.00     0.010 C 
HETATM    2  C8  UNL     1     -35.697  14.723  -5.847  1.00 20.00    -0.010 C 
ENDROOT
BRANCH   2   3
HETATM    3  C6  UNL     1     -37.150  15.241  -5.792  1.00 20.00     0.100 C 
BRANCH   3   4
HETATM    4  C1  UNL     1     -37.754  15.200  -4.396  1.00 20.00     0.219 C 
HETATM    5  O10 UNL     1     -38.016  14.153  -3.814  1.00 20.00    -0.280 OA
HETATM    6 CL11 UNL     1     -38.066  16.801  -3.783  1.00 20.00    -0.044 Cl
ENDBRANCH   3   4
ENDBRANCH   2   3
BRANCH   2   7
HETATM    7  C7  UNL     1     -34.762  15.623  -4.996  1.00 20.00     0.013 C 
BRANCH   7   8
HETATM    8  C9  UNL     1     -34.103  14.981  -3.741  1.00 20.00    -0.051 C 
HETATM    9  C3  UNL     1     -34.669  15.687  -2.492  1.00 20.00     0.014 C 
HETATM   10  C4  UNL     1     -32.576  15.138  -3.732  1.00 20.00     0.014 C 
HETATM   11  C5  UNL     1     -34.454  13.485  -3.644  1.00 20.00     0.014 C 
ENDBRANCH   7   8
ENDBRANCH   2   7
TORSDOF 4
ENDMDL
