MODEL 1
REMARK VINA RESULT:      -4.7      0.000      0.000
REMARK  2 active torsions:
REMARK  status: ('A' for Active; 'I' for Inactive)
REMARK    1  A    between atoms: C5_5  and  C6_6 
REMARK    2  A    between atoms: C6_6  and  N7_7 
ROOT
HETATM    1  C1  UNL     1     -32.341   7.209   2.866  1.00 20.00     0.158 C 
HETATM    2  N7  UNL     1     -32.530   6.319   3.607  1.00 20.00    -0.270 NA
HETATM    3  S8  UNL     1     -32.052   8.404   1.855  1.00 20.00    -0.055 SA
ENDROOT
BRANCH   2   4
HETATM    4  C6  UNL     1     -33.899   6.243   4.136  1.00 20.00     0.109 C 
HETATM    5  C4  UNL     1     -34.723   5.369   3.197  1.00 20.00     0.035 C 
BRANCH   4   6
HETATM    6  C5  UNL     1     -33.881   5.728   5.592  1.00 20.00     0.002 C 
HETATM    7  C2  UNL     1     -35.035   4.751   5.842  1.00 20.00     0.011 C 
HETATM    8  C3  UNL     1     -33.910   6.842   6.642  1.00 20.00     0.011 C 
ENDBRANCH   4   6
ENDBRANCH   2   4
TORSDOF 2
ENDMDL
MODEL 2
REMARK VINA RESULT:      -4.4      0.485      1.337
REMARK  2 active torsions:
REMARK  status: ('A' for Active; 'I' for Inactive)
REMARK    1  A    between atoms: C5_5  and  C6_6 
REMARK    2  A    between atoms: C6_6  and  N7_7 
ROOT
HETATM    1  C1  UNL     1     -32.469   7.250   3.144  1.00 20.00     0.158 C 
HETATM    2  N7  UNL     1     -32.797   6.546   4.023  1.00 20.00    -0.270 NA
HETATM    3  S8  UNL     1     -31.991   8.205   1.962  1.00 20.00    -0.055 SA
ENDROOT
BRANCH   2   4
HETATM    4  C6  UNL     1     -34.228   6.211   4.040  1.00 20.00     0.109 C 
HETATM    5  C4  UNL     1     -34.473   5.124   2.999  1.00 20.00     0.035 C 
BRANCH   4   6
HETATM    6  C5  UNL     1     -34.664   5.804   5.463  1.00 20.00     0.002 C 
HETATM    7  C2  UNL     1     -33.833   6.537   6.522  1.00 20.00     0.011 C 
HETATM    8  C3  UNL     1     -34.611   4.295   5.719  1.00 20.00     0.011 C 
ENDBRANCH   4   6
ENDBRANCH   2   4
TORSDOF 2
ENDMDL
MODEL 3
REMARK VINA RESULT:      -3.5      1.049      1.946
REMARK  2 active torsions:
REMARK  status: ('A' for Active; 'I' for Inactive)
REMARK    1  A    between atoms: C5_5  and  C6_6 
REMARK    2  A    between atoms: C6_6  and  N7_7 
ROOT
HETATM    1  C1  UNL     1     -33.074   7.082   3.378  1.00 20.00     0.158 C 
HETATM    2  N7  UNL     1     -33.988   6.643   3.968  1.00 20.00    -0.270 NA
HETATM    3  S8  UNL     1     -31.855   7.692   2.554  1.00 20.00    -0.055 SA
ENDROOT
BRANCH   2   4
HETATM    4  C6  UNL     1     -33.634   5.922   5.198  1.00 20.00     0.109 C 
HETATM    5  C4  UNL     1     -33.777   6.885   6.371  1.00 20.00     0.035 C 
BRANCH   4   6
HETATM    6  C5  UNL     1     -34.501   4.652   5.341  1.00 20.00     0.002 C 
HETATM    7  C2  UNL     1     -35.562   4.586   4.236  1.00 20.00     0.011 C 
HETATM    8  C3  UNL     1     -35.173   4.513   6.710  1.00 20.00     0.011 C 
ENDBRANCH   4   6
ENDBRANCH   2   4
TORSDOF 2
ENDMDL
MODEL 4
REMARK VINA RESULT:      -3.4     11.536     12.215
REMARK  2 active torsions:
REMARK  status: ('A' for Active; 'I' for Inactive)
REMARK    1  A    between atoms: C5_5  and  C6_6 
REMARK    2  A    between atoms: C6_6  and  N7_7 
ROOT
HETATM    1  C1  UNL     1     -33.735  14.307  -4.051  1.00 20.00     0.158 C 
HETATM    2  N7  UNL     1     -32.992  15.024  -3.494  1.00 20.00    -0.270 NA
HETATM    3  S8  UNL     1     -34.717  13.309  -4.809  1.00 20.00    -0.055 SA
ENDROOT
BRANCH   2   4
HETATM    4  C6  UNL     1     -33.564  16.324  -3.114  1.00 20.00     0.109 C 
HETATM    5  C4  UNL     1     -33.878  17.095  -4.391  1.00 20.00     0.035 C 
BRANCH   4   6
HETATM    6  C5  UNL     1     -34.795  16.120  -2.204  1.00 20.00     0.002 C 
HETATM    7  C2  UNL     1     -36.044  16.759  -2.822  1.00 20.00     0.011 C 
HETATM    8  C3  UNL     1     -34.601  16.639  -0.777  1.00 20.00     0.011 C 
ENDBRANCH   4   6
ENDBRANCH   2   4
TORSDOF 2
ENDMDL
MODEL 5
REMARK VINA RESULT:      -3.4     11.501     12.132
REMARK  2 active torsions:
REMARK  status: ('A' for Active; 'I' for Inactive)
REMARK    1  A    between atoms: C5_5  and  C6_6 
REMARK    2  A    between atoms: C6_6  and  N7_7 
ROOT
HETATM    1  C1  UNL     1     -36.748  14.422  -4.087  1.00 20.00     0.158 C 
HETATM    2  N7  UNL     1     -35.683  13.974  -4.292  1.00 20.00    -0.270 NA
HETATM    3  S8  UNL     1     -38.205  15.012  -3.838  1.00 20.00    -0.055 SA
ENDROOT
BRANCH   2   4
HETATM    4  C6  UNL     1     -34.664  14.334  -3.295  1.00 20.00     0.109 C 
HETATM    5  C4  UNL     1     -33.322  13.790  -3.770  1.00 20.00     0.035 C 
BRANCH   4   6
HETATM    6  C5  UNL     1     -34.658  15.861  -3.067  1.00 20.00     0.002 C 
HETATM    7  C2  UNL     1     -33.517  16.528  -3.843  1.00 20.00     0.011 C 
HETATM    8  C3  UNL     1     -34.584  16.265  -1.591  1.00 20.00     0.011 C 
ENDBRANCH   4   6
ENDBRANCH   2   4
TORSDOF 2
ENDMDL
MODEL 6
REMARK VINA RESULT:      -3.4     11.993     12.784
REMARK  2 active torsions:
REMARK  status: ('A' for Active; 'I' for Inactive)
REMARK    1  A    between atoms: C5_5  and  C6_6 
REMARK    2  A    between atoms: C6_6  and  N7_7 
ROOT
HETATM    1  C1  UNL     1     -33.346  16.965  -5.042  1.00 20.00     0.158 C 
HETATM    2  N7  UNL     1     -32.822  16.046  -4.536  1.00 20.00    -0.270 NA
HETATM    3  S8  UNL     1     -34.030  18.217  -5.750  1.00 20.00    -0.055 SA
ENDROOT
BRANCH   2   4
HETATM    4  C6  UNL     1     -33.622  15.378  -3.500  1.00 20.00     0.109 C 
HETATM    5  C4  UNL     1     -33.850  16.368  -2.363  1.00 20.00     0.035 C 
BRANCH   4   6
HETATM    6  C5  UNL     1     -34.932  14.832  -4.107  1.00 20.00     0.002 C 
HETATM    7  C2  UNL     1     -36.143  15.255  -3.268  1.00 20.00     0.011 C 
HETATM    8  C3  UNL     1     -34.940  13.312  -4.295  1.00 20.00     0.011 C 
ENDBRANCH   4   6
ENDBRANCH   2   4
TORSDOF 2
ENDMDL
MODEL 7
REMARK VINA RESULT:      -3.4     11.632     12.730
REMARK  2 active torsions:
REMARK  status: ('A' for Active; 'I' for Inactive)
REMARK    1  A    between atoms: C5_5  and  C6_6 
REMARK    2  A    between atoms: C6_6  and  N7_7 
ROOT
HETATM    1  C1  UNL     1     -34.537  15.887  -2.133  1.00 20.00     0.158 C 
HETATM    2  N7  UNL     1     -34.551  15.108  -3.010  1.00 20.00    -0.270 NA
HETATM    3  S8  UNL     1     -34.515  16.918  -0.919  1.00 20.00    -0.055 SA
ENDROOT
BRANCH   2   4
HETATM    4  C6  UNL     1     -34.605  15.699  -4.354  1.00 20.00     0.109 C 
HETATM    5  C4  UNL     1     -33.244  16.314  -4.658  1.00 20.00     0.035 C 
BRANCH   4   6
HETATM    6  C5  UNL     1     -35.041  14.637  -5.387  1.00 20.00     0.002 C 
HETATM    7  C2  UNL     1     -34.669  13.227  -4.914  1.00 20.00     0.011 C 
HETATM    8  C3  UNL     1     -34.481  14.875  -6.792  1.00 20.00     0.011 C 
ENDBRANCH   4   6
ENDBRANCH   2   4
TORSDOF 2
ENDMDL
MODEL 8
REMARK VINA RESULT:      -3.3     11.550     12.773
REMARK  2 active torsions:
REMARK  status: ('A' for Active; 'I' for Inactive)
REMARK    1  A    between atoms: C5_5  and  C6_6 
REMARK    2  A    between atoms: C6_6  and  N7_7 
ROOT
HETATM    1  C1  UNL     1     -33.935  16.176  -2.263  1.00 20.00     0.158 C 
HETATM    2  N7  UNL     1     -33.416  15.674  -3.188  1.00 20.00    -0.270 NA
HETATM    3  S8  UNL     1     -34.611  16.849  -0.988  1.00 20.00    -0.055 SA
ENDROOT
BRANCH   2   4
HETATM    4  C6  UNL     1     -34.165  15.788  -4.447  1.00 20.00     0.109 C 
HETATM    5  C4  UNL     1     -33.477  16.836  -5.315  1.00 20.00     0.035 C 
BRANCH   4   6
HETATM    6  C5  UNL     1     -34.277  14.408  -5.129  1.00 20.00     0.002 C 
HETATM    7  C2  UNL     1     -34.826  14.542  -6.553  1.00 20.00     0.011 C 
HETATM    8  C3  UNL     1     -35.120  13.397  -4.344  1.00 20.00     0.011 C 
ENDBRANCH   4   6
ENDBRANCH   2   4
TORSDOF 2
ENDMDL
MODEL 9
REMARK VINA RESULT:      -3.3     11.316     12.079
REMARK  2 active torsions:
REMARK  status: ('A' for Active; 'I' for Inactive)
REMARK    1  A    between atoms: C5_5  and  C6_6 
REMARK    2  A    between atoms: C6_6  and  N7_7 
ROOT
HETATM    1  C1  UNL     1     -34.481  16.421  -1.481  1.00 20.00     0.158 C 
HETATM    2  N7  UNL     1     -34.189  15.819  -2.445  1.00 20.00    -0.270 NA
HETATM    3  S8  UNL     1     -34.843  17.246  -0.168  1.00 20.00    -0.055 SA
ENDROOT
BRANCH   2   4
HETATM    4  C6  UNL     1     -35.319  15.188  -3.139  1.00 20.00     0.109 C 
HETATM    5  C4  UNL     1     -35.984  16.241  -4.019  1.00 20.00     0.035 C 
BRANCH   4   6
HETATM    6  C5  UNL     1     -34.838  13.949  -3.926  1.00 20.00     0.002 C 
HETATM    7  C2  UNL     1     -33.337  13.719  -3.721  1.00 20.00     0.011 C 
HETATM    8  C3  UNL     1     -35.152  14.008  -5.424  1.00 20.00     0.011 C 
ENDBRANCH   4   6
ENDBRANCH   2   4
TORSDOF 2
ENDMDL
