MODEL 1
REMARK VINA RESULT:      -5.1      0.000      0.000
REMARK  4 active torsions:
REMARK  status: ('A' for Active; 'I' for Inactive)
REMARK    1  A    between atoms: C3_3  and  C5_5 
REMARK    2  A    between atoms: C4_4  and  C6_6 
REMARK    3  A    between atoms: C5_5  and  C7_7 
REMARK    4  A    between atoms: C6_6  and  C7_7 
ROOT
HETATM    1  C1  UNL     1     -32.042   8.112   2.171  1.00 20.00     0.059 C 
HETATM    2  C4  UNL     1     -32.088   7.320   3.407  1.00 20.00     0.124 C 
HETATM    3  N8  UNL     1     -32.006   8.740   1.196  1.00 20.00    -0.197 NA
ENDROOT
BRANCH   2   4
HETATM    4  C6  UNL     1     -32.268   5.826   3.129  1.00 20.00     0.014 C 
BRANCH   4   5
HETATM    5  C7  UNL     1     -33.737   5.434   2.920  1.00 20.00     0.006 C 
BRANCH   5   6
HETATM    6  C5  UNL     1     -34.682   6.066   3.950  1.00 20.00     0.050 C 
BRANCH   6   7
HETATM    7  C3  UNL     1     -34.564   5.498   5.336  1.00 20.00     0.002 C 
HETATM    8  C2  UNL     1     -34.833   4.225   5.649  1.00 20.00     0.032 C 
HETATM    9 CL9  UNL     1     -33.991   6.583   6.557  1.00 20.00    -0.090 Cl
ENDBRANCH   6   7
ENDBRANCH   5   6
ENDBRANCH   4   5
ENDBRANCH   2   4
TORSDOF 4
ENDMDL
MODEL 2
REMARK VINA RESULT:      -5.0      1.123      1.274
REMARK  4 active torsions:
REMARK  status: ('A' for Active; 'I' for Inactive)
REMARK    1  A    between atoms: C3_3  and  C5_5 
REMARK    2  A    between atoms: C4_4  and  C6_6 
REMARK    3  A    between atoms: C5_5  and  C7_7 
REMARK    4  A    between atoms: C6_6  and  C7_7 
ROOT
HETATM    1  C1  UNL     1     -32.043   8.194   2.107  1.00 20.00     0.059 C 
HETATM    2  C4  UNL     1     -31.997   7.462   3.380  1.00 20.00     0.124 C 
HETATM    3  N8  UNL     1     -32.079   8.774   1.103  1.00 20.00    -0.197 NA
ENDROOT
BRANCH   2   4
HETATM    4  C6  UNL     1     -32.237   5.962   3.192  1.00 20.00     0.014 C 
BRANCH   4   5
HETATM    5  C7  UNL     1     -33.708   5.627   2.910  1.00 20.00     0.006 C 
BRANCH   5   6
HETATM    6  C5  UNL     1     -34.666   6.168   3.979  1.00 20.00     0.050 C 
BRANCH   6   7
HETATM    7  C3  UNL     1     -34.485   5.563   5.343  1.00 20.00     0.002 C 
HETATM    8  C2  UNL     1     -34.053   6.242   6.412  1.00 20.00     0.032 C 
HETATM    9 CL9  UNL     1     -34.927   3.897   5.501  1.00 20.00    -0.090 Cl
ENDBRANCH   6   7
ENDBRANCH   5   6
ENDBRANCH   4   5
ENDBRANCH   2   4
TORSDOF 4
ENDMDL
MODEL 3
REMARK VINA RESULT:      -4.5      2.860      4.322
REMARK  4 active torsions:
REMARK  status: ('A' for Active; 'I' for Inactive)
REMARK    1  A    between atoms: C3_3  and  C5_5 
REMARK    2  A    between atoms: C4_4  and  C6_6 
REMARK    3  A    between atoms: C5_5  and  C7_7 
REMARK    4  A    between atoms: C6_6  and  C7_7 
ROOT
HETATM    1  C1  UNL     1     -34.216   6.139   6.373  1.00 20.00     0.059 C 
HETATM    2  C4  UNL     1     -34.895   4.950   5.840  1.00 20.00     0.124 C 
HETATM    3  N8  UNL     1     -33.680   7.078   6.795  1.00 20.00    -0.197 NA
ENDROOT
BRANCH   2   4
HETATM    4  C6  UNL     1     -34.893   4.921   4.310  1.00 20.00     0.014 C 
BRANCH   4   5
HETATM    5  C7  UNL     1     -34.381   6.228   3.692  1.00 20.00     0.006 C 
BRANCH   5   6
HETATM    6  C5  UNL     1     -33.043   6.066   2.958  1.00 20.00     0.050 C 
BRANCH   6   7
HETATM    7  C3  UNL     1     -32.149   7.273   3.016  1.00 20.00     0.002 C 
HETATM    8  C2  UNL     1     -31.379   7.585   4.065  1.00 20.00     0.032 C 
HETATM    9 CL9  UNL     1     -32.108   8.258   1.593  1.00 20.00    -0.090 Cl
ENDBRANCH   6   7
ENDBRANCH   5   6
ENDBRANCH   4   5
ENDBRANCH   2   4
TORSDOF 4
ENDMDL
MODEL 4
REMARK VINA RESULT:      -4.4      2.894      4.615
REMARK  4 active torsions:
REMARK  status: ('A' for Active; 'I' for Inactive)
REMARK    1  A    between atoms: C3_3  and  C5_5 
REMARK    2  A    between atoms: C4_4  and  C6_6 
REMARK    3  A    between atoms: C5_5  and  C7_7 
REMARK    4  A    between atoms: C6_6  and  C7_7 
ROOT
HETATM    1  C1  UNL     1     -34.879   4.431   5.737  1.00 20.00     0.059 C 
HETATM    2  C4  UNL     1     -34.491   5.663   6.437  1.00 20.00     0.124 C 
HETATM    3  N8  UNL     1     -35.186   3.458   5.186  1.00 20.00    -0.197 NA
ENDROOT
BRANCH   2   4
HETATM    4  C6  UNL     1     -33.752   6.640   5.520  1.00 20.00     0.014 C 
BRANCH   4   5
HETATM    5  C7  UNL     1     -34.055   6.405   4.034  1.00 20.00     0.006 C 
BRANCH   5   6
HETATM    6  C5  UNL     1     -32.793   6.207   3.184  1.00 20.00     0.050 C 
BRANCH   6   7
HETATM    7  C3  UNL     1     -31.993   7.459   2.955  1.00 20.00     0.002 C 
HETATM    8  C2  UNL     1     -32.122   8.243   1.878  1.00 20.00     0.032 C 
HETATM    9 CL9  UNL     1     -30.889   7.899   4.213  1.00 20.00    -0.090 Cl
ENDBRANCH   6   7
ENDBRANCH   5   6
ENDBRANCH   4   5
ENDBRANCH   2   4
TORSDOF 4
ENDMDL
MODEL 5
REMARK VINA RESULT:      -4.2      3.162      4.929
REMARK  4 active torsions:
REMARK  status: ('A' for Active; 'I' for Inactive)
REMARK    1  A    between atoms: C3_3  and  C5_5 
REMARK    2  A    between atoms: C4_4  and  C6_6 
REMARK    3  A    between atoms: C5_5  and  C7_7 
REMARK    4  A    between atoms: C6_6  and  C7_7 
ROOT
HETATM    1  C1  UNL     1     -34.647   4.751   5.266  1.00 20.00     0.059 C 
HETATM    2  C4  UNL     1     -34.039   6.088   5.248  1.00 20.00     0.124 C 
HETATM    3  N8  UNL     1     -35.127   3.694   5.281  1.00 20.00    -0.197 NA
ENDROOT
BRANCH   2   4
HETATM    4  C6  UNL     1     -33.998   6.685   3.840  1.00 20.00     0.014 C 
BRANCH   4   5
HETATM    5  C7  UNL     1     -32.666   6.429   3.124  1.00 20.00     0.006 C 
BRANCH   5   6
HETATM    6  C5  UNL     1     -31.773   7.675   3.047  1.00 20.00     0.050 C 
BRANCH   6   7
HETATM    7  C3  UNL     1     -32.022   8.547   1.849  1.00 20.00     0.002 C 
HETATM    8  C2  UNL     1     -31.624   8.245   0.607  1.00 20.00     0.032 C 
HETATM    9 CL9  UNL     1     -32.927   9.995   2.134  1.00 20.00    -0.090 Cl
ENDBRANCH   6   7
ENDBRANCH   5   6
ENDBRANCH   4   5
ENDBRANCH   2   4
TORSDOF 4
ENDMDL
MODEL 6
REMARK VINA RESULT:      -3.8     10.878     11.779
REMARK  4 active torsions:
REMARK  status: ('A' for Active; 'I' for Inactive)
REMARK    1  A    between atoms: C3_3  and  C5_5 
REMARK    2  A    between atoms: C4_4  and  C6_6 
REMARK    3  A    between atoms: C5_5  and  C7_7 
REMARK    4  A    between atoms: C6_6  and  C7_7 
ROOT
HETATM    1  C1  UNL     1     -34.378  13.624  -3.987  1.00 20.00     0.059 C 
HETATM    2  C4  UNL     1     -33.712  14.792  -3.394  1.00 20.00     0.124 C 
HETATM    3  N8  UNL     1     -34.902  12.702  -4.456  1.00 20.00    -0.197 NA
ENDROOT
BRANCH   2   4
HETATM    4  C6  UNL     1     -34.708  15.882  -2.993  1.00 20.00     0.014 C 
BRANCH   4   5
HETATM    5  C7  UNL     1     -34.636  16.232  -1.500  1.00 20.00     0.006 C 
BRANCH   5   6
HETATM    6  C5  UNL     1     -33.738  17.441  -1.207  1.00 20.00     0.050 C 
BRANCH   6   7
HETATM    7  C3  UNL     1     -33.875  17.998   0.183  1.00 20.00     0.002 C 
HETATM    8  C2  UNL     1     -33.034  18.890   0.719  1.00 20.00     0.032 C 
HETATM    9 CL9  UNL     1     -35.251  17.461   1.085  1.00 20.00    -0.090 Cl
ENDBRANCH   6   7
ENDBRANCH   5   6
ENDBRANCH   4   5
ENDBRANCH   2   4
TORSDOF 4
ENDMDL
MODEL 7
REMARK VINA RESULT:      -3.8     11.565     12.689
REMARK  4 active torsions:
REMARK  status: ('A' for Active; 'I' for Inactive)
REMARK    1  A    between atoms: C3_3  and  C5_5 
REMARK    2  A    between atoms: C4_4  and  C6_6 
REMARK    3  A    between atoms: C5_5  and  C7_7 
REMARK    4  A    between atoms: C6_6  and  C7_7 
ROOT
HETATM    1  C1  UNL     1     -34.926  13.464  -5.405  1.00 20.00     0.059 C 
HETATM    2  C4  UNL     1     -34.821  14.380  -6.548  1.00 20.00     0.124 C 
HETATM    3  N8  UNL     1     -35.010  12.739  -4.503  1.00 20.00    -0.197 NA
ENDROOT
BRANCH   2   4
HETATM    4  C6  UNL     1     -35.001  15.842  -6.135  1.00 20.00     0.014 C 
BRANCH   4   5
HETATM    5  C7  UNL     1     -33.679  16.514  -5.739  1.00 20.00     0.006 C 
BRANCH   5   6
HETATM    6  C5  UNL     1     -33.700  17.097  -4.320  1.00 20.00     0.050 C 
BRANCH   6   7
HETATM    7  C3  UNL     1     -33.559  16.077  -3.225  1.00 20.00     0.002 C 
HETATM    8  C2  UNL     1     -34.315  16.056  -2.120  1.00 20.00     0.032 C 
HETATM    9 CL9  UNL     1     -32.369  14.846  -3.479  1.00 20.00    -0.090 Cl
ENDBRANCH   6   7
ENDBRANCH   5   6
ENDBRANCH   4   5
ENDBRANCH   2   4
TORSDOF 4
ENDMDL
MODEL 8
REMARK VINA RESULT:      -3.7     11.516     12.148
REMARK  4 active torsions:
REMARK  status: ('A' for Active; 'I' for Inactive)
REMARK    1  A    between atoms: C3_3  and  C5_5 
REMARK    2  A    between atoms: C4_4  and  C6_6 
REMARK    3  A    between atoms: C5_5  and  C7_7 
REMARK    4  A    between atoms: C6_6  and  C7_7 
ROOT
HETATM    1  C1  UNL     1     -32.687  18.821   0.007  1.00 20.00     0.059 C 
HETATM    2  C4  UNL     1     -34.106  18.443   0.005  1.00 20.00     0.124 C 
HETATM    3  N8  UNL     1     -31.566  19.121   0.008  1.00 20.00    -0.197 NA
ENDROOT
BRANCH   2   4
HETATM    4  C6  UNL     1     -34.321  17.008  -0.483  1.00 20.00     0.014 C 
BRANCH   4   5
HETATM    5  C7  UNL     1     -34.242  16.883  -2.010  1.00 20.00     0.006 C 
BRANCH   5   6
HETATM    6  C5  UNL     1     -34.979  15.652  -2.553  1.00 20.00     0.050 C 
BRANCH   6   7
HETATM    7  C3  UNL     1     -34.139  14.749  -3.413  1.00 20.00     0.002 C 
HETATM    8  C2  UNL     1     -32.834  14.937  -3.643  1.00 20.00     0.032 C 
HETATM    9 CL9  UNL     1     -34.942  13.369  -4.080  1.00 20.00    -0.090 Cl
ENDBRANCH   6   7
ENDBRANCH   5   6
ENDBRANCH   4   5
ENDBRANCH   2   4
TORSDOF 4
ENDMDL
MODEL 9
REMARK VINA RESULT:      -3.7     11.101     12.233
REMARK  4 active torsions:
REMARK  status: ('A' for Active; 'I' for Inactive)
REMARK    1  A    between atoms: C3_3  and  C5_5 
REMARK    2  A    between atoms: C4_4  and  C6_6 
REMARK    3  A    between atoms: C5_5  and  C7_7 
REMARK    4  A    between atoms: C6_6  and  C7_7 
ROOT
HETATM    1  C1  UNL     1     -36.958  14.560  -4.465  1.00 20.00     0.059 C 
HETATM    2  C4  UNL     1     -35.935  14.739  -5.505  1.00 20.00     0.124 C 
HETATM    3  N8  UNL     1     -37.766  14.420  -3.645  1.00 20.00    -0.197 NA
ENDROOT
BRANCH   2   4
HETATM    4  C6  UNL     1     -34.719  13.838  -5.280  1.00 20.00     0.014 C 
BRANCH   4   5
HETATM    5  C7  UNL     1     -34.240  13.840  -3.822  1.00 20.00     0.006 C 
BRANCH   5   6
HETATM    6  C5  UNL     1     -33.205  14.935  -3.529  1.00 20.00     0.050 C 
BRANCH   6   7
HETATM    7  C3  UNL     1     -33.789  16.228  -3.031  1.00 20.00     0.002 C 
HETATM    8  C2  UNL     1     -33.724  17.385  -3.699  1.00 20.00     0.032 C 
HETATM    9 CL9  UNL     1     -34.632  16.151  -1.521  1.00 20.00    -0.090 Cl
ENDBRANCH   6   7
ENDBRANCH   5   6
ENDBRANCH   4   5
ENDBRANCH   2   4
TORSDOF 4
ENDMDL
