MODEL 1
REMARK VINA RESULT:      -4.2      0.000      0.000
REMARK  3 active torsions:
REMARK  status: ('A' for Active; 'I' for Inactive)
REMARK    1  A    between atoms: C4_4  and  C6_6 
REMARK    2  A    between atoms: C5_5  and  C6_6 
REMARK    3  A    between atoms: C6_6  and  N7_7 
ROOT
HETATM    1  C1  UNL     1     -32.529   6.927   3.305  1.00 20.00     0.158 C 
HETATM    2  N7  UNL     1     -32.818   6.105   4.090  1.00 20.00    -0.270 NA
HETATM    3  S8  UNL     1     -32.105   8.028   2.235  1.00 20.00    -0.055 SA
ENDROOT
BRANCH   2   4
HETATM    4  C6  UNL     1     -34.161   6.254   4.667  1.00 20.00     0.109 C 
BRANCH   4   5
HETATM    5  C4  UNL     1     -34.049   6.175   6.195  1.00 20.00     0.023 C 
HETATM    6  C2  UNL     1     -33.366   7.397   6.793  1.00 20.00     0.007 C 
ENDBRANCH   4   5
BRANCH   4   7
HETATM    7  C5  UNL     1     -35.055   5.132   4.125  1.00 20.00     0.023 C 
HETATM    8  C3  UNL     1     -35.169   3.977   5.076  1.00 20.00     0.007 C 
ENDBRANCH   4   7
ENDBRANCH   2   4
TORSDOF 3
ENDMDL
MODEL 2
REMARK VINA RESULT:      -3.6     12.169     12.841
REMARK  3 active torsions:
REMARK  status: ('A' for Active; 'I' for Inactive)
REMARK    1  A    between atoms: C4_4  and  C6_6 
REMARK    2  A    between atoms: C5_5  and  C6_6 
REMARK    3  A    between atoms: C6_6  and  N7_7 
ROOT
HETATM    1  C1  UNL     1     -33.551  16.331  -5.299  1.00 20.00     0.158 C 
HETATM    2  N7  UNL     1     -32.858  16.089  -4.385  1.00 20.00    -0.270 NA
HETATM    3  S8  UNL     1     -34.468  16.682  -6.553  1.00 20.00    -0.055 SA
ENDROOT
BRANCH   2   4
HETATM    4  C6  UNL     1     -33.423  15.133  -3.423  1.00 20.00     0.109 C 
BRANCH   4   5
HETATM    5  C4  UNL     1     -33.661  13.798  -4.140  1.00 20.00     0.023 C 
HETATM    6  C2  UNL     1     -35.130  13.398  -4.156  1.00 20.00     0.007 C 
ENDBRANCH   4   5
BRANCH   4   7
HETATM    7  C5  UNL     1     -34.738  15.704  -2.880  1.00 20.00     0.023 C 
HETATM    8  C3  UNL     1     -34.580  16.326  -1.524  1.00 20.00     0.007 C 
ENDBRANCH   4   7
ENDBRANCH   2   4
TORSDOF 3
ENDMDL
MODEL 3
REMARK VINA RESULT:      -3.5     12.355     13.033
REMARK  3 active torsions:
REMARK  status: ('A' for Active; 'I' for Inactive)
REMARK    1  A    between atoms: C4_4  and  C6_6 
REMARK    2  A    between atoms: C5_5  and  C6_6 
REMARK    3  A    between atoms: C6_6  and  N7_7 
ROOT
HETATM    1  C1  UNL     1     -33.386  17.343  -5.231  1.00 20.00     0.158 C 
HETATM    2  N7  UNL     1     -33.010  16.329  -4.779  1.00 20.00    -0.270 NA
HETATM    3  S8  UNL     1     -33.869  18.721  -5.867  1.00 20.00    -0.055 SA
ENDROOT
BRANCH   2   4
HETATM    4  C6  UNL     1     -33.897  15.743  -3.764  1.00 20.00     0.109 C 
BRANCH   4   5
HETATM    5  C4  UNL     1     -33.598  16.404  -2.412  1.00 20.00     0.023 C 
HETATM    6  C2  UNL     1     -34.774  16.319  -1.449  1.00 20.00     0.007 C 
ENDBRANCH   4   5
BRANCH   4   7
HETATM    7  C5  UNL     1     -33.642  14.233  -3.703  1.00 20.00     0.023 C 
HETATM    8  C3  UNL     1     -34.826  13.430  -4.154  1.00 20.00     0.007 C 
ENDBRANCH   4   7
ENDBRANCH   2   4
TORSDOF 3
ENDMDL
MODEL 4
REMARK VINA RESULT:      -3.4      1.074      2.444
REMARK  3 active torsions:
REMARK  status: ('A' for Active; 'I' for Inactive)
REMARK    1  A    between atoms: C4_4  and  C6_6 
REMARK    2  A    between atoms: C5_5  and  C6_6 
REMARK    3  A    between atoms: C6_6  and  N7_7 
ROOT
HETATM    1  C1  UNL     1     -32.150   7.154   2.754  1.00 20.00     0.158 C 
HETATM    2  N7  UNL     1     -32.071   6.152   3.357  1.00 20.00    -0.270 NA
HETATM    3  S8  UNL     1     -32.224   8.511   1.924  1.00 20.00    -0.055 SA
ENDROOT
BRANCH   2   4
HETATM    4  C6  UNL     1     -33.287   5.783   4.096  1.00 20.00     0.109 C 
BRANCH   4   5
HETATM    5  C4  UNL     1     -34.420   5.552   3.088  1.00 20.00     0.023 C 
HETATM    6  C2  UNL     1     -35.777   5.401   3.762  1.00 20.00     0.007 C 
ENDBRANCH   4   5
BRANCH   4   7
HETATM    7  C5  UNL     1     -33.637   6.920   5.062  1.00 20.00     0.023 C 
HETATM    8  C3  UNL     1     -33.969   6.424   6.439  1.00 20.00     0.007 C 
ENDBRANCH   4   7
ENDBRANCH   2   4
TORSDOF 3
ENDMDL
MODEL 5
REMARK VINA RESULT:      -3.4      0.802      2.337
REMARK  3 active torsions:
REMARK  status: ('A' for Active; 'I' for Inactive)
REMARK    1  A    between atoms: C4_4  and  C6_6 
REMARK    2  A    between atoms: C5_5  and  C6_6 
REMARK    3  A    between atoms: C6_6  and  N7_7 
ROOT
HETATM    1  C1  UNL     1     -32.852   6.700   2.821  1.00 20.00     0.158 C 
HETATM    2  N7  UNL     1     -33.568   5.801   3.055  1.00 20.00    -0.270 NA
HETATM    3  S8  UNL     1     -31.883   7.913   2.467  1.00 20.00    -0.055 SA
ENDROOT
BRANCH   2   4
HETATM    4  C6  UNL     1     -33.839   5.590   4.484  1.00 20.00     0.109 C 
BRANCH   4   5
HETATM    5  C4  UNL     1     -35.113   4.747   4.622  1.00 20.00     0.023 C 
HETATM    6  C2  UNL     1     -35.121   3.906   5.891  1.00 20.00     0.007 C 
ENDBRANCH   4   5
BRANCH   4   7
HETATM    7  C5  UNL     1     -34.012   6.957   5.157  1.00 20.00     0.023 C 
HETATM    8  C3  UNL     1     -33.582   6.950   6.595  1.00 20.00     0.007 C 
ENDBRANCH   4   7
ENDBRANCH   2   4
TORSDOF 3
ENDMDL
MODEL 6
REMARK VINA RESULT:      -3.4     11.889     12.887
REMARK  3 active torsions:
REMARK  status: ('A' for Active; 'I' for Inactive)
REMARK    1  A    between atoms: C4_4  and  C6_6 
REMARK    2  A    between atoms: C5_5  and  C6_6 
REMARK    3  A    between atoms: C6_6  and  N7_7 
ROOT
HETATM    1  C1  UNL     1     -33.767  14.413  -4.061  1.00 20.00     0.158 C 
HETATM    2  N7  UNL     1     -33.056  15.195  -3.554  1.00 20.00    -0.270 NA
HETATM    3  S8  UNL     1     -34.706  13.329  -4.755  1.00 20.00    -0.055 SA
ENDROOT
BRANCH   2   4
HETATM    4  C6  UNL     1     -33.724  16.417  -3.083  1.00 20.00     0.109 C 
BRANCH   4   5
HETATM    5  C4  UNL     1     -34.760  16.030  -2.021  1.00 20.00     0.023 C 
HETATM    6  C2  UNL     1     -34.549  16.766  -0.705  1.00 20.00     0.007 C 
ENDBRANCH   4   5
BRANCH   4   7
HETATM    7  C5  UNL     1     -34.397  17.099  -4.280  1.00 20.00     0.023 C 
HETATM    8  C3  UNL     1     -33.556  18.196  -4.865  1.00 20.00     0.007 C 
ENDBRANCH   4   7
ENDBRANCH   2   4
TORSDOF 3
ENDMDL
MODEL 7
REMARK VINA RESULT:      -3.3      9.847     10.492
REMARK  3 active torsions:
REMARK  status: ('A' for Active; 'I' for Inactive)
REMARK    1  A    between atoms: C4_4  and  C6_6 
REMARK    2  A    between atoms: C5_5  and  C6_6 
REMARK    3  A    between atoms: C6_6  and  N7_7 
ROOT
HETATM    1  C1  UNL     1     -41.932   7.152  -2.713  1.00 20.00     0.158 C 
HETATM    2  N7  UNL     1     -41.222   6.604  -1.958  1.00 20.00    -0.270 NA
HETATM    3  S8  UNL     1     -42.870   7.919  -3.747  1.00 20.00    -0.055 SA
ENDROOT
BRANCH   2   4
HETATM    4  C6  UNL     1     -41.822   5.443  -1.284  1.00 20.00     0.109 C 
BRANCH   4   5
HETATM    5  C4  UNL     1     -41.766   5.673   0.231  1.00 20.00     0.023 C 
HETATM    6  C2  UNL     1     -43.043   5.236   0.935  1.00 20.00     0.007 C 
ENDBRANCH   4   5
BRANCH   4   7
HETATM    7  C5  UNL     1     -41.034   4.188  -1.677  1.00 20.00     0.023 C 
HETATM    8  C3  UNL     1     -41.778   3.320  -2.648  1.00 20.00     0.007 C 
ENDBRANCH   4   7
ENDBRANCH   2   4
TORSDOF 3
ENDMDL
MODEL 8
REMARK VINA RESULT:      -3.3     11.781     12.500
REMARK  3 active torsions:
REMARK  status: ('A' for Active; 'I' for Inactive)
REMARK    1  A    between atoms: C4_4  and  C6_6 
REMARK    2  A    between atoms: C5_5  and  C6_6 
REMARK    3  A    between atoms: C6_6  and  N7_7 
ROOT
HETATM    1  C1  UNL     1     -36.843  14.788  -3.734  1.00 20.00     0.158 C 
HETATM    2  N7  UNL     1     -35.700  14.528  -3.694  1.00 20.00    -0.270 NA
HETATM    3  S8  UNL     1     -38.402  15.105  -3.795  1.00 20.00    -0.055 SA
ENDROOT
BRANCH   2   4
HETATM    4  C6  UNL     1     -34.819  15.676  -3.434  1.00 20.00     0.109 C 
BRANCH   4   5
HETATM    5  C4  UNL     1     -33.363  15.217  -3.571  1.00 20.00     0.023 C 
HETATM    6  C2  UNL     1     -33.240  13.708  -3.734  1.00 20.00     0.007 C 
ENDBRANCH   4   5
BRANCH   4   7
HETATM    7  C5  UNL     1     -35.098  16.196  -2.018  1.00 20.00     0.023 C 
HETATM    8  C3  UNL     1     -33.916  16.902  -1.421  1.00 20.00     0.007 C 
ENDBRANCH   4   7
ENDBRANCH   2   4
TORSDOF 3
ENDMDL
MODEL 9
REMARK VINA RESULT:      -3.2     11.700     12.663
REMARK  3 active torsions:
REMARK  status: ('A' for Active; 'I' for Inactive)
REMARK    1  A    between atoms: C4_4  and  C6_6 
REMARK    2  A    between atoms: C5_5  and  C6_6 
REMARK    3  A    between atoms: C6_6  and  N7_7 
ROOT
HETATM    1  C1  UNL     1     -34.482  16.330  -1.655  1.00 20.00     0.158 C 
HETATM    2  N7  UNL     1     -34.725  15.476  -2.420  1.00 20.00    -0.270 NA
HETATM    3  S8  UNL     1     -34.180  17.482  -0.597  1.00 20.00    -0.055 SA
ENDROOT
BRANCH   2   4
HETATM    4  C6  UNL     1     -33.753  15.337  -3.514  1.00 20.00     0.109 C 
BRANCH   4   5
HETATM    5  C4  UNL     1     -34.306  16.049  -4.754  1.00 20.00     0.023 C 
HETATM    6  C2  UNL     1     -33.402  17.177  -5.231  1.00 20.00     0.007 C 
ENDBRANCH   4   5
BRANCH   4   7
HETATM    7  C5  UNL     1     -33.536  13.845  -3.791  1.00 20.00     0.023 C 
HETATM    8  C3  UNL     1     -34.586  13.268  -4.695  1.00 20.00     0.007 C 
ENDBRANCH   4   7
ENDBRANCH   2   4
TORSDOF 3
ENDMDL
