MODEL 1
REMARK VINA RESULT:      -4.8      0.000      0.000
REMARK  2 active torsions:
REMARK  status: ('A' for Active; 'I' for Inactive)
REMARK    1  A    between atoms: C7_7  and  C10_10 
REMARK    2  A    between atoms: C8_8  and  C9_9 
ROOT
HETATM    1  C1  UNL     1     -34.872  16.389  -2.048  1.00 20.00    -0.019 A 
HETATM    2  C3  UNL     1     -34.595  17.300  -1.108  1.00 20.00    -0.087 A 
HETATM    3  C5  UNL     1     -33.963  18.535  -1.671  1.00 20.00     0.039 A 
HETATM    4  C8  UNL     1     -34.500  16.849  -3.419  1.00 20.00     0.021 A 
HETATM    5  C10 UNL     1     -33.883  18.271  -3.181  1.00 20.00     0.005 A 
HETATM    6  C11 UNL     1     -34.843  17.169   0.352  1.00 20.00     0.043 C 
ENDROOT
BRANCH   4   7
HETATM    7  C9  UNL     1     -33.330  16.077  -4.081  1.00 20.00     0.022 C 
HETATM    8  C4  UNL     1     -33.853  14.698  -4.431  1.00 20.00    -0.082 C 
HETATM    9  C2  UNL     1     -34.717  14.845  -5.449  1.00 20.00    -0.019 C 
HETATM   10  C12 UNL     1     -33.470  13.473  -3.695  1.00 20.00     0.043 C 
HETATM   11  C7  UNL     1     -34.773  16.322  -5.777  1.00 20.00     0.014 C 
HETATM   12  C6  UNL     1     -33.305  16.664  -5.500  1.00 20.00     0.018 C 
ENDBRANCH   4   7
TORSDOF 2
ENDMDL
MODEL 2
REMARK VINA RESULT:      -4.6      1.306      4.584
REMARK  2 active torsions:
REMARK  status: ('A' for Active; 'I' for Inactive)
REMARK    1  A    between atoms: C7_7  and  C10_10 
REMARK    2  A    between atoms: C8_8  and  C9_9 
ROOT
HETATM    1  C1  UNL     1     -35.320  15.671  -5.100  1.00 20.00    -0.019 A 
HETATM    2  C3  UNL     1     -35.062  14.543  -5.772  1.00 20.00    -0.087 A 
HETATM    3  C5  UNL     1     -34.453  13.483  -4.907  1.00 20.00     0.039 A 
HETATM    4  C8  UNL     1     -34.956  15.573  -3.656  1.00 20.00     0.021 A 
HETATM    5  C10 UNL     1     -34.367  14.126  -3.516  1.00 20.00     0.005 A 
HETATM    6  C11 UNL     1     -35.309  14.298  -7.217  1.00 20.00     0.043 C 
ENDROOT
BRANCH   4   7
HETATM    7  C9  UNL     1     -33.770  16.467  -3.210  1.00 20.00     0.022 C 
HETATM    8  C4  UNL     1     -34.144  17.896  -3.548  1.00 20.00    -0.082 C 
HETATM    9  C2  UNL     1     -35.120  18.265  -2.701  1.00 20.00    -0.019 C 
HETATM   10  C12 UNL     1     -33.533  18.655  -4.661  1.00 20.00     0.043 C 
HETATM   11  C7  UNL     1     -35.399  17.080  -1.800  1.00 20.00     0.014 C 
HETATM   12  C6  UNL     1     -33.967  16.546  -1.689  1.00 20.00     0.018 C 
ENDBRANCH   4   7
TORSDOF 2
ENDMDL
MODEL 3
REMARK VINA RESULT:      -4.6      1.178      2.711
REMARK  2 active torsions:
REMARK  status: ('A' for Active; 'I' for Inactive)
REMARK    1  A    between atoms: C7_7  and  C10_10 
REMARK    2  A    between atoms: C8_8  and  C9_9 
ROOT
HETATM    1  C1  UNL     1     -33.727  17.160  -3.480  1.00 20.00    -0.019 A 
HETATM    2  C3  UNL     1     -33.814  17.787  -2.301  1.00 20.00    -0.087 A 
HETATM    3  C5  UNL     1     -34.511  16.964  -1.261  1.00 20.00     0.039 A 
HETATM    4  C8  UNL     1     -34.327  15.793  -3.448  1.00 20.00     0.021 A 
HETATM    5  C10 UNL     1     -34.863  15.655  -1.981  1.00 20.00     0.005 A 
HETATM    6  C11 UNL     1     -33.313  19.150  -1.985  1.00 20.00     0.043 C 
ENDROOT
BRANCH   4   7
HETATM    7  C9  UNL     1     -35.611  15.614  -4.297  1.00 20.00     0.022 C 
HETATM    8  C4  UNL     1     -35.187  15.652  -5.752  1.00 20.00    -0.082 C 
HETATM    9  C2  UNL     1     -34.514  14.515  -6.001  1.00 20.00    -0.019 C 
HETATM   10  C12 UNL     1     -35.459  16.796  -6.649  1.00 20.00     0.043 C 
HETATM   11  C7  UNL     1     -34.486  13.722  -4.712  1.00 20.00     0.014 C 
HETATM   12  C6  UNL     1     -35.875  14.105  -4.188  1.00 20.00     0.018 C 
ENDBRANCH   4   7
TORSDOF 2
ENDMDL
MODEL 4
REMARK VINA RESULT:      -4.6      1.269      2.680
REMARK  2 active torsions:
REMARK  status: ('A' for Active; 'I' for Inactive)
REMARK    1  A    between atoms: C7_7  and  C10_10 
REMARK    2  A    between atoms: C8_8  and  C9_9 
ROOT
HETATM    1  C1  UNL     1     -33.035  17.434  -1.684  1.00 20.00    -0.019 A 
HETATM    2  C3  UNL     1     -33.256  18.169  -0.588  1.00 20.00    -0.087 A 
HETATM    3  C5  UNL     1     -34.524  17.791   0.114  1.00 20.00     0.039 A 
HETATM    4  C8  UNL     1     -34.100  16.412  -1.912  1.00 20.00     0.021 A 
HETATM    5  C10 UNL     1     -35.103  16.647  -0.730  1.00 20.00     0.005 A 
HETATM    6  C11 UNL     1     -32.394  19.263  -0.068  1.00 20.00     0.043 C 
ENDROOT
BRANCH   4   7
HETATM    7  C9  UNL     1     -34.986  16.647  -3.162  1.00 20.00     0.022 C 
HETATM    8  C4  UNL     1     -34.076  16.564  -4.371  1.00 20.00    -0.082 C 
HETATM    9  C2  UNL     1     -33.714  15.277  -4.510  1.00 20.00    -0.019 C 
HETATM   10  C12 UNL     1     -33.667  17.744  -5.164  1.00 20.00     0.043 C 
HETATM   11  C7  UNL     1     -34.380  14.503  -3.392  1.00 20.00     0.014 C 
HETATM   12  C6  UNL     1     -35.692  15.294  -3.328  1.00 20.00     0.018 C 
ENDBRANCH   4   7
TORSDOF 2
ENDMDL
MODEL 5
REMARK VINA RESULT:      -4.5      2.205      4.075
REMARK  2 active torsions:
REMARK  status: ('A' for Active; 'I' for Inactive)
REMARK    1  A    between atoms: C7_7  and  C10_10 
REMARK    2  A    between atoms: C8_8  and  C9_9 
ROOT
HETATM    1  C1  UNL     1     -35.116  16.276  -6.416  1.00 20.00    -0.019 A 
HETATM    2  C3  UNL     1     -34.802  17.510  -6.825  1.00 20.00    -0.087 A 
HETATM    3  C5  UNL     1     -33.677  18.110  -6.038  1.00 20.00     0.039 A 
HETATM    4  C8  UNL     1     -34.248  15.806  -5.295  1.00 20.00     0.021 A 
HETATM    5  C10 UNL     1     -33.293  17.021  -5.027  1.00 20.00     0.005 A 
HETATM    6  C11 UNL     1     -35.459  18.274  -7.918  1.00 20.00     0.043 C 
ENDROOT
BRANCH   4   7
HETATM    7  C9  UNL     1     -34.964  15.628  -3.932  1.00 20.00     0.022 C 
HETATM    8  C4  UNL     1     -35.919  14.460  -4.084  1.00 20.00    -0.082 C 
HETATM    9  C2  UNL     1     -35.174  13.345  -4.168  1.00 20.00    -0.019 C 
HETATM   10  C12 UNL     1     -37.387  14.617  -4.170  1.00 20.00     0.043 C 
HETATM   11  C7  UNL     1     -33.724  13.769  -4.076  1.00 20.00     0.014 C 
HETATM   12  C6  UNL     1     -33.895  14.925  -3.084  1.00 20.00     0.018 C 
ENDBRANCH   4   7
TORSDOF 2
ENDMDL
MODEL 6
REMARK VINA RESULT:      -4.5      1.481      1.981
REMARK  2 active torsions:
REMARK  status: ('A' for Active; 'I' for Inactive)
REMARK    1  A    between atoms: C7_7  and  C10_10 
REMARK    2  A    between atoms: C8_8  and  C9_9 
ROOT
HETATM    1  C1  UNL     1     -35.803  17.442  -2.454  1.00 20.00    -0.019 A 
HETATM    2  C3  UNL     1     -35.939  17.905  -1.206  1.00 20.00    -0.087 A 
HETATM    3  C5  UNL     1     -34.706  17.704  -0.380  1.00 20.00     0.039 A 
HETATM    4  C8  UNL     1     -34.450  16.865  -2.707  1.00 20.00     0.021 A 
HETATM    5  C10 UNL     1     -33.713  17.022  -1.331  1.00 20.00     0.005 A 
HETATM    6  C11 UNL     1     -37.149  18.545  -0.627  1.00 20.00     0.043 C 
ENDROOT
BRANCH   4   7
HETATM    7  C9  UNL     1     -34.416  15.332  -2.937  1.00 20.00     0.022 C 
HETATM    8  C4  UNL     1     -35.250  15.052  -4.171  1.00 20.00    -0.082 C 
HETATM    9  C2  UNL     1     -34.567  15.519  -5.229  1.00 20.00    -0.019 C 
HETATM   10  C12 UNL     1     -36.588  14.423  -4.122  1.00 20.00     0.043 C 
HETATM   11  C7  UNL     1     -33.278  16.114  -4.701  1.00 20.00     0.014 C 
HETATM   12  C6  UNL     1     -33.029  15.120  -3.561  1.00 20.00     0.018 C 
ENDBRANCH   4   7
TORSDOF 2
ENDMDL
MODEL 7
REMARK VINA RESULT:      -4.4      2.774      4.165
REMARK  2 active torsions:
REMARK  status: ('A' for Active; 'I' for Inactive)
REMARK    1  A    between atoms: C7_7  and  C10_10 
REMARK    2  A    between atoms: C8_8  and  C9_9 
ROOT
HETATM    1  C1  UNL     1     -37.654  14.800  -3.735  1.00 20.00    -0.019 A 
HETATM    2  C3  UNL     1     -38.773  15.364  -4.202  1.00 20.00    -0.087 A 
HETATM    3  C5  UNL     1     -38.676  15.720  -5.654  1.00 20.00     0.039 A 
HETATM    4  C8  UNL     1     -36.605  14.651  -4.787  1.00 20.00     0.021 A 
HETATM    5  C10 UNL     1     -37.268  15.270  -6.066  1.00 20.00     0.005 A 
HETATM    6  C11 UNL     1     -40.009  15.651  -3.428  1.00 20.00     0.043 C 
ENDROOT
BRANCH   4   7
HETATM    7  C9  UNL     1     -35.345  15.534  -4.596  1.00 20.00     0.022 C 
HETATM    8  C4  UNL     1     -34.699  15.104  -3.294  1.00 20.00    -0.082 C 
HETATM    9  C2  UNL     1     -34.171  13.884  -3.493  1.00 20.00    -0.019 C 
HETATM   10  C12 UNL     1     -34.738  15.919  -2.059  1.00 20.00     0.043 C 
HETATM   11  C7  UNL     1     -34.468  13.499  -4.927  1.00 20.00     0.014 C 
HETATM   12  C6  UNL     1     -34.338  14.889  -5.560  1.00 20.00     0.018 C 
ENDBRANCH   4   7
TORSDOF 2
ENDMDL
MODEL 8
REMARK VINA RESULT:      -4.3      1.737      3.725
REMARK  2 active torsions:
REMARK  status: ('A' for Active; 'I' for Inactive)
REMARK    1  A    between atoms: C7_7  and  C10_10 
REMARK    2  A    between atoms: C8_8  and  C9_9 
ROOT
HETATM    1  C1  UNL     1     -34.702  16.113  -4.324  1.00 20.00    -0.019 A 
HETATM    2  C3  UNL     1     -34.502  15.477  -3.164  1.00 20.00    -0.087 A 
HETATM    3  C5  UNL     1     -34.305  14.003  -3.341  1.00 20.00     0.039 A 
HETATM    4  C8  UNL     1     -34.655  15.192  -5.498  1.00 20.00     0.021 A 
HETATM    5  C10 UNL     1     -34.404  13.782  -4.857  1.00 20.00     0.005 A 
HETATM    6  C11 UNL     1     -34.477  16.091  -1.811  1.00 20.00     0.043 C 
ENDROOT
BRANCH   4   7
HETATM    7  C9  UNL     1     -36.003  14.993  -6.237  1.00 20.00     0.022 C 
HETATM    8  C4  UNL     1     -36.390  16.339  -6.818  1.00 20.00    -0.082 C 
HETATM    9  C2  UNL     1     -35.540  16.598  -7.827  1.00 20.00    -0.019 C 
HETATM   10  C12 UNL     1     -37.483  17.174  -6.275  1.00 20.00     0.043 C 
HETATM   11  C7  UNL     1     -34.585  15.426  -7.917  1.00 20.00     0.014 C 
HETATM   12  C6  UNL     1     -35.568  14.311  -7.543  1.00 20.00     0.018 C 
ENDBRANCH   4   7
TORSDOF 2
ENDMDL
MODEL 9
REMARK VINA RESULT:      -4.3      2.208      3.521
REMARK  2 active torsions:
REMARK  status: ('A' for Active; 'I' for Inactive)
REMARK    1  A    between atoms: C7_7  and  C10_10 
REMARK    2  A    between atoms: C8_8  and  C9_9 
ROOT
HETATM    1  C1  UNL     1     -36.178  16.498  -3.088  1.00 20.00    -0.019 A 
HETATM    2  C3  UNL     1     -37.471  16.836  -3.141  1.00 20.00    -0.087 A 
HETATM    3  C5  UNL     1     -38.330  15.744  -3.702  1.00 20.00     0.039 A 
HETATM    4  C8  UNL     1     -35.929  15.110  -3.580  1.00 20.00     0.021 A 
HETATM    5  C10 UNL     1     -37.351  14.602  -4.002  1.00 20.00     0.005 A 
HETATM    6  C11 UNL     1     -38.064  18.134  -2.725  1.00 20.00     0.043 C 
ENDROOT
BRANCH   4   7
HETATM    7  C9  UNL     1     -35.125  15.011  -4.902  1.00 20.00     0.022 C 
HETATM    8  C4  UNL     1     -33.765  15.625  -4.639  1.00 20.00    -0.082 C 
HETATM    9  C2  UNL     1     -33.097  14.785  -3.830  1.00 20.00    -0.019 C 
HETATM   10  C12 UNL     1     -33.350  16.941  -5.172  1.00 20.00     0.043 C 
HETATM   11  C7  UNL     1     -34.013  13.612  -3.551  1.00 20.00     0.014 C 
HETATM   12  C6  UNL     1     -34.697  13.536  -4.920  1.00 20.00     0.018 C 
ENDBRANCH   4   7
TORSDOF 2
ENDMDL
