MODEL 1
REMARK VINA RESULT:      -5.4      0.000      0.000
REMARK  2 active torsions:
REMARK  status: ('A' for Active; 'I' for Inactive)
REMARK    1  A    between atoms: C1_1  and  C3_3 
REMARK    2  A    between atoms: C2_2  and  C3_3 
ROOT
HETATM    1  C3  UNL     1     -35.033   4.938   4.583  1.00 20.00     0.358 C 
HETATM    2  F8  UNL     1     -36.250   5.379   4.176  1.00 20.00    -0.194 F 
HETATM    3  F9  UNL     1     -34.970   3.617   4.281  1.00 20.00    -0.194 F 
ENDROOT
BRANCH   1   4
HETATM    4  C1  UNL     1     -33.959   5.670   3.817  1.00 20.00     0.430 C 
HETATM    5  F4  UNL     1     -33.942   5.224   2.534  1.00 20.00    -0.208 F 
HETATM    6  F5  UNL     1     -34.240   6.993   3.767  1.00 20.00    -0.208 F 
ENDBRANCH   1   4
BRANCH   1   7
HETATM    7  C2  UNL     1     -34.922   5.109   6.079  1.00 20.00     0.430 C 
HETATM    8  F6  UNL     1     -34.035   4.205   6.567  1.00 20.00    -0.208 F 
HETATM    9  F7  UNL     1     -34.429   6.337   6.371  1.00 20.00    -0.208 F 
ENDBRANCH   1   7
TORSDOF 2
ENDMDL
MODEL 2
REMARK VINA RESULT:      -5.4      0.002      2.816
REMARK  2 active torsions:
REMARK  status: ('A' for Active; 'I' for Inactive)
REMARK    1  A    between atoms: C1_1  and  C3_3 
REMARK    2  A    between atoms: C2_2  and  C3_3 
ROOT
HETATM    1  C3  UNL     1     -35.032   4.939   4.583  1.00 20.00     0.358 C 
HETATM    2  F8  UNL     1     -34.972   3.618   4.281  1.00 20.00    -0.194 F 
HETATM    3  F9  UNL     1     -36.248   5.382   4.177  1.00 20.00    -0.194 F 
ENDROOT
BRANCH   1   4
HETATM    4  C1  UNL     1     -34.920   5.110   6.078  1.00 20.00     0.430 C 
HETATM    5  F4  UNL     1     -34.037   4.203   6.568  1.00 20.00    -0.208 F 
HETATM    6  F5  UNL     1     -34.425   6.336   6.371  1.00 20.00    -0.208 F 
ENDBRANCH   1   4
BRANCH   1   7
HETATM    7  C2  UNL     1     -33.957   5.669   3.816  1.00 20.00     0.430 C 
HETATM    8  F6  UNL     1     -33.943   5.225   2.533  1.00 20.00    -0.208 F 
HETATM    9  F7  UNL     1     -34.237   6.994   3.767  1.00 20.00    -0.208 F 
ENDBRANCH   1   7
TORSDOF 2
ENDMDL
MODEL 3
REMARK VINA RESULT:      -5.2      1.212      2.441
REMARK  2 active torsions:
REMARK  status: ('A' for Active; 'I' for Inactive)
REMARK    1  A    between atoms: C1_1  and  C3_3 
REMARK    2  A    between atoms: C2_2  and  C3_3 
ROOT
HETATM    1  C3  UNL     1     -33.987   6.106   4.451  1.00 20.00     0.358 C 
HETATM    2  F8  UNL     1     -32.687   6.010   4.079  1.00 20.00    -0.194 F 
HETATM    3  F9  UNL     1     -34.377   7.382   4.201  1.00 20.00    -0.194 F 
ENDROOT
BRANCH   1   4
HETATM    4  C1  UNL     1     -34.815   5.165   3.610  1.00 20.00     0.430 C 
HETATM    5  F4  UNL     1     -36.060   5.684   3.452  1.00 20.00    -0.208 F 
HETATM    6  F5  UNL     1     -34.279   5.053   2.371  1.00 20.00    -0.208 F 
ENDBRANCH   1   4
BRANCH   1   7
HETATM    7  C2  UNL     1     -34.097   5.837   5.932  1.00 20.00     0.430 C 
HETATM    8  F6  UNL     1     -34.182   7.017   6.596  1.00 20.00    -0.208 F 
HETATM    9  F7  UNL     1     -35.238   5.156   6.198  1.00 20.00    -0.208 F 
ENDBRANCH   1   7
TORSDOF 2
ENDMDL
MODEL 4
REMARK VINA RESULT:      -5.2      1.214      3.257
REMARK  2 active torsions:
REMARK  status: ('A' for Active; 'I' for Inactive)
REMARK    1  A    between atoms: C1_1  and  C3_3 
REMARK    2  A    between atoms: C2_2  and  C3_3 
ROOT
HETATM    1  C3  UNL     1     -33.987   6.110   4.452  1.00 20.00     0.358 C 
HETATM    2  F8  UNL     1     -34.376   7.385   4.203  1.00 20.00    -0.194 F 
HETATM    3  F9  UNL     1     -32.685   6.014   4.083  1.00 20.00    -0.194 F 
ENDROOT
BRANCH   1   4
HETATM    4  C1  UNL     1     -34.099   5.838   5.933  1.00 20.00     0.430 C 
HETATM    5  F4  UNL     1     -34.184   7.018   6.599  1.00 20.00    -0.208 F 
HETATM    6  F5  UNL     1     -35.240   5.157   6.197  1.00 20.00    -0.208 F 
ENDBRANCH   1   4
BRANCH   1   7
HETATM    7  C2  UNL     1     -34.812   5.169   3.608  1.00 20.00     0.430 C 
HETATM    8  F6  UNL     1     -36.055   5.689   3.445  1.00 20.00    -0.208 F 
HETATM    9  F7  UNL     1     -34.270   5.056   2.372  1.00 20.00    -0.208 F 
ENDBRANCH   1   7
TORSDOF 2
ENDMDL
MODEL 5
REMARK VINA RESULT:      -5.2      1.211      2.335
REMARK  2 active torsions:
REMARK  status: ('A' for Active; 'I' for Inactive)
REMARK    1  A    between atoms: C1_1  and  C3_3 
REMARK    2  A    between atoms: C2_2  and  C3_3 
ROOT
HETATM    1  C3  UNL     1     -34.511   5.084   5.999  1.00 20.00     0.358 C 
HETATM    2  F8  UNL     1     -35.625   5.292   6.743  1.00 20.00    -0.194 F 
HETATM    3  F9  UNL     1     -33.831   4.063   6.580  1.00 20.00    -0.194 F 
ENDROOT
BRANCH   1   4
HETATM    4  C1  UNL     1     -34.916   4.673   4.604  1.00 20.00     0.430 C 
HETATM    5  F4  UNL     1     -35.145   3.335   4.581  1.00 20.00    -0.208 F 
HETATM    6  F5  UNL     1     -36.079   5.275   4.260  1.00 20.00    -0.208 F 
ENDBRANCH   1   4
BRANCH   1   7
HETATM    7  C2  UNL     1     -33.657   6.328   6.031  1.00 20.00     0.430 C 
HETATM    8  F6  UNL     1     -33.625   6.879   4.790  1.00 20.00    -0.208 F 
HETATM    9  F7  UNL     1     -34.210   7.251   6.853  1.00 20.00    -0.208 F 
ENDBRANCH   1   7
TORSDOF 2
ENDMDL
MODEL 6
REMARK VINA RESULT:      -5.1      1.098      2.287
REMARK  2 active torsions:
REMARK  status: ('A' for Active; 'I' for Inactive)
REMARK    1  A    between atoms: C1_1  and  C3_3 
REMARK    2  A    between atoms: C2_2  and  C3_3 
ROOT
HETATM    1  C3  UNL     1     -34.002   6.185   4.506  1.00 20.00     0.358 C 
HETATM    2  F8  UNL     1     -32.676   6.002   4.286  1.00 20.00    -0.194 F 
HETATM    3  F9  UNL     1     -34.325   7.397   3.990  1.00 20.00    -0.194 F 
ENDROOT
BRANCH   1   4
HETATM    4  C1  UNL     1     -34.778   5.117   3.775  1.00 20.00     0.430 C 
HETATM    5  F4  UNL     1     -36.096   5.443   3.775  1.00 20.00    -0.208 F 
HETATM    6  F5  UNL     1     -34.388   5.062   2.479  1.00 20.00    -0.208 F 
ENDBRANCH   1   4
BRANCH   1   7
HETATM    7  C2  UNL     1     -34.257   6.196   5.994  1.00 20.00     0.430 C 
HETATM    8  F6  UNL     1     -34.161   4.929   6.473  1.00 20.00    -0.208 F 
HETATM    9  F7  UNL     1     -33.306   6.925   6.624  1.00 20.00    -0.208 F 
ENDBRANCH   1   7
TORSDOF 2
ENDMDL
MODEL 7
REMARK VINA RESULT:      -5.1      1.316      2.826
REMARK  2 active torsions:
REMARK  status: ('A' for Active; 'I' for Inactive)
REMARK    1  A    between atoms: C1_1  and  C3_3 
REMARK    2  A    between atoms: C2_2  and  C3_3 
ROOT
HETATM    1  C3  UNL     1     -34.531   5.256   5.979  1.00 20.00     0.358 C 
HETATM    2  F8  UNL     1     -33.641   4.455   6.616  1.00 20.00    -0.194 F 
HETATM    3  F9  UNL     1     -35.631   5.333   6.770  1.00 20.00    -0.194 F 
ENDROOT
BRANCH   1   4
HETATM    4  C1  UNL     1     -33.937   6.636   5.829  1.00 20.00     0.430 C 
HETATM    5  F4  UNL     1     -33.222   6.938   6.943  1.00 20.00    -0.208 F 
HETATM    6  F5  UNL     1     -33.070   6.660   4.789  1.00 20.00    -0.208 F 
ENDBRANCH   1   4
BRANCH   1   7
HETATM    7  C2  UNL     1     -34.911   4.623   4.663  1.00 20.00     0.430 C 
HETATM    8  F6  UNL     1     -35.192   3.310   4.863  1.00 20.00    -0.208 F 
HETATM    9  F7  UNL     1     -36.040   5.195   4.179  1.00 20.00    -0.208 F 
ENDBRANCH   1   7
TORSDOF 2
ENDMDL
MODEL 8
REMARK VINA RESULT:      -5.0      0.964      1.802
REMARK  2 active torsions:
REMARK  status: ('A' for Active; 'I' for Inactive)
REMARK    1  A    between atoms: C1_1  and  C3_3 
REMARK    2  A    between atoms: C2_2  and  C3_3 
ROOT
HETATM    1  C3  UNL     1     -34.590   5.654   4.470  1.00 20.00     0.358 C 
HETATM    2  F8  UNL     1     -34.427   6.795   5.184  1.00 20.00    -0.194 F 
HETATM    3  F9  UNL     1     -35.811   5.725   3.883  1.00 20.00    -0.194 F 
ENDROOT
BRANCH   1   4
HETATM    4  C1  UNL     1     -33.532   5.586   3.396  1.00 20.00     0.430 C 
HETATM    5  F4  UNL     1     -34.093   5.140   2.243  1.00 20.00    -0.208 F 
HETATM    6  F5  UNL     1     -33.045   6.824   3.142  1.00 20.00    -0.208 F 
ENDBRANCH   1   4
BRANCH   1   7
HETATM    7  C2  UNL     1     -34.562   4.475   5.412  1.00 20.00     0.430 C 
HETATM    8  F6  UNL     1     -35.323   4.754   6.501  1.00 20.00    -0.208 F 
HETATM    9  F7  UNL     1     -35.114   3.390   4.817  1.00 20.00    -0.208 F 
ENDBRANCH   1   7
TORSDOF 2
ENDMDL
MODEL 9
REMARK VINA RESULT:      -5.0      0.963      3.177
REMARK  2 active torsions:
REMARK  status: ('A' for Active; 'I' for Inactive)
REMARK    1  A    between atoms: C1_1  and  C3_3 
REMARK    2  A    between atoms: C2_2  and  C3_3 
ROOT
HETATM    1  C3  UNL     1     -34.595   5.664   4.472  1.00 20.00     0.358 C 
HETATM    2  F8  UNL     1     -35.813   5.717   3.877  1.00 20.00    -0.194 F 
HETATM    3  F9  UNL     1     -34.450   6.813   5.178  1.00 20.00    -0.194 F 
ENDROOT
BRANCH   1   4
HETATM    4  C1  UNL     1     -34.559   4.493   5.424  1.00 20.00     0.430 C 
HETATM    5  F4  UNL     1     -35.314   4.782   6.516  1.00 20.00    -0.208 F 
HETATM    6  F5  UNL     1     -35.113   3.402   4.843  1.00 20.00    -0.208 F 
ENDBRANCH   1   4
BRANCH   1   7
HETATM    7  C2  UNL     1     -33.528   5.599   3.406  1.00 20.00     0.430 C 
HETATM    8  F6  UNL     1     -34.076   5.141   2.252  1.00 20.00    -0.208 F 
HETATM    9  F7  UNL     1     -33.053   6.841   3.147  1.00 20.00    -0.208 F 
ENDBRANCH   1   7
TORSDOF 2
ENDMDL
