MODEL 1
REMARK VINA RESULT:      -5.0      0.000      0.000
REMARK  1 active torsions:
REMARK  status: ('A' for Active; 'I' for Inactive)
REMARK    1  A    between atoms: C1_1  and  C4_4 
ROOT
HETATM    1  C3  UNL     1     -34.642   4.937   4.827  1.00 20.00    -0.024 C 
HETATM    2  C4  UNL     1     -34.043   6.128   5.032  1.00 20.00    -0.066 C 
HETATM    3  C6  UNL     1     -35.182   3.975   5.839  1.00 20.00     0.036 C 
HETATM    4  C7  UNL     1     -33.795   6.725   6.392  1.00 20.00     0.048 C 
ENDROOT
BRANCH   2   5
HETATM    5  C1  UNL     1     -33.599   6.895   3.865  1.00 20.00     0.002 C 
HETATM    6  C2  UNL     1     -32.348   6.975   3.382  1.00 20.00    -0.030 C 
HETATM    7  C5  UNL     1     -31.978   7.785   2.183  1.00 20.00     0.036 C 
ENDBRANCH   2   5
TORSDOF 1
ENDMDL
MODEL 2
REMARK VINA RESULT:      -4.6      0.877      1.483
REMARK  1 active torsions:
REMARK  status: ('A' for Active; 'I' for Inactive)
REMARK    1  A    between atoms: C1_1  and  C4_4 
ROOT
HETATM    1  C3  UNL     1     -34.298   5.263   5.831  1.00 20.00    -0.024 C 
HETATM    2  C4  UNL     1     -34.379   5.758   4.579  1.00 20.00    -0.066 C 
HETATM    3  C6  UNL     1     -35.196   4.273   6.505  1.00 20.00     0.036 C 
HETATM    4  C7  UNL     1     -35.452   5.383   3.591  1.00 20.00     0.048 C 
ENDROOT
BRANCH   2   5
HETATM    5  C1  UNL     1     -33.366   6.724   4.144  1.00 20.00     0.002 C 
HETATM    6  C2  UNL     1     -32.737   6.751   2.957  1.00 20.00    -0.030 C 
HETATM    7  C5  UNL     1     -31.711   7.774   2.592  1.00 20.00     0.036 C 
ENDBRANCH   2   5
TORSDOF 1
ENDMDL
MODEL 3
REMARK VINA RESULT:      -4.3      0.946      4.252
REMARK  1 active torsions:
REMARK  status: ('A' for Active; 'I' for Inactive)
REMARK    1  A    between atoms: C1_1  and  C4_4 
ROOT
HETATM    1  C3  UNL     1     -32.588   7.174   3.466  1.00 20.00    -0.024 C 
HETATM    2  C4  UNL     1     -33.503   6.187   3.562  1.00 20.00    -0.066 C 
HETATM    3  C6  UNL     1     -31.993   7.783   2.234  1.00 20.00     0.036 C 
HETATM    4  C7  UNL     1     -34.112   5.484   2.378  1.00 20.00     0.048 C 
ENDROOT
BRANCH   2   5
HETATM    5  C1  UNL     1     -33.934   5.764   4.897  1.00 20.00     0.002 C 
HETATM    6  C2  UNL     1     -34.814   4.791   5.187  1.00 20.00    -0.030 C 
HETATM    7  C5  UNL     1     -35.203   4.421   6.581  1.00 20.00     0.036 C 
ENDBRANCH   2   5
TORSDOF 1
ENDMDL
MODEL 4
REMARK VINA RESULT:      -4.1      1.244      4.300
REMARK  1 active torsions:
REMARK  status: ('A' for Active; 'I' for Inactive)
REMARK    1  A    between atoms: C1_1  and  C4_4 
ROOT
HETATM    1  C3  UNL     1     -32.511   7.722   1.809  1.00 20.00    -0.024 C 
HETATM    2  C4  UNL     1     -32.307   7.177   3.026  1.00 20.00    -0.066 C 
HETATM    3  C6  UNL     1     -31.796   8.870   1.166  1.00 20.00     0.036 C 
HETATM    4  C7  UNL     1     -31.270   7.662   4.005  1.00 20.00     0.048 C 
ENDROOT
BRANCH   2   5
HETATM    5  C1  UNL     1     -33.143   6.044   3.431  1.00 20.00     0.002 C 
HETATM    6  C2  UNL     1     -34.262   6.094   4.172  1.00 20.00    -0.030 C 
HETATM    7  C5  UNL     1     -35.059   4.887   4.544  1.00 20.00     0.036 C 
ENDBRANCH   2   5
TORSDOF 1
ENDMDL
MODEL 5
REMARK VINA RESULT:      -4.0     11.598     12.400
REMARK  1 active torsions:
REMARK  status: ('A' for Active; 'I' for Inactive)
REMARK    1  A    between atoms: C1_1  and  C4_4 
ROOT
HETATM    1  C3  UNL     1     -34.343  14.383  -3.444  1.00 20.00    -0.024 C 
HETATM    2  C4  UNL     1     -33.799  15.617  -3.495  1.00 20.00    -0.066 C 
HETATM    3  C6  UNL     1     -34.430  13.353  -4.526  1.00 20.00     0.036 C 
HETATM    4  C7  UNL     1     -33.157  16.205  -4.723  1.00 20.00     0.048 C 
ENDROOT
BRANCH   2   5
HETATM    5  C1  UNL     1     -33.835  16.445  -2.287  1.00 20.00     0.002 C 
HETATM    6  C2  UNL     1     -34.709  16.351  -1.272  1.00 20.00    -0.030 C 
HETATM    7  C5  UNL     1     -34.677  17.239  -0.071  1.00 20.00     0.036 C 
ENDBRANCH   2   5
TORSDOF 1
ENDMDL
MODEL 6
REMARK VINA RESULT:      -3.8     11.412     12.813
REMARK  1 active torsions:
REMARK  status: ('A' for Active; 'I' for Inactive)
REMARK    1  A    between atoms: C1_1  and  C4_4 
ROOT
HETATM    1  C3  UNL     1     -34.183  15.751  -5.123  1.00 20.00    -0.024 C 
HETATM    2  C4  UNL     1     -33.847  15.117  -3.980  1.00 20.00    -0.066 C 
HETATM    3  C6  UNL     1     -34.340  15.180  -6.498  1.00 20.00     0.036 C 
HETATM    4  C7  UNL     1     -33.549  13.644  -3.889  1.00 20.00     0.048 C 
ENDROOT
BRANCH   2   5
HETATM    5  C1  UNL     1     -33.761  15.903  -2.747  1.00 20.00     0.002 C 
HETATM    6  C2  UNL     1     -34.738  16.092  -1.844  1.00 20.00    -0.030 C 
HETATM    7  C5  UNL     1     -34.568  16.913  -0.607  1.00 20.00     0.036 C 
ENDBRANCH   2   5
TORSDOF 1
ENDMDL
MODEL 7
REMARK VINA RESULT:      -3.8     11.848     12.560
REMARK  1 active torsions:
REMARK  status: ('A' for Active; 'I' for Inactive)
REMARK    1  A    between atoms: C1_1  and  C4_4 
ROOT
HETATM    1  C3  UNL     1     -33.122  18.051  -0.717  1.00 20.00    -0.024 C 
HETATM    2  C4  UNL     1     -34.251  17.379  -0.410  1.00 20.00    -0.066 C 
HETATM    3  C6  UNL     1     -32.419  19.110   0.073  1.00 20.00     0.036 C 
HETATM    4  C7  UNL     1     -35.046  17.596   0.850  1.00 20.00     0.048 C 
ENDROOT
BRANCH   2   5
HETATM    5  C1  UNL     1     -34.744  16.375  -1.357  1.00 20.00     0.002 C 
HETATM    6  C2  UNL     1     -34.092  15.888  -2.426  1.00 20.00    -0.030 C 
HETATM    7  C5  UNL     1     -34.669  14.862  -3.346  1.00 20.00     0.036 C 
ENDBRANCH   2   5
TORSDOF 1
ENDMDL
MODEL 8
REMARK VINA RESULT:      -3.8     11.607     12.348
REMARK  1 active torsions:
REMARK  status: ('A' for Active; 'I' for Inactive)
REMARK    1  A    between atoms: C1_1  and  C4_4 
ROOT
HETATM    1  C3  UNL     1     -34.623  16.547  -0.823  1.00 20.00    -0.024 C 
HETATM    2  C4  UNL     1     -34.017  16.921  -1.969  1.00 20.00    -0.066 C 
HETATM    3  C6  UNL     1     -35.035  17.395   0.339  1.00 20.00     0.036 C 
HETATM    4  C7  UNL     1     -33.622  18.338  -2.290  1.00 20.00     0.048 C 
ENDROOT
BRANCH   2   5
HETATM    5  C1  UNL     1     -33.718  15.892  -2.968  1.00 20.00     0.002 C 
HETATM    6  C2  UNL     1     -34.366  14.729  -3.145  1.00 20.00    -0.030 C 
HETATM    7  C5  UNL     1     -33.995  13.729  -4.191  1.00 20.00     0.036 C 
ENDBRANCH   2   5
TORSDOF 1
ENDMDL
MODEL 9
REMARK VINA RESULT:      -3.7      1.707      3.340
REMARK  1 active torsions:
REMARK  status: ('A' for Active; 'I' for Inactive)
REMARK    1  A    between atoms: C1_1  and  C4_4 
ROOT
HETATM    1  C3  UNL     1     -34.196   5.784   3.914  1.00 20.00    -0.024 C 
HETATM    2  C4  UNL     1     -34.535   5.250   5.105  1.00 20.00    -0.066 C 
HETATM    3  C6  UNL     1     -34.265   5.160   2.555  1.00 20.00     0.036 C 
HETATM    4  C7  UNL     1     -35.067   3.852   5.282  1.00 20.00     0.048 C 
ENDROOT
BRANCH   2   5
HETATM    5  C1  UNL     1     -34.379   6.071   6.308  1.00 20.00     0.002 C 
HETATM    6  C2  UNL     1     -33.554   7.121   6.464  1.00 20.00    -0.030 C 
HETATM    7  C5  UNL     1     -33.453   7.908   7.729  1.00 20.00     0.036 C 
ENDBRANCH   2   5
TORSDOF 1
ENDMDL
