MODEL 1
REMARK VINA RESULT:      -4.4      0.000      0.000
REMARK  0 active torsions:
REMARK  status: ('A' for Active; 'I' for Inactive)
ROOT
HETATM    1  C1  UNL     1     -35.168  13.939  -4.735  1.00 20.00     0.135 C 
HETATM    2  C2  UNL     1     -34.568  14.350  -6.056  1.00 20.00     0.088 C 
HETATM    3  C3  UNL     1     -35.796  16.209  -5.091  1.00 20.00     0.025 C 
HETATM    4  C4  UNL     1     -35.958  15.058  -4.077  1.00 20.00     0.014 C 
HETATM    5  C5  UNL     1     -34.574  15.882  -5.977  1.00 20.00    -0.040 C 
HETATM    6  C6  UNL     1     -37.427  14.647  -3.947  1.00 20.00     0.023 C 
HETATM    7  C7  UNL     1     -35.384  15.391  -2.701  1.00 20.00     0.023 C 
HETATM    8  C8  UNL     1     -34.739  16.501  -7.371  1.00 20.00     0.015 C 
HETATM    9  C9  UNL     1     -33.263  16.403  -5.367  1.00 20.00     0.015 C 
HETATM   10  O10 UNL     1     -35.059  12.810  -4.273  1.00 20.00    -0.297 OA
ENDROOT
TORSDOF 0
ENDMDL
MODEL 2
REMARK VINA RESULT:      -4.4      1.213      2.031
REMARK  0 active torsions:
REMARK  status: ('A' for Active; 'I' for Inactive)
ROOT
HETATM    1  C1  UNL     1     -36.034  14.745  -4.371  1.00 20.00     0.135 C 
HETATM    2  C2  UNL     1     -36.360  15.540  -5.610  1.00 20.00     0.088 C 
HETATM    3  C3  UNL     1     -34.091  16.022  -4.891  1.00 20.00     0.025 C 
HETATM    4  C4  UNL     1     -34.626  15.005  -3.862  1.00 20.00     0.014 C 
HETATM    5  C5  UNL     1     -34.975  15.918  -6.153  1.00 20.00    -0.040 C 
HETATM    6  C6  UNL     1     -34.687  15.623  -2.463  1.00 20.00     0.023 C 
HETATM    7  C7  UNL     1     -33.814  13.710  -3.827  1.00 20.00     0.023 C 
HETATM    8  C8  UNL     1     -35.025  17.264  -6.888  1.00 20.00     0.015 C 
HETATM    9  C9  UNL     1     -34.462  14.850  -7.131  1.00 20.00     0.015 C 
HETATM   10  O10 UNL     1     -36.839  14.005  -3.819  1.00 20.00    -0.297 OA
ENDROOT
TORSDOF 0
ENDMDL
MODEL 3
REMARK VINA RESULT:      -4.3      1.872      2.696
REMARK  0 active torsions:
REMARK  status: ('A' for Active; 'I' for Inactive)
ROOT
HETATM    1  C1  UNL     1     -33.694  15.846  -5.079  1.00 20.00     0.135 C 
HETATM    2  C2  UNL     1     -34.101  15.892  -6.530  1.00 20.00     0.088 C 
HETATM    3  C3  UNL     1     -35.270  14.088  -5.398  1.00 20.00     0.025 C 
HETATM    4  C4  UNL     1     -34.386  14.733  -4.311  1.00 20.00     0.014 C 
HETATM    5  C5  UNL     1     -35.424  15.115  -6.542  1.00 20.00    -0.040 C 
HETATM    6  C6  UNL     1     -33.345  13.737  -3.792  1.00 20.00     0.023 C 
HETATM    7  C7  UNL     1     -35.195  15.299  -3.145  1.00 20.00     0.023 C 
HETATM    8  C8  UNL     1     -35.626  14.399  -7.885  1.00 20.00     0.015 C 
HETATM    9  C9  UNL     1     -36.614  16.060  -6.313  1.00 20.00     0.015 C 
HETATM   10  O10 UNL     1     -32.862  16.603  -4.593  1.00 20.00    -0.297 OA
ENDROOT
TORSDOF 0
ENDMDL
MODEL 4
REMARK VINA RESULT:      -4.3      1.310      3.034
REMARK  0 active torsions:
REMARK  status: ('A' for Active; 'I' for Inactive)
ROOT
HETATM    1  C1  UNL     1     -34.785  13.827  -4.870  1.00 20.00     0.135 C 
HETATM    2  C2  UNL     1     -34.228  14.212  -3.523  1.00 20.00     0.088 C 
HETATM    3  C3  UNL     1     -34.687  16.207  -4.830  1.00 20.00     0.025 C 
HETATM    4  C4  UNL     1     -35.090  15.031  -5.744  1.00 20.00     0.014 C 
HETATM    5  C5  UNL     1     -34.654  15.679  -3.379  1.00 20.00    -0.040 C 
HETATM    6  C6  UNL     1     -34.218  14.993  -7.002  1.00 20.00     0.023 C 
HETATM    7  C7  UNL     1     -36.568  15.060  -6.133  1.00 20.00     0.023 C 
HETATM    8  C8  UNL     1     -33.636  16.465  -2.543  1.00 20.00     0.015 C 
HETATM    9  C9  UNL     1     -36.027  15.783  -2.695  1.00 20.00     0.015 C 
HETATM   10  O10 UNL     1     -34.932  12.663  -5.226  1.00 20.00    -0.297 OA
ENDROOT
TORSDOF 0
ENDMDL
MODEL 5
REMARK VINA RESULT:      -4.3      1.463      2.870
REMARK  0 active torsions:
REMARK  status: ('A' for Active; 'I' for Inactive)
ROOT
HETATM    1  C1  UNL     1     -34.182  14.173  -3.895  1.00 20.00     0.135 C 
HETATM    2  C2  UNL     1     -35.562  13.631  -4.170  1.00 20.00     0.088 C 
HETATM    3  C3  UNL     1     -35.630  16.057  -4.066  1.00 20.00     0.025 C 
HETATM    4  C4  UNL     1     -34.153  15.689  -3.811  1.00 20.00     0.014 C 
HETATM    5  C5  UNL     1     -36.300  14.845  -4.750  1.00 20.00    -0.040 C 
HETATM    6  C6  UNL     1     -33.718  16.122  -2.408  1.00 20.00     0.023 C 
HETATM    7  C7  UNL     1     -33.205  16.274  -4.857  1.00 20.00     0.023 C 
HETATM    8  C8  UNL     1     -37.795  14.792  -4.407  1.00 20.00     0.015 C 
HETATM    9  C9  UNL     1     -36.155  14.892  -6.280  1.00 20.00     0.015 C 
HETATM   10  O10 UNL     1     -33.204  13.455  -3.717  1.00 20.00    -0.297 OA
ENDROOT
TORSDOF 0
ENDMDL
MODEL 6
REMARK VINA RESULT:      -4.3      2.016      3.464
REMARK  0 active torsions:
REMARK  status: ('A' for Active; 'I' for Inactive)
ROOT
HETATM    1  C1  UNL     1     -33.720  16.176  -4.437  1.00 20.00     0.135 C 
HETATM    2  C2  UNL     1     -34.434  17.295  -3.723  1.00 20.00     0.088 C 
HETATM    3  C3  UNL     1     -35.672  15.222  -3.462  1.00 20.00     0.025 C 
HETATM    4  C4  UNL     1     -34.446  14.847  -4.319  1.00 20.00     0.014 C 
HETATM    5  C5  UNL     1     -35.350  16.550  -2.742  1.00 20.00    -0.040 C 
HETATM    6  C6  UNL     1     -34.876  14.367  -5.707  1.00 20.00     0.023 C 
HETATM    7  C7  UNL     1     -33.554  13.798  -3.656  1.00 20.00     0.023 C 
HETATM    8  C8  UNL     1     -36.635  17.347  -2.480  1.00 20.00     0.015 C 
HETATM    9  C9  UNL     1     -34.639  16.321  -1.399  1.00 20.00     0.015 C 
HETATM   10  O10 UNL     1     -32.688  16.342  -5.077  1.00 20.00    -0.297 OA
ENDROOT
TORSDOF 0
ENDMDL
MODEL 7
REMARK VINA RESULT:      -4.2      1.685      3.356
REMARK  0 active torsions:
REMARK  status: ('A' for Active; 'I' for Inactive)
ROOT
HETATM    1  C1  UNL     1     -35.670  14.746  -3.614  1.00 20.00     0.135 C 
HETATM    2  C2  UNL     1     -35.648  15.743  -2.485  1.00 20.00     0.088 C 
HETATM    3  C3  UNL     1     -33.466  15.647  -3.546  1.00 20.00     0.025 C 
HETATM    4  C4  UNL     1     -34.330  14.630  -4.321  1.00 20.00     0.014 C 
HETATM    5  C5  UNL     1     -34.424  16.610  -2.812  1.00 20.00    -0.040 C 
HETATM    6  C6  UNL     1     -33.780  13.211  -4.159  1.00 20.00     0.023 C 
HETATM    7  C7  UNL     1     -34.466  14.973  -5.804  1.00 20.00     0.023 C 
HETATM    8  C8  UNL     1     -33.773  17.144  -1.530  1.00 20.00     0.015 C 
HETATM    9  C9  UNL     1     -34.823  17.808  -3.689  1.00 20.00     0.015 C 
HETATM   10  O10 UNL     1     -36.656  14.075  -3.896  1.00 20.00    -0.297 OA
ENDROOT
TORSDOF 0
ENDMDL
MODEL 8
REMARK VINA RESULT:      -4.2      1.712      2.684
REMARK  0 active torsions:
REMARK  status: ('A' for Active; 'I' for Inactive)
ROOT
HETATM    1  C1  UNL     1     -36.375  14.686  -3.990  1.00 20.00     0.135 C 
HETATM    2  C2  UNL     1     -35.050  14.175  -3.486  1.00 20.00     0.088 C 
HETATM    3  C3  UNL     1     -34.743  16.308  -4.604  1.00 20.00     0.025 C 
HETATM    4  C4  UNL     1     -36.255  16.019  -4.708  1.00 20.00     0.014 C 
HETATM    5  C5  UNL     1     -34.179  15.439  -3.460  1.00 20.00    -0.040 C 
HETATM    6  C6  UNL     1     -36.682  15.861  -6.169  1.00 20.00     0.023 C 
HETATM    7  C7  UNL     1     -37.113  17.083  -4.024  1.00 20.00     0.023 C 
HETATM    8  C8  UNL     1     -32.707  15.094  -3.720  1.00 20.00     0.015 C 
HETATM    9  C9  UNL     1     -34.279  16.142  -2.096  1.00 20.00     0.015 C 
HETATM   10  O10 UNL     1     -37.424  14.064  -3.865  1.00 20.00    -0.297 OA
ENDROOT
TORSDOF 0
ENDMDL
MODEL 9
REMARK VINA RESULT:      -4.1      2.581      3.819
REMARK  0 active torsions:
REMARK  status: ('A' for Active; 'I' for Inactive)
ROOT
HETATM    1  C1  UNL     1     -33.756  17.373  -3.640  1.00 20.00     0.135 C 
HETATM    2  C2  UNL     1     -33.325  16.147  -4.404  1.00 20.00     0.088 C 
HETATM    3  C3  UNL     1     -34.523  15.492  -2.396  1.00 20.00     0.025 C 
HETATM    4  C4  UNL     1     -34.509  17.034  -2.365  1.00 20.00     0.014 C 
HETATM    5  C5  UNL     1     -34.246  15.052  -3.850  1.00 20.00    -0.040 C 
HETATM    6  C6  UNL     1     -33.731  17.550  -1.152  1.00 20.00     0.023 C 
HETATM    7  C7  UNL     1     -35.911  17.642  -2.384  1.00 20.00     0.023 C 
HETATM    8  C8  UNL     1     -33.549  13.685  -3.876  1.00 20.00     0.015 C 
HETATM    9  C9  UNL     1     -35.537  14.954  -4.679  1.00 20.00     0.015 C 
HETATM   10  O10 UNL     1     -33.487  18.514  -3.998  1.00 20.00    -0.297 OA
ENDROOT
TORSDOF 0
ENDMDL
