MODEL 1
REMARK VINA RESULT:      -5.7      0.000      0.000
REMARK  0 active torsions:
REMARK  status: ('A' for Active; 'I' for Inactive)
ROOT
HETATM    1  C1  UNL     1     -32.809   6.319   3.455  1.00 20.00     0.071 C 
HETATM    2  C2  UNL     1     -34.396   4.701   6.590  1.00 20.00    -0.000 C 
HETATM    3  C3  UNL     1     -34.970   3.962   5.633  1.00 20.00    -0.000 C 
HETATM    4  C4  UNL     1     -34.127   6.115   6.572  1.00 20.00    -0.002 C 
HETATM    5  C5  UNL     1     -35.457   4.403   4.352  1.00 20.00    -0.002 C 
HETATM    6  C6  UNL     1     -33.980   6.907   5.501  1.00 20.00    -0.004 C 
HETATM    7  C7  UNL     1     -35.082   5.487   3.661  1.00 20.00    -0.004 C 
HETATM    8  C8  UNL     1     -34.131   6.588   4.039  1.00 20.00     0.138 C 
HETATM    9  N9  UNL     1     -31.766   6.105   2.995  1.00 20.00    -0.196 NA
ENDROOT
TORSDOF 0
ENDMDL
MODEL 2
REMARK VINA RESULT:      -4.8     12.209     13.635
REMARK  0 active torsions:
REMARK  status: ('A' for Active; 'I' for Inactive)
ROOT
HETATM    1  C1  UNL     1     -36.372  14.057  -4.153  1.00 20.00     0.071 C 
HETATM    2  C2  UNL     1     -33.156  16.178  -4.501  1.00 20.00    -0.000 C 
HETATM    3  C3  UNL     1     -33.658  16.316  -5.734  1.00 20.00    -0.000 C 
HETATM    4  C4  UNL     1     -33.150  14.998  -3.677  1.00 20.00    -0.002 C 
HETATM    5  C5  UNL     1     -34.316  15.317  -6.535  1.00 20.00    -0.002 C 
HETATM    6  C6  UNL     1     -33.980  13.947  -3.745  1.00 20.00    -0.004 C 
HETATM    7  C7  UNL     1     -34.947  14.213  -6.114  1.00 20.00    -0.004 C 
HETATM    8  C8  UNL     1     -35.080  13.651  -4.726  1.00 20.00     0.138 C 
HETATM    9  N9  UNL     1     -37.391  14.379  -3.700  1.00 20.00    -0.196 NA
ENDROOT
TORSDOF 0
ENDMDL
MODEL 3
REMARK VINA RESULT:      -4.5     12.146     13.513
REMARK  0 active torsions:
REMARK  status: ('A' for Active; 'I' for Inactive)
ROOT
HETATM    1  C1  UNL     1     -34.147  15.838  -2.513  1.00 20.00     0.071 C 
HETATM    2  C2  UNL     1     -34.846  15.233  -6.269  1.00 20.00    -0.000 C 
HETATM    3  C3  UNL     1     -35.064  14.002  -5.792  1.00 20.00    -0.000 C 
HETATM    4  C4  UNL     1     -33.824  16.166  -5.871  1.00 20.00    -0.002 C 
HETATM    5  C5  UNL     1     -34.330  13.311  -4.764  1.00 20.00    -0.002 C 
HETATM    6  C6  UNL     1     -33.167  16.213  -4.704  1.00 20.00    -0.004 C 
HETATM    7  C7  UNL     1     -33.587  13.847  -3.786  1.00 20.00    -0.004 C 
HETATM    8  C8  UNL     1     -33.234  15.284  -3.523  1.00 20.00     0.138 C 
HETATM    9  N9  UNL     1     -34.868  16.276  -1.716  1.00 20.00    -0.196 NA
ENDROOT
TORSDOF 0
ENDMDL
MODEL 4
REMARK VINA RESULT:      -4.5     12.127     13.452
REMARK  0 active torsions:
REMARK  status: ('A' for Active; 'I' for Inactive)
ROOT
HETATM    1  C1  UNL     1     -36.630  14.423  -4.212  1.00 20.00     0.071 C 
HETATM    2  C2  UNL     1     -32.868  15.148  -3.680  1.00 20.00    -0.000 C 
HETATM    3  C3  UNL     1     -33.180  16.146  -4.515  1.00 20.00    -0.000 C 
HETATM    4  C4  UNL     1     -33.338  13.787  -3.716  1.00 20.00    -0.002 C 
HETATM    5  C5  UNL     1     -34.062  16.103  -5.652  1.00 20.00    -0.002 C 
HETATM    6  C6  UNL     1     -34.464  13.325  -4.275  1.00 20.00    -0.004 C 
HETATM    7  C7  UNL     1     -35.065  15.244  -5.879  1.00 20.00    -0.004 C 
HETATM    8  C8  UNL     1     -35.506  14.048  -5.083  1.00 20.00     0.138 C 
HETATM    9  N9  UNL     1     -37.516  14.720  -3.525  1.00 20.00    -0.196 NA
ENDROOT
TORSDOF 0
ENDMDL
MODEL 5
REMARK VINA RESULT:      -4.4     12.405     13.131
REMARK  0 active torsions:
REMARK  status: ('A' for Active; 'I' for Inactive)
ROOT
HETATM    1  C1  UNL     1     -33.413  16.885  -4.393  1.00 20.00     0.071 C 
HETATM    2  C2  UNL     1     -34.995  13.356  -4.451  1.00 20.00    -0.000 C 
HETATM    3  C3  UNL     1     -36.065  14.083  -4.106  1.00 20.00    -0.000 C 
HETATM    4  C4  UNL     1     -33.634  13.524  -4.013  1.00 20.00    -0.002 C 
HETATM    5  C5  UNL     1     -36.114  15.211  -3.213  1.00 20.00    -0.002 C 
HETATM    6  C6  UNL     1     -33.058  14.638  -3.541  1.00 20.00    -0.004 C 
HETATM    7  C7  UNL     1     -35.113  16.036  -2.879  1.00 20.00    -0.004 C 
HETATM    8  C8  UNL     1     -33.658  15.987  -3.255  1.00 20.00     0.138 C 
HETATM    9  N9  UNL     1     -33.220  17.593  -5.291  1.00 20.00    -0.196 NA
ENDROOT
TORSDOF 0
ENDMDL
MODEL 6
REMARK VINA RESULT:      -4.4     12.343     13.810
REMARK  0 active torsions:
REMARK  status: ('A' for Active; 'I' for Inactive)
ROOT
HETATM    1  C1  UNL     1     -34.155  17.090  -3.620  1.00 20.00     0.071 C 
HETATM    2  C2  UNL     1     -35.005  13.970  -5.743  1.00 20.00    -0.000 C 
HETATM    3  C3  UNL     1     -34.571  13.377  -4.624  1.00 20.00    -0.000 C 
HETATM    4  C4  UNL     1     -34.476  15.148  -6.380  1.00 20.00    -0.002 C 
HETATM    5  C5  UNL     1     -33.471  13.775  -3.784  1.00 20.00    -0.002 C 
HETATM    6  C6  UNL     1     -33.761  16.132  -5.817  1.00 20.00    -0.004 C 
HETATM    7  C7  UNL     1     -32.929  14.994  -3.666  1.00 20.00    -0.004 C 
HETATM    8  C8  UNL     1     -33.237  16.261  -4.414  1.00 20.00     0.138 C 
HETATM    9  N9  UNL     1     -34.881  17.744  -2.994  1.00 20.00    -0.196 NA
ENDROOT
TORSDOF 0
ENDMDL
MODEL 7
REMARK VINA RESULT:      -4.3     12.155     13.638
REMARK  0 active torsions:
REMARK  status: ('A' for Active; 'I' for Inactive)
ROOT
HETATM    1  C1  UNL     1     -34.469  13.755  -3.832  1.00 20.00     0.071 C 
HETATM    2  C2  UNL     1     -35.591  17.449  -4.076  1.00 20.00    -0.000 C 
HETATM    3  C3  UNL     1     -34.632  17.437  -5.010  1.00 20.00    -0.000 C 
HETATM    4  C4  UNL     1     -35.589  16.783  -2.799  1.00 20.00    -0.002 C 
HETATM    5  C5  UNL     1     -33.366  16.753  -4.965  1.00 20.00    -0.002 C 
HETATM    6  C6  UNL     1     -34.882  15.703  -2.440  1.00 20.00    -0.004 C 
HETATM    7  C7  UNL     1     -33.040  15.678  -4.236  1.00 20.00    -0.004 C 
HETATM    8  C8  UNL     1     -33.845  14.931  -3.209  1.00 20.00     0.138 C 
HETATM    9  N9  UNL     1     -34.962  12.828  -4.324  1.00 20.00    -0.196 NA
ENDROOT
TORSDOF 0
ENDMDL
MODEL 8
REMARK VINA RESULT:      -4.2     12.083     13.330
REMARK  0 active torsions:
REMARK  status: ('A' for Active; 'I' for Inactive)
ROOT
HETATM    1  C1  UNL     1     -37.728  14.905  -4.093  1.00 20.00     0.071 C 
HETATM    2  C2  UNL     1     -34.244  13.367  -4.775  1.00 20.00    -0.000 C 
HETATM    3  C3  UNL     1     -34.052  13.836  -3.536  1.00 20.00    -0.000 C 
HETATM    4  C4  UNL     1     -34.978  13.986  -5.848  1.00 20.00    -0.002 C 
HETATM    5  C5  UNL     1     -34.532  15.072  -2.975  1.00 20.00    -0.002 C 
HETATM    6  C6  UNL     1     -35.955  14.898  -5.754  1.00 20.00    -0.004 C 
HETATM    7  C7  UNL     1     -35.586  15.797  -3.372  1.00 20.00    -0.004 C 
HETATM    8  C8  UNL     1     -36.509  15.594  -4.541  1.00 20.00     0.138 C 
HETATM    9  N9  UNL     1     -38.689  14.361  -3.739  1.00 20.00    -0.196 NA
ENDROOT
TORSDOF 0
ENDMDL
MODEL 9
REMARK VINA RESULT:      -4.2     12.504     13.106
REMARK  0 active torsions:
REMARK  status: ('A' for Active; 'I' for Inactive)
ROOT
HETATM    1  C1  UNL     1     -35.194  14.076  -6.128  1.00 20.00     0.071 C 
HETATM    2  C2  UNL     1     -34.816  16.208  -2.923  1.00 20.00    -0.000 C 
HETATM    3  C3  UNL     1     -33.552  15.796  -3.077  1.00 20.00    -0.000 C 
HETATM    4  C4  UNL     1     -36.024  15.456  -3.145  1.00 20.00    -0.002 C 
HETATM    5  C5  UNL     1     -33.093  14.500  -3.503  1.00 20.00    -0.002 C 
HETATM    6  C6  UNL     1     -36.188  14.384  -3.933  1.00 20.00    -0.004 C 
HETATM    7  C7  UNL     1     -33.758  13.592  -4.230  1.00 20.00    -0.004 C 
HETATM    8  C8  UNL     1     -35.174  13.613  -4.733  1.00 20.00     0.138 C 
HETATM    9  N9  UNL     1     -35.210  14.442  -7.229  1.00 20.00    -0.196 NA
ENDROOT
TORSDOF 0
ENDMDL
