MODEL 1
REMARK VINA RESULT:      -5.1      0.000      0.000
REMARK  1 active torsions:
REMARK  status: ('A' for Active; 'I' for Inactive)
REMARK    1  A    between atoms: C1_1  and  C3_3 
ROOT
HETATM    1  C2  UNL     1     -33.367  14.991  -3.357  1.00 20.00     0.110 C 
HETATM    2  C3  UNL     1     -34.273  15.169  -4.609  1.00 20.00     0.110 C 
HETATM    3  C4  UNL     1     -34.183  16.079  -2.635  1.00 20.00     0.310 C 
HETATM    4  C5  UNL     1     -35.323  15.833  -3.655  1.00 20.00     0.323 C 
HETATM    5  C6  UNL     1     -33.692  16.137  -5.643  1.00 20.00     0.031 C 
HETATM    6  F8  UNL     1     -33.644  17.320  -2.660  1.00 20.00    -0.200 F 
HETATM    7  F9  UNL     1     -34.492  15.818  -1.345  1.00 20.00    -0.200 F 
HETATM    8  F10 UNL     1     -36.305  15.012  -3.215  1.00 20.00    -0.198 F 
HETATM    9  F11 UNL     1     -35.932  16.944  -4.126  1.00 20.00    -0.198 F 
ENDROOT
BRANCH   2  10
HETATM   10  C1  UNL     1     -34.738  13.850  -5.288  1.00 20.00     0.233 C 
HETATM   11  O7  UNL     1     -34.670  12.769  -4.711  1.00 20.00    -0.279 OA
HETATM   12 CL12 UNL     1     -35.335  14.119  -6.898  1.00 20.00    -0.043 Cl
ENDBRANCH   2  10
TORSDOF 1
ENDMDL
MODEL 2
REMARK VINA RESULT:      -4.8      2.032      2.435
REMARK  1 active torsions:
REMARK  status: ('A' for Active; 'I' for Inactive)
REMARK    1  A    between atoms: C1_1  and  C3_3 
ROOT
HETATM    1  C2  UNL     1     -33.199  16.096  -4.930  1.00 20.00     0.110 C 
HETATM    2  C3  UNL     1     -34.643  15.559  -5.142  1.00 20.00     0.110 C 
HETATM    3  C4  UNL     1     -33.088  15.241  -3.654  1.00 20.00     0.310 C 
HETATM    4  C5  UNL     1     -34.257  14.377  -4.191  1.00 20.00     0.323 C 
HETATM    5  C6  UNL     1     -35.721  16.479  -4.564  1.00 20.00     0.031 C 
HETATM    6  F8  UNL     1     -33.338  15.894  -2.496  1.00 20.00    -0.200 F 
HETATM    7  F9  UNL     1     -31.916  14.591  -3.487  1.00 20.00    -0.200 F 
HETATM    8  F10 UNL     1     -33.875  13.236  -4.811  1.00 20.00    -0.198 F 
HETATM    9  F11 UNL     1     -35.188  14.024  -3.275  1.00 20.00    -0.198 F 
ENDROOT
BRANCH   2  10
HETATM   10  C1  UNL     1     -34.994  15.147  -6.599  1.00 20.00     0.233 C 
HETATM   11  O7  UNL     1     -34.122  14.950  -7.441  1.00 20.00    -0.279 OA
HETATM   12 CL12 UNL     1     -36.709  15.016  -6.847  1.00 20.00    -0.043 Cl
ENDBRANCH   2  10
TORSDOF 1
ENDMDL
MODEL 3
REMARK VINA RESULT:      -4.7      1.661      2.041
REMARK  1 active torsions:
REMARK  status: ('A' for Active; 'I' for Inactive)
REMARK    1  A    between atoms: C1_1  and  C3_3 
ROOT
HETATM    1  C2  UNL     1     -33.444  16.112  -4.566  1.00 20.00     0.110 C 
HETATM    2  C3  UNL     1     -34.648  15.141  -4.406  1.00 20.00     0.110 C 
HETATM    3  C4  UNL     1     -34.190  17.150  -3.707  1.00 20.00     0.310 C 
HETATM    4  C5  UNL     1     -35.067  15.995  -3.162  1.00 20.00     0.323 C 
HETATM    5  C6  UNL     1     -35.647  15.220  -5.563  1.00 20.00     0.031 C 
HETATM    6  F8  UNL     1     -34.856  18.104  -4.398  1.00 20.00    -0.200 F 
HETATM    7  F9  UNL     1     -33.439  17.793  -2.786  1.00 20.00    -0.200 F 
HETATM    8  F10 UNL     1     -34.672  15.505  -1.964  1.00 20.00    -0.198 F 
HETATM    9  F11 UNL     1     -36.386  16.270  -3.049  1.00 20.00    -0.198 F 
ENDROOT
BRANCH   2  10
HETATM   10  C1  UNL     1     -34.275  13.664  -4.099  1.00 20.00     0.233 C 
HETATM   11  O7  UNL     1     -35.063  12.744  -4.303  1.00 20.00    -0.279 OA
HETATM   12 CL12 UNL     1     -32.667  13.515  -3.459  1.00 20.00    -0.043 Cl
ENDBRANCH   2  10
TORSDOF 1
ENDMDL
MODEL 4
REMARK VINA RESULT:      -4.7      2.145      3.121
REMARK  1 active torsions:
REMARK  status: ('A' for Active; 'I' for Inactive)
REMARK    1  A    between atoms: C1_1  and  C3_3 
ROOT
HETATM    1  C2  UNL     1     -36.309  15.334  -4.489  1.00 20.00     0.110 C 
HETATM    2  C3  UNL     1     -34.884  15.114  -3.905  1.00 20.00     0.110 C 
HETATM    3  C4  UNL     1     -35.798  16.592  -5.214  1.00 20.00     0.310 C 
HETATM    4  C5  UNL     1     -34.358  16.041  -5.052  1.00 20.00     0.323 C 
HETATM    5  C6  UNL     1     -34.704  15.713  -2.508  1.00 20.00     0.031 C 
HETATM    6  F8  UNL     1     -36.040  17.764  -4.583  1.00 20.00    -0.200 F 
HETATM    7  F9  UNL     1     -36.221  16.744  -6.488  1.00 20.00    -0.200 F 
HETATM    8  F10 UNL     1     -33.877  15.397  -6.142  1.00 20.00    -0.198 F 
HETATM    9  F11 UNL     1     -33.423  16.951  -4.698  1.00 20.00    -0.198 F 
ENDROOT
BRANCH   2  10
HETATM   10  C1  UNL     1     -34.365  13.649  -3.948  1.00 20.00     0.233 C 
HETATM   11  O7  UNL     1     -35.091  12.718  -4.283  1.00 20.00    -0.279 OA
HETATM   12 CL12 UNL     1     -32.696  13.533  -3.478  1.00 20.00    -0.043 Cl
ENDBRANCH   2  10
TORSDOF 1
ENDMDL
MODEL 5
REMARK VINA RESULT:      -4.6      3.140      3.803
REMARK  1 active torsions:
REMARK  status: ('A' for Active; 'I' for Inactive)
REMARK    1  A    between atoms: C1_1  and  C3_3 
ROOT
HETATM    1  C2  UNL     1     -34.885  14.371  -3.189  1.00 20.00     0.110 C 
HETATM    2  C3  UNL     1     -35.011  15.743  -3.912  1.00 20.00     0.110 C 
HETATM    3  C4  UNL     1     -33.973  13.876  -4.328  1.00 20.00     0.310 C 
HETATM    4  C5  UNL     1     -33.712  15.359  -4.696  1.00 20.00     0.323 C 
HETATM    5  C6  UNL     1     -36.252  15.844  -4.802  1.00 20.00     0.031 C 
HETATM    6  F8  UNL     1     -34.587  13.144  -5.285  1.00 20.00    -0.200 F 
HETATM    7  F9  UNL     1     -32.885  13.174  -3.941  1.00 20.00    -0.200 F 
HETATM    8  F10 UNL     1     -32.561  15.868  -4.196  1.00 20.00    -0.198 F 
HETATM    9  F11 UNL     1     -33.713  15.638  -6.019  1.00 20.00    -0.198 F 
ENDROOT
BRANCH   2  10
HETATM   10  C1  UNL     1     -34.886  16.992  -2.996  1.00 20.00     0.233 C 
HETATM   11  O7  UNL     1     -35.035  18.129  -3.433  1.00 20.00    -0.279 OA
HETATM   12 CL12 UNL     1     -34.522  16.563  -1.351  1.00 20.00    -0.043 Cl
ENDBRANCH   2  10
TORSDOF 1
ENDMDL
MODEL 6
REMARK VINA RESULT:      -4.6      1.274      2.301
REMARK  1 active torsions:
REMARK  status: ('A' for Active; 'I' for Inactive)
REMARK    1  A    between atoms: C1_1  and  C3_3 
ROOT
HETATM    1  C2  UNL     1     -35.165  16.423  -4.921  1.00 20.00     0.110 C 
HETATM    2  C3  UNL     1     -35.444  15.131  -4.102  1.00 20.00     0.110 C 
HETATM    3  C4  UNL     1     -34.517  17.051  -3.673  1.00 20.00     0.310 C 
HETATM    4  C5  UNL     1     -34.341  15.620  -3.105  1.00 20.00     0.323 C 
HETATM    5  C6  UNL     1     -36.846  15.094  -3.489  1.00 20.00     0.031 C 
HETATM    6  F8  UNL     1     -35.319  17.865  -2.950  1.00 20.00    -0.200 F 
HETATM    7  F9  UNL     1     -33.370  17.733  -3.892  1.00 20.00    -0.200 F 
HETATM    8  F10 UNL     1     -33.111  15.086  -3.294  1.00 20.00    -0.198 F 
HETATM    9  F11 UNL     1     -34.624  15.477  -1.791  1.00 20.00    -0.198 F 
ENDROOT
BRANCH   2  10
HETATM   10  C1  UNL     1     -35.129  13.797  -4.835  1.00 20.00     0.233 C 
HETATM   11  O7  UNL     1     -34.980  12.744  -4.223  1.00 20.00    -0.279 OA
HETATM   12 CL12 UNL     1     -35.024  14.007  -6.557  1.00 20.00    -0.043 Cl
ENDBRANCH   2  10
TORSDOF 1
ENDMDL
MODEL 7
REMARK VINA RESULT:      -4.6      2.743      3.871
REMARK  1 active torsions:
REMARK  status: ('A' for Active; 'I' for Inactive)
REMARK    1  A    between atoms: C1_1  and  C3_3 
ROOT
HETATM    1  C2  UNL     1     -34.488  13.813  -5.303  1.00 20.00     0.110 C 
HETATM    2  C3  UNL     1     -34.638  15.030  -4.345  1.00 20.00     0.110 C 
HETATM    3  C4  UNL     1     -35.026  14.679  -6.457  1.00 20.00     0.310 C 
HETATM    4  C5  UNL     1     -34.655  15.932  -5.624  1.00 20.00     0.323 C 
HETATM    5  C6  UNL     1     -35.963  15.036  -3.579  1.00 20.00     0.031 C 
HETATM    6  F8  UNL     1     -36.344  14.534  -6.725  1.00 20.00    -0.200 F 
HETATM    7  F9  UNL     1     -34.375  14.551  -7.635  1.00 20.00    -0.200 F 
HETATM    8  F10 UNL     1     -33.467  16.494  -5.952  1.00 20.00    -0.198 F 
HETATM    9  F11 UNL     1     -35.568  16.929  -5.635  1.00 20.00    -0.198 F 
ENDROOT
BRANCH   2  10
HETATM   10  C1  UNL     1     -33.443  15.270  -3.381  1.00 20.00     0.233 C 
HETATM   11  O7  UNL     1     -32.363  14.707  -3.540  1.00 20.00    -0.279 OA
HETATM   12 CL12 UNL     1     -33.839  16.391  -2.114  1.00 20.00    -0.043 Cl
ENDBRANCH   2  10
TORSDOF 1
ENDMDL
MODEL 8
REMARK VINA RESULT:      -4.6      1.864      2.102
REMARK  1 active torsions:
REMARK  status: ('A' for Active; 'I' for Inactive)
REMARK    1  A    between atoms: C1_1  and  C3_3 
ROOT
HETATM    1  C2  UNL     1     -34.568  14.343  -3.359  1.00 20.00     0.110 C 
HETATM    2  C3  UNL     1     -35.284  14.875  -4.633  1.00 20.00     0.110 C 
HETATM    3  C4  UNL     1     -33.638  15.570  -3.392  1.00 20.00     0.310 C 
HETATM    4  C5  UNL     1     -34.687  16.280  -4.284  1.00 20.00     0.323 C 
HETATM    5  C6  UNL     1     -34.729  14.283  -5.931  1.00 20.00     0.031 C 
HETATM    6  F8  UNL     1     -32.432  15.367  -3.970  1.00 20.00    -0.200 F 
HETATM    7  F9  UNL     1     -33.401  16.155  -2.197  1.00 20.00    -0.200 F 
HETATM    8  F10 UNL     1     -35.520  17.114  -3.618  1.00 20.00    -0.198 F 
HETATM    9  F11 UNL     1     -34.186  16.985  -5.323  1.00 20.00    -0.198 F 
ENDROOT
BRANCH   2  10
HETATM   10  C1  UNL     1     -36.836  14.791  -4.609  1.00 20.00     0.233 C 
HETATM   11  O7  UNL     1     -37.434  14.148  -3.751  1.00 20.00    -0.279 OA
HETATM   12 CL12 UNL     1     -37.560  15.694  -5.906  1.00 20.00    -0.043 Cl
ENDBRANCH   2  10
TORSDOF 1
ENDMDL
MODEL 9
REMARK VINA RESULT:      -4.6      2.724      3.452
REMARK  1 active torsions:
REMARK  status: ('A' for Active; 'I' for Inactive)
REMARK    1  A    between atoms: C1_1  and  C3_3 
ROOT
HETATM    1  C2  UNL     1     -35.817  15.959  -4.120  1.00 20.00     0.110 C 
HETATM    2  C3  UNL     1     -34.449  15.372  -4.571  1.00 20.00     0.110 C 
HETATM    3  C4  UNL     1     -36.524  14.746  -4.752  1.00 20.00     0.310 C 
HETATM    4  C5  UNL     1     -35.173  13.990  -4.694  1.00 20.00     0.323 C 
HETATM    5  C6  UNL     1     -33.966  15.928  -5.913  1.00 20.00     0.031 C 
HETATM    6  F8  UNL     1     -37.020  14.947  -5.995  1.00 20.00    -0.200 F 
HETATM    7  F9  UNL     1     -37.523  14.206  -4.019  1.00 20.00    -0.200 F 
HETATM    8  F10 UNL     1     -35.034  13.167  -3.628  1.00 20.00    -0.198 F 
HETATM    9  F11 UNL     1     -34.869  13.257  -5.789  1.00 20.00    -0.198 F 
ENDROOT
BRANCH   2  10
HETATM   10  C1  UNL     1     -33.315  15.433  -3.509  1.00 20.00     0.233 C 
HETATM   11  O7  UNL     1     -32.266  14.812  -3.649  1.00 20.00    -0.279 OA
HETATM   12 CL12 UNL     1     -33.731  16.457  -2.168  1.00 20.00    -0.043 Cl
ENDBRANCH   2  10
TORSDOF 1
ENDMDL
