MODEL 1
REMARK VINA RESULT:      -4.3      0.000      0.000
REMARK  1 active torsions:
REMARK  status: ('A' for Active; 'I' for Inactive)
REMARK    1  A    between atoms: C4_4  and  C5_5 
ROOT
HETATM    1  C1  UNL     1     -33.167   6.476   3.375  1.00 20.00     0.059 C 
HETATM    2  C5  UNL     1     -34.424   5.911   3.878  1.00 20.00     0.128 C 
HETATM    3  N6  UNL     1     -32.175   6.925   2.975  1.00 20.00    -0.197 NA
ENDROOT
BRANCH   2   4
HETATM    4  C4  UNL     1     -34.058   5.147   5.104  1.00 20.00    -0.002 A 
HETATM    5  C2  UNL     1     -34.772   5.411   6.402  1.00 20.00     0.006 A 
HETATM    6  C3  UNL     1     -35.003   4.121   5.664  1.00 20.00     0.006 A 
ENDBRANCH   2   4
TORSDOF 1
ENDMDL
MODEL 2
REMARK VINA RESULT:      -4.3      0.690      1.071
REMARK  1 active torsions:
REMARK  status: ('A' for Active; 'I' for Inactive)
REMARK    1  A    between atoms: C4_4  and  C5_5 
ROOT
HETATM    1  C1  UNL     1     -33.349   6.166   3.494  1.00 20.00     0.059 C 
HETATM    2  C5  UNL     1     -34.478   5.231   3.446  1.00 20.00     0.128 C 
HETATM    3  N6  UNL     1     -32.454   6.904   3.529  1.00 20.00    -0.197 NA
ENDROOT
BRANCH   2   4
HETATM    4  C4  UNL     1     -35.139   5.332   4.778  1.00 20.00    -0.002 A 
HETATM    5  C2  UNL     1     -35.071   4.182   5.745  1.00 20.00     0.006 A 
HETATM    6  C3  UNL     1     -34.309   5.447   6.026  1.00 20.00     0.006 A 
ENDBRANCH   2   4
TORSDOF 1
ENDMDL
MODEL 3
REMARK VINA RESULT:      -4.1      1.072      1.606
REMARK  1 active torsions:
REMARK  status: ('A' for Active; 'I' for Inactive)
REMARK    1  A    between atoms: C4_4  and  C5_5 
ROOT
HETATM    1  C1  UNL     1     -32.407   7.149   2.794  1.00 20.00     0.059 C 
HETATM    2  C5  UNL     1     -32.855   5.880   3.378  1.00 20.00     0.128 C 
HETATM    3  N6  UNL     1     -32.050   8.152   2.332  1.00 20.00    -0.197 NA
ENDROOT
BRANCH   2   4
HETATM    4  C4  UNL     1     -34.125   6.193   4.092  1.00 20.00    -0.002 A 
HETATM    5  C2  UNL     1     -35.122   5.104   4.376  1.00 20.00     0.006 A 
HETATM    6  C3  UNL     1     -34.336   5.716   5.502  1.00 20.00     0.006 A 
ENDBRANCH   2   4
TORSDOF 1
ENDMDL
MODEL 4
REMARK VINA RESULT:      -3.9      2.190      3.355
REMARK  1 active torsions:
REMARK  status: ('A' for Active; 'I' for Inactive)
REMARK    1  A    between atoms: C4_4  and  C5_5 
ROOT
HETATM    1  C1  UNL     1     -34.702   4.763   5.365  1.00 20.00     0.059 C 
HETATM    2  C5  UNL     1     -34.046   6.072   5.455  1.00 20.00     0.128 C 
HETATM    3  N6  UNL     1     -35.220   3.727   5.297  1.00 20.00    -0.197 NA
ENDROOT
BRANCH   2   4
HETATM    4  C4  UNL     1     -33.926   6.558   4.051  1.00 20.00    -0.002 A 
HETATM    5  C2  UNL     1     -32.570   6.811   3.451  1.00 20.00     0.006 A 
HETATM    6  C3  UNL     1     -33.396   5.647   2.979  1.00 20.00     0.006 A 
ENDBRANCH   2   4
TORSDOF 1
ENDMDL
MODEL 5
REMARK VINA RESULT:      -3.9      2.228      3.565
REMARK  1 active torsions:
REMARK  status: ('A' for Active; 'I' for Inactive)
REMARK    1  A    between atoms: C4_4  and  C5_5 
ROOT
HETATM    1  C1  UNL     1     -34.933   4.849   5.008  1.00 20.00     0.059 C 
HETATM    2  C5  UNL     1     -34.645   5.565   3.761  1.00 20.00     0.128 C 
HETATM    3  N6  UNL     1     -35.164   4.281   5.994  1.00 20.00    -0.197 NA
ENDROOT
BRANCH   2   4
HETATM    4  C4  UNL     1     -33.336   6.242   3.980  1.00 20.00    -0.002 A 
HETATM    5  C2  UNL     1     -32.157   5.913   3.107  1.00 20.00     0.006 A 
HETATM    6  C3  UNL     1     -32.831   7.251   2.987  1.00 20.00     0.006 A 
ENDBRANCH   2   4
TORSDOF 1
ENDMDL
MODEL 6
REMARK VINA RESULT:      -3.8      1.800      2.841
REMARK  1 active torsions:
REMARK  status: ('A' for Active; 'I' for Inactive)
REMARK    1  A    between atoms: C4_4  and  C5_5 
ROOT
HETATM    1  C1  UNL     1     -34.033   6.357   6.500  1.00 20.00     0.059 C 
HETATM    2  C5  UNL     1     -34.885   5.206   6.183  1.00 20.00     0.128 C 
HETATM    3  N6  UNL     1     -33.360   7.267   6.754  1.00 20.00    -0.197 NA
ENDROOT
BRANCH   2   4
HETATM    4  C4  UNL     1     -34.616   4.889   4.752  1.00 20.00    -0.002 A 
HETATM    5  C2  UNL     1     -35.521   5.422   3.675  1.00 20.00     0.006 A 
HETATM    6  C3  UNL     1     -34.126   5.962   3.820  1.00 20.00     0.006 A 
ENDBRANCH   2   4
TORSDOF 1
ENDMDL
MODEL 7
REMARK VINA RESULT:      -3.5     11.983     12.445
REMARK  1 active torsions:
REMARK  status: ('A' for Active; 'I' for Inactive)
REMARK    1  A    between atoms: C4_4  and  C5_5 
ROOT
HETATM    1  C1  UNL     1     -35.214  13.851  -3.979  1.00 20.00     0.059 C 
HETATM    2  C5  UNL     1     -35.553  15.167  -3.427  1.00 20.00     0.128 C 
HETATM    3  N6  UNL     1     -34.948  12.810  -4.417  1.00 20.00    -0.197 NA
ENDROOT
BRANCH   2   4
HETATM    4  C4  UNL     1     -34.415  15.536  -2.539  1.00 20.00    -0.002 A 
HETATM    5  C2  UNL     1     -33.905  16.950  -2.509  1.00 20.00     0.006 A 
HETATM    6  C3  UNL     1     -34.650  16.394  -1.328  1.00 20.00     0.006 A 
ENDBRANCH   2   4
TORSDOF 1
ENDMDL
MODEL 8
REMARK VINA RESULT:      -3.3      2.605      4.779
REMARK  1 active torsions:
REMARK  status: ('A' for Active; 'I' for Inactive)
REMARK    1  A    between atoms: C4_4  and  C5_5 
ROOT
HETATM    1  C1  UNL     1     -32.853   6.594   3.659  1.00 20.00     0.059 C 
HETATM    2  C5  UNL     1     -31.855   7.513   3.102  1.00 20.00     0.128 C 
HETATM    3  N6  UNL     1     -33.641   5.865   4.101  1.00 20.00    -0.197 NA
ENDROOT
BRANCH   2   4
HETATM    4  C4  UNL     1     -32.507   8.145   1.920  1.00 20.00    -0.002 A 
HETATM    5  C2  UNL     1     -32.436   9.635   1.723  1.00 20.00     0.006 A 
HETATM    6  C3  UNL     1     -31.669   8.717   0.811  1.00 20.00     0.006 A 
ENDBRANCH   2   4
TORSDOF 1
ENDMDL
MODEL 9
REMARK VINA RESULT:      -3.2     12.638     13.139
REMARK  1 active torsions:
REMARK  status: ('A' for Active; 'I' for Inactive)
REMARK    1  A    between atoms: C4_4  and  C5_5 
ROOT
HETATM    1  C1  UNL     1     -33.403  16.126  -4.024  1.00 20.00     0.059 C 
HETATM    2  C5  UNL     1     -33.944  15.620  -2.758  1.00 20.00     0.128 C 
HETATM    3  N6  UNL     1     -32.973  16.524  -5.026  1.00 20.00    -0.197 NA
ENDROOT
BRANCH   2   4
HETATM    4  C4  UNL     1     -34.450  16.817  -2.030  1.00 20.00    -0.002 A 
HETATM    5  C2  UNL     1     -34.698  16.755  -0.548  1.00 20.00     0.006 A 
HETATM    6  C3  UNL     1     -33.551  17.564  -1.085  1.00 20.00     0.006 A 
ENDBRANCH   2   4
TORSDOF 1
ENDMDL
