MODEL 1
REMARK VINA RESULT:      -4.0      0.000      0.000
REMARK  1 active torsions:
REMARK  status: ('A' for Active; 'I' for Inactive)
REMARK    1  A    between atoms: C1_1  and  C6_6 
ROOT
HETATM    1  C2  UNL     1     -33.089   6.583   5.268  1.00 20.00     0.022 C 
HETATM    2  C3  UNL     1     -34.225   5.359   3.346  1.00 20.00     0.022 C 
HETATM    3  C4  UNL     1     -34.203   6.277   6.261  1.00 20.00     0.074 C 
HETATM    4  C5  UNL     1     -35.433   4.951   4.180  1.00 20.00     0.074 C 
HETATM    5  C6  UNL     1     -33.582   6.663   3.822  1.00 20.00     0.048 C 
HETATM    6  S8  UNL     1     -34.991   4.677   5.920  1.00 20.00    -0.169 SA
ENDROOT
BRANCH   5   7
HETATM    7  C1  UNL     1     -32.431   6.992   2.921  1.00 20.00     0.235 C 
HETATM    8  O7  UNL     1     -32.304   8.072   2.353  1.00 20.00    -0.306 OA
ENDBRANCH   5   7
TORSDOF 1
ENDMDL
MODEL 2
REMARK VINA RESULT:      -3.8     11.805     12.748
REMARK  1 active torsions:
REMARK  status: ('A' for Active; 'I' for Inactive)
REMARK    1  A    between atoms: C1_1  and  C6_6 
ROOT
HETATM    1  C2  UNL     1     -34.689  15.464  -2.655  1.00 20.00     0.022 C 
HETATM    2  C3  UNL     1     -34.196  15.517  -5.152  1.00 20.00     0.022 C 
HETATM    3  C4  UNL     1     -33.859  16.707  -2.358  1.00 20.00     0.074 C 
HETATM    4  C5  UNL     1     -33.326  16.765  -5.061  1.00 20.00     0.074 C 
HETATM    5  C6  UNL     1     -34.183  14.684  -3.870  1.00 20.00     0.048 C 
HETATM    6  S8  UNL     1     -33.882  17.881  -3.742  1.00 20.00    -0.169 SA
ENDROOT
BRANCH   5   7
HETATM    7  C1  UNL     1     -35.037  13.470  -4.073  1.00 20.00     0.235 C 
HETATM    8  O7  UNL     1     -34.735  12.549  -4.825  1.00 20.00    -0.306 OA
ENDBRANCH   5   7
TORSDOF 1
ENDMDL
MODEL 3
REMARK VINA RESULT:      -3.6     11.703     12.832
REMARK  1 active torsions:
REMARK  status: ('A' for Active; 'I' for Inactive)
REMARK    1  A    between atoms: C1_1  and  C6_6 
ROOT
HETATM    1  C2  UNL     1     -33.325  15.922  -4.523  1.00 20.00     0.022 C 
HETATM    2  C3  UNL     1     -34.792  15.630  -2.462  1.00 20.00     0.022 C 
HETATM    3  C4  UNL     1     -33.620  17.411  -4.652  1.00 20.00     0.074 C 
HETATM    4  C5  UNL     1     -35.207  17.096  -2.421  1.00 20.00     0.074 C 
HETATM    5  C6  UNL     1     -34.469  15.140  -3.874  1.00 20.00     0.048 C 
HETATM    6  S8  UNL     1     -33.893  18.188  -3.034  1.00 20.00    -0.169 SA
ENDROOT
BRANCH   5   7
HETATM    7  C1  UNL     1     -34.107  13.687  -3.811  1.00 20.00     0.235 C 
HETATM    8  O7  UNL     1     -34.862  12.787  -4.162  1.00 20.00    -0.306 OA
ENDBRANCH   5   7
TORSDOF 1
ENDMDL
MODEL 4
REMARK VINA RESULT:      -3.5     11.724     12.347
REMARK  1 active torsions:
REMARK  status: ('A' for Active; 'I' for Inactive)
REMARK    1  A    between atoms: C1_1  and  C6_6 
ROOT
HETATM    1  C2  UNL     1     -35.829  15.037  -3.943  1.00 20.00     0.022 C 
HETATM    2  C3  UNL     1     -33.425  15.577  -3.303  1.00 20.00     0.022 C 
HETATM    3  C4  UNL     1     -36.420  16.137  -3.071  1.00 20.00     0.074 C 
HETATM    4  C5  UNL     1     -33.817  16.722  -2.379  1.00 20.00     0.074 C 
HETATM    5  C6  UNL     1     -34.502  14.496  -3.407  1.00 20.00     0.048 C 
HETATM    6  S8  UNL     1     -35.315  17.572  -2.954  1.00 20.00    -0.169 SA
ENDROOT
BRANCH   5   7
HETATM    7  C1  UNL     1     -34.008  13.405  -4.308  1.00 20.00     0.235 C 
HETATM    8  O7  UNL     1     -34.743  12.567  -4.821  1.00 20.00    -0.306 OA
ENDBRANCH   5   7
TORSDOF 1
ENDMDL
MODEL 5
REMARK VINA RESULT:      -3.5     11.589     12.260
REMARK  1 active torsions:
REMARK  status: ('A' for Active; 'I' for Inactive)
REMARK    1  A    between atoms: C1_1  and  C6_6 
ROOT
HETATM    1  C2  UNL     1     -35.460  16.174  -3.208  1.00 20.00     0.022 C 
HETATM    2  C3  UNL     1     -35.369  13.905  -4.359  1.00 20.00     0.022 C 
HETATM    3  C4  UNL     1     -34.046  16.067  -2.651  1.00 20.00     0.074 C 
HETATM    4  C5  UNL     1     -33.947  13.611  -3.898  1.00 20.00     0.074 C 
HETATM    5  C6  UNL     1     -36.133  14.813  -3.396  1.00 20.00     0.048 C 
HETATM    6  S8  UNL     1     -32.955  15.125  -3.756  1.00 20.00    -0.169 SA
ENDROOT
BRANCH   5   7
HETATM    7  C1  UNL     1     -37.523  15.014  -3.920  1.00 20.00     0.235 C 
HETATM    8  O7  UNL     1     -38.416  14.181  -3.805  1.00 20.00    -0.306 OA
ENDBRANCH   5   7
TORSDOF 1
ENDMDL
MODEL 6
REMARK VINA RESULT:      -3.5     11.645     11.996
REMARK  1 active torsions:
REMARK  status: ('A' for Active; 'I' for Inactive)
REMARK    1  A    between atoms: C1_1  and  C6_6 
ROOT
HETATM    1  C2  UNL     1     -33.512  15.146  -3.209  1.00 20.00     0.022 C 
HETATM    2  C3  UNL     1     -36.022  15.571  -3.255  1.00 20.00     0.022 C 
HETATM    3  C4  UNL     1     -33.606  13.869  -4.033  1.00 20.00     0.074 C 
HETATM    4  C5  UNL     1     -36.323  14.328  -4.084  1.00 20.00     0.074 C 
HETATM    5  C6  UNL     1     -34.773  15.421  -2.386  1.00 20.00     0.048 C 
HETATM    6  S8  UNL     1     -34.970  13.936  -5.229  1.00 20.00    -0.169 SA
ENDROOT
BRANCH   5   7
HETATM    7  C1  UNL     1     -34.584  16.677  -1.590  1.00 20.00     0.235 C 
HETATM    8  O7  UNL     1     -34.724  16.734  -0.373  1.00 20.00    -0.306 OA
ENDBRANCH   5   7
TORSDOF 1
ENDMDL
MODEL 7
REMARK VINA RESULT:      -3.4     12.469     13.603
REMARK  1 active torsions:
REMARK  status: ('A' for Active; 'I' for Inactive)
REMARK    1  A    between atoms: C1_1  and  C6_6 
ROOT
HETATM    1  C2  UNL     1     -33.964  16.083  -4.204  1.00 20.00     0.022 C 
HETATM    2  C3  UNL     1     -34.853  14.686  -6.139  1.00 20.00     0.022 C 
HETATM    3  C4  UNL     1     -33.433  17.188  -5.107  1.00 20.00     0.074 C 
HETATM    4  C5  UNL     1     -34.396  15.678  -7.202  1.00 20.00     0.074 C 
HETATM    5  C6  UNL     1     -33.980  14.712  -4.883  1.00 20.00     0.048 C 
HETATM    6  S8  UNL     1     -34.450  17.389  -6.598  1.00 20.00    -0.169 SA
ENDROOT
BRANCH   5   7
HETATM    7  C1  UNL     1     -34.490  13.684  -3.919  1.00 20.00     0.235 C 
HETATM    8  O7  UNL     1     -35.068  12.659  -4.265  1.00 20.00    -0.306 OA
ENDBRANCH   5   7
TORSDOF 1
ENDMDL
MODEL 8
REMARK VINA RESULT:      -3.4     11.913     12.751
REMARK  1 active torsions:
REMARK  status: ('A' for Active; 'I' for Inactive)
REMARK    1  A    between atoms: C1_1  and  C6_6 
ROOT
HETATM    1  C2  UNL     1     -33.657  17.166  -3.849  1.00 20.00     0.022 C 
HETATM    2  C3  UNL     1     -34.717  15.083  -2.839  1.00 20.00     0.022 C 
HETATM    3  C4  UNL     1     -33.269  16.469  -5.146  1.00 20.00     0.074 C 
HETATM    4  C5  UNL     1     -34.417  14.214  -4.054  1.00 20.00     0.074 C 
HETATM    5  C6  UNL     1     -33.707  16.215  -2.651  1.00 20.00     0.048 C 
HETATM    6  S8  UNL     1     -34.456  15.171  -5.596  1.00 20.00    -0.169 SA
ENDROOT
BRANCH   5   7
HETATM    7  C1  UNL     1     -34.070  16.987  -1.418  1.00 20.00     0.235 C 
HETATM    8  O7  UNL     1     -34.716  16.512  -0.489  1.00 20.00    -0.306 OA
ENDBRANCH   5   7
TORSDOF 1
ENDMDL
MODEL 9
REMARK VINA RESULT:      -3.3     11.781     12.777
REMARK  1 active torsions:
REMARK  status: ('A' for Active; 'I' for Inactive)
REMARK    1  A    between atoms: C1_1  and  C6_6 
ROOT
HETATM    1  C2  UNL     1     -35.484  13.705  -4.149  1.00 20.00     0.022 C 
HETATM    2  C3  UNL     1     -35.545  16.247  -4.286  1.00 20.00     0.022 C 
HETATM    3  C4  UNL     1     -33.982  13.623  -4.391  1.00 20.00     0.074 C 
HETATM    4  C5  UNL     1     -34.048  16.374  -4.538  1.00 20.00     0.074 C 
HETATM    5  C6  UNL     1     -36.128  14.930  -4.801  1.00 20.00     0.048 C 
HETATM    6  S8  UNL     1     -33.108  15.061  -3.708  1.00 20.00    -0.169 SA
ENDROOT
BRANCH   5   7
HETATM    7  C1  UNL     1     -37.603  14.918  -4.536  1.00 20.00     0.235 C 
HETATM    8  O7  UNL     1     -38.131  14.209  -3.685  1.00 20.00    -0.306 OA
ENDBRANCH   5   7
TORSDOF 1
ENDMDL
