MODEL 1
REMARK VINA RESULT:      -5.5      0.000      0.000
REMARK  6 active torsions:
REMARK  status: ('A' for Active; 'I' for Inactive)
REMARK    1  A    between atoms: C1_1  and  C4_4 
REMARK    2  A    between atoms: C4_4  and  C5_5 
REMARK    3  A    between atoms: C5_5  and  C6_6 
REMARK    4  A    between atoms: C6_6  and  C7_7 
REMARK    5  A    between atoms: C7_7  and  C8_8 
REMARK    6  A    between atoms: C8_8  and  C9_9 
ROOT
HETATM    1  C6  UNL     1     -32.354   6.162   3.178  1.00 20.00     0.000 C 
ENDROOT
BRANCH   1   2
HETATM    2  C5  UNL     1     -32.141   7.655   2.923  1.00 20.00     0.008 C 
BRANCH   2   3
HETATM    3  C4  UNL     1     -31.742   7.919   1.471  1.00 20.00     0.096 C 
BRANCH   3   4
HETATM    4  C1  UNL     1     -32.455   9.127   0.888  1.00 20.00     0.218 C 
HETATM    5  O10 UNL     1     -32.774   9.209  -0.294  1.00 20.00    -0.280 OA
HETATM    6 CL11 UNL     1     -32.747  10.343   2.100  1.00 20.00    -0.044 Cl
ENDBRANCH   3   4
ENDBRANCH   2   3
ENDBRANCH   1   2
BRANCH   1   7
HETATM    7  C7  UNL     1     -33.769   5.729   2.791  1.00 20.00     0.000 C 
BRANCH   7   8
HETATM    8  C8  UNL     1     -34.752   5.727   3.967  1.00 20.00     0.004 C 
BRANCH   8   9
HETATM    9  C9  UNL     1     -34.170   5.304   5.329  1.00 20.00    -0.023 C 
HETATM   10  C2  UNL     1     -34.130   6.458   6.331  1.00 20.00     0.009 C 
HETATM   11  C3  UNL     1     -34.994   4.148   5.906  1.00 20.00     0.009 C 
ENDBRANCH   8   9
ENDBRANCH   7   8
ENDBRANCH   1   7
TORSDOF 6
ENDMDL
MODEL 2
REMARK VINA RESULT:      -5.4      1.167      1.167
REMARK  6 active torsions:
REMARK  status: ('A' for Active; 'I' for Inactive)
REMARK    1  A    between atoms: C1_1  and  C4_4 
REMARK    2  A    between atoms: C4_4  and  C5_5 
REMARK    3  A    between atoms: C5_5  and  C6_6 
REMARK    4  A    between atoms: C6_6  and  C7_7 
REMARK    5  A    between atoms: C7_7  and  C8_8 
REMARK    6  A    between atoms: C8_8  and  C9_9 
ROOT
HETATM    1  C6  UNL     1     -32.528   5.940   2.979  1.00 20.00     0.000 C 
ENDROOT
BRANCH   1   2
HETATM    2  C5  UNL     1     -32.472   7.465   3.085  1.00 20.00     0.008 C 
BRANCH   2   3
HETATM    3  C4  UNL     1     -31.675   8.073   1.930  1.00 20.00     0.096 C 
BRANCH   3   4
HETATM    4  C1  UNL     1     -32.379   9.265   1.308  1.00 20.00     0.218 C 
HETATM    5  O10 UNL     1     -32.628  10.294   1.929  1.00 20.00    -0.280 OA
HETATM    6 CL11 UNL     1     -32.771   8.974  -0.364  1.00 20.00    -0.044 Cl
ENDBRANCH   3   4
ENDBRANCH   2   3
ENDBRANCH   1   2
BRANCH   1   7
HETATM    7  C7  UNL     1     -33.967   5.449   2.810  1.00 20.00     0.000 C 
BRANCH   7   8
HETATM    8  C8  UNL     1     -34.845   5.689   4.044  1.00 20.00     0.004 C 
BRANCH   8   9
HETATM    9  C9  UNL     1     -34.234   5.272   5.395  1.00 20.00    -0.023 C 
HETATM   10  C2  UNL     1     -34.099   6.448   6.363  1.00 20.00     0.009 C 
HETATM   11  C3  UNL     1     -35.091   4.174   6.033  1.00 20.00     0.009 C 
ENDBRANCH   8   9
ENDBRANCH   7   8
ENDBRANCH   1   7
TORSDOF 6
ENDMDL
MODEL 3
REMARK VINA RESULT:      -5.1      3.281      5.642
REMARK  6 active torsions:
REMARK  status: ('A' for Active; 'I' for Inactive)
REMARK    1  A    between atoms: C1_1  and  C4_4 
REMARK    2  A    between atoms: C4_4  and  C5_5 
REMARK    3  A    between atoms: C5_5  and  C6_6 
REMARK    4  A    between atoms: C6_6  and  C7_7 
REMARK    5  A    between atoms: C7_7  and  C8_8 
REMARK    6  A    between atoms: C8_8  and  C9_9 
ROOT
HETATM    1  C6  UNL     1     -32.601   6.038   3.384  1.00 20.00     0.000 C 
ENDROOT
BRANCH   1   2
HETATM    2  C5  UNL     1     -33.863   5.335   2.881  1.00 20.00     0.008 C 
BRANCH   2   3
HETATM    3  C4  UNL     1     -35.046   5.579   3.819  1.00 20.00     0.096 C 
BRANCH   3   4
HETATM    4  C1  UNL     1     -34.948   4.761   5.095  1.00 20.00     0.218 C 
HETATM    5  O10 UNL     1     -35.114   3.546   5.125  1.00 20.00    -0.280 OA
HETATM    6 CL11 UNL     1     -34.576   5.764   6.470  1.00 20.00    -0.044 Cl
ENDBRANCH   3   4
ENDBRANCH   2   3
ENDBRANCH   1   2
BRANCH   1   7
HETATM    7  C7  UNL     1     -32.611   7.523   3.018  1.00 20.00     0.000 C 
BRANCH   7   8
HETATM    8  C8  UNL     1     -31.706   7.867   1.829  1.00 20.00     0.004 C 
BRANCH   8   9
HETATM    9  C9  UNL     1     -32.029   9.182   1.096  1.00 20.00    -0.023 C 
HETATM   10  C2  UNL     1     -32.813   8.954  -0.197  1.00 20.00     0.009 C 
HETATM   11  C3  UNL     1     -32.820  10.110   2.023  1.00 20.00     0.009 C 
ENDBRANCH   8   9
ENDBRANCH   7   8
ENDBRANCH   1   7
TORSDOF 6
ENDMDL
MODEL 4
REMARK VINA RESULT:      -5.0      3.351      5.531
REMARK  6 active torsions:
REMARK  status: ('A' for Active; 'I' for Inactive)
REMARK    1  A    between atoms: C1_1  and  C4_4 
REMARK    2  A    between atoms: C4_4  and  C5_5 
REMARK    3  A    between atoms: C5_5  and  C6_6 
REMARK    4  A    between atoms: C6_6  and  C7_7 
REMARK    5  A    between atoms: C7_7  and  C8_8 
REMARK    6  A    between atoms: C8_8  and  C9_9 
ROOT
HETATM    1  C6  UNL     1     -33.431   5.916   2.712  1.00 20.00     0.000 C 
ENDROOT
BRANCH   1   2
HETATM    2  C5  UNL     1     -34.512   6.301   3.723  1.00 20.00     0.008 C 
BRANCH   2   3
HETATM    3  C4  UNL     1     -35.156   5.063   4.347  1.00 20.00     0.096 C 
BRANCH   3   4
HETATM    4  C1  UNL     1     -34.915   4.980   5.844  1.00 20.00     0.218 C 
HETATM    5  O10 UNL     1     -35.279   4.029   6.528  1.00 20.00    -0.280 OA
HETATM    6 CL11 UNL     1     -34.071   6.385   6.434  1.00 20.00    -0.044 Cl
ENDBRANCH   3   4
ENDBRANCH   2   3
ENDBRANCH   1   2
BRANCH   1   7
HETATM    7  C7  UNL     1     -32.045   6.356   3.189  1.00 20.00     0.000 C 
BRANCH   7   8
HETATM    8  C8  UNL     1     -31.798   7.863   3.046  1.00 20.00     0.004 C 
BRANCH   8   9
HETATM    9  C9  UNL     1     -32.410   8.529   1.799  1.00 20.00    -0.023 C 
HETATM   10  C2  UNL     1     -32.749  10.002   2.031  1.00 20.00     0.009 C 
HETATM   11  C3  UNL     1     -31.442   8.402   0.618  1.00 20.00     0.009 C 
ENDBRANCH   8   9
ENDBRANCH   7   8
ENDBRANCH   1   7
TORSDOF 6
ENDMDL
MODEL 5
REMARK VINA RESULT:      -4.7     10.405     11.291
REMARK  6 active torsions:
REMARK  status: ('A' for Active; 'I' for Inactive)
REMARK    1  A    between atoms: C1_1  and  C4_4 
REMARK    2  A    between atoms: C4_4  and  C5_5 
REMARK    3  A    between atoms: C5_5  and  C6_6 
REMARK    4  A    between atoms: C6_6  and  C7_7 
REMARK    5  A    between atoms: C7_7  and  C8_8 
REMARK    6  A    between atoms: C8_8  and  C9_9 
ROOT
HETATM    1  C6  UNL     1     -34.880  15.713  -2.529  1.00 20.00     0.000 C 
ENDROOT
BRANCH   1   2
HETATM    2  C5  UNL     1     -33.567  15.575  -3.301  1.00 20.00     0.008 C 
BRANCH   2   3
HETATM    3  C4  UNL     1     -33.310  14.124  -3.706  1.00 20.00     0.096 C 
BRANCH   3   4
HETATM    4  C1  UNL     1     -34.374  13.591  -4.650  1.00 20.00     0.218 C 
HETATM    5  O10 UNL     1     -35.061  12.607  -4.397  1.00 20.00    -0.280 OA
HETATM    6 CL11 UNL     1     -34.478  14.550  -6.101  1.00 20.00    -0.044 Cl
ENDBRANCH   3   4
ENDBRANCH   2   3
ENDBRANCH   1   2
BRANCH   1   7
HETATM    7  C7  UNL     1     -34.669  16.446  -1.203  1.00 20.00     0.000 C 
BRANCH   7   8
HETATM    8  C8  UNL     1     -33.498  17.435  -1.230  1.00 20.00     0.004 C 
BRANCH   8   9
HETATM    9  C9  UNL     1     -33.527  18.542  -0.159  1.00 20.00    -0.023 C 
HETATM   10  C2  UNL     1     -34.341  18.143   1.072  1.00 20.00     0.009 C 
HETATM   11  C3  UNL     1     -32.096  18.894   0.259  1.00 20.00     0.009 C 
ENDBRANCH   8   9
ENDBRANCH   7   8
ENDBRANCH   1   7
TORSDOF 6
ENDMDL
MODEL 6
REMARK VINA RESULT:      -4.5      3.171      5.593
REMARK  6 active torsions:
REMARK  status: ('A' for Active; 'I' for Inactive)
REMARK    1  A    between atoms: C1_1  and  C4_4 
REMARK    2  A    between atoms: C4_4  and  C5_5 
REMARK    3  A    between atoms: C5_5  and  C6_6 
REMARK    4  A    between atoms: C6_6  and  C7_7 
REMARK    5  A    between atoms: C7_7  and  C8_8 
REMARK    6  A    between atoms: C8_8  and  C9_9 
ROOT
HETATM    1  C6  UNL     1     -32.829   6.263   4.038  1.00 20.00     0.000 C 
ENDROOT
BRANCH   1   2
HETATM    2  C5  UNL     1     -33.646   6.742   5.239  1.00 20.00     0.008 C 
BRANCH   2   3
HETATM    3  C4  UNL     1     -34.380   5.581   5.910  1.00 20.00     0.096 C 
BRANCH   3   4
HETATM    4  C1  UNL     1     -35.084   4.686   4.905  1.00 20.00     0.218 C 
HETATM    5  O10 UNL     1     -35.059   3.461   4.969  1.00 20.00    -0.280 OA
HETATM    6 CL11 UNL     1     -35.908   5.618   3.686  1.00 20.00    -0.044 Cl
ENDBRANCH   3   4
ENDBRANCH   2   3
ENDBRANCH   1   2
BRANCH   1   7
HETATM    7  C7  UNL     1     -32.032   7.412   3.416  1.00 20.00     0.000 C 
BRANCH   7   8
HETATM    8  C8  UNL     1     -32.127   7.465   1.887  1.00 20.00     0.004 C 
BRANCH   8   9
HETATM    9  C9  UNL     1     -31.955   8.857   1.250  1.00 20.00    -0.023 C 
HETATM   10  C2  UNL     1     -32.450   8.904  -0.195  1.00 20.00     0.009 C 
HETATM   11  C3  UNL     1     -32.702   9.903   2.086  1.00 20.00     0.009 C 
ENDBRANCH   8   9
ENDBRANCH   7   8
ENDBRANCH   1   7
TORSDOF 6
ENDMDL
MODEL 7
REMARK VINA RESULT:      -4.4     10.355     11.120
REMARK  6 active torsions:
REMARK  status: ('A' for Active; 'I' for Inactive)
REMARK    1  A    between atoms: C1_1  and  C4_4 
REMARK    2  A    between atoms: C4_4  and  C5_5 
REMARK    3  A    between atoms: C5_5  and  C6_6 
REMARK    4  A    between atoms: C6_6  and  C7_7 
REMARK    5  A    between atoms: C7_7  and  C8_8 
REMARK    6  A    between atoms: C8_8  and  C9_9 
ROOT
HETATM    1  C6  UNL     1     -34.763  15.561  -2.444  1.00 20.00     0.000 C 
ENDROOT
BRANCH   1   2
HETATM    2  C5  UNL     1     -33.479  15.456  -3.269  1.00 20.00     0.008 C 
BRANCH   2   3
HETATM    3  C4  UNL     1     -33.251  14.027  -3.763  1.00 20.00     0.096 C 
BRANCH   3   4
HETATM    4  C1  UNL     1     -34.361  13.551  -4.683  1.00 20.00     0.218 C 
HETATM    5  O10 UNL     1     -35.064  12.577  -4.435  1.00 20.00    -0.280 OA
HETATM    6 CL11 UNL     1     -34.492  14.557  -6.100  1.00 20.00    -0.044 Cl
ENDBRANCH   3   4
ENDBRANCH   2   3
ENDBRANCH   1   2
BRANCH   1   7
HETATM    7  C7  UNL     1     -35.429  16.925  -2.629  1.00 20.00     0.000 C 
BRANCH   7   8
HETATM    8  C8  UNL     1     -35.516  17.745  -1.336  1.00 20.00     0.004 C 
BRANCH   8   9
HETATM    9  C9  UNL     1     -34.519  17.358  -0.227  1.00 20.00    -0.023 C 
HETATM   10  C2  UNL     1     -33.239  18.192  -0.275  1.00 20.00     0.009 C 
HETATM   11  C3  UNL     1     -35.186  17.514   1.144  1.00 20.00     0.009 C 
ENDBRANCH   8   9
ENDBRANCH   7   8
ENDBRANCH   1   7
TORSDOF 6
ENDMDL
MODEL 8
REMARK VINA RESULT:      -4.4     10.733     11.667
REMARK  6 active torsions:
REMARK  status: ('A' for Active; 'I' for Inactive)
REMARK    1  A    between atoms: C1_1  and  C4_4 
REMARK    2  A    between atoms: C4_4  and  C5_5 
REMARK    3  A    between atoms: C5_5  and  C6_6 
REMARK    4  A    between atoms: C6_6  and  C7_7 
REMARK    5  A    between atoms: C7_7  and  C8_8 
REMARK    6  A    between atoms: C8_8  and  C9_9 
ROOT
HETATM    1  C6  UNL     1     -33.338  16.382  -5.083  1.00 20.00     0.000 C 
ENDROOT
BRANCH   1   2
HETATM    2  C5  UNL     1     -34.622  15.920  -5.773  1.00 20.00     0.008 C 
BRANCH   2   3
HETATM    3  C4  UNL     1     -34.642  14.401  -5.950  1.00 20.00     0.096 C 
BRANCH   3   4
HETATM    4  C1  UNL     1     -35.236  13.689  -4.748  1.00 20.00     0.218 C 
HETATM    5  O10 UNL     1     -34.718  12.703  -4.232  1.00 20.00    -0.280 OA
HETATM    6 CL11 UNL     1     -36.712  14.448  -4.220  1.00 20.00    -0.044 Cl
ENDBRANCH   3   4
ENDBRANCH   2   3
ENDBRANCH   1   2
BRANCH   1   7
HETATM    7  C7  UNL     1     -33.647  17.162  -3.804  1.00 20.00     0.000 C 
BRANCH   7   8
HETATM    8  C8  UNL     1     -33.732  16.279  -2.553  1.00 20.00     0.004 C 
BRANCH   8   9
HETATM    9  C9  UNL     1     -34.993  16.457  -1.687  1.00 20.00    -0.023 C 
HETATM   10  C2  UNL     1     -34.671  16.972  -0.284  1.00 20.00     0.009 C 
HETATM   11  C3  UNL     1     -35.964  17.418  -2.381  1.00 20.00     0.009 C 
ENDBRANCH   8   9
ENDBRANCH   7   8
ENDBRANCH   1   7
TORSDOF 6
ENDMDL
MODEL 9
REMARK VINA RESULT:      -4.3     10.452     11.788
REMARK  6 active torsions:
REMARK  status: ('A' for Active; 'I' for Inactive)
REMARK    1  A    between atoms: C1_1  and  C4_4 
REMARK    2  A    between atoms: C4_4  and  C5_5 
REMARK    3  A    between atoms: C5_5  and  C6_6 
REMARK    4  A    between atoms: C6_6  and  C7_7 
REMARK    5  A    between atoms: C7_7  and  C8_8 
REMARK    6  A    between atoms: C8_8  and  C9_9 
ROOT
HETATM    1  C6  UNL     1     -35.159  16.938  -5.272  1.00 20.00     0.000 C 
ENDROOT
BRANCH   1   2
HETATM    2  C5  UNL     1     -34.005  15.955  -5.478  1.00 20.00     0.008 C 
BRANCH   2   3
HETATM    3  C4  UNL     1     -34.521  14.551  -5.790  1.00 20.00     0.096 C 
BRANCH   3   4
HETATM    4  C1  UNL     1     -34.342  13.597  -4.621  1.00 20.00     0.218 C 
HETATM    5  O10 UNL     1     -35.102  12.660  -4.400  1.00 20.00    -0.280 OA
HETATM    6 CL11 UNL     1     -32.944  14.011  -3.668  1.00 20.00    -0.044 Cl
ENDBRANCH   3   4
ENDBRANCH   2   3
ENDBRANCH   1   2
BRANCH   1   7
HETATM    7  C7  UNL     1     -35.235  17.406  -3.817  1.00 20.00     0.000 C 
BRANCH   7   8
HETATM    8  C8  UNL     1     -33.863  17.667  -3.185  1.00 20.00     0.004 C 
BRANCH   8   9
HETATM    9  C9  UNL     1     -33.633  17.042  -1.796  1.00 20.00    -0.023 C 
HETATM   10  C2  UNL     1     -33.299  18.088  -0.732  1.00 20.00     0.009 C 
HETATM   11  C3  UNL     1     -34.875  16.253  -1.372  1.00 20.00     0.009 C 
ENDBRANCH   8   9
ENDBRANCH   7   8
ENDBRANCH   1   7
TORSDOF 6
ENDMDL
