MODEL 1
REMARK VINA RESULT:      -4.8      0.000      0.000
REMARK  1 active torsions:
REMARK  status: ('A' for Active; 'I' for Inactive)
REMARK    1  A    between atoms: C9_9  and  O10_10 
ROOT
HETATM    1  C1  UNL     1     -35.158   4.856   6.481  1.00 20.00     0.001 C 
HETATM    2  C2  UNL     1     -35.291   4.378   5.026  1.00 20.00     0.005 C 
HETATM    3  C3  UNL     1     -34.138   6.006   6.472  1.00 20.00     0.005 C 
HETATM    4  C4  UNL     1     -34.183   5.163   2.813  1.00 20.00     0.007 C 
HETATM    5  C5  UNL     1     -32.959   5.935   2.309  1.00 20.00     0.032 C 
HETATM    6  C6  UNL     1     -32.754   7.106   4.572  1.00 20.00     0.036 C 
HETATM    7  C7  UNL     1     -34.098   5.009   4.323  1.00 20.00    -0.010 C 
HETATM    8  C8  UNL     1     -34.014   6.374   5.002  1.00 20.00    -0.008 C 
HETATM    9  C9  UNL     1     -32.749   7.268   3.046  1.00 20.00     0.118 C 
ENDROOT
BRANCH   9  10
HETATM   10  O10 UNL     1     -31.505   7.840   2.654  1.00 20.00    -0.396 OA
HETATM   11  H26 UNL     1     -31.556   8.786   2.862  1.00 20.00     0.210 HD
ENDBRANCH   9  10
TORSDOF 1
ENDMDL
MODEL 2
REMARK VINA RESULT:      -4.7     11.522     13.179
REMARK  1 active torsions:
REMARK  status: ('A' for Active; 'I' for Inactive)
REMARK    1  A    between atoms: C9_9  and  O10_10 
ROOT
HETATM    1  C1  UNL     1     -33.691  18.246  -2.837  1.00 20.00     0.001 C 
HETATM    2  C2  UNL     1     -33.655  17.985  -4.352  1.00 20.00     0.005 C 
HETATM    3  C3  UNL     1     -34.037  16.905  -2.169  1.00 20.00     0.005 C 
HETATM    4  C4  UNL     1     -34.031  15.844  -5.772  1.00 20.00     0.007 C 
HETATM    5  C5  UNL     1     -34.685  14.461  -5.681  1.00 20.00     0.032 C 
HETATM    6  C6  UNL     1     -34.536  14.547  -3.131  1.00 20.00     0.036 C 
HETATM    7  C7  UNL     1     -34.330  16.629  -4.505  1.00 20.00    -0.010 C 
HETATM    8  C8  UNL     1     -33.824  15.881  -3.274  1.00 20.00    -0.008 C 
HETATM    9  C9  UNL     1     -34.311  13.706  -4.395  1.00 20.00     0.118 C 
ENDROOT
BRANCH   9  10
HETATM   10  O10 UNL     1     -35.088  12.518  -4.295  1.00 20.00    -0.396 OA
HETATM   11  H26 UNL     1     -35.050  12.087  -5.163  1.00 20.00     0.210 HD
ENDBRANCH   9  10
TORSDOF 1
ENDMDL
MODEL 3
REMARK VINA RESULT:      -4.6      2.212      4.202
REMARK  1 active torsions:
REMARK  status: ('A' for Active; 'I' for Inactive)
REMARK    1  A    between atoms: C9_9  and  O10_10 
ROOT
HETATM    1  C1  UNL     1     -31.748   7.606   2.881  1.00 20.00     0.001 C 
HETATM    2  C2  UNL     1     -32.075   7.875   4.358  1.00 20.00     0.005 C 
HETATM    3  C3  UNL     1     -32.590   6.392   2.459  1.00 20.00     0.005 C 
HETATM    4  C4  UNL     1     -33.681   6.717   6.039  1.00 20.00     0.007 C 
HETATM    5  C5  UNL     1     -34.415   5.389   6.253  1.00 20.00     0.032 C 
HETATM    6  C6  UNL     1     -34.272   4.894   3.750  1.00 20.00     0.036 C 
HETATM    7  C7  UNL     1     -32.791   6.611   4.810  1.00 20.00    -0.010 C 
HETATM    8  C8  UNL     1     -33.614   6.252   3.575  1.00 20.00    -0.008 C 
HETATM    9  C9  UNL     1     -35.164   4.910   4.998  1.00 20.00     0.118 C 
ENDROOT
BRANCH   9  10
HETATM   10  O10 UNL     1     -35.668   3.596   5.214  1.00 20.00    -0.396 OA
HETATM   11  H26 UNL     1     -35.372   3.059   4.463  1.00 20.00     0.210 HD
ENDBRANCH   9  10
TORSDOF 1
ENDMDL
MODEL 4
REMARK VINA RESULT:      -4.6     11.962     14.062
REMARK  1 active torsions:
REMARK  status: ('A' for Active; 'I' for Inactive)
REMARK    1  A    between atoms: C9_9  and  O10_10 
ROOT
HETATM    1  C1  UNL     1     -34.145  17.890  -6.869  1.00 20.00     0.001 C 
HETATM    2  C2  UNL     1     -33.495  17.774  -5.481  1.00 20.00     0.005 C 
HETATM    3  C3  UNL     1     -34.884  16.565  -7.120  1.00 20.00     0.005 C 
HETATM    4  C4  UNL     1     -33.491  15.885  -3.699  1.00 20.00     0.007 C 
HETATM    5  C5  UNL     1     -33.728  14.376  -3.571  1.00 20.00     0.032 C 
HETATM    6  C6  UNL     1     -35.136  14.406  -5.703  1.00 20.00     0.036 C 
HETATM    7  C7  UNL     1     -33.577  16.288  -5.163  1.00 20.00    -0.010 C 
HETATM    8  C8  UNL     1     -34.936  15.911  -5.748  1.00 20.00    -0.008 C 
HETATM    9  C9  UNL     1     -35.026  13.915  -4.253  1.00 20.00     0.118 C 
ENDROOT
BRANCH   9  10
HETATM   10  O10 UNL     1     -35.089  12.493  -4.249  1.00 20.00    -0.396 OA
HETATM   11  H26 UNL     1     -35.604  12.235  -5.030  1.00 20.00     0.210 HD
ENDBRANCH   9  10
TORSDOF 1
ENDMDL
MODEL 5
REMARK VINA RESULT:      -4.5     11.914     13.155
REMARK  1 active torsions:
REMARK  status: ('A' for Active; 'I' for Inactive)
REMARK    1  A    between atoms: C9_9  and  O10_10 
ROOT
HETATM    1  C1  UNL     1     -34.067  17.736  -1.500  1.00 20.00     0.001 C 
HETATM    2  C2  UNL     1     -34.533  16.271  -1.483  1.00 20.00     0.005 C 
HETATM    3  C3  UNL     1     -33.708  18.064  -2.959  1.00 20.00     0.005 C 
HETATM    4  C4  UNL     1     -34.794  14.490  -3.354  1.00 20.00     0.007 C 
HETATM    5  C5  UNL     1     -34.300  14.179  -4.771  1.00 20.00     0.032 C 
HETATM    6  C6  UNL     1     -33.753  16.649  -5.134  1.00 20.00     0.036 C 
HETATM    7  C7  UNL     1     -34.082  15.727  -2.830  1.00 20.00    -0.010 C 
HETATM    8  C8  UNL     1     -34.323  16.920  -3.752  1.00 20.00    -0.008 C 
HETATM    9  C9  UNL     1     -34.401  15.386  -5.718  1.00 20.00     0.118 C 
ENDROOT
BRANCH   9  10
HETATM   10  O10 UNL     1     -33.763  15.079  -6.954  1.00 20.00    -0.396 OA
HETATM   11  H26 UNL     1     -34.428  14.640  -7.507  1.00 20.00     0.210 HD
ENDBRANCH   9  10
TORSDOF 1
ENDMDL
MODEL 6
REMARK VINA RESULT:      -4.2     11.859     12.643
REMARK  1 active torsions:
REMARK  status: ('A' for Active; 'I' for Inactive)
REMARK    1  A    between atoms: C9_9  and  O10_10 
ROOT
HETATM    1  C1  UNL     1     -34.358  13.217  -4.688  1.00 20.00     0.001 C 
HETATM    2  C2  UNL     1     -33.424  14.094  -3.838  1.00 20.00     0.005 C 
HETATM    3  C3  UNL     1     -35.769  13.808  -4.540  1.00 20.00     0.005 C 
HETATM    4  C4  UNL     1     -33.843  16.200  -2.378  1.00 20.00     0.007 C 
HETATM    5  C5  UNL     1     -34.977  16.934  -1.654  1.00 20.00     0.032 C 
HETATM    6  C6  UNL     1     -36.690  15.827  -3.194  1.00 20.00     0.036 C 
HETATM    7  C7  UNL     1     -34.375  14.903  -2.968  1.00 20.00    -0.010 C 
HETATM    8  C8  UNL     1     -35.529  15.180  -3.929  1.00 20.00    -0.008 C 
HETATM    9  C9  UNL     1     -36.220  17.132  -2.537  1.00 20.00     0.118 C 
ENDROOT
BRANCH   9  10
HETATM   10  O10 UNL     1     -37.286  17.654  -1.751  1.00 20.00    -0.396 OA
HETATM   11  H26 UNL     1     -38.074  17.133  -1.971  1.00 20.00     0.210 HD
ENDBRANCH   9  10
TORSDOF 1
ENDMDL
MODEL 7
REMARK VINA RESULT:      -4.2     11.516     13.281
REMARK  1 active torsions:
REMARK  status: ('A' for Active; 'I' for Inactive)
REMARK    1  A    between atoms: C9_9  and  O10_10 
ROOT
HETATM    1  C1  UNL     1     -34.591  13.222  -4.921  1.00 20.00     0.001 C 
HETATM    2  C2  UNL     1     -34.604  14.413  -5.894  1.00 20.00     0.005 C 
HETATM    3  C3  UNL     1     -34.302  13.800  -3.526  1.00 20.00     0.005 C 
HETATM    4  C4  UNL     1     -34.271  16.965  -5.548  1.00 20.00     0.007 C 
HETATM    5  C5  UNL     1     -33.664  17.956  -4.549  1.00 20.00     0.032 C 
HETATM    6  C6  UNL     1     -33.862  16.216  -2.687  1.00 20.00     0.036 C 
HETATM    7  C7  UNL     1     -33.972  15.544  -5.096  1.00 20.00    -0.010 C 
HETATM    8  C8  UNL     1     -34.527  15.295  -3.696  1.00 20.00    -0.008 C 
HETATM    9  C9  UNL     1     -34.090  17.678  -3.098  1.00 20.00     0.118 C 
ENDROOT
BRANCH   9  10
HETATM   10  O10 UNL     1     -33.354  18.518  -2.215  1.00 20.00    -0.396 OA
HETATM   11  H26 UNL     1     -33.853  18.552  -1.384  1.00 20.00     0.210 HD
ENDBRANCH   9  10
TORSDOF 1
ENDMDL
MODEL 8
REMARK VINA RESULT:      -4.2      9.946     11.097
REMARK  1 active torsions:
REMARK  status: ('A' for Active; 'I' for Inactive)
REMARK    1  A    between atoms: C9_9  and  O10_10 
ROOT
HETATM    1  C1  UNL     1     -41.462   7.647  -0.793  1.00 20.00     0.001 C 
HETATM    2  C2  UNL     1     -40.792   6.302  -0.474  1.00 20.00     0.005 C 
HETATM    3  C3  UNL     1     -42.477   7.376  -1.916  1.00 20.00     0.005 C 
HETATM    4  C4  UNL     1     -41.110   3.910  -1.436  1.00 20.00     0.007 C 
HETATM    5  C5  UNL     1     -41.658   3.195  -2.676  1.00 20.00     0.032 C 
HETATM    6  C6  UNL     1     -43.120   5.221  -3.212  1.00 20.00     0.036 C 
HETATM    7  C7  UNL     1     -41.174   5.415  -1.650  1.00 20.00    -0.010 C 
HETATM    8  C8  UNL     1     -42.606   5.860  -1.934  1.00 20.00    -0.008 C 
HETATM    9  C9  UNL     1     -43.053   3.693  -3.086  1.00 20.00     0.118 C 
ENDROOT
BRANCH   9  10
HETATM   10  O10 UNL     1     -43.417   3.118  -4.337  1.00 20.00    -0.396 OA
HETATM   11  H26 UNL     1     -44.198   3.602  -4.648  1.00 20.00     0.210 HD
ENDBRANCH   9  10
TORSDOF 1
ENDMDL
MODEL 9
REMARK VINA RESULT:      -4.2     11.402     12.433
REMARK  1 active torsions:
REMARK  status: ('A' for Active; 'I' for Inactive)
REMARK    1  A    between atoms: C9_9  and  O10_10 
ROOT
HETATM    1  C1  UNL     1     -37.620  16.559  -3.251  1.00 20.00     0.001 C 
HETATM    2  C2  UNL     1     -37.476  15.136  -3.814  1.00 20.00     0.005 C 
HETATM    3  C3  UNL     1     -36.194  17.073  -2.991  1.00 20.00     0.005 C 
HETATM    4  C4  UNL     1     -35.406  13.660  -4.347  1.00 20.00     0.007 C 
HETATM    5  C5  UNL     1     -33.922  13.529  -3.991  1.00 20.00     0.032 C 
HETATM    6  C6  UNL     1     -33.857  15.991  -3.308  1.00 20.00     0.036 C 
HETATM    7  C7  UNL     1     -36.031  14.767  -3.512  1.00 20.00    -0.010 C 
HETATM    8  C8  UNL     1     -35.308  16.092  -3.744  1.00 20.00    -0.008 C 
HETATM    9  C9  UNL     1     -33.164  14.863  -4.086  1.00 20.00     0.118 C 
ENDROOT
BRANCH   9  10
HETATM   10  O10 UNL     1     -31.845  14.702  -3.573  1.00 20.00    -0.396 OA
HETATM   11  H26 UNL     1     -31.768  15.301  -2.814  1.00 20.00     0.210 HD
ENDBRANCH   9  10
TORSDOF 1
ENDMDL
