MODEL 1
REMARK VINA RESULT:      -4.7      0.000      0.000
REMARK  2 active torsions:
REMARK  status: ('A' for Active; 'I' for Inactive)
REMARK    1  A    between atoms: C5_5  and  C7_7 
REMARK    2  A    between atoms: C6_6  and  O10_10 
ROOT
HETATM    1  C1  UNL     1     -33.572  14.055  -3.970  1.00 20.00     0.006 A 
HETATM    2  C2  UNL     1     -35.958  14.792  -4.289  1.00 20.00     0.006 A 
HETATM    3  C3  UNL     1     -33.329  15.153  -3.238  1.00 20.00    -0.008 A 
HETATM    4  C4  UNL     1     -35.719  15.891  -3.557  1.00 20.00    -0.008 A 
HETATM    5  C6  UNL     1     -34.912  13.752  -4.575  1.00 20.00     0.163 A 
HETATM    6  C7  UNL     1     -34.383  16.182  -2.926  1.00 20.00     0.044 A 
HETATM    7  C8  UNL     1     -34.531  16.360  -1.414  1.00 20.00     0.031 C 
ENDROOT
BRANCH   6   8
HETATM    8  C5  UNL     1     -33.903  17.462  -3.556  1.00 20.00     0.248 C 
HETATM    9  O9  UNL     1     -33.423  17.521  -4.684  1.00 20.00    -0.305 OA
ENDBRANCH   6   8
BRANCH   5  10
HETATM   10  O10 UNL     1     -35.351  12.492  -4.073  1.00 20.00    -0.388 OA
HETATM   11  H20 UNL     1     -35.010  12.422  -3.167  1.00 20.00     0.210 HD
ENDBRANCH   5  10
TORSDOF 2
ENDMDL
MODEL 2
REMARK VINA RESULT:      -4.7      1.824      3.605
REMARK  2 active torsions:
REMARK  status: ('A' for Active; 'I' for Inactive)
REMARK    1  A    between atoms: C5_5  and  C7_7 
REMARK    2  A    between atoms: C6_6  and  O10_10 
ROOT
HETATM    1  C1  UNL     1     -33.730  13.761  -3.806  1.00 20.00     0.006 A 
HETATM    2  C2  UNL     1     -33.766  16.228  -4.304  1.00 20.00     0.006 A 
HETATM    3  C3  UNL     1     -34.808  13.586  -4.584  1.00 20.00    -0.008 A 
HETATM    4  C4  UNL     1     -34.844  16.058  -5.084  1.00 20.00    -0.008 A 
HETATM    5  C6  UNL     1     -33.089  15.099  -3.580  1.00 20.00     0.163 A 
HETATM    6  C7  UNL     1     -35.472  14.711  -5.333  1.00 20.00     0.044 A 
HETATM    7  C8  UNL     1     -35.516  14.409  -6.832  1.00 20.00     0.031 C 
ENDROOT
BRANCH   6   8
HETATM    8  C5  UNL     1     -36.869  14.802  -4.780  1.00 20.00     0.248 C 
HETATM    9  O9  UNL     1     -37.270  14.119  -3.843  1.00 20.00    -0.305 OA
ENDBRANCH   6   8
BRANCH   5  10
HETATM   10  O10 UNL     1     -31.730  15.017  -4.003  1.00 20.00    -0.388 OA
HETATM   11  H20 UNL     1     -31.733  14.547  -4.852  1.00 20.00     0.210 HD
ENDBRANCH   5  10
TORSDOF 2
ENDMDL
MODEL 3
REMARK VINA RESULT:      -4.5      1.450      2.410
REMARK  2 active torsions:
REMARK  status: ('A' for Active; 'I' for Inactive)
REMARK    1  A    between atoms: C5_5  and  C7_7 
REMARK    2  A    between atoms: C6_6  and  O10_10 
ROOT
HETATM    1  C1  UNL     1     -35.772  14.494  -3.765  1.00 20.00     0.006 A 
HETATM    2  C2  UNL     1     -33.345  13.829  -3.775  1.00 20.00     0.006 A 
HETATM    3  C3  UNL     1     -35.426  15.762  -3.494  1.00 20.00    -0.008 A 
HETATM    4  C4  UNL     1     -32.994  15.095  -3.504  1.00 20.00    -0.008 A 
HETATM    5  C6  UNL     1     -34.772  13.389  -3.937  1.00 20.00     0.163 A 
HETATM    6  C7  UNL     1     -33.995  16.211  -3.360  1.00 20.00     0.044 A 
HETATM    7  C8  UNL     1     -33.690  17.339  -4.347  1.00 20.00     0.031 C 
ENDROOT
BRANCH   6   8
HETATM    8  C5  UNL     1     -33.854  16.706  -1.945  1.00 20.00     0.248 C 
HETATM    9  O9  UNL     1     -34.582  16.344  -1.027  1.00 20.00    -0.305 OA
ENDBRANCH   6   8
BRANCH   5  10
HETATM   10  O10 UNL     1     -34.947  12.829  -5.237  1.00 20.00    -0.388 OA
HETATM   11  H20 UNL     1     -35.680  12.197  -5.168  1.00 20.00     0.210 HD
ENDBRANCH   5  10
TORSDOF 2
ENDMDL
MODEL 4
REMARK VINA RESULT:      -4.3      1.370      1.746
REMARK  2 active torsions:
REMARK  status: ('A' for Active; 'I' for Inactive)
REMARK    1  A    between atoms: C5_5  and  C7_7 
REMARK    2  A    between atoms: C6_6  and  O10_10 
ROOT
HETATM    1  C1  UNL     1     -33.957  14.264  -3.457  1.00 20.00     0.006 A 
HETATM    2  C2  UNL     1     -34.832  14.130  -5.813  1.00 20.00     0.006 A 
HETATM    3  C3  UNL     1     -34.017  15.603  -3.508  1.00 20.00    -0.008 A 
HETATM    4  C4  UNL     1     -34.894  15.469  -5.869  1.00 20.00    -0.008 A 
HETATM    5  C6  UNL     1     -34.359  13.380  -4.601  1.00 20.00     0.163 A 
HETATM    6  C7  UNL     1     -34.518  16.357  -4.712  1.00 20.00     0.044 A 
HETATM    7  C8  UNL     1     -35.688  17.266  -4.330  1.00 20.00     0.031 C 
ENDROOT
BRANCH   6   8
HETATM    8  C5  UNL     1     -33.354  17.182  -5.191  1.00 20.00     0.248 C 
HETATM    9  O9  UNL     1     -33.475  18.291  -5.701  1.00 20.00    -0.305 OA
ENDBRANCH   6   8
BRANCH   5  10
HETATM   10  O10 UNL     1     -35.397  12.513  -4.149  1.00 20.00    -0.388 OA
HETATM   11  H20 UNL     1     -35.456  11.793  -4.796  1.00 20.00     0.210 HD
ENDBRANCH   5  10
TORSDOF 2
ENDMDL
MODEL 5
REMARK VINA RESULT:      -4.3      2.313      3.576
REMARK  2 active torsions:
REMARK  status: ('A' for Active; 'I' for Inactive)
REMARK    1  A    between atoms: C5_5  and  C7_7 
REMARK    2  A    between atoms: C6_6  and  O10_10 
ROOT
HETATM    1  C1  UNL     1     -34.020  13.811  -4.139  1.00 20.00     0.006 A 
HETATM    2  C2  UNL     1     -33.393  16.222  -4.500  1.00 20.00     0.006 A 
HETATM    3  C3  UNL     1     -34.821  13.857  -5.214  1.00 20.00    -0.008 A 
HETATM    4  C4  UNL     1     -34.193  16.272  -5.576  1.00 20.00    -0.008 A 
HETATM    5  C6  UNL     1     -33.217  14.987  -3.664  1.00 20.00     0.163 A 
HETATM    6  C7  UNL     1     -34.978  15.085  -6.071  1.00 20.00     0.044 A 
HETATM    7  C8  UNL     1     -34.623  14.776  -7.526  1.00 20.00     0.031 C 
ENDROOT
BRANCH   6   8
HETATM    8  C5  UNL     1     -36.427  15.478  -5.960  1.00 20.00     0.248 C 
HETATM    9  O9  UNL     1     -36.931  15.918  -4.932  1.00 20.00    -0.305 OA
ENDBRANCH   6   8
BRANCH   5  10
HETATM   10  O10 UNL     1     -31.841  14.613  -3.661  1.00 20.00    -0.388 OA
HETATM   11  H20 UNL     1     -31.445  15.014  -4.451  1.00 20.00     0.210 HD
ENDBRANCH   5  10
TORSDOF 2
ENDMDL
MODEL 6
REMARK VINA RESULT:      -4.3      1.838      3.350
REMARK  2 active torsions:
REMARK  status: ('A' for Active; 'I' for Inactive)
REMARK    1  A    between atoms: C5_5  and  C7_7 
REMARK    2  A    between atoms: C6_6  and  O10_10 
ROOT
HETATM    1  C1  UNL     1     -34.421  13.614  -4.885  1.00 20.00     0.006 A 
HETATM    2  C2  UNL     1     -34.521  15.213  -2.943  1.00 20.00     0.006 A 
HETATM    3  C3  UNL     1     -35.475  14.226  -5.446  1.00 20.00    -0.008 A 
HETATM    4  C4  UNL     1     -35.575  15.829  -3.501  1.00 20.00    -0.008 A 
HETATM    5  C6  UNL     1     -33.827  14.039  -3.573  1.00 20.00     0.163 A 
HETATM    6  C7  UNL     1     -36.154  15.421  -4.830  1.00 20.00     0.044 A 
HETATM    7  C8  UNL     1     -36.153  16.602  -5.802  1.00 20.00     0.031 C 
ENDROOT
BRANCH   6   8
HETATM    8  C5  UNL     1     -37.566  14.984  -4.544  1.00 20.00     0.248 C 
HETATM    9  O9  UNL     1     -37.856  14.148  -3.695  1.00 20.00    -0.305 OA
ENDBRANCH   6   8
BRANCH   5  10
HETATM   10  O10 UNL     1     -32.456  14.365  -3.791  1.00 20.00    -0.388 OA
HETATM   11  H20 UNL     1     -32.443  15.249  -4.193  1.00 20.00     0.210 HD
ENDBRANCH   5  10
TORSDOF 2
ENDMDL
MODEL 7
REMARK VINA RESULT:      -4.2      1.316      3.673
REMARK  2 active torsions:
REMARK  status: ('A' for Active; 'I' for Inactive)
REMARK    1  A    between atoms: C5_5  and  C7_7 
REMARK    2  A    between atoms: C6_6  and  O10_10 
ROOT
HETATM    1  C1  UNL     1     -34.279  15.992  -5.831  1.00 20.00     0.006 A 
HETATM    2  C2  UNL     1     -33.484  16.088  -3.445  1.00 20.00     0.006 A 
HETATM    3  C3  UNL     1     -35.263  15.154  -5.472  1.00 20.00    -0.008 A 
HETATM    4  C4  UNL     1     -34.467  15.251  -3.081  1.00 20.00    -0.008 A 
HETATM    5  C6  UNL     1     -33.282  16.553  -4.859  1.00 20.00     0.163 A 
HETATM    6  C7  UNL     1     -35.485  14.710  -4.050  1.00 20.00     0.044 A 
HETATM    7  C8  UNL     1     -36.902  15.059  -3.592  1.00 20.00     0.031 C 
ENDROOT
BRANCH   6   8
HETATM    8  C5  UNL     1     -35.292  13.217  -4.054  1.00 20.00     0.248 C 
HETATM    9  O9  UNL     1     -34.645  12.621  -4.910  1.00 20.00    -0.305 OA
ENDBRANCH   6   8
BRANCH   5  10
HETATM   10  O10 UNL     1     -33.369  17.975  -4.905  1.00 20.00    -0.388 OA
HETATM   11  H20 UNL     1     -33.587  18.267  -4.005  1.00 20.00     0.210 HD
ENDBRANCH   5  10
TORSDOF 2
ENDMDL
MODEL 8
REMARK VINA RESULT:      -4.2     11.428     12.393
REMARK  2 active torsions:
REMARK  status: ('A' for Active; 'I' for Inactive)
REMARK    1  A    between atoms: C5_5  and  C7_7 
REMARK    2  A    between atoms: C6_6  and  O10_10 
ROOT
HETATM    1  C1  UNL     1     -35.282   5.037   3.852  1.00 20.00     0.006 A 
HETATM    2  C2  UNL     1     -34.105   6.017   5.850  1.00 20.00     0.006 A 
HETATM    3  C3  UNL     1     -34.326   5.523   3.047  1.00 20.00    -0.008 A 
HETATM    4  C4  UNL     1     -33.146   6.504   5.048  1.00 20.00    -0.008 A 
HETATM    5  C6  UNL     1     -35.278   5.229   5.341  1.00 20.00     0.163 A 
HETATM    6  C7  UNL     1     -33.133   6.289   3.558  1.00 20.00     0.044 A 
HETATM    7  C8  UNL     1     -31.832   5.612   3.123  1.00 20.00     0.031 C 
ENDROOT
BRANCH   6   8
HETATM    8  C5  UNL     1     -33.237   7.660   2.946  1.00 20.00     0.248 C 
HETATM    9  O9  UNL     1     -32.363   8.153   2.240  1.00 20.00    -0.305 OA
ENDBRANCH   6   8
BRANCH   5  10
HETATM   10  O10 UNL     1     -35.282   3.942   5.954  1.00 20.00    -0.388 OA
HETATM   11  H20 UNL     1     -34.497   3.476   5.624  1.00 20.00     0.210 HD
ENDBRANCH   5  10
TORSDOF 2
ENDMDL
MODEL 9
REMARK VINA RESULT:      -4.2      1.335      3.717
REMARK  2 active torsions:
REMARK  status: ('A' for Active; 'I' for Inactive)
REMARK    1  A    between atoms: C5_5  and  C7_7 
REMARK    2  A    between atoms: C6_6  and  O10_10 
ROOT
HETATM    1  C1  UNL     1     -33.291  16.415  -4.456  1.00 20.00     0.006 A 
HETATM    2  C2  UNL     1     -34.818  15.704  -2.585  1.00 20.00     0.006 A 
HETATM    3  C3  UNL     1     -34.017  15.696  -5.325  1.00 20.00    -0.008 A 
HETATM    4  C4  UNL     1     -35.548  14.984  -3.451  1.00 20.00    -0.008 A 
HETATM    5  C6  UNL     1     -33.610  16.500  -2.992  1.00 20.00     0.163 A 
HETATM    6  C7  UNL     1     -35.245  14.921  -4.925  1.00 20.00     0.044 A 
HETATM    7  C8  UNL     1     -36.457  15.372  -5.743  1.00 20.00     0.031 C 
ENDROOT
BRANCH   6   8
HETATM    8  C5  UNL     1     -34.929  13.478  -5.216  1.00 20.00     0.248 C 
HETATM    9  O9  UNL     1     -34.969  12.593  -4.367  1.00 20.00    -0.305 OA
ENDBRANCH   6   8
BRANCH   5  10
HETATM   10  O10 UNL     1     -33.817  17.871  -2.661  1.00 20.00    -0.388 OA
HETATM   11  H20 UNL     1     -33.466  17.995  -1.765  1.00 20.00     0.210 HD
ENDBRANCH   5  10
TORSDOF 2
ENDMDL
