MODEL 1
REMARK VINA RESULT:      -5.2      0.000      0.000
REMARK  0 active torsions:
REMARK  status: ('A' for Active; 'I' for Inactive)
ROOT
HETATM    1  C1  UNL     1     -34.683   5.480   5.788  1.00 20.00    -0.003 A 
HETATM    2  C2  UNL     1     -35.327   4.894   4.629  1.00 20.00    -0.003 A 
HETATM    3  C3  UNL     1     -33.620   6.189   5.361  1.00 20.00    -0.013 A 
HETATM    4  C4  UNL     1     -34.636   5.262   3.535  1.00 20.00    -0.013 A 
HETATM    5  C5  UNL     1     -32.179   6.043   3.204  1.00 20.00     0.019 A 
HETATM    6  C6  UNL     1     -33.050   7.268   3.067  1.00 20.00     0.019 A 
HETATM    7  C7  UNL     1     -33.497   6.114   3.900  1.00 20.00    -0.005 A 
ENDROOT
TORSDOF 0
ENDMDL
MODEL 2
REMARK VINA RESULT:      -5.2      0.846      1.838
REMARK  0 active torsions:
REMARK  status: ('A' for Active; 'I' for Inactive)
ROOT
HETATM    1  C1  UNL     1     -35.133   4.337   5.672  1.00 20.00    -0.003 A 
HETATM    2  C2  UNL     1     -34.614   5.358   6.560  1.00 20.00    -0.003 A 
HETATM    3  C3  UNL     1     -34.752   4.642   4.417  1.00 20.00    -0.013 A 
HETATM    4  C4  UNL     1     -33.935   6.252   5.818  1.00 20.00    -0.013 A 
HETATM    5  C5  UNL     1     -34.061   6.884   3.300  1.00 20.00     0.019 A 
HETATM    6  C6  UNL     1     -32.798   6.080   3.487  1.00 20.00     0.019 A 
HETATM    7  C7  UNL     1     -33.962   5.879   4.399  1.00 20.00    -0.005 A 
ENDROOT
TORSDOF 0
ENDMDL
MODEL 3
REMARK VINA RESULT:      -5.0      0.266      1.673
REMARK  0 active torsions:
REMARK  status: ('A' for Active; 'I' for Inactive)
ROOT
HETATM    1  C1  UNL     1     -35.445   5.035   4.252  1.00 20.00    -0.003 A 
HETATM    2  C2  UNL     1     -34.873   5.498   5.500  1.00 20.00    -0.003 A 
HETATM    3  C3  UNL     1     -34.626   5.412   3.251  1.00 20.00    -0.013 A 
HETATM    4  C4  UNL     1     -33.725   6.144   5.220  1.00 20.00    -0.013 A 
HETATM    5  C5  UNL     1     -32.859   7.308   3.064  1.00 20.00     0.019 A 
HETATM    6  C6  UNL     1     -32.098   6.011   3.197  1.00 20.00     0.019 A 
HETATM    7  C7  UNL     1     -33.467   6.146   3.775  1.00 20.00    -0.005 A 
ENDROOT
TORSDOF 0
ENDMDL
MODEL 4
REMARK VINA RESULT:      -4.8      0.925      2.958
REMARK  0 active torsions:
REMARK  status: ('A' for Active; 'I' for Inactive)
ROOT
HETATM    1  C1  UNL     1     -34.655   5.704   2.797  1.00 20.00    -0.003 A 
HETATM    2  C2  UNL     1     -33.304   6.114   3.122  1.00 20.00    -0.003 A 
HETATM    3  C3  UNL     1     -35.236   5.248   3.924  1.00 20.00    -0.013 A 
HETATM    4  C4  UNL     1     -33.104   5.894   4.435  1.00 20.00    -0.013 A 
HETATM    5  C5  UNL     1     -34.251   4.292   6.130  1.00 20.00     0.019 A 
HETATM    6  C6  UNL     1     -34.747   5.684   6.439  1.00 20.00     0.019 A 
HETATM    7  C7  UNL     1     -34.307   5.328   5.058  1.00 20.00    -0.005 A 
ENDROOT
TORSDOF 0
ENDMDL
MODEL 5
REMARK VINA RESULT:      -4.8      0.904      2.794
REMARK  0 active torsions:
REMARK  status: ('A' for Active; 'I' for Inactive)
ROOT
HETATM    1  C1  UNL     1     -33.200   6.110   3.116  1.00 20.00    -0.003 A 
HETATM    2  C2  UNL     1     -34.547   5.703   2.767  1.00 20.00    -0.003 A 
HETATM    3  C3  UNL     1     -33.035   5.919   4.439  1.00 20.00    -0.013 A 
HETATM    4  C4  UNL     1     -35.159   5.278   3.888  1.00 20.00    -0.013 A 
HETATM    5  C5  UNL     1     -34.729   5.768   6.404  1.00 20.00     0.019 A 
HETATM    6  C6  UNL     1     -34.237   4.366   6.141  1.00 20.00     0.019 A 
HETATM    7  C7  UNL     1     -34.259   5.376   5.043  1.00 20.00    -0.005 A 
ENDROOT
TORSDOF 0
ENDMDL
MODEL 6
REMARK VINA RESULT:      -4.4      0.946      3.026
REMARK  0 active torsions:
REMARK  status: ('A' for Active; 'I' for Inactive)
ROOT
HETATM    1  C1  UNL     1     -32.484   6.193   2.831  1.00 20.00    -0.003 A 
HETATM    2  C2  UNL     1     -32.532   6.958   4.061  1.00 20.00    -0.003 A 
HETATM    3  C3  UNL     1     -33.554   5.375   2.805  1.00 20.00    -0.013 A 
HETATM    4  C4  UNL     1     -33.629   6.581   4.745  1.00 20.00    -0.013 A 
HETATM    5  C5  UNL     1     -35.060   4.412   4.691  1.00 20.00     0.019 A 
HETATM    6  C6  UNL     1     -35.862   5.484   3.994  1.00 20.00     0.019 A 
HETATM    7  C7  UNL     1     -34.372   5.549   4.013  1.00 20.00    -0.005 A 
ENDROOT
TORSDOF 0
ENDMDL
MODEL 7
REMARK VINA RESULT:      -4.4      0.957      2.812
REMARK  0 active torsions:
REMARK  status: ('A' for Active; 'I' for Inactive)
ROOT
HETATM    1  C1  UNL     1     -32.542   6.956   4.103  1.00 20.00    -0.003 A 
HETATM    2  C2  UNL     1     -32.489   6.211   2.860  1.00 20.00    -0.003 A 
HETATM    3  C3  UNL     1     -33.639   6.562   4.779  1.00 20.00    -0.013 A 
HETATM    4  C4  UNL     1     -33.555   5.390   2.819  1.00 20.00    -0.013 A 
HETATM    5  C5  UNL     1     -35.865   5.467   4.007  1.00 20.00     0.019 A 
HETATM    6  C6  UNL     1     -35.059   4.388   4.687  1.00 20.00     0.019 A 
HETATM    7  C7  UNL     1     -34.375   5.538   4.027  1.00 20.00    -0.005 A 
ENDROOT
TORSDOF 0
ENDMDL
MODEL 8
REMARK VINA RESULT:      -4.1      1.249      2.821
REMARK  0 active torsions:
REMARK  status: ('A' for Active; 'I' for Inactive)
ROOT
HETATM    1  C1  UNL     1     -33.631   6.943   6.408  1.00 20.00    -0.003 A 
HETATM    2  C2  UNL     1     -32.993   7.005   5.109  1.00 20.00    -0.003 A 
HETATM    3  C3  UNL     1     -34.521   5.932   6.389  1.00 20.00    -0.013 A 
HETATM    4  C4  UNL     1     -33.515   6.033   4.339  1.00 20.00    -0.013 A 
HETATM    5  C5  UNL     1     -35.771   4.746   4.443  1.00 20.00     0.019 A 
HETATM    6  C6  UNL     1     -34.702   3.795   4.922  1.00 20.00     0.019 A 
HETATM    7  C7  UNL     1     -34.526   5.268   5.079  1.00 20.00    -0.005 A 
ENDROOT
TORSDOF 0
ENDMDL
MODEL 9
REMARK VINA RESULT:      -4.0      1.574      2.391
REMARK  0 active torsions:
REMARK  status: ('A' for Active; 'I' for Inactive)
ROOT
HETATM    1  C1  UNL     1     -35.078   4.012   5.156  1.00 20.00    -0.003 A 
HETATM    2  C2  UNL     1     -35.158   4.953   4.056  1.00 20.00    -0.003 A 
HETATM    3  C3  UNL     1     -34.522   4.645   6.207  1.00 20.00    -0.013 A 
HETATM    4  C4  UNL     1     -34.647   6.127   4.471  1.00 20.00    -0.013 A 
HETATM    5  C5  UNL     1     -32.979   6.729   6.371  1.00 20.00     0.019 A 
HETATM    6  C6  UNL     1     -34.348   7.159   6.838  1.00 20.00     0.019 A 
HETATM    7  C7  UNL     1     -34.200   6.037   5.867  1.00 20.00    -0.005 A 
ENDROOT
TORSDOF 0
ENDMDL
