MODEL 1
REMARK VINA RESULT:      -4.5      0.000      0.000
REMARK  3 active torsions:
REMARK  status: ('A' for Active; 'I' for Inactive)
REMARK    1  A    between atoms: C5_5  and  C6_6 
REMARK    2  A    between atoms: C5_5  and  N8_8 
REMARK    3  A    between atoms: C6_6  and  N9_9 
ROOT
HETATM    1  C1  UNL     1     -32.003   8.224   2.179  1.00 20.00     0.157 C 
HETATM    2  N8  UNL     1     -31.830   7.624   3.174  1.00 20.00    -0.274 NA
HETATM    3  S10 UNL     1     -32.229   9.064   0.844  1.00 20.00    -0.055 SA
ENDROOT
BRANCH   2   4
HETATM    4  C5  UNL     1     -32.164   6.199   3.099  1.00 20.00     0.172 C 
BRANCH   4   5
HETATM    5  C6  UNL     1     -33.678   6.018   3.123  1.00 20.00     0.172 C 
BRANCH   5   6
HETATM    6  N9  UNL     1     -34.182   5.592   4.425  1.00 20.00    -0.280 N 
HETATM    7  C4  UNL     1     -34.927   4.479   4.678  1.00 20.00     0.113 A 
HETATM    8  C2  UNL     1     -35.167   4.487   6.031  1.00 20.00     0.040 A 
HETATM    9  C3  UNL     1     -34.521   5.649   6.495  1.00 20.00     0.140 A 
HETATM   10  N7  UNL     1     -33.917   6.329   5.516  1.00 20.00    -0.185 NA
ENDBRANCH   5   6
ENDBRANCH   4   5
ENDBRANCH   2   4
TORSDOF 3
ENDMDL
MODEL 2
REMARK VINA RESULT:      -3.8     11.187     12.979
REMARK  3 active torsions:
REMARK  status: ('A' for Active; 'I' for Inactive)
REMARK    1  A    between atoms: C5_5  and  C6_6 
REMARK    2  A    between atoms: C5_5  and  N8_8 
REMARK    3  A    between atoms: C6_6  and  N9_9 
ROOT
HETATM    1  C1  UNL     1     -34.932  13.605  -5.568  1.00 20.00     0.157 C 
HETATM    2  N8  UNL     1     -34.646  12.987  -4.611  1.00 20.00    -0.274 NA
HETATM    3  S10 UNL     1     -35.324  14.417  -6.881  1.00 20.00    -0.055 SA
ENDROOT
BRANCH   2   4
HETATM    4  C5  UNL     1     -34.268  13.793  -3.447  1.00 20.00     0.172 C 
BRANCH   4   5
HETATM    5  C6  UNL     1     -33.044  14.640  -3.777  1.00 20.00     0.172 C 
BRANCH   5   6
HETATM    6  N9  UNL     1     -33.341  16.066  -3.864  1.00 20.00    -0.280 N 
HETATM    7  C4  UNL     1     -33.890  16.839  -2.884  1.00 20.00     0.113 A 
HETATM    8  C2  UNL     1     -33.982  18.105  -3.410  1.00 20.00     0.040 A 
HETATM    9  C3  UNL     1     -33.460  17.982  -4.712  1.00 20.00     0.140 A 
HETATM   10  N7  UNL     1     -33.067  16.737  -4.995  1.00 20.00    -0.185 NA
ENDBRANCH   5   6
ENDBRANCH   4   5
ENDBRANCH   2   4
TORSDOF 3
ENDMDL
MODEL 3
REMARK VINA RESULT:      -3.7     11.385     12.191
REMARK  3 active torsions:
REMARK  status: ('A' for Active; 'I' for Inactive)
REMARK    1  A    between atoms: C5_5  and  C6_6 
REMARK    2  A    between atoms: C5_5  and  N8_8 
REMARK    3  A    between atoms: C6_6  and  N9_9 
ROOT
HETATM    1  C1  UNL     1     -34.752  16.722  -0.727  1.00 20.00     0.157 C 
HETATM    2  N8  UNL     1     -34.606  16.058  -1.685  1.00 20.00    -0.274 NA
HETATM    3  S10 UNL     1     -34.968  17.601   0.584  1.00 20.00    -0.055 SA
ENDROOT
BRANCH   2   4
HETATM    4  C5  UNL     1     -33.723  16.632  -2.703  1.00 20.00     0.172 C 
BRANCH   4   5
HETATM    5  C6  UNL     1     -32.951  15.523  -3.408  1.00 20.00     0.172 C 
BRANCH   5   6
HETATM    6  N9  UNL     1     -33.789  14.714  -4.288  1.00 20.00    -0.280 N 
HETATM    7  C4  UNL     1     -34.402  15.133  -5.432  1.00 20.00     0.113 A 
HETATM    8  C2  UNL     1     -35.073  14.039  -5.921  1.00 20.00     0.040 A 
HETATM    9  C3  UNL     1     -34.797  13.014  -4.996  1.00 20.00     0.140 A 
HETATM   10  N7  UNL     1     -34.011  13.421  -3.995  1.00 20.00    -0.185 NA
ENDBRANCH   5   6
ENDBRANCH   4   5
ENDBRANCH   2   4
TORSDOF 3
ENDMDL
MODEL 4
REMARK VINA RESULT:      -3.5     11.316     12.258
REMARK  3 active torsions:
REMARK  status: ('A' for Active; 'I' for Inactive)
REMARK    1  A    between atoms: C5_5  and  C6_6 
REMARK    2  A    between atoms: C5_5  and  N8_8 
REMARK    3  A    between atoms: C6_6  and  N9_9 
ROOT
HETATM    1  C1  UNL     1     -33.582  15.829  -2.989  1.00 20.00     0.157 C 
HETATM    2  N8  UNL     1     -33.224  15.125  -3.859  1.00 20.00    -0.274 NA
HETATM    3  S10 UNL     1     -34.049  16.807  -1.822  1.00 20.00    -0.055 SA
ENDROOT
BRANCH   2   4
HETATM    4  C5  UNL     1     -33.765  13.764  -3.810  1.00 20.00     0.172 C 
BRANCH   4   5
HETATM    5  C6  UNL     1     -34.690  13.528  -4.998  1.00 20.00     0.172 C 
BRANCH   5   6
HETATM    6  N9  UNL     1     -35.960  14.239  -4.885  1.00 20.00    -0.280 N 
HETATM    7  C4  UNL     1     -36.456  15.154  -5.766  1.00 20.00     0.113 A 
HETATM    8  C2  UNL     1     -37.667  15.550  -5.253  1.00 20.00     0.040 A 
HETATM    9  C3  UNL     1     -37.803  14.813  -4.062  1.00 20.00     0.140 A 
HETATM   10  N7  UNL     1     -36.761  14.009  -3.831  1.00 20.00    -0.185 NA
ENDBRANCH   5   6
ENDBRANCH   4   5
ENDBRANCH   2   4
TORSDOF 3
ENDMDL
MODEL 5
REMARK VINA RESULT:      -3.5     11.336     11.992
REMARK  3 active torsions:
REMARK  status: ('A' for Active; 'I' for Inactive)
REMARK    1  A    between atoms: C5_5  and  C6_6 
REMARK    2  A    between atoms: C5_5  and  N8_8 
REMARK    3  A    between atoms: C6_6  and  N9_9 
ROOT
HETATM    1  C1  UNL     1     -34.748  17.364   0.324  1.00 20.00     0.157 C 
HETATM    2  N8  UNL     1     -34.718  16.611  -0.577  1.00 20.00    -0.274 NA
HETATM    3  S10 UNL     1     -34.807  18.366   1.561  1.00 20.00    -0.055 SA
ENDROOT
BRANCH   2   4
HETATM    4  C5  UNL     1     -33.934  17.061  -1.730  1.00 20.00     0.172 C 
BRANCH   4   5
HETATM    5  C6  UNL     1     -34.704  16.797  -3.018  1.00 20.00     0.172 C 
BRANCH   5   6
HETATM    6  N9  UNL     1     -34.602  15.413  -3.472  1.00 20.00    -0.280 N 
HETATM    7  C4  UNL     1     -35.635  14.606  -3.846  1.00 20.00     0.113 A 
HETATM    8  C2  UNL     1     -35.067  13.405  -4.195  1.00 20.00     0.040 A 
HETATM    9  C3  UNL     1     -33.686  13.597  -3.993  1.00 20.00     0.140 A 
HETATM   10  N7  UNL     1     -33.396  14.824  -3.551  1.00 20.00    -0.185 NA
ENDBRANCH   5   6
ENDBRANCH   4   5
ENDBRANCH   2   4
TORSDOF 3
ENDMDL
MODEL 6
REMARK VINA RESULT:      -3.5     12.101     12.827
REMARK  3 active torsions:
REMARK  status: ('A' for Active; 'I' for Inactive)
REMARK    1  A    between atoms: C5_5  and  C6_6 
REMARK    2  A    between atoms: C5_5  and  N8_8 
REMARK    3  A    between atoms: C6_6  and  N9_9 
ROOT
HETATM    1  C1  UNL     1     -34.391  14.627  -5.355  1.00 20.00     0.157 C 
HETATM    2  N8  UNL     1     -33.992  15.557  -5.951  1.00 20.00    -0.274 NA
HETATM    3  S10 UNL     1     -34.940  13.352  -4.574  1.00 20.00    -0.055 SA
ENDROOT
BRANCH   2   4
HETATM    4  C5  UNL     1     -33.447  16.633  -5.119  1.00 20.00     0.172 C 
BRANCH   4   5
HETATM    5  C6  UNL     1     -34.572  17.318  -4.352  1.00 20.00     0.172 C 
BRANCH   5   6
HETATM    6  N9  UNL     1     -34.408  17.241  -2.904  1.00 20.00    -0.280 N 
HETATM    7  C4  UNL     1     -35.009  16.346  -2.068  1.00 20.00     0.113 A 
HETATM    8  C2  UNL     1     -34.559  16.649  -0.806  1.00 20.00     0.040 A 
HETATM    9  C3  UNL     1     -33.692  17.743  -0.995  1.00 20.00     0.140 A 
HETATM   10  N7  UNL     1     -33.596  18.109  -2.277  1.00 20.00    -0.185 NA
ENDBRANCH   5   6
ENDBRANCH   4   5
ENDBRANCH   2   4
TORSDOF 3
ENDMDL
MODEL 7
REMARK VINA RESULT:      -3.4     11.733     12.781
REMARK  3 active torsions:
REMARK  status: ('A' for Active; 'I' for Inactive)
REMARK    1  A    between atoms: C5_5  and  C6_6 
REMARK    2  A    between atoms: C5_5  and  N8_8 
REMARK    3  A    between atoms: C6_6  and  N9_9 
ROOT
HETATM    1  C1  UNL     1     -33.592  17.970  -5.627  1.00 20.00     0.157 C 
HETATM    2  N8  UNL     1     -33.193  17.249  -4.790  1.00 20.00    -0.274 NA
HETATM    3  S10 UNL     1     -34.114  18.933  -6.783  1.00 20.00    -0.055 SA
ENDROOT
BRANCH   2   4
HETATM    4  C5  UNL     1     -33.745  17.491  -3.455  1.00 20.00     0.172 C 
BRANCH   4   5
HETATM    5  C6  UNL     1     -33.760  16.194  -2.654  1.00 20.00     0.172 C 
BRANCH   5   6
HETATM    6  N9  UNL     1     -34.512  15.127  -3.308  1.00 20.00    -0.280 N 
HETATM    7  C4  UNL     1     -34.012  13.935  -3.743  1.00 20.00     0.113 A 
HETATM    8  C2  UNL     1     -35.076  13.256  -4.285  1.00 20.00     0.040 A 
HETATM    9  C3  UNL     1     -36.169  14.130  -4.125  1.00 20.00     0.140 A 
HETATM   10  N7  UNL     1     -35.829  15.276  -3.527  1.00 20.00    -0.185 NA
ENDBRANCH   5   6
ENDBRANCH   4   5
ENDBRANCH   2   4
TORSDOF 3
ENDMDL
MODEL 8
REMARK VINA RESULT:      -3.4     11.294     12.637
REMARK  3 active torsions:
REMARK  status: ('A' for Active; 'I' for Inactive)
REMARK    1  A    between atoms: C5_5  and  C6_6 
REMARK    2  A    between atoms: C5_5  and  N8_8 
REMARK    3  A    between atoms: C6_6  and  N9_9 
ROOT
HETATM    1  C1  UNL     1     -39.370  14.707  -4.098  1.00 20.00     0.157 C 
HETATM    2  N8  UNL     1     -38.323  14.303  -3.751  1.00 20.00    -0.274 NA
HETATM    3  S10 UNL     1     -40.803  15.228  -4.560  1.00 20.00    -0.055 SA
ENDROOT
BRANCH   2   4
HETATM    4  C5  UNL     1     -37.215  15.247  -3.913  1.00 20.00     0.172 C 
BRANCH   4   5
HETATM    5  C6  UNL     1     -36.224  14.714  -4.942  1.00 20.00     0.172 C 
BRANCH   5   6
HETATM    6  N9  UNL     1     -34.870  14.574  -4.413  1.00 20.00    -0.280 N 
HETATM    7  C4  UNL     1     -33.953  15.572  -4.264  1.00 20.00     0.113 A 
HETATM    8  C2  UNL     1     -32.834  14.977  -3.733  1.00 20.00     0.040 A 
HETATM    9  C3  UNL     1     -33.185  13.620  -3.602  1.00 20.00     0.140 A 
HETATM   10  N7  UNL     1     -34.430  13.368  -4.017  1.00 20.00    -0.185 NA
ENDBRANCH   5   6
ENDBRANCH   4   5
ENDBRANCH   2   4
TORSDOF 3
ENDMDL
MODEL 9
REMARK VINA RESULT:      -3.3     12.121     12.850
REMARK  3 active torsions:
REMARK  status: ('A' for Active; 'I' for Inactive)
REMARK    1  A    between atoms: C5_5  and  C6_6 
REMARK    2  A    between atoms: C5_5  and  N8_8 
REMARK    3  A    between atoms: C6_6  and  N9_9 
ROOT
HETATM    1  C1  UNL     1     -34.463  16.128  -7.147  1.00 20.00     0.157 C 
HETATM    2  N8  UNL     1     -34.270  14.970  -7.104  1.00 20.00    -0.274 NA
HETATM    3  S10 UNL     1     -34.699  17.702  -7.223  1.00 20.00    -0.055 SA
ENDROOT
BRANCH   2   4
HETATM    4  C5  UNL     1     -35.208  14.221  -6.264  1.00 20.00     0.172 C 
BRANCH   4   5
HETATM    5  C6  UNL     1     -34.499  13.720  -5.011  1.00 20.00     0.172 C 
BRANCH   5   6
HETATM    6  N9  UNL     1     -34.447  14.717  -3.946  1.00 20.00    -0.280 N 
HETATM    7  C4  UNL     1     -33.337  15.383  -3.516  1.00 20.00     0.113 A 
HETATM    8  C2  UNL     1     -33.765  16.213  -2.509  1.00 20.00     0.040 A 
HETATM    9  C3  UNL     1     -35.148  15.968  -2.414  1.00 20.00     0.140 A 
HETATM   10  N7  UNL     1     -35.570  15.053  -3.291  1.00 20.00    -0.185 NA
ENDBRANCH   5   6
ENDBRANCH   4   5
ENDBRANCH   2   4
TORSDOF 3
ENDMDL
