MODEL 1
REMARK VINA RESULT:      -4.6      0.000      0.000
REMARK  3 active torsions:
REMARK  status: ('A' for Active; 'I' for Inactive)
REMARK    1  A    between atoms: C3_3  and  C4_4 
REMARK    2  A    between atoms: C4_4  and  C6_6 
REMARK    3  A    between atoms: C5_5  and  C6_6 
ROOT
HETATM    1  C2  UNL     1     -33.785   6.540   5.554  1.00 20.00     0.011 C 
HETATM    2  C6  UNL     1     -34.410   6.080   4.232  1.00 20.00    -0.005 C 
ENDROOT
BRANCH   2   3
HETATM    3  C4  UNL     1     -33.319   5.987   3.144  1.00 20.00     0.005 C 
BRANCH   3   4
HETATM    4  C3  UNL     1     -32.137   6.930   3.380  1.00 20.00    -0.004 C 
HETATM    5  C1  UNL     1     -32.047   7.988   2.290  1.00 20.00     0.005 C 
ENDBRANCH   3   4
ENDBRANCH   2   3
BRANCH   2   6
HETATM    6  C5  UNL     1     -35.232   4.796   4.418  1.00 20.00     0.119 C 
HETATM    7 CL7  UNL     1     -35.125   4.112   6.058  1.00 20.00    -0.130 Cl
ENDBRANCH   2   6
TORSDOF 3
ENDMDL
MODEL 2
REMARK VINA RESULT:      -4.5      1.657      2.293
REMARK  3 active torsions:
REMARK  status: ('A' for Active; 'I' for Inactive)
REMARK    1  A    between atoms: C3_3  and  C4_4 
REMARK    2  A    between atoms: C4_4  and  C6_6 
REMARK    3  A    between atoms: C5_5  and  C6_6 
ROOT
HETATM    1  C2  UNL     1     -35.122   3.963   5.144  1.00 20.00     0.011 C 
HETATM    2  C6  UNL     1     -34.207   5.190   5.231  1.00 20.00    -0.005 C 
ENDROOT
BRANCH   2   3
HETATM    3  C4  UNL     1     -34.346   6.036   3.948  1.00 20.00     0.005 C 
BRANCH   3   4
HETATM    4  C3  UNL     1     -33.131   5.948   3.021  1.00 20.00    -0.004 C 
HETATM    5  C1  UNL     1     -32.116   7.037   3.334  1.00 20.00     0.005 C 
ENDBRANCH   3   4
ENDBRANCH   2   3
BRANCH   2   6
HETATM    6  C5  UNL     1     -34.437   5.970   6.534  1.00 20.00     0.119 C 
HETATM    7 CL7  UNL     1     -33.297   7.316   6.771  1.00 20.00    -0.130 Cl
ENDBRANCH   2   6
TORSDOF 3
ENDMDL
MODEL 3
REMARK VINA RESULT:      -4.2      2.633      4.225
REMARK  3 active torsions:
REMARK  status: ('A' for Active; 'I' for Inactive)
REMARK    1  A    between atoms: C3_3  and  C4_4 
REMARK    2  A    between atoms: C4_4  and  C6_6 
REMARK    3  A    between atoms: C5_5  and  C6_6 
ROOT
HETATM    1  C2  UNL     1     -34.067   5.383   2.665  1.00 20.00     0.011 C 
HETATM    2  C6  UNL     1     -33.629   6.517   3.600  1.00 20.00    -0.005 C 
ENDROOT
BRANCH   2   3
HETATM    3  C4  UNL     1     -33.956   6.143   5.061  1.00 20.00     0.005 C 
BRANCH   3   4
HETATM    4  C3  UNL     1     -35.121   5.160   5.195  1.00 20.00    -0.004 C 
HETATM    5  C1  UNL     1     -34.732   3.951   6.032  1.00 20.00     0.005 C 
ENDBRANCH   3   4
ENDBRANCH   2   3
BRANCH   2   6
HETATM    6  C5  UNL     1     -32.164   6.909   3.357  1.00 20.00     0.119 C 
HETATM    7 CL7  UNL     1     -31.950   8.098   2.050  1.00 20.00    -0.130 Cl
ENDBRANCH   2   6
TORSDOF 3
ENDMDL
MODEL 4
REMARK VINA RESULT:      -4.1      1.095      1.309
REMARK  3 active torsions:
REMARK  status: ('A' for Active; 'I' for Inactive)
REMARK    1  A    between atoms: C3_3  and  C4_4 
REMARK    2  A    between atoms: C4_4  and  C6_6 
REMARK    3  A    between atoms: C5_5  and  C6_6 
ROOT
HETATM    1  C2  UNL     1     -33.322   7.076   6.435  1.00 20.00     0.011 C 
HETATM    2  C6  UNL     1     -34.397   6.284   5.683  1.00 20.00    -0.005 C 
ENDROOT
BRANCH   2   3
HETATM    3  C4  UNL     1     -34.153   6.386   4.163  1.00 20.00     0.005 C 
BRANCH   3   4
HETATM    4  C3  UNL     1     -32.679   6.262   3.770  1.00 20.00    -0.004 C 
HETATM    5  C1  UNL     1     -32.274   7.351   2.788  1.00 20.00     0.005 C 
ENDBRANCH   3   4
ENDBRANCH   2   3
BRANCH   2   6
HETATM    6  C5  UNL     1     -34.507   4.846   6.212  1.00 20.00     0.119 C 
HETATM    7 CL7  UNL     1     -35.072   3.678   4.994  1.00 20.00    -0.130 Cl
ENDBRANCH   2   6
TORSDOF 3
ENDMDL
MODEL 5
REMARK VINA RESULT:      -4.1      2.290      3.561
REMARK  3 active torsions:
REMARK  status: ('A' for Active; 'I' for Inactive)
REMARK    1  A    between atoms: C3_3  and  C4_4 
REMARK    2  A    between atoms: C4_4  and  C6_6 
REMARK    3  A    between atoms: C5_5  and  C6_6 
ROOT
HETATM    1  C2  UNL     1     -35.952   5.832   3.313  1.00 20.00     0.011 C 
HETATM    2  C6  UNL     1     -34.594   5.843   4.024  1.00 20.00    -0.005 C 
ENDROOT
BRANCH   2   3
HETATM    3  C4  UNL     1     -34.577   4.769   5.131  1.00 20.00     0.005 C 
BRANCH   3   4
HETATM    4  C3  UNL     1     -34.540   5.349   6.547  1.00 20.00    -0.004 C 
HETATM    5  C1  UNL     1     -33.908   6.733   6.562  1.00 20.00     0.005 C 
ENDBRANCH   3   4
ENDBRANCH   2   3
BRANCH   2   6
HETATM    6  C5  UNL     1     -33.435   5.739   3.021  1.00 20.00     0.119 C 
HETATM    7 CL7  UNL     1     -32.067   6.814   3.397  1.00 20.00    -0.130 Cl
ENDBRANCH   2   6
TORSDOF 3
ENDMDL
MODEL 6
REMARK VINA RESULT:      -4.1      0.837      1.399
REMARK  3 active torsions:
REMARK  status: ('A' for Active; 'I' for Inactive)
REMARK    1  A    between atoms: C3_3  and  C4_4 
REMARK    2  A    between atoms: C4_4  and  C6_6 
REMARK    3  A    between atoms: C5_5  and  C6_6 
ROOT
HETATM    1  C2  UNL     1     -35.214   5.416   3.590  1.00 20.00     0.011 C 
HETATM    2  C6  UNL     1     -33.981   5.708   4.453  1.00 20.00    -0.005 C 
ENDROOT
BRANCH   2   3
HETATM    3  C4  UNL     1     -33.324   7.027   3.994  1.00 20.00     0.005 C 
BRANCH   3   4
HETATM    4  C3  UNL     1     -32.244   6.835   2.927  1.00 20.00    -0.004 C 
HETATM    5  C1  UNL     1     -32.042   8.101   2.109  1.00 20.00     0.005 C 
ENDBRANCH   3   4
ENDBRANCH   2   3
BRANCH   2   6
HETATM    6  C5  UNL     1     -34.319   5.655   5.950  1.00 20.00     0.119 C 
HETATM    7 CL7  UNL     1     -35.276   4.227   6.415  1.00 20.00    -0.130 Cl
ENDBRANCH   2   6
TORSDOF 3
ENDMDL
MODEL 7
REMARK VINA RESULT:      -3.8      1.707      3.371
REMARK  3 active torsions:
REMARK  status: ('A' for Active; 'I' for Inactive)
REMARK    1  A    between atoms: C3_3  and  C4_4 
REMARK    2  A    between atoms: C4_4  and  C6_6 
REMARK    3  A    between atoms: C5_5  and  C6_6 
ROOT
HETATM    1  C2  UNL     1     -32.305   6.603   3.525  1.00 20.00     0.011 C 
HETATM    2  C6  UNL     1     -33.475   5.763   4.052  1.00 20.00    -0.005 C 
ENDROOT
BRANCH   2   3
HETATM    3  C4  UNL     1     -34.091   6.447   5.291  1.00 20.00     0.005 C 
BRANCH   3   4
HETATM    4  C3  UNL     1     -34.408   5.477   6.431  1.00 20.00    -0.004 C 
HETATM    5  C1  UNL     1     -34.709   4.082   5.904  1.00 20.00     0.005 C 
ENDBRANCH   3   4
ENDBRANCH   2   3
BRANCH   2   6
HETATM    6  C5  UNL     1     -34.481   5.443   2.937  1.00 20.00     0.119 C 
HETATM    7 CL7  UNL     1     -36.156   5.898   3.336  1.00 20.00    -0.130 Cl
ENDBRANCH   2   6
TORSDOF 3
ENDMDL
MODEL 8
REMARK VINA RESULT:      -3.8      2.833      4.311
REMARK  3 active torsions:
REMARK  status: ('A' for Active; 'I' for Inactive)
REMARK    1  A    between atoms: C3_3  and  C4_4 
REMARK    2  A    between atoms: C4_4  and  C6_6 
REMARK    3  A    between atoms: C5_5  and  C6_6 
ROOT
HETATM    1  C2  UNL     1     -32.150   5.225   2.988  1.00 20.00     0.011 C 
HETATM    2  C6  UNL     1     -32.967   6.521   3.061  1.00 20.00    -0.005 C 
ENDROOT
BRANCH   2   3
HETATM    3  C4  UNL     1     -33.930   6.463   4.265  1.00 20.00     0.005 C 
BRANCH   3   4
HETATM    4  C3  UNL     1     -34.858   5.246   4.248  1.00 20.00    -0.004 C 
HETATM    5  C1  UNL     1     -34.942   4.595   5.620  1.00 20.00     0.005 C 
ENDBRANCH   3   4
ENDBRANCH   2   3
BRANCH   2   6
HETATM    6  C5  UNL     1     -32.058   7.759   3.034  1.00 20.00     0.119 C 
HETATM    7 CL7  UNL     1     -32.003   8.570   1.451  1.00 20.00    -0.130 Cl
ENDBRANCH   2   6
TORSDOF 3
ENDMDL
MODEL 9
REMARK VINA RESULT:      -3.5     11.317     12.175
REMARK  3 active torsions:
REMARK  status: ('A' for Active; 'I' for Inactive)
REMARK    1  A    between atoms: C3_3  and  C4_4 
REMARK    2  A    between atoms: C4_4  and  C6_6 
REMARK    3  A    between atoms: C5_5  and  C6_6 
ROOT
HETATM    1  C2  UNL     1     -33.301  16.208  -4.691  1.00 20.00     0.011 C 
HETATM    2  C6  UNL     1     -33.319  15.296  -3.459  1.00 20.00    -0.005 C 
ENDROOT
BRANCH   2   3
HETATM    3  C4  UNL     1     -34.391  15.787  -2.463  1.00 20.00     0.005 C 
BRANCH   3   4
HETATM    4  C3  UNL     1     -33.904  16.908  -1.543  1.00 20.00    -0.004 C 
HETATM    5  C1  UNL     1     -34.754  17.000  -0.285  1.00 20.00     0.005 C 
ENDBRANCH   3   4
ENDBRANCH   2   3
BRANCH   2   6
HETATM    6  C5  UNL     1     -33.452  13.819  -3.857  1.00 20.00     0.119 C 
HETATM    7 CL7  UNL     1     -35.126  13.318  -4.194  1.00 20.00    -0.130 Cl
ENDBRANCH   2   6
TORSDOF 3
ENDMDL
