MODEL 1
REMARK VINA RESULT:      -4.9      0.000      0.000
REMARK  6 active torsions:
REMARK  status: ('A' for Active; 'I' for Inactive)
REMARK    1  A    between atoms: C2_2  and  C3_3 
REMARK    2  A    between atoms: C3_3  and  C4_4 
REMARK    3  A    between atoms: C4_4  and  C5_5 
REMARK    4  A    between atoms: C5_5  and  C6_6 
REMARK    5  A    between atoms: C6_6  and  C7_7 
REMARK    6  A    between atoms: C7_7  and  C8_8 
ROOT
HETATM    1  C4  UNL     1     -33.817   5.499   2.923  1.00 20.00     0.005 C 
ENDROOT
BRANCH   1   2
HETATM    2  C3  UNL     1     -34.899   5.845   3.954  1.00 20.00     0.050 C 
BRANCH   2   3
HETATM    3  C2  UNL     1     -34.618   5.346   5.343  1.00 20.00     0.002 C 
HETATM    4  C1  UNL     1     -34.828   4.086   5.745  1.00 20.00     0.032 C 
HETATM    5 CL9  UNL     1     -34.039   6.523   6.473  1.00 20.00    -0.090 Cl
ENDBRANCH   2   3
ENDBRANCH   1   2
BRANCH   1   6
HETATM    6  C5  UNL     1     -32.419   5.970   3.333  1.00 20.00     0.000 C 
BRANCH   6   7
HETATM    7  C6  UNL     1     -32.312   7.495   3.283  1.00 20.00     0.001 C 
BRANCH   7   8
HETATM    8  C7  UNL     1     -31.739   7.969   1.946  1.00 20.00     0.015 C 
BRANCH   8   9
HETATM    9  C8  UNL     1     -32.395   9.268   1.498  1.00 20.00     0.114 C 
HETATM   10 CL10 UNL     1     -32.874   9.165  -0.211  1.00 20.00    -0.130 Cl
ENDBRANCH   8   9
ENDBRANCH   7   8
ENDBRANCH   6   7
ENDBRANCH   1   6
TORSDOF 6
ENDMDL
MODEL 2
REMARK VINA RESULT:      -4.8      1.038      5.133
REMARK  6 active torsions:
REMARK  status: ('A' for Active; 'I' for Inactive)
REMARK    1  A    between atoms: C2_2  and  C3_3 
REMARK    2  A    between atoms: C3_3  and  C4_4 
REMARK    3  A    between atoms: C4_4  and  C5_5 
REMARK    4  A    between atoms: C5_5  and  C6_6 
REMARK    5  A    between atoms: C6_6  and  C7_7 
REMARK    6  A    between atoms: C7_7  and  C8_8 
ROOT
HETATM    1  C4  UNL     1     -32.159   6.189   2.914  1.00 20.00     0.005 C 
ENDROOT
BRANCH   1   2
HETATM    2  C3  UNL     1     -31.998   7.694   3.165  1.00 20.00     0.050 C 
BRANCH   2   3
HETATM    3  C2  UNL     1     -32.103   8.546   1.931  1.00 20.00     0.002 C 
HETATM    4  C1  UNL     1     -31.616   8.198   0.734  1.00 20.00     0.032 C 
HETATM    5 CL9  UNL     1     -32.864  10.088   2.134  1.00 20.00    -0.090 Cl
ENDBRANCH   2   3
ENDBRANCH   1   2
BRANCH   1   6
HETATM    6  C5  UNL     1     -33.618   5.757   2.749  1.00 20.00     0.000 C 
BRANCH   6   7
HETATM    7  C6  UNL     1     -34.461   6.186   3.952  1.00 20.00     0.001 C 
BRANCH   7   8
HETATM    8  C7  UNL     1     -35.006   4.975   4.711  1.00 20.00     0.015 C 
BRANCH   8   9
HETATM    9  C8  UNL     1     -34.741   5.100   6.205  1.00 20.00     0.114 C 
HETATM   10 CL10 UNL     1     -33.959   6.655   6.570  1.00 20.00    -0.130 Cl
ENDBRANCH   8   9
ENDBRANCH   7   8
ENDBRANCH   6   7
ENDBRANCH   1   6
TORSDOF 6
ENDMDL
MODEL 3
REMARK VINA RESULT:      -4.6      0.898      5.204
REMARK  6 active torsions:
REMARK  status: ('A' for Active; 'I' for Inactive)
REMARK    1  A    between atoms: C2_2  and  C3_3 
REMARK    2  A    between atoms: C3_3  and  C4_4 
REMARK    3  A    between atoms: C4_4  and  C5_5 
REMARK    4  A    between atoms: C5_5  and  C6_6 
REMARK    5  A    between atoms: C6_6  and  C7_7 
REMARK    6  A    between atoms: C7_7  and  C8_8 
ROOT
HETATM    1  C4  UNL     1     -32.126   6.209   2.892  1.00 20.00     0.005 C 
ENDROOT
BRANCH   1   2
HETATM    2  C3  UNL     1     -31.945   7.701   3.199  1.00 20.00     0.050 C 
BRANCH   2   3
HETATM    3  C2  UNL     1     -32.150   8.610   2.020  1.00 20.00     0.002 C 
HETATM    4  C1  UNL     1     -32.846   9.753   2.064  1.00 20.00     0.032 C 
HETATM    5 CL9  UNL     1     -31.470   8.075   0.520  1.00 20.00    -0.090 Cl
ENDBRANCH   2   3
ENDBRANCH   1   2
BRANCH   1   6
HETATM    6  C5  UNL     1     -33.593   5.799   2.736  1.00 20.00     0.000 C 
BRANCH   6   7
HETATM    7  C6  UNL     1     -34.423   6.244   3.942  1.00 20.00     0.001 C 
BRANCH   7   8
HETATM    8  C7  UNL     1     -35.007   5.043   4.689  1.00 20.00     0.015 C 
BRANCH   8   9
HETATM    9  C8  UNL     1     -34.662   5.099   6.171  1.00 20.00     0.114 C 
HETATM   10 CL10 UNL     1     -33.956   6.678   6.586  1.00 20.00    -0.130 Cl
ENDBRANCH   8   9
ENDBRANCH   7   8
ENDBRANCH   6   7
ENDBRANCH   1   6
TORSDOF 6
ENDMDL
MODEL 4
REMARK VINA RESULT:      -4.6      1.723      4.824
REMARK  6 active torsions:
REMARK  status: ('A' for Active; 'I' for Inactive)
REMARK    1  A    between atoms: C2_2  and  C3_3 
REMARK    2  A    between atoms: C3_3  and  C4_4 
REMARK    3  A    between atoms: C4_4  and  C5_5 
REMARK    4  A    between atoms: C5_5  and  C6_6 
REMARK    5  A    between atoms: C6_6  and  C7_7 
REMARK    6  A    between atoms: C7_7  and  C8_8 
ROOT
HETATM    1  C4  UNL     1     -33.746   5.571   2.655  1.00 20.00     0.005 C 
ENDROOT
BRANCH   1   2
HETATM    2  C3  UNL     1     -32.338   5.898   3.172  1.00 20.00     0.050 C 
BRANCH   2   3
HETATM    3  C2  UNL     1     -31.950   7.345   3.049  1.00 20.00     0.002 C 
HETATM    4  C1  UNL     1     -32.233   8.111   1.988  1.00 20.00     0.032 C 
HETATM    5 CL9  UNL     1     -31.033   8.001   4.363  1.00 20.00    -0.090 Cl
ENDBRANCH   2   3
ENDBRANCH   1   2
BRANCH   1   6
HETATM    6  C5  UNL     1     -34.841   5.801   3.699  1.00 20.00     0.000 C 
BRANCH   6   7
HETATM    7  C6  UNL     1     -35.180   4.506   4.440  1.00 20.00     0.001 C 
BRANCH   7   8
HETATM    8  C7  UNL     1     -34.447   4.423   5.780  1.00 20.00     0.015 C 
BRANCH   8   9
HETATM    9  C8  UNL     1     -34.778   5.620   6.661  1.00 20.00     0.114 C 
HETATM   10 CL10 UNL     1     -33.490   6.843   6.557  1.00 20.00    -0.130 Cl
ENDBRANCH   8   9
ENDBRANCH   7   8
ENDBRANCH   6   7
ENDBRANCH   1   6
TORSDOF 6
ENDMDL
MODEL 5
REMARK VINA RESULT:      -4.1     10.737     12.016
REMARK  6 active torsions:
REMARK  status: ('A' for Active; 'I' for Inactive)
REMARK    1  A    between atoms: C2_2  and  C3_3 
REMARK    2  A    between atoms: C3_3  and  C4_4 
REMARK    3  A    between atoms: C4_4  and  C5_5 
REMARK    4  A    between atoms: C5_5  and  C6_6 
REMARK    5  A    between atoms: C6_6  and  C7_7 
REMARK    6  A    between atoms: C7_7  and  C8_8 
ROOT
HETATM    1  C4  UNL     1     -34.189  13.856  -3.597  1.00 20.00     0.005 C 
ENDROOT
BRANCH   1   2
HETATM    2  C3  UNL     1     -34.617  13.384  -4.992  1.00 20.00     0.050 C 
BRANCH   2   3
HETATM    3  C2  UNL     1     -35.230  14.455  -5.851  1.00 20.00     0.002 C 
HETATM    4  C1  UNL     1     -36.411  15.033  -5.600  1.00 20.00     0.032 C 
HETATM    5 CL9  UNL     1     -34.342  14.894  -7.271  1.00 20.00    -0.090 Cl
ENDBRANCH   2   3
ENDBRANCH   1   2
BRANCH   1   6
HETATM    6  C5  UNL     1     -33.127  14.958  -3.631  1.00 20.00     0.000 C 
BRANCH   6   7
HETATM    7  C6  UNL     1     -33.621  16.225  -2.929  1.00 20.00     0.001 C 
BRANCH   7   8
HETATM    8  C7  UNL     1     -34.791  15.922  -1.992  1.00 20.00     0.015 C 
BRANCH   8   9
HETATM    9  C8  UNL     1     -34.685  16.726  -0.704  1.00 20.00     0.114 C 
HETATM   10 CL10 UNL     1     -33.295  17.834  -0.776  1.00 20.00    -0.130 Cl
ENDBRANCH   8   9
ENDBRANCH   7   8
ENDBRANCH   6   7
ENDBRANCH   1   6
TORSDOF 6
ENDMDL
MODEL 6
REMARK VINA RESULT:      -3.9     10.844     11.658
REMARK  6 active torsions:
REMARK  status: ('A' for Active; 'I' for Inactive)
REMARK    1  A    between atoms: C2_2  and  C3_3 
REMARK    2  A    between atoms: C3_3  and  C4_4 
REMARK    3  A    between atoms: C4_4  and  C5_5 
REMARK    4  A    between atoms: C5_5  and  C6_6 
REMARK    5  A    between atoms: C6_6  and  C7_7 
REMARK    6  A    between atoms: C7_7  and  C8_8 
ROOT
HETATM    1  C4  UNL     1     -34.652  16.298  -1.381  1.00 20.00     0.005 C 
ENDROOT
BRANCH   1   2
HETATM    2  C3  UNL     1     -33.651  17.460  -1.427  1.00 20.00     0.050 C 
BRANCH   2   3
HETATM    3  C2  UNL     1     -33.458  18.167  -0.114  1.00 20.00     0.002 C 
HETATM    4  C1  UNL     1     -34.349  18.153   0.884  1.00 20.00     0.032 C 
HETATM    5 CL9  UNL     1     -32.000  19.087   0.047  1.00 20.00    -0.090 Cl
ENDBRANCH   2   3
ENDBRANCH   1   2
BRANCH   1   6
HETATM    6  C5  UNL     1     -34.862  15.629  -2.742  1.00 20.00     0.000 C 
BRANCH   6   7
HETATM    7  C6  UNL     1     -33.526  15.310  -3.415  1.00 20.00     0.001 C 
BRANCH   7   8
HETATM    8  C7  UNL     1     -33.424  13.827  -3.775  1.00 20.00     0.015 C 
BRANCH   8   9
HETATM    9  C8  UNL     1     -34.617  13.382  -4.609  1.00 20.00     0.114 C 
HETATM   10 CL10 UNL     1     -34.702  14.316  -6.120  1.00 20.00    -0.130 Cl
ENDBRANCH   8   9
ENDBRANCH   7   8
ENDBRANCH   6   7
ENDBRANCH   1   6
TORSDOF 6
ENDMDL
MODEL 7
REMARK VINA RESULT:      -3.9     10.461     11.692
REMARK  6 active torsions:
REMARK  status: ('A' for Active; 'I' for Inactive)
REMARK    1  A    between atoms: C2_2  and  C3_3 
REMARK    2  A    between atoms: C3_3  and  C4_4 
REMARK    3  A    between atoms: C4_4  and  C5_5 
REMARK    4  A    between atoms: C5_5  and  C6_6 
REMARK    5  A    between atoms: C6_6  and  C7_7 
REMARK    6  A    between atoms: C7_7  and  C8_8 
ROOT
HETATM    1  C4  UNL     1     -34.638  16.771  -0.783  1.00 20.00     0.005 C 
ENDROOT
BRANCH   1   2
HETATM    2  C3  UNL     1     -33.622  17.904  -0.980  1.00 20.00     0.050 C 
BRANCH   2   3
HETATM    3  C2  UNL     1     -33.109  18.510   0.296  1.00 20.00     0.002 C 
HETATM    4  C1  UNL     1     -31.926  19.126   0.412  1.00 20.00     0.032 C 
HETATM    5 CL9  UNL     1     -34.122  18.325   1.687  1.00 20.00    -0.090 Cl
ENDBRANCH   2   3
ENDBRANCH   1   2
BRANCH   1   6
HETATM    6  C5  UNL     1     -34.779  15.868  -2.010  1.00 20.00     0.000 C 
BRANCH   6   7
HETATM    7  C6  UNL     1     -33.716  16.191  -3.062  1.00 20.00     0.001 C 
BRANCH   7   8
HETATM    8  C7  UNL     1     -33.180  14.919  -3.721  1.00 20.00     0.015 C 
BRANCH   8   9
HETATM    9  C8  UNL     1     -34.177  13.774  -3.595  1.00 20.00     0.114 C 
HETATM   10 CL10 UNL     1     -34.831  13.341  -5.191  1.00 20.00    -0.130 Cl
ENDBRANCH   8   9
ENDBRANCH   7   8
ENDBRANCH   6   7
ENDBRANCH   1   6
TORSDOF 6
ENDMDL
MODEL 8
REMARK VINA RESULT:      -3.8     10.975     12.210
REMARK  6 active torsions:
REMARK  status: ('A' for Active; 'I' for Inactive)
REMARK    1  A    between atoms: C2_2  and  C3_3 
REMARK    2  A    between atoms: C3_3  and  C4_4 
REMARK    3  A    between atoms: C4_4  and  C5_5 
REMARK    4  A    between atoms: C5_5  and  C6_6 
REMARK    5  A    between atoms: C6_6  and  C7_7 
REMARK    6  A    between atoms: C7_7  and  C8_8 
ROOT
HETATM    1  C4  UNL     1     -34.697  13.610  -3.886  1.00 20.00     0.005 C 
ENDROOT
BRANCH   1   2
HETATM    2  C3  UNL     1     -35.045  13.329  -5.353  1.00 20.00     0.050 C 
BRANCH   2   3
HETATM    3  C2  UNL     1     -35.281  14.559  -6.184  1.00 20.00     0.002 C 
HETATM    4  C1  UNL     1     -34.536  14.906  -7.241  1.00 20.00     0.032 C 
HETATM    5 CL9  UNL     1     -36.575  15.588  -5.670  1.00 20.00    -0.090 Cl
ENDBRANCH   2   3
ENDBRANCH   1   2
BRANCH   1   6
HETATM    6  C5  UNL     1     -33.194  13.778  -3.644  1.00 20.00     0.000 C 
BRANCH   6   7
HETATM    7  C6  UNL     1     -32.801  15.256  -3.607  1.00 20.00     0.001 C 
BRANCH   7   8
HETATM    8  C7  UNL     1     -33.762  16.066  -2.735  1.00 20.00     0.015 C 
BRANCH   8   9
HETATM    9  C8  UNL     1     -34.250  17.309  -3.466  1.00 20.00     0.114 C 
HETATM   10 CL10 UNL     1     -33.396  17.494  -5.015  1.00 20.00    -0.130 Cl
ENDBRANCH   8   9
ENDBRANCH   7   8
ENDBRANCH   6   7
ENDBRANCH   1   6
TORSDOF 6
ENDMDL
MODEL 9
REMARK VINA RESULT:      -3.7     10.743     12.385
REMARK  6 active torsions:
REMARK  status: ('A' for Active; 'I' for Inactive)
REMARK    1  A    between atoms: C2_2  and  C3_3 
REMARK    2  A    between atoms: C3_3  and  C4_4 
REMARK    3  A    between atoms: C4_4  and  C5_5 
REMARK    4  A    between atoms: C5_5  and  C6_6 
REMARK    5  A    between atoms: C6_6  and  C7_7 
REMARK    6  A    between atoms: C7_7  and  C8_8 
ROOT
HETATM    1  C4  UNL     1     -34.778  13.456  -5.258  1.00 20.00     0.005 C 
ENDROOT
BRANCH   1   2
HETATM    2  C3  UNL     1     -35.135  13.826  -3.812  1.00 20.00     0.050 C 
BRANCH   2   3
HETATM    3  C2  UNL     1     -34.247  14.872  -3.199  1.00 20.00     0.002 C 
HETATM    4  C1  UNL     1     -34.680  15.838  -2.380  1.00 20.00     0.032 C 
HETATM    5 CL9  UNL     1     -32.577  14.813  -3.653  1.00 20.00    -0.090 Cl
ENDBRANCH   2   3
ENDBRANCH   1   2
BRANCH   1   6
HETATM    6  C5  UNL     1     -35.380  14.412  -6.291  1.00 20.00     0.000 C 
BRANCH   6   7
HETATM    7  C6  UNL     1     -34.286  15.128  -7.087  1.00 20.00     0.001 C 
BRANCH   7   8
HETATM    8  C7  UNL     1     -34.611  16.611  -7.268  1.00 20.00     0.015 C 
BRANCH   8   9
HETATM    9  C8  UNL     1     -34.931  17.270  -5.933  1.00 20.00     0.114 C 
HETATM   10 CL10 UNL     1     -33.449  17.909  -5.185  1.00 20.00    -0.130 Cl
ENDBRANCH   8   9
ENDBRANCH   7   8
ENDBRANCH   6   7
ENDBRANCH   1   6
TORSDOF 6
ENDMDL
