MODEL 1
REMARK VINA RESULT:      -5.7      0.000      0.000
REMARK  0 active torsions:
REMARK  status: ('A' for Active; 'I' for Inactive)
ROOT
HETATM    1  C1  UNL     1     -35.181   4.722   5.987  1.00 20.00     0.000 C 
HETATM    2  C2  UNL     1     -33.965   5.555   6.395  1.00 20.00     0.001 C 
HETATM    3  C3  UNL     1     -35.070   4.241   4.540  1.00 20.00     0.001 C 
HETATM    4  C4  UNL     1     -33.742   6.725   5.436  1.00 20.00     0.009 C 
HETATM    5  C5  UNL     1     -34.849   5.407   3.579  1.00 20.00     0.009 C 
HETATM    6  C6  UNL     1     -32.299   5.892   3.442  1.00 20.00     0.010 A 
HETATM    7  C7  UNL     1     -33.010   7.134   2.984  1.00 20.00     0.010 A 
HETATM    8  C8  UNL     1     -33.658   6.232   4.009  1.00 20.00    -0.040 A 
ENDROOT
TORSDOF 0
ENDMDL
MODEL 2
REMARK VINA RESULT:      -5.0      0.922      3.402
REMARK  0 active torsions:
REMARK  status: ('A' for Active; 'I' for Inactive)
ROOT
HETATM    1  C1  UNL     1     -33.295   6.506   2.868  1.00 20.00     0.000 C 
HETATM    2  C2  UNL     1     -34.238   5.307   2.765  1.00 20.00     0.001 C 
HETATM    3  C3  UNL     1     -32.602   6.556   4.230  1.00 20.00     0.001 C 
HETATM    4  C4  UNL     1     -35.255   5.295   3.906  1.00 20.00     0.009 C 
HETATM    5  C5  UNL     1     -33.615   6.547   5.374  1.00 20.00     0.009 C 
HETATM    6  C6  UNL     1     -34.195   4.078   5.942  1.00 20.00     0.010 A 
HETATM    7  C7  UNL     1     -35.315   4.928   6.470  1.00 20.00     0.010 A 
HETATM    8  C8  UNL     1     -34.553   5.369   5.243  1.00 20.00    -0.040 A 
ENDROOT
TORSDOF 0
ENDMDL
MODEL 3
REMARK VINA RESULT:      -4.5      1.073      2.372
REMARK  0 active torsions:
REMARK  status: ('A' for Active; 'I' for Inactive)
ROOT
HETATM    1  C1  UNL     1     -34.268   5.195   6.849  1.00 20.00     0.000 C 
HETATM    2  C2  UNL     1     -35.237   4.280   6.099  1.00 20.00     0.001 C 
HETATM    3  C3  UNL     1     -34.043   6.507   6.098  1.00 20.00     0.001 C 
HETATM    4  C4  UNL     1     -34.771   4.026   4.666  1.00 20.00     0.009 C 
HETATM    5  C5  UNL     1     -33.574   6.258   4.665  1.00 20.00     0.009 C 
HETATM    6  C6  UNL     1     -35.666   5.943   3.156  1.00 20.00     0.010 A 
HETATM    7  C7  UNL     1     -34.504   5.320   2.436  1.00 20.00     0.010 A 
HETATM    8  C8  UNL     1     -34.531   5.335   3.947  1.00 20.00    -0.040 A 
ENDROOT
TORSDOF 0
ENDMDL
MODEL 4
REMARK VINA RESULT:      -4.4      0.683      2.033
REMARK  0 active torsions:
REMARK  status: ('A' for Active; 'I' for Inactive)
ROOT
HETATM    1  C1  UNL     1     -35.113   4.845   5.953  1.00 20.00     0.000 C 
HETATM    2  C2  UNL     1     -35.421   4.798   4.456  1.00 20.00     0.001 C 
HETATM    3  C3  UNL     1     -34.381   6.133   6.332  1.00 20.00     0.001 C 
HETATM    4  C4  UNL     1     -34.156   4.985   3.618  1.00 20.00     0.009 C 
HETATM    5  C5  UNL     1     -33.115   6.323   5.499  1.00 20.00     0.009 C 
HETATM    6  C6  UNL     1     -33.754   7.531   3.289  1.00 20.00     0.010 A 
HETATM    7  C7  UNL     1     -32.441   6.842   3.052  1.00 20.00     0.010 A 
HETATM    8  C8  UNL     1     -33.434   6.250   4.024  1.00 20.00    -0.040 A 
ENDROOT
TORSDOF 0
ENDMDL
MODEL 5
REMARK VINA RESULT:      -4.2     11.603     12.633
REMARK  0 active torsions:
REMARK  status: ('A' for Active; 'I' for Inactive)
ROOT
HETATM    1  C1  UNL     1     -34.552  13.376  -4.596  1.00 20.00     0.000 C 
HETATM    2  C2  UNL     1     -35.781  14.152  -4.121  1.00 20.00     0.001 C 
HETATM    3  C3  UNL     1     -33.335  13.664  -3.716  1.00 20.00     0.001 C 
HETATM    4  C4  UNL     1     -35.499  15.652  -4.038  1.00 20.00     0.009 C 
HETATM    5  C5  UNL     1     -33.047  15.162  -3.631  1.00 20.00     0.009 C 
HETATM    6  C6  UNL     1     -34.473  16.169  -1.707  1.00 20.00     0.010 A 
HETATM    7  C7  UNL     1     -34.096  17.303  -2.617  1.00 20.00     0.010 A 
HETATM    8  C8  UNL     1     -34.279  15.915  -3.183  1.00 20.00    -0.040 A 
ENDROOT
TORSDOF 0
ENDMDL
MODEL 6
REMARK VINA RESULT:      -4.1      8.809     10.279
REMARK  0 active torsions:
REMARK  status: ('A' for Active; 'I' for Inactive)
ROOT
HETATM    1  C1  UNL     1     -41.148   7.207  -0.839  1.00 20.00     0.000 C 
HETATM    2  C2  UNL     1     -40.818   5.919  -0.083  1.00 20.00     0.001 C 
HETATM    3  C3  UNL     1     -42.397   7.042  -1.706  1.00 20.00     0.001 C 
HETATM    4  C4  UNL     1     -40.680   4.732  -1.036  1.00 20.00     0.009 C 
HETATM    5  C5  UNL     1     -42.263   5.858  -2.661  1.00 20.00     0.009 C 
HETATM    6  C6  UNL     1     -43.037   3.707  -1.423  1.00 20.00     0.010 A 
HETATM    7  C7  UNL     1     -42.171   3.270  -2.570  1.00 20.00     0.010 A 
HETATM    8  C8  UNL     1     -41.914   4.599  -1.900  1.00 20.00    -0.040 A 
ENDROOT
TORSDOF 0
ENDMDL
MODEL 7
REMARK VINA RESULT:      -4.0     11.633     13.198
REMARK  0 active torsions:
REMARK  status: ('A' for Active; 'I' for Inactive)
ROOT
HETATM    1  C1  UNL     1     -33.779  17.614  -3.538  1.00 20.00     0.000 C 
HETATM    2  C2  UNL     1     -33.382  16.877  -4.819  1.00 20.00     0.001 C 
HETATM    3  C3  UNL     1     -33.871  16.657  -2.349  1.00 20.00     0.001 C 
HETATM    4  C4  UNL     1     -34.331  15.716  -5.113  1.00 20.00     0.009 C 
HETATM    5  C5  UNL     1     -34.820  15.496  -2.638  1.00 20.00     0.009 C 
HETATM    6  C6  UNL     1     -33.484  13.616  -3.836  1.00 20.00     0.010 A 
HETATM    7  C7  UNL     1     -34.937  13.390  -4.143  1.00 20.00     0.010 A 
HETATM    8  C8  UNL     1     -34.427  14.794  -3.917  1.00 20.00    -0.040 A 
ENDROOT
TORSDOF 0
ENDMDL
MODEL 8
REMARK VINA RESULT:      -3.9     11.772     13.644
REMARK  0 active torsions:
REMARK  status: ('A' for Active; 'I' for Inactive)
ROOT
HETATM    1  C1  UNL     1     -33.191  15.168  -3.544  1.00 20.00     0.000 C 
HETATM    2  C2  UNL     1     -34.233  14.049  -3.596  1.00 20.00     0.001 C 
HETATM    3  C3  UNL     1     -33.561  16.319  -4.480  1.00 20.00     0.001 C 
HETATM    4  C4  UNL     1     -34.452  13.555  -5.025  1.00 20.00     0.009 C 
HETATM    5  C5  UNL     1     -33.779  15.830  -5.910  1.00 20.00     0.009 C 
HETATM    6  C6  UNL     1     -36.249  15.058  -6.151  1.00 20.00     0.010 A 
HETATM    7  C7  UNL     1     -35.471  14.399  -7.254  1.00 20.00     0.010 A 
HETATM    8  C8  UNL     1     -34.793  14.710  -5.940  1.00 20.00    -0.040 A 
ENDROOT
TORSDOF 0
ENDMDL
MODEL 9
REMARK VINA RESULT:      -3.9      8.869     10.411
REMARK  0 active torsions:
REMARK  status: ('A' for Active; 'I' for Inactive)
ROOT
HETATM    1  C1  UNL     1     -41.208   7.161  -0.904  1.00 20.00     0.000 C 
HETATM    2  C2  UNL     1     -41.738   6.902  -2.315  1.00 20.00     0.001 C 
HETATM    3  C3  UNL     1     -40.687   5.877  -0.258  1.00 20.00     0.001 C 
HETATM    4  C4  UNL     1     -42.804   5.806  -2.319  1.00 20.00     0.009 C 
HETATM    5  C5  UNL     1     -41.749   4.780  -0.258  1.00 20.00     0.009 C 
HETATM    6  C6  UNL     1     -41.617   3.503  -2.518  1.00 20.00     0.010 A 
HETATM    7  C7  UNL     1     -42.983   3.248  -1.945  1.00 20.00     0.010 A 
HETATM    8  C8  UNL     1     -42.279   4.553  -1.655  1.00 20.00    -0.040 A 
ENDROOT
TORSDOF 0
ENDMDL
