MODEL 1
REMARK VINA RESULT:      -3.7      0.000      0.000
REMARK  2 active torsions:
REMARK  status: ('A' for Active; 'I' for Inactive)
REMARK    1  A    between atoms: C7_7  and  O9_9 
REMARK    2  A    between atoms: C8_8  and  O9_9 
ROOT
HETATM    1  C1  UNL     1     -34.429   5.773   6.619  1.00 20.00     0.015 C 
HETATM    2  C2  UNL     1     -34.263   5.840   5.431  1.00 20.00    -0.086 C 
HETATM    3  C3  UNL     1     -35.346   5.633   3.225  1.00 20.00     0.053 C 
HETATM    4  C7  UNL     1     -34.057   5.919   3.981  1.00 20.00     0.196 C 
ENDROOT
BRANCH   4   5
HETATM    5  O9  UNL     1     -33.599   7.220   3.645  1.00 20.00    -0.364 OA
BRANCH   5   6
HETATM    6  C8  UNL     1     -32.259   7.188   3.155  1.00 20.00     0.051 C 
HETATM    7  C4  UNL     1     -32.178   8.063   1.905  1.00 20.00     0.045 C 
HETATM    8  C5  UNL     1     -31.354   7.739   4.256  1.00 20.00     0.045 C 
HETATM    9  C6  UNL     1     -31.892   5.741   2.832  1.00 20.00     0.045 C 
ENDBRANCH   5   6
ENDBRANCH   4   5
TORSDOF 2
ENDMDL
MODEL 2
REMARK VINA RESULT:      -3.7     10.898     12.720
REMARK  2 active torsions:
REMARK  status: ('A' for Active; 'I' for Inactive)
REMARK    1  A    between atoms: C7_7  and  O9_9 
REMARK    2  A    between atoms: C8_8  and  O9_9 
ROOT
HETATM    1  C1  UNL     1     -34.610  16.272  -1.512  1.00 20.00     0.015 C 
HETATM    2  C2  UNL     1     -34.287  15.802  -2.569  1.00 20.00    -0.086 C 
HETATM    3  C3  UNL     1     -33.385  13.807  -3.703  1.00 20.00     0.053 C 
HETATM    4  C7  UNL     1     -33.891  15.233  -3.862  1.00 20.00     0.196 C 
ENDROOT
BRANCH   4   5
HETATM    5  O9  UNL     1     -35.009  15.236  -4.735  1.00 20.00    -0.364 OA
BRANCH   5   6
HETATM    6  C8  UNL     1     -34.745  15.995  -5.915  1.00 20.00     0.051 C 
HETATM    7  C4  UNL     1     -34.426  15.027  -7.054  1.00 20.00     0.045 C 
HETATM    8  C5  UNL     1     -36.001  16.804  -6.233  1.00 20.00     0.045 C 
HETATM    9  C6  UNL     1     -33.562  16.923  -5.642  1.00 20.00     0.045 C 
ENDBRANCH   5   6
ENDBRANCH   4   5
TORSDOF 2
ENDMDL
MODEL 3
REMARK VINA RESULT:      -3.6     10.985     12.071
REMARK  2 active torsions:
REMARK  status: ('A' for Active; 'I' for Inactive)
REMARK    1  A    between atoms: C7_7  and  O9_9 
REMARK    2  A    between atoms: C8_8  and  O9_9 
ROOT
HETATM    1  C1  UNL     1     -34.520  16.707  -0.770  1.00 20.00     0.015 C 
HETATM    2  C2  UNL     1     -35.005  16.514  -1.852  1.00 20.00    -0.086 C 
HETATM    3  C3  UNL     1     -36.346  17.502  -3.670  1.00 20.00     0.053 C 
HETATM    4  C7  UNL     1     -35.599  16.274  -3.172  1.00 20.00     0.196 C 
ENDROOT
BRANCH   4   5
HETATM    5  O9  UNL     1     -34.570  15.950  -4.094  1.00 20.00    -0.364 OA
BRANCH   5   6
HETATM    6  C8  UNL     1     -34.672  14.594  -4.529  1.00 20.00     0.051 C 
HETATM    7  C4  UNL     1     -36.050  14.062  -4.139  1.00 20.00     0.045 C 
HETATM    8  C5  UNL     1     -34.503  14.584  -6.048  1.00 20.00     0.045 C 
HETATM    9  C6  UNL     1     -33.565  13.782  -3.860  1.00 20.00     0.045 C 
ENDBRANCH   5   6
ENDBRANCH   4   5
TORSDOF 2
ENDMDL
MODEL 4
REMARK VINA RESULT:      -3.6     11.032     13.065
REMARK  2 active torsions:
REMARK  status: ('A' for Active; 'I' for Inactive)
REMARK    1  A    between atoms: C7_7  and  O9_9 
REMARK    2  A    between atoms: C8_8  and  O9_9 
ROOT
HETATM    1  C1  UNL     1     -34.898  14.828  -7.821  1.00 20.00     0.015 C 
HETATM    2  C2  UNL     1     -34.470  15.412  -6.863  1.00 20.00    -0.086 C 
HETATM    3  C3  UNL     1     -33.765  17.604  -5.982  1.00 20.00     0.053 C 
HETATM    4  C7  UNL     1     -33.945  16.122  -5.691  1.00 20.00     0.196 C 
ENDROOT
BRANCH   4   5
HETATM    5  O9  UNL     1     -34.848  15.966  -4.608  1.00 20.00    -0.364 OA
BRANCH   5   6
HETATM    6  C8  UNL     1     -34.289  15.146  -3.581  1.00 20.00     0.051 C 
HETATM    7  C4  UNL     1     -32.767  15.192  -3.697  1.00 20.00     0.045 C 
HETATM    8  C5  UNL     1     -34.743  15.717  -2.239  1.00 20.00     0.045 C 
HETATM    9  C6  UNL     1     -34.806  13.720  -3.760  1.00 20.00     0.045 C 
ENDBRANCH   5   6
ENDBRANCH   4   5
TORSDOF 2
ENDMDL
MODEL 5
REMARK VINA RESULT:      -3.5      1.347      3.787
REMARK  2 active torsions:
REMARK  status: ('A' for Active; 'I' for Inactive)
REMARK    1  A    between atoms: C7_7  and  O9_9 
REMARK    2  A    between atoms: C8_8  and  O9_9 
ROOT
HETATM    1  C1  UNL     1     -31.743   7.915   2.720  1.00 20.00     0.015 C 
HETATM    2  C2  UNL     1     -32.564   7.062   2.923  1.00 20.00    -0.086 C 
HETATM    3  C3  UNL     1     -33.595   5.001   2.046  1.00 20.00     0.053 C 
HETATM    4  C7  UNL     1     -33.569   6.023   3.173  1.00 20.00     0.196 C 
ENDROOT
BRANCH   4   5
HETATM    5  O9  UNL     1     -33.266   5.364   4.392  1.00 20.00    -0.364 OA
BRANCH   5   6
HETATM    6  C8  UNL     1     -34.405   5.311   5.250  1.00 20.00     0.051 C 
HETATM    7  C4  UNL     1     -34.265   6.402   6.311  1.00 20.00     0.045 C 
HETATM    8  C5  UNL     1     -35.643   5.556   4.388  1.00 20.00     0.045 C 
HETATM    9  C6  UNL     1     -34.466   3.928   5.896  1.00 20.00     0.045 C 
ENDBRANCH   5   6
ENDBRANCH   4   5
TORSDOF 2
ENDMDL
MODEL 6
REMARK VINA RESULT:      -3.5     10.984     12.416
REMARK  2 active torsions:
REMARK  status: ('A' for Active; 'I' for Inactive)
REMARK    1  A    between atoms: C7_7  and  O9_9 
REMARK    2  A    between atoms: C8_8  and  O9_9 
ROOT
HETATM    1  C1  UNL     1     -33.762  18.978  -3.506  1.00 20.00     0.015 C 
HETATM    2  C2  UNL     1     -33.881  17.858  -3.089  1.00 20.00    -0.086 C 
HETATM    3  C3  UNL     1     -34.583  16.483  -1.165  1.00 20.00     0.053 C 
HETATM    4  C7  UNL     1     -34.022  16.490  -2.580  1.00 20.00     0.196 C 
ENDROOT
BRANCH   4   5
HETATM    5  O9  UNL     1     -34.896  15.764  -3.430  1.00 20.00    -0.364 OA
BRANCH   5   6
HETATM    6  C8  UNL     1     -34.180  14.815  -4.221  1.00 20.00     0.051 C 
HETATM    7  C4  UNL     1     -32.746  14.732  -3.700  1.00 20.00     0.045 C 
HETATM    8  C5  UNL     1     -34.884  13.467  -4.071  1.00 20.00     0.045 C 
HETATM    9  C6  UNL     1     -34.205  15.276  -5.677  1.00 20.00     0.045 C 
ENDBRANCH   5   6
ENDBRANCH   4   5
TORSDOF 2
ENDMDL
MODEL 7
REMARK VINA RESULT:      -3.5     11.233     12.561
REMARK  2 active torsions:
REMARK  status: ('A' for Active; 'I' for Inactive)
REMARK    1  A    between atoms: C7_7  and  O9_9 
REMARK    2  A    between atoms: C8_8  and  O9_9 
ROOT
HETATM    1  C1  UNL     1     -34.420  16.632  -1.164  1.00 20.00     0.015 C 
HETATM    2  C2  UNL     1     -34.448  16.643  -2.365  1.00 20.00    -0.086 C 
HETATM    3  C3  UNL     1     -33.701  17.831  -4.392  1.00 20.00     0.053 C 
HETATM    4  C7  UNL     1     -34.488  16.656  -3.831  1.00 20.00     0.196 C 
ENDROOT
BRANCH   4   5
HETATM    5  O9  UNL     1     -33.932  15.446  -4.323  1.00 20.00    -0.364 OA
BRANCH   5   6
HETATM    6  C8  UNL     1     -34.880  14.720  -5.104  1.00 20.00     0.051 C 
HETATM    7  C4  UNL     1     -34.472  14.812  -6.574  1.00 20.00     0.045 C 
HETATM    8  C5  UNL     1     -34.852  13.268  -4.629  1.00 20.00     0.045 C 
HETATM    9  C6  UNL     1     -36.264  15.330  -4.884  1.00 20.00     0.045 C 
ENDBRANCH   5   6
ENDBRANCH   4   5
TORSDOF 2
ENDMDL
MODEL 8
REMARK VINA RESULT:      -3.5     11.329     12.239
REMARK  2 active torsions:
REMARK  status: ('A' for Active; 'I' for Inactive)
REMARK    1  A    between atoms: C7_7  and  O9_9 
REMARK    2  A    between atoms: C8_8  and  O9_9 
ROOT
HETATM    1  C1  UNL     1     -34.636  16.718  -0.586  1.00 20.00     0.015 C 
HETATM    2  C2  UNL     1     -34.579  16.352  -1.728  1.00 20.00    -0.086 C 
HETATM    3  C3  UNL     1     -33.137  15.350  -3.459  1.00 20.00     0.053 C 
HETATM    4  C7  UNL     1     -34.512  15.909  -3.125  1.00 20.00     0.196 C 
ENDROOT
BRANCH   4   5
HETATM    5  O9  UNL     1     -35.488  14.902  -3.343  1.00 20.00    -0.364 OA
BRANCH   5   6
HETATM    6  C8  UNL     1     -36.371  15.258  -4.407  1.00 20.00     0.051 C 
HETATM    7  C4  UNL     1     -35.876  14.593  -5.691  1.00 20.00     0.045 C 
HETATM    8  C5  UNL     1     -37.763  14.747  -4.041  1.00 20.00     0.045 C 
HETATM    9  C6  UNL     1     -36.376  16.779  -4.549  1.00 20.00     0.045 C 
ENDBRANCH   5   6
ENDBRANCH   4   5
TORSDOF 2
ENDMDL
MODEL 9
REMARK VINA RESULT:      -3.5      9.045     11.000
REMARK  2 active torsions:
REMARK  status: ('A' for Active; 'I' for Inactive)
REMARK    1  A    between atoms: C7_7  and  O9_9 
REMARK    2  A    between atoms: C8_8  and  O9_9 
ROOT
HETATM    1  C1  UNL     1     -42.600   7.945  -4.040  1.00 20.00     0.015 C 
HETATM    2  C2  UNL     1     -42.552   7.675  -2.870  1.00 20.00    -0.086 C 
HETATM    3  C3  UNL     1     -43.417   8.237  -0.630  1.00 20.00     0.053 C 
HETATM    4  C7  UNL     1     -42.488   7.346  -1.442  1.00 20.00     0.196 C 
ENDROOT
BRANCH   4   5
HETATM    5  O9  UNL     1     -42.865   5.991  -1.259  1.00 20.00    -0.364 OA
BRANCH   5   6
HETATM    6  C8  UNL     1     -41.807   5.232  -0.674  1.00 20.00     0.051 C 
HETATM    7  C4  UNL     1     -42.366   4.453   0.515  1.00 20.00     0.045 C 
HETATM    8  C5  UNL     1     -41.281   4.276  -1.744  1.00 20.00     0.045 C 
HETATM    9  C6  UNL     1     -40.707   6.195  -0.227  1.00 20.00     0.045 C 
ENDBRANCH   5   6
ENDBRANCH   4   5
TORSDOF 2
ENDMDL
