MODEL 1
REMARK VINA RESULT:      -3.9      0.000      0.000
REMARK  4 active torsions:
REMARK  status: ('A' for Active; 'I' for Inactive)
REMARK    1  A    between atoms: C4_4  and  C7_7 
REMARK    2  A    between atoms: C5_5  and  C8_8 
REMARK    3  A    between atoms: C6_6  and  C8_8 
REMARK    4  A    between atoms: C7_7  and  C8_8 
ROOT
HETATM    1  C8  UNL     1     -33.657  15.571  -3.672  1.00 20.00     0.036 C 
HETATM    2 CL9  UNL     1     -32.291  14.392  -3.461  1.00 20.00    -0.119 Cl
ENDROOT
BRANCH   1   3
HETATM    3  C5  UNL     1     -33.412  16.312  -5.009  1.00 20.00     0.021 C 
HETATM    4  C2  UNL     1     -33.609  17.823  -4.952  1.00 20.00     0.007 C 
ENDBRANCH   1   3
BRANCH   1   5
HETATM    5  C6  UNL     1     -34.987  14.767  -3.660  1.00 20.00     0.021 C 
HETATM    6  C3  UNL     1     -34.944  13.384  -4.301  1.00 20.00     0.007 C 
ENDBRANCH   1   5
BRANCH   1   7
HETATM    7  C7  UNL     1     -33.665  16.521  -2.441  1.00 20.00     0.025 C 
BRANCH   7   8
HETATM    8  C4  UNL     1     -34.797  16.306  -1.428  1.00 20.00    -0.003 C 
HETATM    9  C1  UNL     1     -34.607  17.183  -0.198  1.00 20.00     0.005 C 
ENDBRANCH   7   8
ENDBRANCH   1   7
TORSDOF 4
ENDMDL
MODEL 2
REMARK VINA RESULT:      -3.8      1.383      2.878
REMARK  4 active torsions:
REMARK  status: ('A' for Active; 'I' for Inactive)
REMARK    1  A    between atoms: C4_4  and  C7_7 
REMARK    2  A    between atoms: C5_5  and  C8_8 
REMARK    3  A    between atoms: C6_6  and  C8_8 
REMARK    4  A    between atoms: C7_7  and  C8_8 
ROOT
HETATM    1  C8  UNL     1     -34.026  15.623  -3.827  1.00 20.00     0.036 C 
HETATM    2 CL9  UNL     1     -35.798  15.865  -4.149  1.00 20.00    -0.119 Cl
ENDROOT
BRANCH   1   3
HETATM    3  C5  UNL     1     -33.777  14.095  -3.796  1.00 20.00     0.021 C 
HETATM    4  C2  UNL     1     -34.936  13.244  -4.303  1.00 20.00     0.007 C 
ENDBRANCH   1   3
BRANCH   1   5
HETATM    5  C6  UNL     1     -33.234  16.343  -4.953  1.00 20.00     0.021 C 
HETATM    6  C3  UNL     1     -33.530  17.827  -5.142  1.00 20.00     0.007 C 
ENDBRANCH   1   5
BRANCH   1   7
HETATM    7  C7  UNL     1     -33.683  16.322  -2.481  1.00 20.00     0.025 C 
BRANCH   7   8
HETATM    8  C4  UNL     1     -34.782  16.302  -1.410  1.00 20.00    -0.003 C 
HETATM    9  C1  UNL     1     -34.467  17.276  -0.283  1.00 20.00     0.005 C 
ENDBRANCH   7   8
ENDBRANCH   1   7
TORSDOF 4
ENDMDL
MODEL 3
REMARK VINA RESULT:      -3.8     11.646     12.816
REMARK  4 active torsions:
REMARK  status: ('A' for Active; 'I' for Inactive)
REMARK    1  A    between atoms: C4_4  and  C7_7 
REMARK    2  A    between atoms: C5_5  and  C8_8 
REMARK    3  A    between atoms: C6_6  and  C8_8 
REMARK    4  A    between atoms: C7_7  and  C8_8 
ROOT
HETATM    1  C8  UNL     1     -34.098   5.827   4.388  1.00 20.00     0.036 C 
HETATM    2 CL9  UNL     1     -35.683   5.708   3.507  1.00 20.00    -0.119 Cl
ENDROOT
BRANCH   1   3
HETATM    3  C5  UNL     1     -34.150   7.120   5.238  1.00 20.00     0.021 C 
HETATM    4  C2  UNL     1     -33.659   6.967   6.673  1.00 20.00     0.007 C 
ENDBRANCH   1   3
BRANCH   1   5
HETATM    5  C6  UNL     1     -33.932   4.544   5.248  1.00 20.00     0.021 C 
HETATM    6  C3  UNL     1     -35.211   3.959   5.839  1.00 20.00     0.007 C 
ENDBRANCH   1   5
BRANCH   1   7
HETATM    7  C7  UNL     1     -32.960   5.840   3.328  1.00 20.00     0.025 C 
BRANCH   7   8
HETATM    8  C4  UNL     1     -31.970   7.009   3.415  1.00 20.00    -0.003 C 
HETATM    9  C1  UNL     1     -32.130   7.953   2.231  1.00 20.00     0.005 C 
ENDBRANCH   7   8
ENDBRANCH   1   7
TORSDOF 4
ENDMDL
MODEL 4
REMARK VINA RESULT:      -3.8      1.067      1.189
REMARK  4 active torsions:
REMARK  status: ('A' for Active; 'I' for Inactive)
REMARK    1  A    between atoms: C4_4  and  C7_7 
REMARK    2  A    between atoms: C5_5  and  C8_8 
REMARK    3  A    between atoms: C6_6  and  C8_8 
REMARK    4  A    between atoms: C7_7  and  C8_8 
ROOT
HETATM    1  C8  UNL     1     -34.179  15.159  -3.858  1.00 20.00     0.036 C 
HETATM    2 CL9  UNL     1     -33.179  13.651  -3.695  1.00 20.00    -0.119 Cl
ENDROOT
BRANCH   1   3
HETATM    3  C5  UNL     1     -33.253  16.253  -4.444  1.00 20.00     0.021 C 
HETATM    4  C2  UNL     1     -33.760  16.907  -5.724  1.00 20.00     0.007 C 
ENDBRANCH   1   3
BRANCH   1   5
HETATM    5  C6  UNL     1     -35.388  14.833  -4.777  1.00 20.00     0.021 C 
HETATM    6  C3  UNL     1     -36.716  14.569  -4.074  1.00 20.00     0.007 C 
ENDBRANCH   1   5
BRANCH   1   7
HETATM    7  C7  UNL     1     -34.734  15.521  -2.451  1.00 20.00     0.025 C 
BRANCH   7   8
HETATM    8  C4  UNL     1     -34.037  16.683  -1.729  1.00 20.00    -0.003 C 
HETATM    9  C1  UNL     1     -34.684  16.955  -0.378  1.00 20.00     0.005 C 
ENDBRANCH   7   8
ENDBRANCH   1   7
TORSDOF 4
ENDMDL
MODEL 5
REMARK VINA RESULT:      -3.8      1.805      3.715
REMARK  4 active torsions:
REMARK  status: ('A' for Active; 'I' for Inactive)
REMARK    1  A    between atoms: C4_4  and  C7_7 
REMARK    2  A    between atoms: C5_5  and  C8_8 
REMARK    3  A    between atoms: C6_6  and  C8_8 
REMARK    4  A    between atoms: C7_7  and  C8_8 
ROOT
HETATM    1  C8  UNL     1     -34.269  16.063  -3.462  1.00 20.00     0.036 C 
HETATM    2 CL9  UNL     1     -35.827  16.920  -3.838  1.00 20.00    -0.119 Cl
ENDROOT
BRANCH   1   3
HETATM    3  C5  UNL     1     -33.728  16.669  -2.144  1.00 20.00     0.021 C 
HETATM    4  C2  UNL     1     -34.676  16.574  -0.954  1.00 20.00     0.007 C 
ENDBRANCH   1   3
BRANCH   1   5
HETATM    5  C6  UNL     1     -34.574  14.544  -3.349  1.00 20.00     0.021 C 
HETATM    6  C3  UNL     1     -33.457  13.599  -3.779  1.00 20.00     0.007 C 
ENDBRANCH   1   5
BRANCH   1   7
HETATM    7  C7  UNL     1     -33.306  16.268  -4.666  1.00 20.00     0.025 C 
BRANCH   7   8
HETATM    8  C4  UNL     1     -33.954  16.730  -5.978  1.00 20.00    -0.003 C 
HETATM    9  C1  UNL     1     -34.218  15.551  -6.905  1.00 20.00     0.005 C 
ENDBRANCH   7   8
ENDBRANCH   1   7
TORSDOF 4
ENDMDL
MODEL 6
REMARK VINA RESULT:      -3.7      1.557      3.416
REMARK  4 active torsions:
REMARK  status: ('A' for Active; 'I' for Inactive)
REMARK    1  A    between atoms: C4_4  and  C7_7 
REMARK    2  A    between atoms: C5_5  and  C8_8 
REMARK    3  A    between atoms: C6_6  and  C8_8 
REMARK    4  A    between atoms: C7_7  and  C8_8 
ROOT
HETATM    1  C8  UNL     1     -34.063  16.438  -3.288  1.00 20.00     0.036 C 
HETATM    2 CL9  UNL     1     -35.865  16.203  -3.321  1.00 20.00    -0.119 Cl
ENDROOT
BRANCH   1   3
HETATM    3  C5  UNL     1     -33.725  17.487  -4.377  1.00 20.00     0.021 C 
HETATM    4  C2  UNL     1     -33.791  16.971  -5.809  1.00 20.00     0.007 C 
ENDBRANCH   1   3
BRANCH   1   5
HETATM    5  C6  UNL     1     -33.667  16.900  -1.859  1.00 20.00     0.021 C 
HETATM    6  C3  UNL     1     -34.696  16.650  -0.761  1.00 20.00     0.007 C 
ENDBRANCH   1   5
BRANCH   1   7
HETATM    7  C7  UNL     1     -33.395  15.058  -3.545  1.00 20.00     0.025 C 
BRANCH   7   8
HETATM    8  C4  UNL     1     -34.328  13.839  -3.516  1.00 20.00    -0.003 C 
HETATM    9  C1  UNL     1     -34.511  13.256  -4.910  1.00 20.00     0.005 C 
ENDBRANCH   7   8
ENDBRANCH   1   7
TORSDOF 4
ENDMDL
MODEL 7
REMARK VINA RESULT:      -3.7      0.962      3.788
REMARK  4 active torsions:
REMARK  status: ('A' for Active; 'I' for Inactive)
REMARK    1  A    between atoms: C4_4  and  C7_7 
REMARK    2  A    between atoms: C5_5  and  C8_8 
REMARK    3  A    between atoms: C6_6  and  C8_8 
REMARK    4  A    between atoms: C7_7  and  C8_8 
ROOT
HETATM    1  C8  UNL     1     -33.721  15.644  -3.624  1.00 20.00     0.036 C 
HETATM    2 CL9  UNL     1     -32.381  14.428  -3.454  1.00 20.00    -0.119 Cl
ENDROOT
BRANCH   1   3
HETATM    3  C5  UNL     1     -35.047  14.848  -3.688  1.00 20.00     0.021 C 
HETATM    4  C2  UNL     1     -34.908  13.402  -4.150  1.00 20.00     0.007 C 
ENDBRANCH   1   3
BRANCH   1   5
HETATM    5  C6  UNL     1     -33.650  16.605  -2.407  1.00 20.00     0.021 C 
HETATM    6  C3  UNL     1     -34.682  16.378  -1.307  1.00 20.00     0.007 C 
ENDBRANCH   1   5
BRANCH   1   7
HETATM    7  C7  UNL     1     -33.450  16.479  -4.907  1.00 20.00     0.025 C 
BRANCH   7   8
HETATM    8  C4  UNL     1     -34.645  16.678  -5.850  1.00 20.00    -0.003 C 
HETATM    9  C1  UNL     1     -34.437  15.935  -7.162  1.00 20.00     0.005 C 
ENDBRANCH   7   8
ENDBRANCH   1   7
TORSDOF 4
ENDMDL
MODEL 8
REMARK VINA RESULT:      -3.6      1.701      4.123
REMARK  4 active torsions:
REMARK  status: ('A' for Active; 'I' for Inactive)
REMARK    1  A    between atoms: C4_4  and  C7_7 
REMARK    2  A    between atoms: C5_5  and  C8_8 
REMARK    3  A    between atoms: C6_6  and  C8_8 
REMARK    4  A    between atoms: C7_7  and  C8_8 
ROOT
HETATM    1  C8  UNL     1     -34.358  15.293  -4.133  1.00 20.00     0.036 C 
HETATM    2 CL9  UNL     1     -33.659  13.616  -4.120  1.00 20.00    -0.119 Cl
ENDROOT
BRANCH   1   3
HETATM    3  C5  UNL     1     -35.014  15.520  -2.749  1.00 20.00     0.021 C 
HETATM    4  C2  UNL     1     -34.238  16.438  -1.812  1.00 20.00     0.007 C 
ENDBRANCH   1   3
BRANCH   1   5
HETATM    5  C6  UNL     1     -33.203  16.289  -4.427  1.00 20.00     0.021 C 
HETATM    6  C3  UNL     1     -33.540  17.459  -5.346  1.00 20.00     0.007 C 
ENDBRANCH   1   5
BRANCH   1   7
HETATM    7  C7  UNL     1     -35.373  15.380  -5.309  1.00 20.00     0.025 C 
BRANCH   7   8
HETATM    8  C4  UNL     1     -35.272  14.277  -6.372  1.00 20.00    -0.003 C 
HETATM    9  C1  UNL     1     -34.802  14.841  -7.705  1.00 20.00     0.005 C 
ENDBRANCH   7   8
ENDBRANCH   1   7
TORSDOF 4
ENDMDL
MODEL 9
REMARK VINA RESULT:      -3.5      1.417      3.344
REMARK  4 active torsions:
REMARK  status: ('A' for Active; 'I' for Inactive)
REMARK    1  A    between atoms: C4_4  and  C7_7 
REMARK    2  A    between atoms: C5_5  and  C8_8 
REMARK    3  A    between atoms: C6_6  and  C8_8 
REMARK    4  A    between atoms: C7_7  and  C8_8 
ROOT
HETATM    1  C8  UNL     1     -34.224  15.172  -3.741  1.00 20.00     0.036 C 
HETATM    2 CL9  UNL     1     -33.165  13.696  -3.693  1.00 20.00    -0.119 Cl
ENDROOT
BRANCH   1   3
HETATM    3  C5  UNL     1     -33.702  16.138  -2.650  1.00 20.00     0.021 C 
HETATM    4  C2  UNL     1     -34.638  16.336  -1.463  1.00 20.00     0.007 C 
ENDBRANCH   1   3
BRANCH   1   5
HETATM    5  C6  UNL     1     -34.143  15.773  -5.171  1.00 20.00     0.021 C 
HETATM    6  C3  UNL     1     -33.482  17.142  -5.290  1.00 20.00     0.007 C 
ENDBRANCH   1   5
BRANCH   1   7
HETATM    7  C7  UNL     1     -35.692  14.717  -3.499  1.00 20.00     0.025 C 
BRANCH   7   8
HETATM    8  C4  UNL     1     -36.733  15.229  -4.504  1.00 20.00    -0.003 C 
HETATM    9  C1  UNL     1     -38.134  14.773  -4.122  1.00 20.00     0.005 C 
ENDBRANCH   7   8
ENDBRANCH   1   7
TORSDOF 4
ENDMDL
