MODEL 1
REMARK VINA RESULT:      -5.0      0.000      0.000
REMARK  2 active torsions:
REMARK  status: ('A' for Active; 'I' for Inactive)
REMARK    1  A    between atoms: C2_2  and  C3_3 
REMARK    2  A    between atoms: C4_4  and  C5_5 
ROOT
HETATM    1  C3  UNL     1     -34.374   5.536   3.712  1.00 20.00    -0.001 C 
HETATM    2  C4  UNL     1     -33.230   6.223   3.846  1.00 20.00    -0.000 C 
ENDROOT
BRANCH   2   3
HETATM    3  C5  UNL     1     -32.483   6.738   2.720  1.00 20.00    -0.004 C 
HETATM    4  C6  UNL     1     -32.449   8.039   2.397  1.00 20.00    -0.031 C 
HETATM    5  C7  UNL     1     -31.682   8.583   1.237  1.00 20.00     0.036 C 
ENDBRANCH   2   3
BRANCH   1   6
HETATM    6  C2  UNL     1     -35.121   5.022   4.838  1.00 20.00    -0.010 C 
HETATM    7  C1  UNL     1     -34.696   5.112   6.104  1.00 20.00     0.011 C 
ENDBRANCH   1   6
TORSDOF 2
ENDMDL
MODEL 2
REMARK VINA RESULT:      -4.8      0.679      4.686
REMARK  2 active torsions:
REMARK  status: ('A' for Active; 'I' for Inactive)
REMARK    1  A    between atoms: C2_2  and  C3_3 
REMARK    2  A    between atoms: C4_4  and  C5_5 
ROOT
HETATM    1  C3  UNL     1     -32.444   6.773   2.936  1.00 20.00    -0.001 C 
HETATM    2  C4  UNL     1     -33.572   6.815   3.661  1.00 20.00    -0.000 C 
ENDROOT
BRANCH   2   3
HETATM    3  C5  UNL     1     -34.252   5.628   4.128  1.00 20.00    -0.004 C 
HETATM    4  C6  UNL     1     -34.406   5.334   5.428  1.00 20.00    -0.031 C 
HETATM    5  C7  UNL     1     -35.108   4.111   5.922  1.00 20.00     0.036 C 
ENDBRANCH   2   3
BRANCH   1   6
HETATM    6  C2  UNL     1     -31.763   7.959   2.471  1.00 20.00    -0.010 C 
HETATM    7  C1  UNL     1     -32.111   8.619   1.359  1.00 20.00     0.011 C 
ENDBRANCH   1   6
TORSDOF 2
ENDMDL
MODEL 3
REMARK VINA RESULT:      -3.8     10.838     11.475
REMARK  2 active torsions:
REMARK  status: ('A' for Active; 'I' for Inactive)
REMARK    1  A    between atoms: C2_2  and  C3_3 
REMARK    2  A    between atoms: C4_4  and  C5_5 
ROOT
HETATM    1  C3  UNL     1     -34.177  14.714  -3.083  1.00 20.00    -0.001 C 
HETATM    2  C4  UNL     1     -33.574  15.906  -2.967  1.00 20.00    -0.000 C 
ENDROOT
BRANCH   2   3
HETATM    3  C5  UNL     1     -33.876  16.841  -1.906  1.00 20.00    -0.004 C 
HETATM    4  C6  UNL     1     -34.647  16.532  -0.853  1.00 20.00    -0.031 C 
HETATM    5  C7  UNL     1     -34.965  17.488   0.249  1.00 20.00     0.036 C 
ENDBRANCH   2   3
BRANCH   1   6
HETATM    6  C2  UNL     1     -33.875  13.779  -4.143  1.00 20.00    -0.010 C 
HETATM    7  C1  UNL     1     -34.808  13.244  -4.940  1.00 20.00     0.011 C 
ENDBRANCH   1   6
TORSDOF 2
ENDMDL
MODEL 4
REMARK VINA RESULT:      -3.8     10.787     11.467
REMARK  2 active torsions:
REMARK  status: ('A' for Active; 'I' for Inactive)
REMARK    1  A    between atoms: C2_2  and  C3_3 
REMARK    2  A    between atoms: C4_4  and  C5_5 
ROOT
HETATM    1  C3  UNL     1     -34.700  16.273  -1.419  1.00 20.00    -0.001 C 
HETATM    2  C4  UNL     1     -33.762  16.302  -2.378  1.00 20.00    -0.000 C 
ENDROOT
BRANCH   2   3
HETATM    3  C5  UNL     1     -33.785  15.427  -3.528  1.00 20.00    -0.004 C 
HETATM    4  C6  UNL     1     -34.364  14.217  -3.519  1.00 20.00    -0.031 C 
HETATM    5  C7  UNL     1     -34.395  13.305  -4.701  1.00 20.00     0.036 C 
ENDBRANCH   2   3
BRANCH   1   6
HETATM    6  C2  UNL     1     -34.678  17.148  -0.269  1.00 20.00    -0.010 C 
HETATM    7  C1  UNL     1     -33.730  18.071  -0.065  1.00 20.00     0.011 C 
ENDBRANCH   1   6
TORSDOF 2
ENDMDL
MODEL 5
REMARK VINA RESULT:      -3.6      9.524     10.693
REMARK  2 active torsions:
REMARK  status: ('A' for Active; 'I' for Inactive)
REMARK    1  A    between atoms: C2_2  and  C3_3 
REMARK    2  A    between atoms: C4_4  and  C5_5 
ROOT
HETATM    1  C3  UNL     1     -40.984   4.545  -1.112  1.00 20.00    -0.001 C 
HETATM    2  C4  UNL     1     -41.858   4.391  -2.118  1.00 20.00    -0.000 C 
ENDROOT
BRANCH   2   3
HETATM    3  C5  UNL     1     -42.177   3.104  -2.694  1.00 20.00    -0.004 C 
HETATM    4  C6  UNL     1     -41.293   2.370  -3.386  1.00 20.00    -0.031 C 
HETATM    5  C7  UNL     1     -41.611   1.039  -3.985  1.00 20.00     0.036 C 
ENDBRANCH   2   3
BRANCH   1   6
HETATM    6  C2  UNL     1     -40.666   5.832  -0.537  1.00 20.00    -0.010 C 
HETATM    7  C1  UNL     1     -41.115   6.991  -1.033  1.00 20.00     0.011 C 
ENDBRANCH   1   6
TORSDOF 2
ENDMDL
MODEL 6
REMARK VINA RESULT:      -3.6     10.738     11.801
REMARK  2 active torsions:
REMARK  status: ('A' for Active; 'I' for Inactive)
REMARK    1  A    between atoms: C2_2  and  C3_3 
REMARK    2  A    between atoms: C4_4  and  C5_5 
ROOT
HETATM    1  C3  UNL     1     -33.743  16.237  -2.474  1.00 20.00    -0.001 C 
HETATM    2  C4  UNL     1     -34.696  16.184  -1.532  1.00 20.00    -0.000 C 
ENDROOT
BRANCH   2   3
HETATM    3  C5  UNL     1     -34.715  17.058  -0.380  1.00 20.00    -0.004 C 
HETATM    4  C6  UNL     1     -33.724  17.917  -0.095  1.00 20.00    -0.031 C 
HETATM    5  C7  UNL     1     -33.732  18.825   1.090  1.00 20.00     0.036 C 
ENDBRANCH   2   3
BRANCH   1   6
HETATM    6  C2  UNL     1     -33.726  15.364  -3.625  1.00 20.00    -0.010 C 
HETATM    7  C1  UNL     1     -34.166  14.099  -3.597  1.00 20.00     0.011 C 
ENDBRANCH   1   6
TORSDOF 2
ENDMDL
MODEL 7
REMARK VINA RESULT:      -3.5     11.289     12.115
REMARK  2 active torsions:
REMARK  status: ('A' for Active; 'I' for Inactive)
REMARK    1  A    between atoms: C2_2  and  C3_3 
REMARK    2  A    between atoms: C4_4  and  C5_5 
ROOT
HETATM    1  C3  UNL     1     -33.395  17.758  -0.760  1.00 20.00    -0.001 C 
HETATM    2  C4  UNL     1     -34.482  16.972  -0.765  1.00 20.00    -0.000 C 
ENDROOT
BRANCH   2   3
HETATM    3  C5  UNL     1     -34.777  16.043  -1.833  1.00 20.00    -0.004 C 
HETATM    4  C6  UNL     1     -33.911  15.756  -2.816  1.00 20.00    -0.031 C 
HETATM    5  C7  UNL     1     -34.204  14.798  -3.924  1.00 20.00     0.036 C 
ENDBRANCH   2   3
BRANCH   1   6
HETATM    6  C2  UNL     1     -33.100  18.685   0.308  1.00 20.00    -0.010 C 
HETATM    7  C1  UNL     1     -31.862  19.108   0.594  1.00 20.00     0.011 C 
ENDBRANCH   1   6
TORSDOF 2
ENDMDL
MODEL 8
REMARK VINA RESULT:      -3.5     11.332     12.308
REMARK  2 active torsions:
REMARK  status: ('A' for Active; 'I' for Inactive)
REMARK    1  A    between atoms: C2_2  and  C3_3 
REMARK    2  A    between atoms: C4_4  and  C5_5 
ROOT
HETATM    1  C3  UNL     1     -34.695  14.953  -4.650  1.00 20.00    -0.001 C 
HETATM    2  C4  UNL     1     -33.571  15.346  -4.031  1.00 20.00    -0.000 C 
ENDROOT
BRANCH   2   3
HETATM    3  C5  UNL     1     -33.571  16.018  -2.751  1.00 20.00    -0.004 C 
HETATM    4  C6  UNL     1     -34.641  16.057  -1.943  1.00 20.00    -0.031 C 
HETATM    5  C7  UNL     1     -34.653  16.747  -0.618  1.00 20.00     0.036 C 
ENDBRANCH   2   3
BRANCH   1   6
HETATM    6  C2  UNL     1     -34.694  14.281  -5.929  1.00 20.00    -0.010 C 
HETATM    7  C1  UNL     1     -34.505  14.915  -7.093  1.00 20.00     0.011 C 
ENDBRANCH   1   6
TORSDOF 2
ENDMDL
MODEL 9
REMARK VINA RESULT:      -3.4      9.607     10.508
REMARK  2 active torsions:
REMARK  status: ('A' for Active; 'I' for Inactive)
REMARK    1  A    between atoms: C2_2  and  C3_3 
REMARK    2  A    between atoms: C4_4  and  C5_5 
ROOT
HETATM    1  C3  UNL     1     -42.162   3.496  -2.561  1.00 20.00    -0.001 C 
HETATM    2  C4  UNL     1     -41.080   3.867  -1.861  1.00 20.00    -0.000 C 
ENDROOT
BRANCH   2   3
HETATM    3  C5  UNL     1     -40.998   5.118  -1.142  1.00 20.00    -0.004 C 
HETATM    4  C6  UNL     1     -41.410   6.288  -1.655  1.00 20.00    -0.031 C 
HETATM    5  C7  UNL     1     -41.331   7.586  -0.922  1.00 20.00     0.036 C 
ENDBRANCH   2   3
BRANCH   1   6
HETATM    6  C2  UNL     1     -42.244   2.245  -3.279  1.00 20.00    -0.010 C 
HETATM    7  C1  UNL     1     -41.233   1.741  -3.997  1.00 20.00     0.011 C 
ENDBRANCH   1   6
TORSDOF 2
ENDMDL
