MODEL 1
REMARK VINA RESULT:      -4.4      0.000      0.000
REMARK  5 active torsions:
REMARK  status: ('A' for Active; 'I' for Inactive)
REMARK    1  A    between atoms: C1_1  and  C8_8 
REMARK    2  A    between atoms: C4_4  and  C6_6 
REMARK    3  A    between atoms: C5_5  and  C7_7 
REMARK    4  A    between atoms: C6_6  and  C8_8 
REMARK    5  A    between atoms: C7_7  and  C8_8 
ROOT
HETATM    1  C8  UNL     1     -34.189  14.604  -3.192  1.00 20.00     0.072 C 
ENDROOT
BRANCH   1   2
HETATM    2  C1  UNL     1     -35.152  13.747  -4.013  1.00 20.00     0.223 C 
HETATM    3  O9  UNL     1     -34.787  12.716  -4.574  1.00 20.00    -0.279 OA
HETATM    4 CL10 UNL     1     -36.768  14.394  -4.047  1.00 20.00    -0.043 Cl
ENDBRANCH   1   2
BRANCH   1   5
HETATM    5  C6  UNL     1     -33.171  15.283  -4.130  1.00 20.00     0.013 C 
BRANCH   5   6
HETATM    6  C4  UNL     1     -33.787  16.025  -5.323  1.00 20.00    -0.004 C 
HETATM    7  C2  UNL     1     -33.504  17.519  -5.324  1.00 20.00     0.005 C 
ENDBRANCH   5   6
ENDBRANCH   1   5
BRANCH   1   8
HETATM    8  C7  UNL     1     -34.983  15.676  -2.418  1.00 20.00     0.013 C 
BRANCH   8   9
HETATM    9  C5  UNL     1     -34.125  16.655  -1.607  1.00 20.00    -0.004 C 
HETATM   10  C3  UNL     1     -34.733  17.028  -0.263  1.00 20.00     0.005 C 
ENDBRANCH   8   9
ENDBRANCH   1   8
TORSDOF 5
ENDMDL
MODEL 2
REMARK VINA RESULT:      -4.3      1.745      3.696
REMARK  5 active torsions:
REMARK  status: ('A' for Active; 'I' for Inactive)
REMARK    1  A    between atoms: C1_1  and  C8_8 
REMARK    2  A    between atoms: C4_4  and  C6_6 
REMARK    3  A    between atoms: C5_5  and  C7_7 
REMARK    4  A    between atoms: C6_6  and  C8_8 
REMARK    5  A    between atoms: C7_7  and  C8_8 
ROOT
HETATM    1  C8  UNL     1     -35.111  14.953  -3.612  1.00 20.00     0.072 C 
ENDROOT
BRANCH   1   2
HETATM    2  C1  UNL     1     -34.453  13.599  -3.878  1.00 20.00     0.223 C 
HETATM    3  O9  UNL     1     -35.084  12.648  -4.334  1.00 20.00    -0.279 OA
HETATM    4 CL10 UNL     1     -32.761  13.581  -3.468  1.00 20.00    -0.043 Cl
ENDBRANCH   1   2
BRANCH   1   5
HETATM    5  C6  UNL     1     -34.141  15.854  -2.821  1.00 20.00     0.013 C 
BRANCH   5   6
HETATM    6  C4  UNL     1     -34.663  16.324  -1.457  1.00 20.00    -0.004 C 
HETATM    7  C2  UNL     1     -33.839  17.443  -0.842  1.00 20.00     0.005 C 
ENDBRANCH   5   6
ENDBRANCH   1   5
BRANCH   1   8
HETATM    8  C7  UNL     1     -35.473  15.624  -4.952  1.00 20.00     0.013 C 
BRANCH   8   9
HETATM    9  C5  UNL     1     -34.303  15.791  -5.929  1.00 20.00    -0.004 C 
HETATM   10  C3  UNL     1     -34.492  15.043  -7.239  1.00 20.00     0.005 C 
ENDBRANCH   8   9
ENDBRANCH   1   8
TORSDOF 5
ENDMDL
MODEL 3
REMARK VINA RESULT:      -4.2      2.102      3.936
REMARK  5 active torsions:
REMARK  status: ('A' for Active; 'I' for Inactive)
REMARK    1  A    between atoms: C1_1  and  C8_8 
REMARK    2  A    between atoms: C4_4  and  C6_6 
REMARK    3  A    between atoms: C5_5  and  C7_7 
REMARK    4  A    between atoms: C6_6  and  C8_8 
REMARK    5  A    between atoms: C7_7  and  C8_8 
ROOT
HETATM    1  C8  UNL     1     -33.533  15.979  -3.066  1.00 20.00     0.072 C 
ENDROOT
BRANCH   1   2
HETATM    2  C1  UNL     1     -33.758  16.862  -4.293  1.00 20.00     0.223 C 
HETATM    3  O9  UNL     1     -32.959  16.894  -5.226  1.00 20.00    -0.279 OA
HETATM    4 CL10 UNL     1     -35.235  17.780  -4.201  1.00 20.00    -0.043 Cl
ENDBRANCH   1   2
BRANCH   1   5
HETATM    5  C6  UNL     1     -34.798  15.987  -2.183  1.00 20.00     0.013 C 
BRANCH   5   6
HETATM    6  C4  UNL     1     -34.613  16.614  -0.796  1.00 20.00    -0.004 C 
HETATM    7  C2  UNL     1     -33.575  17.724  -0.762  1.00 20.00     0.005 C 
ENDBRANCH   5   6
ENDBRANCH   1   5
BRANCH   1   8
HETATM    8  C7  UNL     1     -33.219  14.538  -3.516  1.00 20.00     0.013 C 
BRANCH   8   9
HETATM    9  C5  UNL     1     -34.445  13.634  -3.692  1.00 20.00    -0.004 C 
HETATM   10  C3  UNL     1     -34.798  13.363  -5.146  1.00 20.00     0.005 C 
ENDBRANCH   8   9
ENDBRANCH   1   8
TORSDOF 5
ENDMDL
MODEL 4
REMARK VINA RESULT:      -4.1      1.216      1.703
REMARK  5 active torsions:
REMARK  status: ('A' for Active; 'I' for Inactive)
REMARK    1  A    between atoms: C1_1  and  C8_8 
REMARK    2  A    between atoms: C4_4  and  C6_6 
REMARK    3  A    between atoms: C5_5  and  C7_7 
REMARK    4  A    between atoms: C6_6  and  C8_8 
REMARK    5  A    between atoms: C7_7  and  C8_8 
ROOT
HETATM    1  C8  UNL     1     -34.087  14.761  -4.591  1.00 20.00     0.072 C 
ENDROOT
BRANCH   1   2
HETATM    2  C1  UNL     1     -35.220  13.786  -4.271  1.00 20.00     0.223 C 
HETATM    3  O9  UNL     1     -35.065  12.568  -4.327  1.00 20.00    -0.279 OA
HETATM    4 CL10 UNL     1     -36.699  14.593  -3.833  1.00 20.00    -0.043 Cl
ENDBRANCH   1   2
BRANCH   1   5
HETATM    5  C6  UNL     1     -34.657  15.998  -5.315  1.00 20.00     0.013 C 
BRANCH   5   6
HETATM    6  C4  UNL     1     -34.291  16.101  -6.801  1.00 20.00    -0.004 C 
HETATM    7  C2  UNL     1     -34.794  14.933  -7.635  1.00 20.00     0.005 C 
ENDBRANCH   5   6
ENDBRANCH   1   5
BRANCH   1   8
HETATM    8  C7  UNL     1     -33.393  15.195  -3.284  1.00 20.00     0.013 C 
BRANCH   8   9
HETATM    9  C5  UNL     1     -33.875  16.532  -2.709  1.00 20.00    -0.004 C 
HETATM   10  C3  UNL     1     -34.581  16.400  -1.369  1.00 20.00     0.005 C 
ENDBRANCH   8   9
ENDBRANCH   1   8
TORSDOF 5
ENDMDL
MODEL 5
REMARK VINA RESULT:      -4.0     11.089     11.801
REMARK  5 active torsions:
REMARK  status: ('A' for Active; 'I' for Inactive)
REMARK    1  A    between atoms: C1_1  and  C8_8 
REMARK    2  A    between atoms: C4_4  and  C6_6 
REMARK    3  A    between atoms: C5_5  and  C7_7 
REMARK    4  A    between atoms: C6_6  and  C8_8 
REMARK    5  A    between atoms: C7_7  and  C8_8 
ROOT
HETATM    1  C8  UNL     1     -33.300   5.799   3.976  1.00 20.00     0.072 C 
ENDROOT
BRANCH   1   2
HETATM    2  C1  UNL     1     -34.352   5.426   2.931  1.00 20.00     0.223 C 
HETATM    3  O9  UNL     1     -34.045   4.934   1.848  1.00 20.00    -0.279 OA
HETATM    4 CL10 UNL     1     -35.975   5.775   3.456  1.00 20.00    -0.043 Cl
ENDBRANCH   1   2
BRANCH   1   5
HETATM    5  C6  UNL     1     -32.130   6.537   3.293  1.00 20.00     0.013 C 
BRANCH   5   6
HETATM    6  C4  UNL     1     -32.452   7.960   2.819  1.00 20.00    -0.004 C 
HETATM    7  C2  UNL     1     -31.863   8.298   1.459  1.00 20.00     0.005 C 
ENDBRANCH   5   6
ENDBRANCH   1   5
BRANCH   1   8
HETATM    8  C7  UNL     1     -33.935   6.707   5.048  1.00 20.00     0.013 C 
BRANCH   8   9
HETATM    9  C5  UNL     1     -34.095   6.062   6.430  1.00 20.00    -0.004 C 
HETATM   10  C3  UNL     1     -34.627   4.638   6.378  1.00 20.00     0.005 C 
ENDBRANCH   8   9
ENDBRANCH   1   8
TORSDOF 5
ENDMDL
MODEL 6
REMARK VINA RESULT:      -4.0      2.337      3.096
REMARK  5 active torsions:
REMARK  status: ('A' for Active; 'I' for Inactive)
REMARK    1  A    between atoms: C1_1  and  C8_8 
REMARK    2  A    between atoms: C4_4  and  C6_6 
REMARK    3  A    between atoms: C5_5  and  C7_7 
REMARK    4  A    between atoms: C6_6  and  C8_8 
REMARK    5  A    between atoms: C7_7  and  C8_8 
ROOT
HETATM    1  C8  UNL     1     -34.133  16.099  -3.919  1.00 20.00     0.072 C 
ENDROOT
BRANCH   1   2
HETATM    2  C1  UNL     1     -33.772  16.929  -5.151  1.00 20.00     0.223 C 
HETATM    3  O9  UNL     1     -33.367  18.085  -5.060  1.00 20.00    -0.279 OA
HETATM    4 CL10 UNL     1     -34.000  16.057  -6.641  1.00 20.00    -0.043 Cl
ENDBRANCH   1   2
BRANCH   1   5
HETATM    5  C6  UNL     1     -33.027  15.058  -3.653  1.00 20.00     0.013 C 
BRANCH   5   6
HETATM    6  C4  UNL     1     -33.469  13.596  -3.796  1.00 20.00    -0.004 C 
HETATM    7  C2  UNL     1     -34.922  13.437  -4.214  1.00 20.00     0.005 C 
ENDBRANCH   5   6
ENDBRANCH   1   5
BRANCH   1   8
HETATM    8  C7  UNL     1     -34.282  17.027  -2.697  1.00 20.00     0.013 C 
BRANCH   8   9
HETATM    9  C5  UNL     1     -34.721  16.328  -1.404  1.00 20.00    -0.004 C 
HETATM   10  C3  UNL     1     -34.580  17.197  -0.164  1.00 20.00     0.005 C 
ENDBRANCH   8   9
ENDBRANCH   1   8
TORSDOF 5
ENDMDL
MODEL 7
REMARK VINA RESULT:      -4.0     11.427     12.540
REMARK  5 active torsions:
REMARK  status: ('A' for Active; 'I' for Inactive)
REMARK    1  A    between atoms: C1_1  and  C8_8 
REMARK    2  A    between atoms: C4_4  and  C6_6 
REMARK    3  A    between atoms: C5_5  and  C7_7 
REMARK    4  A    between atoms: C6_6  and  C8_8 
REMARK    5  A    between atoms: C7_7  and  C8_8 
ROOT
HETATM    1  C8  UNL     1     -33.940   6.589   4.105  1.00 20.00     0.072 C 
ENDROOT
BRANCH   1   2
HETATM    2  C1  UNL     1     -34.918   5.718   3.315  1.00 20.00     0.223 C 
HETATM    3  O9  UNL     1     -36.120   5.697   3.569  1.00 20.00    -0.279 OA
HETATM    4 CL10 UNL     1     -34.137   4.799   2.060  1.00 20.00    -0.043 Cl
ENDBRANCH   1   2
BRANCH   1   5
HETATM    5  C6  UNL     1     -34.065   6.274   5.610  1.00 20.00     0.013 C 
BRANCH   5   6
HETATM    6  C4  UNL     1     -33.953   4.787   5.969  1.00 20.00    -0.004 C 
HETATM    7  C2  UNL     1     -35.263   4.172   6.434  1.00 20.00     0.005 C 
ENDBRANCH   5   6
ENDBRANCH   1   5
BRANCH   1   8
HETATM    8  C7  UNL     1     -32.500   6.310   3.630  1.00 20.00     0.013 C 
BRANCH   8   9
HETATM    9  C5  UNL     1     -31.676   7.560   3.296  1.00 20.00    -0.004 C 
HETATM   10  C3  UNL     1     -32.074   8.217   1.983  1.00 20.00     0.005 C 
ENDBRANCH   8   9
ENDBRANCH   1   8
TORSDOF 5
ENDMDL
MODEL 8
REMARK VINA RESULT:      -4.0      2.580      3.600
REMARK  5 active torsions:
REMARK  status: ('A' for Active; 'I' for Inactive)
REMARK    1  A    between atoms: C1_1  and  C8_8 
REMARK    2  A    between atoms: C4_4  and  C6_6 
REMARK    3  A    between atoms: C5_5  and  C7_7 
REMARK    4  A    between atoms: C6_6  and  C8_8 
REMARK    5  A    between atoms: C7_7  and  C8_8 
ROOT
HETATM    1  C8  UNL     1     -33.872  16.117  -3.965  1.00 20.00     0.072 C 
ENDROOT
BRANCH   1   2
HETATM    2  C1  UNL     1     -33.954  17.088  -2.787  1.00 20.00     0.223 C 
HETATM    3  O9  UNL     1     -33.616  18.265  -2.890  1.00 20.00    -0.279 OA
HETATM    4 CL10 UNL     1     -34.564  16.338  -1.339  1.00 20.00    -0.043 Cl
ENDBRANCH   1   2
BRANCH   1   5
HETATM    5  C6  UNL     1     -33.391  16.869  -5.223  1.00 20.00     0.013 C 
BRANCH   5   6
HETATM    6  C4  UNL     1     -34.319  16.752  -6.439  1.00 20.00    -0.004 C 
HETATM    7  C2  UNL     1     -34.294  15.382  -7.096  1.00 20.00     0.005 C 
ENDBRANCH   5   6
ENDBRANCH   1   5
BRANCH   1   8
HETATM    8  C7  UNL     1     -32.889  14.978  -3.630  1.00 20.00     0.013 C 
BRANCH   8   9
HETATM    9  C5  UNL     1     -33.451  13.563  -3.816  1.00 20.00    -0.004 C 
HETATM   10  C3  UNL     1     -34.962  13.526  -3.988  1.00 20.00     0.005 C 
ENDBRANCH   8   9
ENDBRANCH   1   8
TORSDOF 5
ENDMDL
MODEL 9
REMARK VINA RESULT:      -3.9      1.996      2.463
REMARK  5 active torsions:
REMARK  status: ('A' for Active; 'I' for Inactive)
REMARK    1  A    between atoms: C1_1  and  C8_8 
REMARK    2  A    between atoms: C4_4  and  C6_6 
REMARK    3  A    between atoms: C5_5  and  C7_7 
REMARK    4  A    between atoms: C6_6  and  C8_8 
REMARK    5  A    between atoms: C7_7  and  C8_8 
ROOT
HETATM    1  C8  UNL     1     -35.348  14.916  -4.240  1.00 20.00     0.072 C 
ENDROOT
BRANCH   1   2
HETATM    2  C1  UNL     1     -35.071  13.756  -5.196  1.00 20.00     0.223 C 
HETATM    3  O9  UNL     1     -34.767  12.637  -4.789  1.00 20.00    -0.279 OA
HETATM    4 CL10 UNL     1     -35.236  14.208  -6.869  1.00 20.00    -0.043 Cl
ENDBRANCH   1   2
BRANCH   1   5
HETATM    5  C6  UNL     1     -36.789  14.809  -3.700  1.00 20.00     0.013 C 
BRANCH   5   6
HETATM    6  C4  UNL     1     -37.697  15.997  -4.045  1.00 20.00    -0.004 C 
HETATM    7  C2  UNL     1     -36.948  17.189  -4.618  1.00 20.00     0.005 C 
ENDBRANCH   5   6
ENDBRANCH   1   5
BRANCH   1   8
HETATM    8  C7  UNL     1     -34.347  14.871  -3.068  1.00 20.00     0.013 C 
BRANCH   8   9
HETATM    9  C5  UNL     1     -33.990  16.238  -2.470  1.00 20.00    -0.004 C 
HETATM   10  C3  UNL     1     -34.634  16.496  -1.116  1.00 20.00     0.005 C 
ENDBRANCH   8   9
ENDBRANCH   1   8
TORSDOF 5
ENDMDL
