MODEL 1
REMARK VINA RESULT:      -5.1      0.000      0.000
REMARK  1 active torsions:
REMARK  status: ('A' for Active; 'I' for Inactive)
REMARK    1  A    between atoms: C1_1  and  C5_5 
ROOT
HETATM    1  C2  UNL     1     -33.446  13.751  -3.871  1.00 20.00     0.006 C 
HETATM    2  C3  UNL     1     -34.443  13.929  -5.025  1.00 20.00     0.006 C 
HETATM    3  C4  UNL     1     -33.324  15.974  -4.696  1.00 20.00     0.011 C 
HETATM    4  C5  UNL     1     -34.485  15.653  -2.612  1.00 20.00     0.067 C 
HETATM    5  C6  UNL     1     -33.224  15.195  -3.384  1.00 20.00    -0.002 C 
HETATM    6  C7  UNL     1     -34.728  15.444  -5.010  1.00 20.00    -0.006 C 
HETATM    7  C8  UNL     1     -35.536  15.881  -3.743  1.00 20.00    -0.033 C 
HETATM    8  C10 UNL     1     -36.000  17.344  -3.897  1.00 20.00     0.016 C 
HETATM    9  C11 UNL     1     -36.796  15.033  -3.500  1.00 20.00     0.016 C 
ENDROOT
BRANCH   4  10
HETATM   10  C1  UNL     1     -34.183  16.859  -1.773  1.00 20.00     0.128 C 
HETATM   11  C9  UNL     1     -34.792  16.896  -0.396  1.00 20.00     0.091 C 
HETATM   12  O12 UNL     1     -33.472  17.773  -2.188  1.00 20.00    -0.298 OA
ENDBRANCH   4  10
TORSDOF 1
ENDMDL
MODEL 2
REMARK VINA RESULT:      -4.8      1.533      2.976
REMARK  1 active torsions:
REMARK  status: ('A' for Active; 'I' for Inactive)
REMARK    1  A    between atoms: C1_1  and  C5_5 
ROOT
HETATM    1  C2  UNL     1     -35.044  14.080  -6.094  1.00 20.00     0.006 C 
HETATM    2  C3  UNL     1     -34.710  13.197  -4.883  1.00 20.00     0.006 C 
HETATM    3  C4  UNL     1     -36.305  14.794  -4.213  1.00 20.00     0.011 C 
HETATM    4  C5  UNL     1     -34.411  16.148  -4.825  1.00 20.00     0.067 C 
HETATM    5  C6  UNL     1     -35.594  15.362  -5.442  1.00 20.00    -0.002 C 
HETATM    6  C7  UNL     1     -35.040  14.109  -3.684  1.00 20.00    -0.006 C 
HETATM    7  C8  UNL     1     -34.042  15.308  -3.562  1.00 20.00    -0.033 C 
HETATM    8  C10 UNL     1     -34.265  16.041  -2.223  1.00 20.00     0.016 C 
HETATM    9  C11 UNL     1     -32.565  14.881  -3.600  1.00 20.00     0.016 C 
ENDROOT
BRANCH   4  10
HETATM   10  C1  UNL     1     -34.804  17.569  -4.551  1.00 20.00     0.128 C 
HETATM   11  C9  UNL     1     -33.697  18.589  -4.542  1.00 20.00     0.091 C 
HETATM   12  O12 UNL     1     -35.975  17.887  -4.346  1.00 20.00    -0.298 OA
ENDBRANCH   4  10
TORSDOF 1
ENDMDL
MODEL 3
REMARK VINA RESULT:      -4.7      2.123      3.192
REMARK  1 active torsions:
REMARK  status: ('A' for Active; 'I' for Inactive)
REMARK    1  A    between atoms: C1_1  and  C5_5 
ROOT
HETATM    1  C2  UNL     1     -33.716  15.926  -2.655  1.00 20.00     0.006 C 
HETATM    2  C3  UNL     1     -32.990  15.667  -3.984  1.00 20.00     0.006 C 
HETATM    3  C4  UNL     1     -34.889  16.988  -4.425  1.00 20.00     0.011 C 
HETATM    4  C5  UNL     1     -35.839  14.950  -3.565  1.00 20.00     0.067 C 
HETATM    5  C6  UNL     1     -35.150  16.259  -3.106  1.00 20.00    -0.002 C 
HETATM    6  C7  UNL     1     -34.115  15.810  -5.029  1.00 20.00    -0.006 C 
HETATM    7  C8  UNL     1     -35.159  14.648  -4.937  1.00 20.00    -0.033 C 
HETATM    8  C10 UNL     1     -36.114  14.706  -6.148  1.00 20.00     0.016 C 
HETATM    9  C11 UNL     1     -34.519  13.250  -4.936  1.00 20.00     0.016 C 
ENDROOT
BRANCH   4  10
HETATM   10  C1  UNL     1     -37.328  15.125  -3.618  1.00 20.00     0.128 C 
HETATM   11  C9  UNL     1     -37.851  16.528  -3.460  1.00 20.00     0.091 C 
HETATM   12  O12 UNL     1     -38.085  14.169  -3.784  1.00 20.00    -0.298 OA
ENDBRANCH   4  10
TORSDOF 1
ENDMDL
MODEL 4
REMARK VINA RESULT:      -4.7      2.035      3.399
REMARK  1 active torsions:
REMARK  status: ('A' for Active; 'I' for Inactive)
REMARK    1  A    between atoms: C1_1  and  C5_5 
ROOT
HETATM    1  C2  UNL     1     -33.388  13.768  -3.791  1.00 20.00     0.006 C 
HETATM    2  C3  UNL     1     -32.693  15.137  -3.765  1.00 20.00     0.006 C 
HETATM    3  C4  UNL     1     -34.707  15.310  -2.557  1.00 20.00     0.011 C 
HETATM    4  C5  UNL     1     -35.457  14.780  -4.782  1.00 20.00     0.067 C 
HETATM    5  C6  UNL     1     -34.860  14.126  -3.512  1.00 20.00    -0.002 C 
HETATM    6  C7  UNL     1     -33.862  16.119  -3.549  1.00 20.00    -0.006 C 
HETATM    7  C8  UNL     1     -34.805  16.199  -4.795  1.00 20.00    -0.033 C 
HETATM    8  C10 UNL     1     -35.805  17.361  -4.621  1.00 20.00     0.016 C 
HETATM    9  C11 UNL     1     -34.055  16.445  -6.114  1.00 20.00     0.016 C 
ENDROOT
BRANCH   4  10
HETATM   10  C1  UNL     1     -36.956  14.770  -4.729  1.00 20.00     0.128 C 
HETATM   11  C9  UNL     1     -37.681  15.257  -5.955  1.00 20.00     0.091 C 
HETATM   12  O12 UNL     1     -37.564  14.381  -3.732  1.00 20.00    -0.298 OA
ENDBRANCH   4  10
TORSDOF 1
ENDMDL
MODEL 5
REMARK VINA RESULT:      -4.7      1.897      3.695
REMARK  1 active torsions:
REMARK  status: ('A' for Active; 'I' for Inactive)
REMARK    1  A    between atoms: C1_1  and  C5_5 
ROOT
HETATM    1  C2  UNL     1     -34.056  16.694  -1.638  1.00 20.00     0.006 C 
HETATM    2  C3  UNL     1     -34.052  17.953  -2.517  1.00 20.00     0.006 C 
HETATM    3  C4  UNL     1     -36.156  16.915  -2.725  1.00 20.00     0.011 C 
HETATM    4  C5  UNL     1     -34.648  15.258  -3.607  1.00 20.00     0.067 C 
HETATM    5  C6  UNL     1     -35.170  15.838  -2.269  1.00 20.00    -0.002 C 
HETATM    6  C7  UNL     1     -35.113  17.633  -3.590  1.00 20.00    -0.006 C 
HETATM    7  C8  UNL     1     -34.650  16.495  -4.559  1.00 20.00    -0.033 C 
HETATM    8  C10 UNL     1     -35.631  16.386  -5.745  1.00 20.00     0.016 C 
HETATM    9  C11 UNL     1     -33.252  16.731  -5.154  1.00 20.00     0.016 C 
ENDROOT
BRANCH   4  10
HETATM   10  C1  UNL     1     -35.502  14.110  -4.056  1.00 20.00     0.128 C 
HETATM   11  C9  UNL     1     -34.834  13.058  -4.901  1.00 20.00     0.091 C 
HETATM   12  O12 UNL     1     -36.691  14.029  -3.747  1.00 20.00    -0.298 OA
ENDBRANCH   4  10
TORSDOF 1
ENDMDL
MODEL 6
REMARK VINA RESULT:      -4.7      1.965      3.729
REMARK  1 active torsions:
REMARK  status: ('A' for Active; 'I' for Inactive)
REMARK    1  A    between atoms: C1_1  and  C5_5 
ROOT
HETATM    1  C2  UNL     1     -34.003  17.470  -3.370  1.00 20.00     0.006 C 
HETATM    2  C3  UNL     1     -34.258  16.460  -2.243  1.00 20.00     0.006 C 
HETATM    3  C4  UNL     1     -33.002  15.389  -3.921  1.00 20.00     0.011 C 
HETATM    4  C5  UNL     1     -35.054  15.937  -5.052  1.00 20.00     0.067 C 
HETATM    5  C6  UNL     1     -33.719  16.565  -4.584  1.00 20.00    -0.002 C 
HETATM    6  C7  UNL     1     -34.164  15.100  -2.964  1.00 20.00    -0.006 C 
HETATM    7  C8  UNL     1     -35.355  14.871  -3.952  1.00 20.00    -0.033 C 
HETATM    8  C10 UNL     1     -35.344  13.413  -4.457  1.00 20.00     0.016 C 
HETATM    9  C11 UNL     1     -36.733  15.115  -3.315  1.00 20.00     0.016 C 
ENDROOT
BRANCH   4  10
HETATM   10  C1  UNL     1     -34.925  15.394  -6.445  1.00 20.00     0.128 C 
HETATM   11  C9  UNL     1     -36.206  15.121  -7.187  1.00 20.00     0.091 C 
HETATM   12  O12 UNL     1     -33.826  15.184  -6.956  1.00 20.00    -0.298 OA
ENDBRANCH   4  10
TORSDOF 1
ENDMDL
MODEL 7
REMARK VINA RESULT:      -4.6      2.225      3.461
REMARK  1 active torsions:
REMARK  status: ('A' for Active; 'I' for Inactive)
REMARK    1  A    between atoms: C1_1  and  C5_5 
ROOT
HETATM    1  C2  UNL     1     -33.795  17.171  -5.995  1.00 20.00     0.006 C 
HETATM    2  C3  UNL     1     -35.147  17.800  -5.631  1.00 20.00     0.006 C 
HETATM    3  C4  UNL     1     -34.324  16.674  -3.734  1.00 20.00     0.011 C 
HETATM    4  C5  UNL     1     -34.617  14.897  -5.331  1.00 20.00     0.067 C 
HETATM    5  C6  UNL     1     -33.649  16.045  -4.954  1.00 20.00    -0.002 C 
HETATM    6  C7  UNL     1     -35.646  16.912  -4.474  1.00 20.00    -0.006 C 
HETATM    7  C8  UNL     1     -36.019  15.470  -4.954  1.00 20.00    -0.033 C 
HETATM    8  C10 UNL     1     -36.734  14.709  -3.818  1.00 20.00     0.016 C 
HETATM    9  C11 UNL     1     -36.962  15.455  -6.168  1.00 20.00     0.016 C 
ENDROOT
BRANCH   4  10
HETATM   10  C1  UNL     1     -34.237  13.630  -4.624  1.00 20.00     0.128 C 
HETATM   11  C9  UNL     1     -33.117  13.722  -3.622  1.00 20.00     0.091 C 
HETATM   12  O12 UNL     1     -34.814  12.566  -4.850  1.00 20.00    -0.298 OA
ENDBRANCH   4  10
TORSDOF 1
ENDMDL
MODEL 8
REMARK VINA RESULT:      -4.6      1.938      3.937
REMARK  1 active torsions:
REMARK  status: ('A' for Active; 'I' for Inactive)
REMARK    1  A    between atoms: C1_1  and  C5_5 
ROOT
HETATM    1  C2  UNL     1     -35.998  17.675  -4.718  1.00 20.00     0.006 C 
HETATM    2  C3  UNL     1     -34.792  18.222  -3.942  1.00 20.00     0.006 C 
HETATM    3  C4  UNL     1     -33.991  16.838  -5.670  1.00 20.00     0.011 C 
HETATM    4  C5  UNL     1     -35.259  15.315  -4.304  1.00 20.00     0.067 C 
HETATM    5  C6  UNL     1     -35.431  16.409  -5.387  1.00 20.00    -0.002 C 
HETATM    6  C7  UNL     1     -33.701  17.164  -4.200  1.00 20.00    -0.006 C 
HETATM    7  C8  UNL     1     -34.018  15.804  -3.493  1.00 20.00    -0.033 C 
HETATM    8  C10 UNL     1     -32.792  14.871  -3.580  1.00 20.00     0.016 C 
HETATM    9  C11 UNL     1     -34.362  15.956  -2.003  1.00 20.00     0.016 C 
ENDROOT
BRANCH   4  10
HETATM   10  C1  UNL     1     -35.113  13.962  -4.936  1.00 20.00     0.128 C 
HETATM   11  C9  UNL     1     -34.998  13.924  -6.437  1.00 20.00     0.091 C 
HETATM   12  O12 UNL     1     -35.086  12.934  -4.261  1.00 20.00    -0.298 OA
ENDBRANCH   4  10
TORSDOF 1
ENDMDL
MODEL 9
REMARK VINA RESULT:      -4.6      1.953      3.408
REMARK  1 active torsions:
REMARK  status: ('A' for Active; 'I' for Inactive)
REMARK    1  A    between atoms: C1_1  and  C5_5 
ROOT
HETATM    1  C2  UNL     1     -34.173  17.065  -6.283  1.00 20.00     0.006 C 
HETATM    2  C3  UNL     1     -33.680  18.015  -5.182  1.00 20.00     0.006 C 
HETATM    3  C4  UNL     1     -33.140  15.812  -4.551  1.00 20.00     0.011 C 
HETATM    4  C5  UNL     1     -35.546  15.776  -4.627  1.00 20.00     0.067 C 
HETATM    5  C6  UNL     1     -34.299  15.720  -5.544  1.00 20.00    -0.002 C 
HETATM    6  C7  UNL     1     -33.655  17.116  -3.930  1.00 20.00    -0.006 C 
HETATM    7  C8  UNL     1     -35.093  16.712  -3.463  1.00 20.00    -0.033 C 
HETATM    8  C10 UNL     1     -35.022  16.025  -2.083  1.00 20.00     0.016 C 
HETATM    9  C11 UNL     1     -36.047  17.909  -3.319  1.00 20.00     0.016 C 
ENDROOT
BRANCH   4  10
HETATM   10  C1  UNL     1     -35.959  14.396  -4.209  1.00 20.00     0.128 C 
HETATM   11  C9  UNL     1     -34.939  13.302  -4.382  1.00 20.00     0.091 C 
HETATM   12  O12 UNL     1     -37.076  14.169  -3.745  1.00 20.00    -0.298 OA
ENDBRANCH   4  10
TORSDOF 1
ENDMDL
