MODEL 1
REMARK VINA RESULT:      -5.1      0.000      0.000
REMARK  0 active torsions:
REMARK  status: ('A' for Active; 'I' for Inactive)
ROOT
HETATM    1  C1  UNL     1     -34.452  13.660  -5.220  1.00 20.00    -0.025 C 
HETATM    2  C2  UNL     1     -35.287  13.352  -4.215  1.00 20.00    -0.025 C 
HETATM    3  C3  UNL     1     -33.529  17.181  -4.003  1.00 20.00    -0.024 A 
HETATM    4  C4  UNL     1     -34.231  17.702  -2.994  1.00 20.00    -0.025 A 
HETATM    5  C5  UNL     1     -35.887  15.445  -4.965  1.00 20.00     0.018 C 
HETATM    6  C6  UNL     1     -34.422  15.169  -5.329  1.00 20.00     0.016 C 
HETATM    7  C7  UNL     1     -35.813  14.655  -3.654  1.00 20.00     0.014 C 
HETATM    8  C8  UNL     1     -33.661  15.697  -4.087  1.00 20.00     0.021 A 
HETATM    9  C9  UNL     1     -34.995  16.672  -2.216  1.00 20.00     0.009 A 
HETATM   10  C10 UNL     1     -34.632  15.339  -2.906  1.00 20.00     0.009 A 
HETATM   11  C11 UNL     1     -34.588  16.679  -0.747  1.00 20.00     0.014 C 
ENDROOT
TORSDOF 0
ENDMDL
MODEL 2
REMARK VINA RESULT:      -4.9      1.114      3.810
REMARK  0 active torsions:
REMARK  status: ('A' for Active; 'I' for Inactive)
ROOT
HETATM    1  C1  UNL     1     -33.759  17.227  -2.260  1.00 20.00    -0.025 C 
HETATM    2  C2  UNL     1     -34.400  17.869  -3.250  1.00 20.00    -0.025 C 
HETATM    3  C3  UNL     1     -33.774  13.744  -3.873  1.00 20.00    -0.024 A 
HETATM    4  C4  UNL     1     -34.519  13.560  -4.965  1.00 20.00    -0.025 A 
HETATM    5  C5  UNL     1     -35.615  15.967  -2.791  1.00 20.00     0.018 C 
HETATM    6  C6  UNL     1     -34.161  15.771  -2.340  1.00 20.00     0.016 C 
HETATM    7  C7  UNL     1     -35.229  16.840  -3.989  1.00 20.00     0.014 C 
HETATM    8  C8  UNL     1     -33.491  15.185  -3.609  1.00 20.00     0.021 A 
HETATM    9  C9  UNL     1     -34.907  14.844  -5.636  1.00 20.00     0.009 A 
HETATM   10  C10 UNL     1     -34.236  15.934  -4.772  1.00 20.00     0.009 A 
HETATM   11  C11 UNL     1     -34.415  14.881  -7.079  1.00 20.00     0.014 C 
ENDROOT
TORSDOF 0
ENDMDL
MODEL 3
REMARK VINA RESULT:      -4.8      1.143      3.543
REMARK  0 active torsions:
REMARK  status: ('A' for Active; 'I' for Inactive)
ROOT
HETATM    1  C1  UNL     1     -34.714  18.101  -2.828  1.00 20.00    -0.025 C 
HETATM    2  C2  UNL     1     -35.903  17.489  -2.955  1.00 20.00    -0.025 C 
HETATM    3  C3  UNL     1     -32.527  15.030  -3.551  1.00 20.00    -0.024 A 
HETATM    4  C4  UNL     1     -33.119  13.834  -3.601  1.00 20.00    -0.025 A 
HETATM    5  C5  UNL     1     -34.611  16.164  -1.584  1.00 20.00     0.018 C 
HETATM    6  C6  UNL     1     -33.703  17.037  -2.459  1.00 20.00     0.016 C 
HETATM    7  C7  UNL     1     -35.683  16.019  -2.669  1.00 20.00     0.014 C 
HETATM    8  C8  UNL     1     -33.494  16.154  -3.715  1.00 20.00     0.021 A 
HETATM    9  C9  UNL     1     -34.605  13.920  -3.781  1.00 20.00     0.009 A 
HETATM   10  C10 UNL     1     -34.882  15.437  -3.870  1.00 20.00     0.009 A 
HETATM   11  C11 UNL     1     -35.050  13.188  -5.042  1.00 20.00     0.014 C 
ENDROOT
TORSDOF 0
ENDMDL
MODEL 4
REMARK VINA RESULT:      -4.8      1.257      3.483
REMARK  0 active torsions:
REMARK  status: ('A' for Active; 'I' for Inactive)
ROOT
HETATM    1  C1  UNL     1     -33.642  16.178  -2.715  1.00 20.00    -0.025 C 
HETATM    2  C2  UNL     1     -34.864  15.731  -2.384  1.00 20.00    -0.025 C 
HETATM    3  C3  UNL     1     -33.929  15.577  -6.495  1.00 20.00    -0.024 A 
HETATM    4  C4  UNL     1     -34.971  14.873  -6.943  1.00 20.00    -0.025 A 
HETATM    5  C5  UNL     1     -33.923  14.146  -3.765  1.00 20.00     0.018 C 
HETATM    6  C6  UNL     1     -33.258  15.506  -4.015  1.00 20.00     0.016 C 
HETATM    7  C7  UNL     1     -35.294  14.761  -3.464  1.00 20.00     0.014 C 
HETATM    8  C8  UNL     1     -34.151  16.120  -5.123  1.00 20.00     0.021 A 
HETATM    9  C9  UNL     1     -36.090  14.781  -5.948  1.00 20.00     0.009 A 
HETATM   10  C10 UNL     1     -35.583  15.602  -4.741  1.00 20.00     0.009 A 
HETATM   11  C11 UNL     1     -37.383  15.352  -6.519  1.00 20.00     0.014 C 
ENDROOT
TORSDOF 0
ENDMDL
MODEL 5
REMARK VINA RESULT:      -4.8      1.411      2.836
REMARK  0 active torsions:
REMARK  status: ('A' for Active; 'I' for Inactive)
ROOT
HETATM    1  C1  UNL     1     -36.551  15.008  -7.026  1.00 20.00    -0.025 C 
HETATM    2  C2  UNL     1     -36.439  16.258  -6.549  1.00 20.00    -0.025 C 
HETATM    3  C3  UNL     1     -34.173  13.332  -4.523  1.00 20.00    -0.024 A 
HETATM    4  C4  UNL     1     -33.434  14.117  -3.735  1.00 20.00    -0.025 A 
HETATM    5  C5  UNL     1     -34.300  15.433  -6.775  1.00 20.00     0.018 C 
HETATM    6  C6  UNL     1     -35.289  14.268  -6.641  1.00 20.00     0.016 C 
HETATM    7  C7  UNL     1     -35.102  16.350  -5.845  1.00 20.00     0.014 C 
HETATM    8  C8  UNL     1     -35.344  14.047  -5.108  1.00 20.00     0.021 A 
HETATM    9  C9  UNL     1     -33.950  15.523  -3.656  1.00 20.00     0.009 A 
HETATM   10  C10 UNL     1     -35.215  15.506  -4.542  1.00 20.00     0.009 A 
HETATM   11  C11 UNL     1     -34.271  15.911  -2.217  1.00 20.00     0.014 C 
ENDROOT
TORSDOF 0
ENDMDL
MODEL 6
REMARK VINA RESULT:      -4.6      1.603      3.507
REMARK  0 active torsions:
REMARK  status: ('A' for Active; 'I' for Inactive)
ROOT
HETATM    1  C1  UNL     1     -33.352  13.678  -3.799  1.00 20.00    -0.025 C 
HETATM    2  C2  UNL     1     -32.906  14.924  -3.572  1.00 20.00    -0.025 C 
HETATM    3  C3  UNL     1     -35.832  14.572  -6.590  1.00 20.00    -0.024 A 
HETATM    4  C4  UNL     1     -36.095  15.863  -6.808  1.00 20.00    -0.025 A 
HETATM    5  C5  UNL     1     -35.206  15.035  -3.607  1.00 20.00     0.018 C 
HETATM    6  C6  UNL     1     -34.738  13.804  -4.395  1.00 20.00     0.016 C 
HETATM    7  C7  UNL     1     -33.993  15.879  -4.015  1.00 20.00     0.014 C 
HETATM    8  C8  UNL     1     -34.566  14.366  -5.829  1.00 20.00     0.021 A 
HETATM    9  C9  UNL     1     -35.068  16.781  -6.214  1.00 20.00     0.009 A 
HETATM   10  C10 UNL     1     -34.041  15.823  -5.569  1.00 20.00     0.009 A 
HETATM   11  C11 UNL     1     -34.430  17.660  -7.284  1.00 20.00     0.014 C 
ENDROOT
TORSDOF 0
ENDMDL
MODEL 7
REMARK VINA RESULT:      -4.6      1.355      3.723
REMARK  0 active torsions:
REMARK  status: ('A' for Active; 'I' for Inactive)
ROOT
HETATM    1  C1  UNL     1     -35.770  17.853  -1.155  1.00 20.00    -0.025 C 
HETATM    2  C2  UNL     1     -34.839  17.106  -0.540  1.00 20.00    -0.025 C 
HETATM    3  C3  UNL     1     -35.098  16.601  -4.721  1.00 20.00    -0.024 A 
HETATM    4  C4  UNL     1     -34.011  15.854  -4.931  1.00 20.00    -0.025 A 
HETATM    5  C5  UNL     1     -33.815  18.096  -2.350  1.00 20.00     0.018 C 
HETATM    6  C6  UNL     1     -35.328  18.023  -2.592  1.00 20.00     0.016 C 
HETATM    7  C7  UNL     1     -33.777  16.779  -1.568  1.00 20.00     0.014 C 
HETATM    8  C8  UNL     1     -35.493  16.645  -3.283  1.00 20.00     0.021 A 
HETATM    9  C9  UNL     1     -33.446  15.271  -3.671  1.00 20.00     0.009 A 
HETATM   10  C10 UNL     1     -34.407  15.766  -2.567  1.00 20.00     0.009 A 
HETATM   11  C11 UNL     1     -33.400  13.748  -3.741  1.00 20.00     0.014 C 
ENDROOT
TORSDOF 0
ENDMDL
MODEL 8
REMARK VINA RESULT:      -4.6      1.349      2.471
REMARK  0 active torsions:
REMARK  status: ('A' for Active; 'I' for Inactive)
ROOT
HETATM    1  C1  UNL     1     -33.331  13.714  -3.772  1.00 20.00    -0.025 C 
HETATM    2  C2  UNL     1     -34.234  13.214  -4.632  1.00 20.00    -0.025 C 
HETATM    3  C3  UNL     1     -35.494  16.591  -2.439  1.00 20.00    -0.024 A 
HETATM    4  C4  UNL     1     -36.639  16.863  -3.071  1.00 20.00    -0.025 A 
HETATM    5  C5  UNL     1     -34.157  15.488  -4.989  1.00 20.00     0.018 C 
HETATM    6  C6  UNL     1     -33.671  15.174  -3.568  1.00 20.00     0.016 C 
HETATM    7  C7  UNL     1     -35.174  14.342  -5.000  1.00 20.00     0.014 C 
HETATM    8  C8  UNL     1     -34.982  15.223  -2.744  1.00 20.00     0.021 A 
HETATM    9  C9  UNL     1     -37.108  15.739  -3.946  1.00 20.00     0.009 A 
HETATM   10  C10 UNL     1     -36.043  14.639  -3.744  1.00 20.00     0.009 A 
HETATM   11  C11 UNL     1     -38.498  15.264  -3.534  1.00 20.00     0.014 C 
ENDROOT
TORSDOF 0
ENDMDL
MODEL 9
REMARK VINA RESULT:      -4.5      1.588      3.663
REMARK  0 active torsions:
REMARK  status: ('A' for Active; 'I' for Inactive)
ROOT
HETATM    1  C1  UNL     1     -34.668  15.658  -2.675  1.00 20.00    -0.025 C 
HETATM    2  C2  UNL     1     -34.537  14.398  -3.118  1.00 20.00    -0.025 C 
HETATM    3  C3  UNL     1     -34.740  17.362  -6.114  1.00 20.00    -0.024 A 
HETATM    4  C4  UNL     1     -34.429  16.628  -7.186  1.00 20.00    -0.025 A 
HETATM    5  C5  UNL     1     -32.975  15.666  -4.239  1.00 20.00     0.018 C 
HETATM    6  C6  UNL     1     -34.116  16.569  -3.750  1.00 20.00     0.016 C 
HETATM    7  C7  UNL     1     -33.898  14.469  -4.489  1.00 20.00     0.014 C 
HETATM    8  C8  UNL     1     -35.112  16.526  -4.936  1.00 20.00     0.021 A 
HETATM    9  C9  UNL     1     -34.508  15.152  -6.931  1.00 20.00     0.009 A 
HETATM   10  C10 UNL     1     -34.966  15.052  -5.459  1.00 20.00     0.009 A 
HETATM   11  C11 UNL     1     -35.496  14.481  -7.879  1.00 20.00     0.014 C 
ENDROOT
TORSDOF 0
ENDMDL
