MODEL 1
REMARK VINA RESULT:      -4.6      0.000      0.000
REMARK  3 active torsions:
REMARK  status: ('A' for Active; 'I' for Inactive)
REMARK    1  A    between atoms: C4_4  and  C5_5 
REMARK    2  A    between atoms: C4_4  and  C6_6 
REMARK    3  A    between atoms: C5_5  and  N7_7 
ROOT
HETATM    1  C1  UNL     1     -32.210   7.674   2.525  1.00 20.00     0.157 C 
HETATM    2  N7  UNL     1     -32.352   6.837   3.337  1.00 20.00    -0.276 NA
HETATM    3  S8  UNL     1     -31.997   8.820   1.440  1.00 20.00    -0.055 SA
ENDROOT
BRANCH   2   4
HETATM    4  C5  UNL     1     -33.361   5.827   3.013  1.00 20.00     0.151 C 
BRANCH   4   5
HETATM    5  C4  UNL     1     -34.493   5.875   4.035  1.00 20.00     0.026 C 
BRANCH   5   6
HETATM    6  C6  UNL     1     -34.134   5.331   5.432  1.00 20.00    -0.021 C 
HETATM    7  C2  UNL     1     -34.108   6.481   6.442  1.00 20.00     0.009 C 
HETATM    8  C3  UNL     1     -35.107   4.251   5.906  1.00 20.00     0.009 C 
ENDBRANCH   5   6
ENDBRANCH   4   5
ENDBRANCH   2   4
TORSDOF 3
ENDMDL
MODEL 2
REMARK VINA RESULT:      -4.5      0.709      1.424
REMARK  3 active torsions:
REMARK  status: ('A' for Active; 'I' for Inactive)
REMARK    1  A    between atoms: C4_4  and  C5_5 
REMARK    2  A    between atoms: C4_4  and  C6_6 
REMARK    3  A    between atoms: C5_5  and  N7_7 
ROOT
HETATM    1  C1  UNL     1     -32.218   7.826   2.246  1.00 20.00     0.157 C 
HETATM    2  N7  UNL     1     -32.199   6.786   2.790  1.00 20.00    -0.276 NA
HETATM    3  S8  UNL     1     -32.226   9.228   1.489  1.00 20.00    -0.055 SA
ENDROOT
BRANCH   2   4
HETATM    4  C5  UNL     1     -32.969   6.725   4.033  1.00 20.00     0.151 C 
BRANCH   4   5
HETATM    5  C4  UNL     1     -34.120   5.734   3.885  1.00 20.00     0.026 C 
BRANCH   5   6
HETATM    6  C6  UNL     1     -34.880   5.419   5.189  1.00 20.00    -0.021 C 
HETATM    7  C2  UNL     1     -34.921   3.904   5.409  1.00 20.00     0.009 C 
HETATM    8  C3  UNL     1     -34.256   6.099   6.409  1.00 20.00     0.009 C 
ENDBRANCH   5   6
ENDBRANCH   4   5
ENDBRANCH   2   4
TORSDOF 3
ENDMDL
MODEL 3
REMARK VINA RESULT:      -3.7     11.238     12.044
REMARK  3 active torsions:
REMARK  status: ('A' for Active; 'I' for Inactive)
REMARK    1  A    between atoms: C4_4  and  C5_5 
REMARK    2  A    between atoms: C4_4  and  C6_6 
REMARK    3  A    between atoms: C5_5  and  N7_7 
ROOT
HETATM    1  C1  UNL     1     -34.911  13.632  -5.634  1.00 20.00     0.157 C 
HETATM    2  N7  UNL     1     -34.601  12.954  -4.726  1.00 20.00    -0.276 NA
HETATM    3  S8  UNL     1     -35.343  14.528  -6.877  1.00 20.00    -0.055 SA
ENDROOT
BRANCH   2   4
HETATM    4  C5  UNL     1     -33.850  13.639  -3.673  1.00 20.00     0.151 C 
BRANCH   4   5
HETATM    5  C4  UNL     1     -34.699  14.750  -3.064  1.00 20.00     0.026 C 
BRANCH   5   6
HETATM    6  C6  UNL     1     -33.908  15.975  -2.564  1.00 20.00    -0.021 C 
HETATM    7  C2  UNL     1     -33.837  17.030  -3.672  1.00 20.00     0.009 C 
HETATM    8  C3  UNL     1     -34.519  16.592  -1.305  1.00 20.00     0.009 C 
ENDBRANCH   5   6
ENDBRANCH   4   5
ENDBRANCH   2   4
TORSDOF 3
ENDMDL
MODEL 4
REMARK VINA RESULT:      -3.7      1.364      1.981
REMARK  3 active torsions:
REMARK  status: ('A' for Active; 'I' for Inactive)
REMARK    1  A    between atoms: C4_4  and  C5_5 
REMARK    2  A    between atoms: C4_4  and  C6_6 
REMARK    3  A    between atoms: C5_5  and  N7_7 
ROOT
HETATM    1  C1  UNL     1     -32.953   6.251   3.017  1.00 20.00     0.157 C 
HETATM    2  N7  UNL     1     -33.822   5.468   2.909  1.00 20.00    -0.276 NA
HETATM    3  S8  UNL     1     -31.759   7.296   3.148  1.00 20.00    -0.055 SA
ENDROOT
BRANCH   2   4
HETATM    4  C5  UNL     1     -35.047   5.801   3.637  1.00 20.00     0.151 C 
BRANCH   4   5
HETATM    5  C4  UNL     1     -35.402   4.674   4.602  1.00 20.00     0.026 C 
BRANCH   5   6
HETATM    6  C6  UNL     1     -34.905   4.874   6.048  1.00 20.00    -0.021 C 
HETATM    7  C2  UNL     1     -33.867   3.801   6.389  1.00 20.00     0.009 C 
HETATM    8  C3  UNL     1     -34.303   6.262   6.273  1.00 20.00     0.009 C 
ENDBRANCH   5   6
ENDBRANCH   4   5
ENDBRANCH   2   4
TORSDOF 3
ENDMDL
MODEL 5
REMARK VINA RESULT:      -3.6      2.687      4.833
REMARK  3 active torsions:
REMARK  status: ('A' for Active; 'I' for Inactive)
REMARK    1  A    between atoms: C4_4  and  C5_5 
REMARK    2  A    between atoms: C4_4  and  C6_6 
REMARK    3  A    between atoms: C5_5  and  N7_7 
ROOT
HETATM    1  C1  UNL     1     -34.218   5.776   4.514  1.00 20.00     0.157 C 
HETATM    2  N7  UNL     1     -33.842   6.577   3.743  1.00 20.00    -0.276 NA
HETATM    3  S8  UNL     1     -34.754   4.701   5.561  1.00 20.00    -0.055 SA
ENDROOT
BRANCH   2   4
HETATM    4  C5  UNL     1     -32.458   6.404   3.299  1.00 20.00     0.151 C 
BRANCH   4   5
HETATM    5  C4  UNL     1     -31.833   7.763   2.998  1.00 20.00     0.026 C 
BRANCH   5   6
HETATM    6  C6  UNL     1     -32.409   8.487   1.766  1.00 20.00    -0.021 C 
HETATM    7  C2  UNL     1     -32.729   9.941   2.124  1.00 20.00     0.009 C 
HETATM    8  C3  UNL     1     -31.459   8.449   0.568  1.00 20.00     0.009 C 
ENDBRANCH   5   6
ENDBRANCH   4   5
ENDBRANCH   2   4
TORSDOF 3
ENDMDL
MODEL 6
REMARK VINA RESULT:      -3.4      3.009      4.442
REMARK  3 active torsions:
REMARK  status: ('A' for Active; 'I' for Inactive)
REMARK    1  A    between atoms: C4_4  and  C5_5 
REMARK    2  A    between atoms: C4_4  and  C6_6 
REMARK    3  A    between atoms: C5_5  and  N7_7 
ROOT
HETATM    1  C1  UNL     1     -35.076   4.973   4.747  1.00 20.00     0.157 C 
HETATM    2  N7  UNL     1     -35.230   5.223   3.610  1.00 20.00    -0.276 NA
HETATM    3  S8  UNL     1     -34.895   4.629   6.292  1.00 20.00    -0.055 SA
ENDROOT
BRANCH   2   4
HETATM    4  C5  UNL     1     -34.010   5.586   2.887  1.00 20.00     0.151 C 
BRANCH   4   5
HETATM    5  C4  UNL     1     -33.420   6.866   3.470  1.00 20.00     0.026 C 
BRANCH   5   6
HETATM    6  C6  UNL     1     -32.013   7.229   2.954  1.00 20.00    -0.021 C 
HETATM    7  C2  UNL     1     -32.123   8.300   1.864  1.00 20.00     0.009 C 
HETATM    8  C3  UNL     1     -31.090   7.723   4.068  1.00 20.00     0.009 C 
ENDBRANCH   5   6
ENDBRANCH   4   5
ENDBRANCH   2   4
TORSDOF 3
ENDMDL
MODEL 7
REMARK VINA RESULT:      -3.3     11.283     12.049
REMARK  3 active torsions:
REMARK  status: ('A' for Active; 'I' for Inactive)
REMARK    1  A    between atoms: C4_4  and  C5_5 
REMARK    2  A    between atoms: C4_4  and  C6_6 
REMARK    3  A    between atoms: C5_5  and  N7_7 
ROOT
HETATM    1  C1  UNL     1     -34.011  16.593  -2.386  1.00 20.00     0.157 C 
HETATM    2  N7  UNL     1     -33.656  16.450  -3.497  1.00 20.00    -0.276 NA
HETATM    3  S8  UNL     1     -34.498  16.813  -0.886  1.00 20.00    -0.055 SA
ENDROOT
BRANCH   2   4
HETATM    4  C5  UNL     1     -33.172  15.108  -3.823  1.00 20.00     0.151 C 
BRANCH   4   5
HETATM    5  C4  UNL     1     -34.191  14.064  -3.377  1.00 20.00     0.026 C 
BRANCH   5   6
HETATM    6  C6  UNL     1     -35.254  13.698  -4.432  1.00 20.00    -0.021 C 
HETATM    7  C2  UNL     1     -36.571  14.407  -4.104  1.00 20.00     0.009 C 
HETATM    8  C3  UNL     1     -34.816  14.057  -5.852  1.00 20.00     0.009 C 
ENDBRANCH   5   6
ENDBRANCH   4   5
ENDBRANCH   2   4
TORSDOF 3
ENDMDL
MODEL 8
REMARK VINA RESULT:      -3.3     11.739     12.433
REMARK  3 active torsions:
REMARK  status: ('A' for Active; 'I' for Inactive)
REMARK    1  A    between atoms: C4_4  and  C5_5 
REMARK    2  A    between atoms: C4_4  and  C6_6 
REMARK    3  A    between atoms: C5_5  and  N7_7 
ROOT
HETATM    1  C1  UNL     1     -38.751  15.149  -3.505  1.00 20.00     0.157 C 
HETATM    2  N7  UNL     1     -37.999  14.284  -3.760  1.00 20.00    -0.276 NA
HETATM    3  S8  UNL     1     -39.788  16.304  -3.149  1.00 20.00    -0.055 SA
ENDROOT
BRANCH   2   4
HETATM    4  C5  UNL     1     -36.759  14.714  -4.408  1.00 20.00     0.151 C 
BRANCH   4   5
HETATM    5  C4  UNL     1     -35.685  14.977  -3.356  1.00 20.00     0.026 C 
BRANCH   5   6
HETATM    6  C6  UNL     1     -34.390  14.159  -3.528  1.00 20.00    -0.021 C 
HETATM    7  C2  UNL     1     -34.515  13.247  -4.752  1.00 20.00     0.009 C 
HETATM    8  C3  UNL     1     -33.153  15.046  -3.673  1.00 20.00     0.009 C 
ENDBRANCH   5   6
ENDBRANCH   4   5
ENDBRANCH   2   4
TORSDOF 3
ENDMDL
MODEL 9
REMARK VINA RESULT:      -3.3     11.923     12.723
REMARK  3 active torsions:
REMARK  status: ('A' for Active; 'I' for Inactive)
REMARK    1  A    between atoms: C4_4  and  C5_5 
REMARK    2  A    between atoms: C4_4  and  C6_6 
REMARK    3  A    between atoms: C5_5  and  N7_7 
ROOT
HETATM    1  C1  UNL     1     -33.778  16.786  -5.872  1.00 20.00     0.157 C 
HETATM    2  N7  UNL     1     -33.124  17.062  -4.937  1.00 20.00    -0.276 NA
HETATM    3  S8  UNL     1     -34.648  16.428  -7.158  1.00 20.00    -0.055 SA
ENDROOT
BRANCH   2   4
HETATM    4  C5  UNL     1     -33.585  16.489  -3.671  1.00 20.00     0.151 C 
BRANCH   4   5
HETATM    5  C4  UNL     1     -33.275  14.996  -3.630  1.00 20.00     0.026 C 
BRANCH   5   6
HETATM    6  C6  UNL     1     -34.511  14.075  -3.583  1.00 20.00    -0.021 C 
HETATM    7  C2  UNL     1     -35.777  14.919  -3.407  1.00 20.00     0.009 C 
HETATM    8  C3  UNL     1     -34.641  13.207  -4.835  1.00 20.00     0.009 C 
ENDBRANCH   5   6
ENDBRANCH   4   5
ENDBRANCH   2   4
TORSDOF 3
ENDMDL
