MODEL 1
REMARK VINA RESULT:      -5.1      0.000      0.000
REMARK  1 active torsions:
REMARK  status: ('A' for Active; 'I' for Inactive)
REMARK    1  A    between atoms: C2_2  and  C7_7 
ROOT
HETATM    1  C1  UNL     1     -35.002   4.979   5.603  1.00 20.00     0.127 C 
HETATM    2  C3  UNL     1     -35.412   5.001   4.148  1.00 20.00     0.079 C 
HETATM    3  C4  UNL     1     -34.267   6.197   6.117  1.00 20.00     0.079 C 
HETATM    4  C5  UNL     1     -34.233   5.388   3.264  1.00 20.00     0.019 C 
HETATM    5  C6  UNL     1     -33.112   6.557   5.191  1.00 20.00     0.019 C 
HETATM    6  C7  UNL     1     -33.573   6.684   3.738  1.00 20.00     0.048 C 
HETATM    7  O8  UNL     1     -35.342   4.067   6.354  1.00 20.00    -0.298 OA
ENDROOT
BRANCH   6   8
HETATM    8  C2  UNL     1     -32.401   6.991   2.857  1.00 20.00     0.235 C 
HETATM    9  O9  UNL     1     -32.176   8.105   2.396  1.00 20.00    -0.306 OA
ENDBRANCH   6   8
TORSDOF 1
ENDMDL
MODEL 2
REMARK VINA RESULT:      -4.3     11.607     13.323
REMARK  1 active torsions:
REMARK  status: ('A' for Active; 'I' for Inactive)
REMARK    1  A    between atoms: C2_2  and  C7_7 
ROOT
HETATM    1  C1  UNL     1     -34.411  13.575  -4.694  1.00 20.00     0.127 C 
HETATM    2  C3  UNL     1     -33.309  14.039  -3.769  1.00 20.00     0.079 C 
HETATM    3  C4  UNL     1     -34.607  14.371  -5.965  1.00 20.00     0.079 C 
HETATM    4  C5  UNL     1     -33.421  15.535  -3.508  1.00 20.00     0.019 C 
HETATM    5  C6  UNL     1     -34.693  15.861  -5.657  1.00 20.00     0.019 C 
HETATM    6  C7  UNL     1     -33.507  16.331  -4.812  1.00 20.00     0.048 C 
HETATM    7  O8  UNL     1     -35.043  12.542  -4.478  1.00 20.00    -0.298 OA
ENDROOT
BRANCH   6   8
HETATM    8  C2  UNL     1     -33.654  17.787  -4.493  1.00 20.00     0.235 C 
HETATM    9  O9  UNL     1     -33.311  18.684  -5.255  1.00 20.00    -0.306 OA
ENDBRANCH   6   8
TORSDOF 1
ENDMDL
MODEL 3
REMARK VINA RESULT:      -4.3     11.406     12.314
REMARK  1 active torsions:
REMARK  status: ('A' for Active; 'I' for Inactive)
REMARK    1  A    between atoms: C2_2  and  C7_7 
ROOT
HETATM    1  C1  UNL     1     -33.474  13.796  -3.817  1.00 20.00     0.127 C 
HETATM    2  C3  UNL     1     -33.668  15.187  -3.259  1.00 20.00     0.079 C 
HETATM    3  C4  UNL     1     -34.434  13.362  -4.902  1.00 20.00     0.079 C 
HETATM    4  C5  UNL     1     -35.125  15.414  -2.875  1.00 20.00     0.019 C 
HETATM    5  C6  UNL     1     -35.874  13.626  -4.481  1.00 20.00     0.019 C 
HETATM    6  C7  UNL     1     -36.072  15.073  -4.026  1.00 20.00     0.048 C 
HETATM    7  O8  UNL     1     -32.521  13.094  -3.482  1.00 20.00    -0.298 OA
ENDROOT
BRANCH   6   8
HETATM    8  C2  UNL     1     -37.487  15.277  -3.578  1.00 20.00     0.235 C 
HETATM    9  O9  UNL     1     -38.319  14.378  -3.535  1.00 20.00    -0.306 OA
ENDBRANCH   6   8
TORSDOF 1
ENDMDL
MODEL 4
REMARK VINA RESULT:      -4.2     11.567     13.278
REMARK  1 active torsions:
REMARK  status: ('A' for Active; 'I' for Inactive)
REMARK    1  A    between atoms: C2_2  and  C7_7 
ROOT
HETATM    1  C1  UNL     1     -33.693  17.459  -3.768  1.00 20.00     0.127 C 
HETATM    2  C3  UNL     1     -33.272  16.690  -5.000  1.00 20.00     0.079 C 
HETATM    3  C4  UNL     1     -33.833  16.662  -2.490  1.00 20.00     0.079 C 
HETATM    4  C5  UNL     1     -34.134  15.447  -5.179  1.00 20.00     0.019 C 
HETATM    5  C6  UNL     1     -34.685  15.421  -2.722  1.00 20.00     0.019 C 
HETATM    6  C7  UNL     1     -34.172  14.599  -3.906  1.00 20.00     0.048 C 
HETATM    7  O8  UNL     1     -33.810  18.683  -3.780  1.00 20.00    -0.298 OA
ENDROOT
BRANCH   6   8
HETATM    8  C2  UNL     1     -35.063  13.416  -4.129  1.00 20.00     0.235 C 
HETATM    9  O9  UNL     1     -34.789  12.497  -4.893  1.00 20.00    -0.306 OA
ENDBRANCH   6   8
TORSDOF 1
ENDMDL
MODEL 5
REMARK VINA RESULT:      -4.1     11.478     12.639
REMARK  1 active torsions:
REMARK  status: ('A' for Active; 'I' for Inactive)
REMARK    1  A    between atoms: C2_2  and  C7_7 
ROOT
HETATM    1  C1  UNL     1     -34.607  13.505  -4.216  1.00 20.00     0.127 C 
HETATM    2  C3  UNL     1     -35.748  14.403  -3.794  1.00 20.00     0.079 C 
HETATM    3  C4  UNL     1     -33.249  13.814  -3.624  1.00 20.00     0.079 C 
HETATM    4  C5  UNL     1     -35.363  15.868  -3.948  1.00 20.00     0.019 C 
HETATM    5  C6  UNL     1     -32.918  15.292  -3.784  1.00 20.00     0.019 C 
HETATM    6  C7  UNL     1     -34.041  16.182  -3.246  1.00 20.00     0.048 C 
HETATM    7  O8  UNL     1     -34.793  12.513  -4.918  1.00 20.00    -0.298 OA
ENDROOT
BRANCH   6   8
HETATM    8  C2  UNL     1     -33.696  17.623  -3.464  1.00 20.00     0.235 C 
HETATM    9  O9  UNL     1     -33.483  18.108  -4.570  1.00 20.00    -0.306 OA
ENDBRANCH   6   8
TORSDOF 1
ENDMDL
MODEL 6
REMARK VINA RESULT:      -4.1     11.991     12.257
REMARK  1 active torsions:
REMARK  status: ('A' for Active; 'I' for Inactive)
REMARK    1  A    between atoms: C2_2  and  C7_7 
ROOT
HETATM    1  C1  UNL     1     -34.727  16.244  -1.869  1.00 20.00     0.127 C 
HETATM    2  C3  UNL     1     -36.021  16.074  -2.631  1.00 20.00     0.079 C 
HETATM    3  C4  UNL     1     -33.453  16.203  -2.684  1.00 20.00     0.079 C 
HETATM    4  C5  UNL     1     -35.951  14.857  -3.545  1.00 20.00     0.019 C 
HETATM    5  C6  UNL     1     -33.437  14.982  -3.594  1.00 20.00     0.019 C 
HETATM    6  C7  UNL     1     -34.710  14.893  -4.438  1.00 20.00     0.048 C 
HETATM    7  O8  UNL     1     -34.715  16.509  -0.669  1.00 20.00    -0.298 OA
ENDROOT
BRANCH   6   8
HETATM    8  C2  UNL     1     -34.675  13.656  -5.283  1.00 20.00     0.235 C 
HETATM    9  O9  UNL     1     -34.838  12.526  -4.835  1.00 20.00    -0.306 OA
ENDBRANCH   6   8
TORSDOF 1
ENDMDL
MODEL 7
REMARK VINA RESULT:      -4.1     11.651     12.559
REMARK  1 active torsions:
REMARK  status: ('A' for Active; 'I' for Inactive)
REMARK    1  A    between atoms: C2_2  and  C7_7 
ROOT
HETATM    1  C1  UNL     1     -33.223  14.991  -3.590  1.00 20.00     0.127 C 
HETATM    2  C3  UNL     1     -33.871  13.657  -3.881  1.00 20.00     0.079 C 
HETATM    3  C4  UNL     1     -34.020  15.961  -2.748  1.00 20.00     0.079 C 
HETATM    4  C5  UNL     1     -35.290  13.851  -4.400  1.00 20.00     0.019 C 
HETATM    5  C6  UNL     1     -35.435  16.107  -3.292  1.00 20.00     0.019 C 
HETATM    6  C7  UNL     1     -36.112  14.747  -3.472  1.00 20.00     0.048 C 
HETATM    7  O8  UNL     1     -32.066  15.233  -3.930  1.00 20.00    -0.298 OA
ENDROOT
BRANCH   6   8
HETATM    8  C2  UNL     1     -37.481  14.933  -4.052  1.00 20.00     0.235 C 
HETATM    9  O9  UNL     1     -38.428  14.197  -3.800  1.00 20.00    -0.306 OA
ENDBRANCH   6   8
TORSDOF 1
ENDMDL
MODEL 8
REMARK VINA RESULT:      -4.0     11.747     12.260
REMARK  1 active torsions:
REMARK  status: ('A' for Active; 'I' for Inactive)
REMARK    1  A    between atoms: C2_2  and  C7_7 
ROOT
HETATM    1  C1  UNL     1     -34.942  13.670  -4.379  1.00 20.00     0.127 C 
HETATM    2  C3  UNL     1     -33.651  14.390  -4.065  1.00 20.00     0.079 C 
HETATM    3  C4  UNL     1     -36.198  14.514  -4.405  1.00 20.00     0.079 C 
HETATM    4  C5  UNL     1     -33.804  15.247  -2.815  1.00 20.00     0.019 C 
HETATM    5  C6  UNL     1     -36.297  15.366  -3.146  1.00 20.00     0.019 C 
HETATM    6  C7  UNL     1     -35.018  16.172  -2.910  1.00 20.00     0.048 C 
HETATM    7  O8  UNL     1     -34.957  12.484  -4.702  1.00 20.00    -0.298 OA
ENDROOT
BRANCH   6   8
HETATM    8  C2  UNL     1     -35.139  16.959  -1.641  1.00 20.00     0.235 C 
HETATM    9  O9  UNL     1     -34.649  16.602  -0.575  1.00 20.00    -0.306 OA
ENDBRANCH   6   8
TORSDOF 1
ENDMDL
MODEL 9
REMARK VINA RESULT:      -4.0      0.668      1.812
REMARK  1 active torsions:
REMARK  status: ('A' for Active; 'I' for Inactive)
REMARK    1  A    between atoms: C2_2  and  C7_7 
ROOT
HETATM    1  C1  UNL     1     -34.896   4.977   6.003  1.00 20.00     0.127 C 
HETATM    2  C3  UNL     1     -33.703   5.844   6.337  1.00 20.00     0.079 C 
HETATM    3  C4  UNL     1     -34.891   4.315   4.643  1.00 20.00     0.079 C 
HETATM    4  C5  UNL     1     -33.423   6.829   5.210  1.00 20.00     0.019 C 
HETATM    5  C6  UNL     1     -34.588   5.334   3.552  1.00 20.00     0.019 C 
HETATM    6  C7  UNL     1     -33.313   6.123   3.857  1.00 20.00     0.048 C 
HETATM    7  O8  UNL     1     -35.770   4.735   6.833  1.00 20.00    -0.298 OA
ENDROOT
BRANCH   6   8
HETATM    8  C2  UNL     1     -33.077   7.144   2.786  1.00 20.00     0.235 C 
HETATM    9  O9  UNL     1     -31.996   7.691   2.599  1.00 20.00    -0.306 OA
ENDBRANCH   6   8
TORSDOF 1
ENDMDL
