MODEL 1
REMARK VINA RESULT:      -4.9      0.000      0.000
REMARK  5 active torsions:
REMARK  status: ('A' for Active; 'I' for Inactive)
REMARK    1  A    between atoms: C2_2  and  C3_3 
REMARK    2  A    between atoms: C3_3  and  C4_4 
REMARK    3  A    between atoms: C4_4  and  C5_5 
REMARK    4  A    between atoms: C5_5  and  C6_6 
REMARK    5  A    between atoms: C6_6  and  C7_7 
ROOT
HETATM    1  C1  UNL     1     -32.056   8.097   2.203  1.00 20.00     0.059 C 
HETATM    2  C2  UNL     1     -32.134   7.261   3.409  1.00 20.00     0.124 C 
HETATM    3  N8  UNL     1     -31.994   8.759   1.252  1.00 20.00    -0.197 NA
ENDROOT
BRANCH   2   4
HETATM    4  C3  UNL     1     -32.332   5.782   3.076  1.00 20.00     0.014 C 
BRANCH   4   5
HETATM    5  C4  UNL     1     -33.789   5.434   2.754  1.00 20.00     0.001 C 
BRANCH   5   6
HETATM    6  C5  UNL     1     -34.730   5.896   3.870  1.00 20.00     0.001 C 
BRANCH   6   7
HETATM    7  C6  UNL     1     -35.114   4.732   4.788  1.00 20.00     0.015 C 
BRANCH   7   8
HETATM    8  C7  UNL     1     -34.727   4.960   6.246  1.00 20.00     0.114 C 
HETATM    9 CL9  UNL     1     -34.025   6.573   6.506  1.00 20.00    -0.130 Cl
ENDBRANCH   7   8
ENDBRANCH   6   7
ENDBRANCH   5   6
ENDBRANCH   4   5
ENDBRANCH   2   4
TORSDOF 5
ENDMDL
MODEL 2
REMARK VINA RESULT:      -4.7      2.736      4.256
REMARK  5 active torsions:
REMARK  status: ('A' for Active; 'I' for Inactive)
REMARK    1  A    between atoms: C2_2  and  C3_3 
REMARK    2  A    between atoms: C3_3  and  C4_4 
REMARK    3  A    between atoms: C4_4  and  C5_5 
REMARK    4  A    between atoms: C5_5  and  C6_6 
REMARK    5  A    between atoms: C6_6  and  C7_7 
ROOT
HETATM    1  C1  UNL     1     -34.256   5.999   6.392  1.00 20.00     0.059 C 
HETATM    2  C2  UNL     1     -34.877   4.716   6.033  1.00 20.00     0.124 C 
HETATM    3  N8  UNL     1     -33.766   7.012   6.678  1.00 20.00    -0.197 NA
ENDROOT
BRANCH   2   4
HETATM    4  C3  UNL     1     -35.258   4.652   4.554  1.00 20.00     0.014 C 
BRANCH   4   5
HETATM    5  C4  UNL     1     -34.747   5.855   3.754  1.00 20.00     0.001 C 
BRANCH   5   6
HETATM    6  C5  UNL     1     -33.701   5.430   2.720  1.00 20.00     0.001 C 
BRANCH   6   7
HETATM    7  C6  UNL     1     -32.301   5.903   3.123  1.00 20.00     0.015 C 
BRANCH   7   8
HETATM    8  C7  UNL     1     -32.200   7.416   3.289  1.00 20.00     0.114 C 
HETATM    9 CL9  UNL     1     -31.984   8.247   1.732  1.00 20.00    -0.130 Cl
ENDBRANCH   7   8
ENDBRANCH   6   7
ENDBRANCH   5   6
ENDBRANCH   4   5
ENDBRANCH   2   4
TORSDOF 5
ENDMDL
MODEL 3
REMARK VINA RESULT:      -4.7      3.272      4.889
REMARK  5 active torsions:
REMARK  status: ('A' for Active; 'I' for Inactive)
REMARK    1  A    between atoms: C2_2  and  C3_3 
REMARK    2  A    between atoms: C3_3  and  C4_4 
REMARK    3  A    between atoms: C4_4  and  C5_5 
REMARK    4  A    between atoms: C5_5  and  C6_6 
REMARK    5  A    between atoms: C6_6  and  C7_7 
ROOT
HETATM    1  C1  UNL     1     -34.869   4.497   5.692  1.00 20.00     0.059 C 
HETATM    2  C2  UNL     1     -34.493   5.757   6.347  1.00 20.00     0.124 C 
HETATM    3  N8  UNL     1     -35.167   3.500   5.177  1.00 20.00    -0.197 NA
ENDROOT
BRANCH   2   4
HETATM    4  C3  UNL     1     -33.646   6.650   5.440  1.00 20.00     0.014 C 
BRANCH   4   5
HETATM    5  C4  UNL     1     -33.972   6.470   3.953  1.00 20.00     0.001 C 
BRANCH   5   6
HETATM    6  C5  UNL     1     -32.698   6.298   3.123  1.00 20.00     0.001 C 
BRANCH   6   7
HETATM    7  C6  UNL     1     -31.896   7.601   3.064  1.00 20.00     0.015 C 
BRANCH   7   8
HETATM    8  C7  UNL     1     -31.906   8.254   1.686  1.00 20.00     0.114 C 
HETATM    9 CL9  UNL     1     -32.613   9.885   1.724  1.00 20.00    -0.130 Cl
ENDBRANCH   7   8
ENDBRANCH   6   7
ENDBRANCH   5   6
ENDBRANCH   4   5
ENDBRANCH   2   4
TORSDOF 5
ENDMDL
MODEL 4
REMARK VINA RESULT:      -4.3      1.177      1.241
REMARK  5 active torsions:
REMARK  status: ('A' for Active; 'I' for Inactive)
REMARK    1  A    between atoms: C2_2  and  C3_3 
REMARK    2  A    between atoms: C3_3  and  C4_4 
REMARK    3  A    between atoms: C4_4  and  C5_5 
REMARK    4  A    between atoms: C5_5  and  C6_6 
REMARK    5  A    between atoms: C6_6  and  C7_7 
ROOT
HETATM    1  C1  UNL     1     -31.935   8.297   1.914  1.00 20.00     0.059 C 
HETATM    2  C2  UNL     1     -31.706   7.648   3.212  1.00 20.00     0.124 C 
HETATM    3  N8  UNL     1     -32.116   8.813   0.890  1.00 20.00    -0.197 NA
ENDROOT
BRANCH   2   4
HETATM    4  C3  UNL     1     -32.135   6.180   3.208  1.00 20.00     0.014 C 
BRANCH   4   5
HETATM    5  C4  UNL     1     -33.581   5.985   2.739  1.00 20.00     0.001 C 
BRANCH   5   6
HETATM    6  C5  UNL     1     -34.498   5.611   3.908  1.00 20.00     0.001 C 
BRANCH   6   7
HETATM    7  C6  UNL     1     -34.066   6.314   5.197  1.00 20.00     0.015 C 
BRANCH   7   8
HETATM    8  C7  UNL     1     -34.504   5.581   6.461  1.00 20.00     0.114 C 
HETATM    9 CL9  UNL     1     -35.188   3.979   6.100  1.00 20.00    -0.130 Cl
ENDBRANCH   7   8
ENDBRANCH   6   7
ENDBRANCH   5   6
ENDBRANCH   4   5
ENDBRANCH   2   4
TORSDOF 5
ENDMDL
MODEL 5
REMARK VINA RESULT:      -3.9     11.126     11.896
REMARK  5 active torsions:
REMARK  status: ('A' for Active; 'I' for Inactive)
REMARK    1  A    between atoms: C2_2  and  C3_3 
REMARK    2  A    between atoms: C3_3  and  C4_4 
REMARK    3  A    between atoms: C4_4  and  C5_5 
REMARK    4  A    between atoms: C5_5  and  C6_6 
REMARK    5  A    between atoms: C6_6  and  C7_7 
ROOT
HETATM    1  C1  UNL     1     -34.119  13.678  -4.005  1.00 20.00     0.059 C 
HETATM    2  C2  UNL     1     -33.149  14.710  -3.614  1.00 20.00     0.124 C 
HETATM    3  N8  UNL     1     -34.883  12.861  -4.314  1.00 20.00    -0.197 NA
ENDROOT
BRANCH   2   4
HETATM    4  C3  UNL     1     -33.829  16.017  -3.204  1.00 20.00     0.014 C 
BRANCH   4   5
HETATM    5  C4  UNL     1     -34.938  15.812  -2.167  1.00 20.00     0.001 C 
BRANCH   5   6
HETATM    6  C5  UNL     1     -34.651  16.595  -0.884  1.00 20.00     0.001 C 
BRANCH   6   7
HETATM    7  C6  UNL     1     -33.517  17.604  -1.093  1.00 20.00     0.015 C 
BRANCH   7   8
HETATM    8  C7  UNL     1     -33.380  18.603   0.051  1.00 20.00     0.114 C 
HETATM    9 CL9  UNL     1     -31.685  18.844   0.529  1.00 20.00    -0.130 Cl
ENDBRANCH   7   8
ENDBRANCH   6   7
ENDBRANCH   5   6
ENDBRANCH   4   5
ENDBRANCH   2   4
TORSDOF 5
ENDMDL
MODEL 6
REMARK VINA RESULT:      -3.9      1.303      1.619
REMARK  5 active torsions:
REMARK  status: ('A' for Active; 'I' for Inactive)
REMARK    1  A    between atoms: C2_2  and  C3_3 
REMARK    2  A    between atoms: C3_3  and  C4_4 
REMARK    3  A    between atoms: C4_4  and  C5_5 
REMARK    4  A    between atoms: C5_5  and  C6_6 
REMARK    5  A    between atoms: C6_6  and  C7_7 
ROOT
HETATM    1  C1  UNL     1     -31.928   7.377   3.458  1.00 20.00     0.059 C 
HETATM    2  C2  UNL     1     -33.116   6.931   2.718  1.00 20.00     0.124 C 
HETATM    3  N8  UNL     1     -30.989   7.731   4.042  1.00 20.00    -0.197 NA
ENDROOT
BRANCH   2   4
HETATM    4  C3  UNL     1     -33.564   5.529   3.132  1.00 20.00     0.014 C 
BRANCH   4   5
HETATM    5  C4  UNL     1     -34.999   5.496   3.668  1.00 20.00     0.001 C 
BRANCH   5   6
HETATM    6  C5  UNL     1     -35.225   4.284   4.575  1.00 20.00     0.001 C 
BRANCH   6   7
HETATM    7  C6  UNL     1     -34.433   4.414   5.879  1.00 20.00     0.015 C 
BRANCH   7   8
HETATM    8  C7  UNL     1     -34.769   5.676   6.667  1.00 20.00     0.114 C 
HETATM    9 CL9  UNL     1     -33.465   6.883   6.584  1.00 20.00    -0.130 Cl
ENDBRANCH   7   8
ENDBRANCH   6   7
ENDBRANCH   5   6
ENDBRANCH   4   5
ENDBRANCH   2   4
TORSDOF 5
ENDMDL
MODEL 7
REMARK VINA RESULT:      -3.7     11.507     12.476
REMARK  5 active torsions:
REMARK  status: ('A' for Active; 'I' for Inactive)
REMARK    1  A    between atoms: C2_2  and  C3_3 
REMARK    2  A    between atoms: C3_3  and  C4_4 
REMARK    3  A    between atoms: C4_4  and  C5_5 
REMARK    4  A    between atoms: C5_5  and  C6_6 
REMARK    5  A    between atoms: C6_6  and  C7_7 
ROOT
HETATM    1  C1  UNL     1     -34.862  13.598  -5.324  1.00 20.00     0.059 C 
HETATM    2  C2  UNL     1     -34.776  14.506  -6.477  1.00 20.00     0.124 C 
HETATM    3  N8  UNL     1     -34.930  12.879  -4.416  1.00 20.00    -0.197 NA
ENDROOT
BRANCH   2   4
HETATM    4  C3  UNL     1     -34.644  15.969  -6.052  1.00 20.00     0.014 C 
BRANCH   4   5
HETATM    5  C4  UNL     1     -33.344  16.253  -5.291  1.00 20.00     0.001 C 
BRANCH   5   6
HETATM    6  C5  UNL     1     -33.620  16.984  -3.974  1.00 20.00     0.001 C 
BRANCH   6   7
HETATM    7  C6  UNL     1     -33.664  16.005  -2.797  1.00 20.00     0.015 C 
BRANCH   7   8
HETATM    8  C7  UNL     1     -34.950  16.100  -1.982  1.00 20.00     0.114 C 
HETATM    9 CL9  UNL     1     -34.670  16.807  -0.374  1.00 20.00    -0.130 Cl
ENDBRANCH   7   8
ENDBRANCH   6   7
ENDBRANCH   5   6
ENDBRANCH   4   5
ENDBRANCH   2   4
TORSDOF 5
ENDMDL
MODEL 8
REMARK VINA RESULT:      -3.7     11.075     11.710
REMARK  5 active torsions:
REMARK  status: ('A' for Active; 'I' for Inactive)
REMARK    1  A    between atoms: C2_2  and  C3_3 
REMARK    2  A    between atoms: C3_3  and  C4_4 
REMARK    3  A    between atoms: C4_4  and  C5_5 
REMARK    4  A    between atoms: C5_5  and  C6_6 
REMARK    5  A    between atoms: C6_6  and  C7_7 
ROOT
HETATM    1  C1  UNL     1     -34.279  13.660  -4.119  1.00 20.00     0.059 C 
HETATM    2  C2  UNL     1     -33.528  14.823  -3.627  1.00 20.00     0.124 C 
HETATM    3  N8  UNL     1     -34.870  12.741  -4.510  1.00 20.00    -0.197 NA
ENDROOT
BRANCH   2   4
HETATM    4  C3  UNL     1     -34.328  15.642  -2.614  1.00 20.00     0.014 C 
BRANCH   4   5
HETATM    5  C4  UNL     1     -33.832  17.087  -2.492  1.00 20.00     0.001 C 
BRANCH   5   6
HETATM    6  C5  UNL     1     -33.660  17.493  -1.026  1.00 20.00     0.001 C 
BRANCH   6   7
HETATM    7  C6  UNL     1     -34.853  17.035  -0.181  1.00 20.00     0.015 C 
BRANCH   7   8
HETATM    8  C7  UNL     1     -35.001  17.811   1.123  1.00 20.00     0.114 C 
HETATM    9 CL9  UNL     1     -33.477  18.578   1.622  1.00 20.00    -0.130 Cl
ENDBRANCH   7   8
ENDBRANCH   6   7
ENDBRANCH   5   6
ENDBRANCH   4   5
ENDBRANCH   2   4
TORSDOF 5
ENDMDL
MODEL 9
REMARK VINA RESULT:      -3.7     11.375     12.232
REMARK  5 active torsions:
REMARK  status: ('A' for Active; 'I' for Inactive)
REMARK    1  A    between atoms: C2_2  and  C3_3 
REMARK    2  A    between atoms: C3_3  and  C4_4 
REMARK    3  A    between atoms: C4_4  and  C5_5 
REMARK    4  A    between atoms: C5_5  and  C6_6 
REMARK    5  A    between atoms: C6_6  and  C7_7 
ROOT
HETATM    1  C1  UNL     1     -37.153  15.185  -3.522  1.00 20.00     0.059 C 
HETATM    2  C2  UNL     1     -36.177  16.252  -3.260  1.00 20.00     0.124 C 
HETATM    3  N8  UNL     1     -37.925  14.344  -3.730  1.00 20.00    -0.197 NA
ENDROOT
BRANCH   2   4
HETATM    4  C3  UNL     1     -35.088  15.813  -2.281  1.00 20.00     0.014 C 
BRANCH   4   5
HETATM    5  C4  UNL     1     -33.676  16.165  -2.764  1.00 20.00     0.001 C 
BRANCH   5   6
HETATM    6  C5  UNL     1     -33.280  15.323  -3.980  1.00 20.00     0.001 C 
BRANCH   6   7
HETATM    7  C6  UNL     1     -33.555  13.836  -3.738  1.00 20.00     0.015 C 
BRANCH   7   8
HETATM    8  C7  UNL     1     -34.386  13.188  -4.840  1.00 20.00     0.114 C 
HETATM    9 CL9  UNL     1     -34.778  14.334  -6.142  1.00 20.00    -0.130 Cl
ENDBRANCH   7   8
ENDBRANCH   6   7
ENDBRANCH   5   6
ENDBRANCH   4   5
ENDBRANCH   2   4
TORSDOF 5
ENDMDL
