MODEL 1
REMARK VINA RESULT:      -4.4      0.000      0.000
REMARK  3 active torsions:
REMARK  status: ('A' for Active; 'I' for Inactive)
REMARK    1  A    between atoms: C1_1  and  C7_7 
REMARK    2  A    between atoms: C5_5  and  C6_6 
REMARK    3  A    between atoms: C6_6  and  C7_7 
ROOT
HETATM    1  C3  UNL     1     -33.465  15.942  -4.939  1.00 20.00     0.024 C 
HETATM    2  C4  UNL     1     -32.599  14.136  -3.468  1.00 20.00     0.024 C 
HETATM    3  C7  UNL     1     -33.889  14.798  -3.997  1.00 20.00     0.029 C 
ENDROOT
BRANCH   3   4
HETATM    4  C1  UNL     1     -34.702  13.755  -4.800  1.00 20.00     0.226 C 
HETATM    5  O8  UNL     1     -35.021  12.671  -4.317  1.00 20.00    -0.279 OA
HETATM    6 CL9  UNL     1     -35.111  14.254  -6.425  1.00 20.00    -0.043 Cl
ENDBRANCH   3   4
BRANCH   3   7
HETATM    7  C6  UNL     1     -34.710  15.384  -2.820  1.00 20.00     0.017 C 
BRANCH   7   8
HETATM    8  C5  UNL     1     -34.029  16.535  -2.068  1.00 20.00    -0.003 C 
HETATM    9  C2  UNL     1     -34.620  16.709  -0.676  1.00 20.00     0.005 C 
ENDBRANCH   7   8
ENDBRANCH   3   7
TORSDOF 3
ENDMDL
MODEL 2
REMARK VINA RESULT:      -4.4     11.775     12.399
REMARK  3 active torsions:
REMARK  status: ('A' for Active; 'I' for Inactive)
REMARK    1  A    between atoms: C1_1  and  C7_7 
REMARK    2  A    between atoms: C5_5  and  C6_6 
REMARK    3  A    between atoms: C6_6  and  C7_7 
ROOT
HETATM    1  C3  UNL     1     -35.987   6.107   3.352  1.00 20.00     0.024 C 
HETATM    2  C4  UNL     1     -34.048   4.727   2.636  1.00 20.00     0.024 C 
HETATM    3  C7  UNL     1     -34.602   5.591   3.789  1.00 20.00     0.029 C 
ENDROOT
BRANCH   3   4
HETATM    4  C1  UNL     1     -34.765   4.710   5.050  1.00 20.00     0.226 C 
HETATM    5  O8  UNL     1     -35.087   3.527   4.978  1.00 20.00    -0.279 OA
HETATM    6 CL9  UNL     1     -34.456   5.542   6.557  1.00 20.00    -0.043 Cl
ENDBRANCH   3   4
BRANCH   3   7
HETATM    7  C6  UNL     1     -33.666   6.800   4.049  1.00 20.00     0.017 C 
BRANCH   7   8
HETATM    8  C5  UNL     1     -32.301   6.719   3.354  1.00 20.00    -0.003 C 
HETATM    9  C2  UNL     1     -32.100   7.886   2.398  1.00 20.00     0.005 C 
ENDBRANCH   7   8
ENDBRANCH   3   7
TORSDOF 3
ENDMDL
MODEL 3
REMARK VINA RESULT:      -4.2      1.674      2.156
REMARK  3 active torsions:
REMARK  status: ('A' for Active; 'I' for Inactive)
REMARK    1  A    between atoms: C1_1  and  C7_7 
REMARK    2  A    between atoms: C5_5  and  C6_6 
REMARK    3  A    between atoms: C6_6  and  C7_7 
ROOT
HETATM    1  C3  UNL     1     -36.336  15.143  -3.404  1.00 20.00     0.024 C 
HETATM    2  C4  UNL     1     -34.796  15.788  -5.244  1.00 20.00     0.024 C 
HETATM    3  C7  UNL     1     -34.858  15.147  -3.841  1.00 20.00     0.029 C 
ENDROOT
BRANCH   3   4
HETATM    4  C1  UNL     1     -34.351  13.688  -3.926  1.00 20.00     0.226 C 
HETATM    5  O8  UNL     1     -35.076  12.770  -4.302  1.00 20.00    -0.279 OA
HETATM    6 CL9  UNL     1     -32.684  13.474  -3.445  1.00 20.00    -0.043 Cl
ENDBRANCH   3   4
BRANCH   3   7
HETATM    7  C6  UNL     1     -34.030  15.986  -2.833  1.00 20.00     0.017 C 
BRANCH   7   8
HETATM    8  C5  UNL     1     -34.727  16.256  -1.493  1.00 20.00    -0.003 C 
HETATM    9  C2  UNL     1     -34.022  17.361  -0.719  1.00 20.00     0.005 C 
ENDBRANCH   7   8
ENDBRANCH   3   7
TORSDOF 3
ENDMDL
MODEL 4
REMARK VINA RESULT:      -4.0      2.044      3.665
REMARK  3 active torsions:
REMARK  status: ('A' for Active; 'I' for Inactive)
REMARK    1  A    between atoms: C1_1  and  C7_7 
REMARK    2  A    between atoms: C5_5  and  C6_6 
REMARK    3  A    between atoms: C6_6  and  C7_7 
ROOT
HETATM    1  C3  UNL     1     -34.892  15.686  -2.769  1.00 20.00     0.024 C 
HETATM    2  C4  UNL     1     -36.812  14.624  -3.937  1.00 20.00     0.024 C 
HETATM    3  C7  UNL     1     -35.298  14.910  -4.038  1.00 20.00     0.029 C 
ENDROOT
BRANCH   3   4
HETATM    4  C1  UNL     1     -34.530  13.567  -4.078  1.00 20.00     0.226 C 
HETATM    5  O8  UNL     1     -35.068  12.523  -4.439  1.00 20.00    -0.279 OA
HETATM    6 CL9  UNL     1     -32.862  13.674  -3.568  1.00 20.00    -0.043 Cl
ENDBRANCH   3   4
BRANCH   3   7
HETATM    7  C6  UNL     1     -35.001  15.780  -5.286  1.00 20.00     0.017 C 
BRANCH   7   8
HETATM    8  C5  UNL     1     -34.416  15.015  -6.481  1.00 20.00    -0.003 C 
HETATM    9  C2  UNL     1     -35.498  14.663  -7.492  1.00 20.00     0.005 C 
ENDBRANCH   7   8
ENDBRANCH   3   7
TORSDOF 3
ENDMDL
MODEL 5
REMARK VINA RESULT:      -4.0      0.988      1.381
REMARK  3 active torsions:
REMARK  status: ('A' for Active; 'I' for Inactive)
REMARK    1  A    between atoms: C1_1  and  C7_7 
REMARK    2  A    between atoms: C5_5  and  C6_6 
REMARK    3  A    between atoms: C6_6  and  C7_7 
ROOT
HETATM    1  C3  UNL     1     -36.017  16.047  -4.737  1.00 20.00     0.024 C 
HETATM    2  C4  UNL     1     -33.580  16.058  -5.225  1.00 20.00     0.024 C 
HETATM    3  C7  UNL     1     -34.715  15.238  -4.575  1.00 20.00     0.029 C 
ENDROOT
BRANCH   3   4
HETATM    4  C1  UNL     1     -34.860  13.891  -5.322  1.00 20.00     0.226 C 
HETATM    5  O8  UNL     1     -34.703  12.813  -4.753  1.00 20.00    -0.279 OA
HETATM    6 CL9  UNL     1     -35.256  14.045  -7.018  1.00 20.00    -0.043 Cl
ENDBRANCH   3   4
BRANCH   3   7
HETATM    7  C6  UNL     1     -34.428  15.030  -3.066  1.00 20.00     0.017 C 
BRANCH   7   8
HETATM    8  C5  UNL     1     -33.882  16.264  -2.337  1.00 20.00    -0.003 C 
HETATM    9  C2  UNL     1     -34.640  16.518  -1.041  1.00 20.00     0.005 C 
ENDBRANCH   7   8
ENDBRANCH   3   7
TORSDOF 3
ENDMDL
MODEL 6
REMARK VINA RESULT:      -4.0      1.601      3.252
REMARK  3 active torsions:
REMARK  status: ('A' for Active; 'I' for Inactive)
REMARK    1  A    between atoms: C1_1  and  C7_7 
REMARK    2  A    between atoms: C5_5  and  C6_6 
REMARK    3  A    between atoms: C6_6  and  C7_7 
ROOT
HETATM    1  C3  UNL     1     -32.906  14.090  -3.621  1.00 20.00     0.024 C 
HETATM    2  C4  UNL     1     -34.560  15.643  -2.608  1.00 20.00     0.024 C 
HETATM    3  C7  UNL     1     -34.232  14.832  -3.880  1.00 20.00     0.029 C 
ENDROOT
BRANCH   3   4
HETATM    4  C1  UNL     1     -35.354  13.795  -4.123  1.00 20.00     0.226 C 
HETATM    5  O8  UNL     1     -35.107  12.612  -4.347  1.00 20.00    -0.279 OA
HETATM    6 CL9  UNL     1     -36.972  14.452  -4.052  1.00 20.00    -0.043 Cl
ENDBRANCH   3   4
BRANCH   3   7
HETATM    7  C6  UNL     1     -34.057  15.784  -5.091  1.00 20.00     0.017 C 
BRANCH   7   8
HETATM    8  C5  UNL     1     -34.269  15.128  -6.462  1.00 20.00    -0.003 C 
HETATM    9  C2  UNL     1     -35.099  16.020  -7.375  1.00 20.00     0.005 C 
ENDBRANCH   7   8
ENDBRANCH   3   7
TORSDOF 3
ENDMDL
MODEL 7
REMARK VINA RESULT:      -4.0      1.612      1.950
REMARK  3 active torsions:
REMARK  status: ('A' for Active; 'I' for Inactive)
REMARK    1  A    between atoms: C1_1  and  C7_7 
REMARK    2  A    between atoms: C5_5  and  C6_6 
REMARK    3  A    between atoms: C6_6  and  C7_7 
ROOT
HETATM    1  C3  UNL     1     -32.666  14.748  -3.552  1.00 20.00     0.024 C 
HETATM    2  C4  UNL     1     -34.708  13.413  -4.024  1.00 20.00     0.024 C 
HETATM    3  C7  UNL     1     -34.162  14.852  -3.910  1.00 20.00     0.029 C 
ENDROOT
BRANCH   3   4
HETATM    4  C1  UNL     1     -34.308  15.560  -5.277  1.00 20.00     0.226 C 
HETATM    5  O8  UNL     1     -35.022  15.108  -6.169  1.00 20.00    -0.279 OA
HETATM    6 CL9  UNL     1     -33.376  17.031  -5.431  1.00 20.00    -0.043 Cl
ENDBRANCH   3   4
BRANCH   3   7
HETATM    7  C6  UNL     1     -34.904  15.617  -2.784  1.00 20.00     0.017 C 
BRANCH   7   8
HETATM    8  C5  UNL     1     -34.011  16.514  -1.917  1.00 20.00    -0.003 C 
HETATM    9  C2  UNL     1     -34.654  16.787  -0.564  1.00 20.00     0.005 C 
ENDBRANCH   7   8
ENDBRANCH   3   7
TORSDOF 3
ENDMDL
MODEL 8
REMARK VINA RESULT:      -3.9     11.647     12.296
REMARK  3 active torsions:
REMARK  status: ('A' for Active; 'I' for Inactive)
REMARK    1  A    between atoms: C1_1  and  C7_7 
REMARK    2  A    between atoms: C5_5  and  C6_6 
REMARK    3  A    between atoms: C6_6  and  C7_7 
ROOT
HETATM    1  C3  UNL     1     -35.921   5.987   3.529  1.00 20.00     0.024 C 
HETATM    2  C4  UNL     1     -33.828   4.696   3.174  1.00 20.00     0.024 C 
HETATM    3  C7  UNL     1     -34.454   5.852   3.982  1.00 20.00     0.029 C 
ENDROOT
BRANCH   3   4
HETATM    4  C1  UNL     1     -34.420   5.495   5.487  1.00 20.00     0.226 C 
HETATM    5  O8  UNL     1     -34.070   6.309   6.339  1.00 20.00    -0.279 OA
HETATM    6 CL9  UNL     1     -34.913   3.858   5.853  1.00 20.00    -0.043 Cl
ENDBRANCH   3   4
BRANCH   3   7
HETATM    7  C6  UNL     1     -33.705   7.178   3.689  1.00 20.00     0.017 C 
BRANCH   7   8
HETATM    8  C5  UNL     1     -32.339   7.010   3.011  1.00 20.00    -0.003 C 
HETATM    9  C2  UNL     1     -32.046   8.169   2.068  1.00 20.00     0.005 C 
ENDBRANCH   7   8
ENDBRANCH   3   7
TORSDOF 3
ENDMDL
MODEL 9
REMARK VINA RESULT:      -3.9      1.675      1.905
REMARK  3 active torsions:
REMARK  status: ('A' for Active; 'I' for Inactive)
REMARK    1  A    between atoms: C1_1  and  C7_7 
REMARK    2  A    between atoms: C5_5  and  C6_6 
REMARK    3  A    between atoms: C6_6  and  C7_7 
ROOT
HETATM    1  C3  UNL     1     -34.318  15.637  -5.375  1.00 20.00     0.024 C 
HETATM    2  C4  UNL     1     -34.702  13.222  -4.931  1.00 20.00     0.024 C 
HETATM    3  C7  UNL     1     -34.964  14.644  -4.390  1.00 20.00     0.029 C 
ENDROOT
BRANCH   3   4
HETATM    4  C1  UNL     1     -36.490  14.895  -4.345  1.00 20.00     0.226 C 
HETATM    5  O8  UNL     1     -37.262  14.109  -3.799  1.00 20.00    -0.279 OA
HETATM    6 CL9  UNL     1     -37.002  16.371  -5.130  1.00 20.00    -0.043 Cl
ENDBRANCH   3   4
BRANCH   3   7
HETATM    7  C6  UNL     1     -34.313  14.813  -2.993  1.00 20.00     0.017 C 
BRANCH   7   8
HETATM    8  C5  UNL     1     -34.089  16.267  -2.557  1.00 20.00    -0.003 C 
HETATM    9  C2  UNL     1     -34.614  16.506  -1.148  1.00 20.00     0.005 C 
ENDBRANCH   7   8
ENDBRANCH   3   7
TORSDOF 3
ENDMDL
