MODEL 1
REMARK VINA RESULT:      -4.7      0.000      0.000
REMARK  0 active torsions:
REMARK  status: ('A' for Active; 'I' for Inactive)
ROOT
HETATM    1  C1  UNL     1     -33.830  17.729  -3.135  1.00 20.00     0.031 A 
HETATM    2  C2  UNL     1     -34.582  15.535  -2.408  1.00 20.00     0.043 A 
HETATM    3  C3  UNL     1     -34.317  16.036  -4.747  1.00 20.00     0.033 A 
HETATM    4  C4  UNL     1     -33.903  17.332  -4.471  1.00 20.00    -0.045 A 
HETATM    5  C5  UNL     1     -34.654  15.142  -3.738  1.00 20.00     0.017 A 
HETATM    6  C6  UNL     1     -34.167  16.836  -2.109  1.00 20.00     0.035 A 
HETATM    7  C7  UNL     1     -34.451  15.457  -6.087  1.00 20.00     0.171 A 
HETATM    8  C8  UNL     1     -34.924  14.022  -6.078  1.00 20.00     0.163 A 
HETATM    9  C9  UNL     1     -33.538  18.313  -5.531  1.00 20.00     0.049 C 
HETATM   10  O10 UNL     1     -34.205  16.072  -7.113  1.00 20.00    -0.291 OA
HETATM   11  S11 UNL     1     -35.151  13.557  -4.335  1.00 20.00    -0.121 SA
HETATM   12 CL12 UNL     1     -34.069  17.344  -0.467  1.00 20.00    -0.084 Cl
ENDROOT
TORSDOF 0
ENDMDL
MODEL 2
REMARK VINA RESULT:      -4.7      2.847      3.863
REMARK  0 active torsions:
REMARK  status: ('A' for Active; 'I' for Inactive)
ROOT
HETATM    1  C1  UNL     1     -34.622  16.698  -7.453  1.00 20.00     0.031 A 
HETATM    2  C2  UNL     1     -33.556  17.397  -5.384  1.00 20.00     0.043 A 
HETATM    3  C3  UNL     1     -34.370  15.149  -5.654  1.00 20.00     0.033 A 
HETATM    4  C4  UNL     1     -34.814  15.414  -6.942  1.00 20.00    -0.045 A 
HETATM    5  C5  UNL     1     -33.748  16.119  -4.877  1.00 20.00     0.017 A 
HETATM    6  C6  UNL     1     -33.996  17.684  -6.679  1.00 20.00     0.035 A 
HETATM    7  C7  UNL     1     -34.491  13.861  -4.965  1.00 20.00     0.171 A 
HETATM    8  C8  UNL     1     -33.917  13.870  -3.567  1.00 20.00     0.163 A 
HETATM    9  C9  UNL     1     -35.486  14.396  -7.797  1.00 20.00     0.049 C 
HETATM   10  O10 UNL     1     -35.006  12.874  -5.468  1.00 20.00    -0.291 OA
HETATM   11  S11 UNL     1     -33.273  15.545  -3.276  1.00 20.00    -0.121 SA
HETATM   12 CL12 UNL     1     -33.767  19.263  -7.328  1.00 20.00    -0.084 Cl
ENDROOT
TORSDOF 0
ENDMDL
MODEL 3
REMARK VINA RESULT:      -4.7      1.806      2.774
REMARK  0 active torsions:
REMARK  status: ('A' for Active; 'I' for Inactive)
ROOT
HETATM    1  C1  UNL     1     -34.482  14.969  -2.969  1.00 20.00     0.031 A 
HETATM    2  C2  UNL     1     -34.478  17.369  -3.354  1.00 20.00     0.043 A 
HETATM    3  C3  UNL     1     -34.432  15.823  -5.198  1.00 20.00     0.033 A 
HETATM    4  C4  UNL     1     -34.450  14.729  -4.343  1.00 20.00    -0.045 A 
HETATM    5  C5  UNL     1     -34.446  17.128  -4.721  1.00 20.00     0.017 A 
HETATM    6  C6  UNL     1     -34.496  16.281  -2.477  1.00 20.00     0.035 A 
HETATM    7  C7  UNL     1     -34.398  15.753  -6.661  1.00 20.00     0.171 A 
HETATM    8  C8  UNL     1     -34.385  17.109  -7.329  1.00 20.00     0.163 A 
HETATM    9  C9  UNL     1     -34.433  13.319  -4.824  1.00 20.00     0.049 C 
HETATM   10  O10 UNL     1     -34.382  14.703  -7.285  1.00 20.00    -0.291 OA
HETATM   11  S11 UNL     1     -34.418  18.347  -5.998  1.00 20.00    -0.121 SA
HETATM   12 CL12 UNL     1     -34.536  16.556  -0.777  1.00 20.00    -0.084 Cl
ENDROOT
TORSDOF 0
ENDMDL
MODEL 4
REMARK VINA RESULT:      -4.4      5.189      6.668
REMARK  0 active torsions:
REMARK  status: ('A' for Active; 'I' for Inactive)
ROOT
HETATM    1  C1  UNL     1     -34.009  18.329   3.393  1.00 20.00     0.031 A 
HETATM    2  C2  UNL     1     -35.672  18.162   1.630  1.00 20.00     0.043 A 
HETATM    3  C3  UNL     1     -33.379  18.679   1.117  1.00 20.00     0.033 A 
HETATM    4  C4  UNL     1     -33.017  18.622   2.456  1.00 20.00    -0.045 A 
HETATM    5  C5  UNL     1     -34.684  18.454   0.699  1.00 20.00     0.017 A 
HETATM    6  C6  UNL     1     -35.328  18.101   2.983  1.00 20.00     0.035 A 
HETATM    7  C7  UNL     1     -32.469  18.973   0.006  1.00 20.00     0.171 A 
HETATM    8  C8  UNL     1     -33.147  18.968  -1.345  1.00 20.00     0.163 A 
HETATM    9  C9  UNL     1     -31.627  18.862   2.935  1.00 20.00     0.049 C 
HETATM   10  O10 UNL     1     -31.278  19.202   0.154  1.00 20.00    -0.291 OA
HETATM   11  S11 UNL     1     -34.899  18.582  -1.049  1.00 20.00    -0.121 SA
HETATM   12 CL12 UNL     1     -36.538  17.739   4.155  1.00 20.00    -0.084 Cl
ENDROOT
TORSDOF 0
ENDMDL
MODEL 5
REMARK VINA RESULT:      -4.4      2.099      2.832
REMARK  0 active torsions:
REMARK  status: ('A' for Active; 'I' for Inactive)
ROOT
HETATM    1  C1  UNL     1     -34.555  14.858  -2.964  1.00 20.00     0.031 A 
HETATM    2  C2  UNL     1     -35.577  17.038  -3.298  1.00 20.00     0.043 A 
HETATM    3  C3  UNL     1     -35.447  15.447  -5.099  1.00 20.00     0.033 A 
HETATM    4  C4  UNL     1     -34.810  14.514  -4.293  1.00 20.00    -0.045 A 
HETATM    5  C5  UNL     1     -35.830  16.694  -4.619  1.00 20.00     0.017 A 
HETATM    6  C6  UNL     1     -34.936  16.112  -2.470  1.00 20.00     0.035 A 
HETATM    7  C7  UNL     1     -35.790  15.253  -6.511  1.00 20.00     0.171 A 
HETATM    8  C8  UNL     1     -36.481  16.444  -7.133  1.00 20.00     0.163 A 
HETATM    9  C9  UNL     1     -34.386  13.171  -4.780  1.00 20.00     0.049 C 
HETATM   10  O10 UNL     1     -35.543  14.228  -7.129  1.00 20.00    -0.291 OA
HETATM   11  S11 UNL     1     -36.621  17.706  -5.831  1.00 20.00    -0.121 SA
HETATM   12 CL12 UNL     1     -34.613  16.517  -0.828  1.00 20.00    -0.084 Cl
ENDROOT
TORSDOF 0
ENDMDL
MODEL 6
REMARK VINA RESULT:      -4.4      2.936      4.105
REMARK  0 active torsions:
REMARK  status: ('A' for Active; 'I' for Inactive)
ROOT
HETATM    1  C1  UNL     1     -34.440  14.893  -3.124  1.00 20.00     0.031 A 
HETATM    2  C2  UNL     1     -34.276  15.373  -5.500  1.00 20.00     0.043 A 
HETATM    3  C3  UNL     1     -33.990  17.117  -3.867  1.00 20.00     0.033 A 
HETATM    4  C4  UNL     1     -34.192  16.231  -2.817  1.00 20.00    -0.045 A 
HETATM    5  C5  UNL     1     -34.030  16.704  -5.193  1.00 20.00     0.017 A 
HETATM    6  C6  UNL     1     -34.482  14.466  -4.457  1.00 20.00     0.035 A 
HETATM    7  C7  UNL     1     -33.720  18.550  -3.726  1.00 20.00     0.171 A 
HETATM    8  C8  UNL     1     -33.544  19.263  -5.047  1.00 20.00     0.163 A 
HETATM    9  C9  UNL     1     -34.158  16.645  -1.386  1.00 20.00     0.049 C 
HETATM   10  O10 UNL     1     -33.643  19.118  -2.647  1.00 20.00    -0.291 OA
HETATM   11  S11 UNL     1     -33.746  18.009  -6.348  1.00 20.00    -0.121 SA
HETATM   12 CL12 UNL     1     -34.788  12.810  -4.815  1.00 20.00    -0.084 Cl
ENDROOT
TORSDOF 0
ENDMDL
MODEL 7
REMARK VINA RESULT:      -4.4      6.302      7.886
REMARK  0 active torsions:
REMARK  status: ('A' for Active; 'I' for Inactive)
ROOT
HETATM    1  C1  UNL     1     -35.360  17.995   2.052  1.00 20.00     0.031 A 
HETATM    2  C2  UNL     1     -34.422  18.388   4.259  1.00 20.00     0.043 A 
HETATM    3  C3  UNL     1     -33.066  18.613   2.284  1.00 20.00     0.033 A 
HETATM    4  C4  UNL     1     -34.130  18.279   1.458  1.00 20.00    -0.045 A 
HETATM    5  C5  UNL     1     -33.198  18.670   3.666  1.00 20.00     0.017 A 
HETATM    6  C6  UNL     1     -35.505  18.049   3.444  1.00 20.00     0.035 A 
HETATM    7  C7  UNL     1     -31.710  18.939   1.830  1.00 20.00     0.171 A 
HETATM    8  C8  UNL     1     -30.759  19.263   2.959  1.00 20.00     0.163 A 
HETATM    9  C9  UNL     1     -34.017  18.208  -0.026  1.00 20.00     0.049 C 
HETATM   10  O10 UNL     1     -31.379  18.949   0.655  1.00 20.00    -0.291 OA
HETATM   11  S11 UNL     1     -31.708  19.116   4.502  1.00 20.00    -0.121 SA
HETATM   12 CL12 UNL     1     -37.032  17.696   4.159  1.00 20.00    -0.084 Cl
ENDROOT
TORSDOF 0
ENDMDL
MODEL 8
REMARK VINA RESULT:      -4.3      2.299      2.755
REMARK  0 active torsions:
REMARK  status: ('A' for Active; 'I' for Inactive)
ROOT
HETATM    1  C1  UNL     1     -35.631  17.797  -2.421  1.00 20.00     0.031 A 
HETATM    2  C2  UNL     1     -33.568  16.546  -2.710  1.00 20.00     0.043 A 
HETATM    3  C3  UNL     1     -35.686  15.593  -3.336  1.00 20.00     0.033 A 
HETATM    4  C4  UNL     1     -36.371  16.734  -2.941  1.00 20.00    -0.045 A 
HETATM    5  C5  UNL     1     -34.305  15.490  -3.227  1.00 20.00     0.017 A 
HETATM    6  C6  UNL     1     -34.238  17.704  -2.306  1.00 20.00     0.035 A 
HETATM    7  C7  UNL     1     -36.303  14.388  -3.900  1.00 20.00     0.171 A 
HETATM    8  C8  UNL     1     -35.306  13.303  -4.237  1.00 20.00     0.163 A 
HETATM    9  C9  UNL     1     -37.851  16.872  -3.043  1.00 20.00     0.049 C 
HETATM   10  O10 UNL     1     -37.505  14.269  -4.081  1.00 20.00    -0.291 OA
HETATM   11  S11 UNL     1     -33.664  13.945  -3.793  1.00 20.00    -0.121 SA
HETATM   12 CL12 UNL     1     -33.344  19.028  -1.663  1.00 20.00    -0.084 Cl
ENDROOT
TORSDOF 0
ENDMDL
MODEL 9
REMARK VINA RESULT:      -4.2      2.765      3.389
REMARK  0 active torsions:
REMARK  status: ('A' for Active; 'I' for Inactive)
ROOT
HETATM    1  C1  UNL     1     -33.673  16.469  -2.541  1.00 20.00     0.031 A 
HETATM    2  C2  UNL     1     -35.461  18.091  -2.267  1.00 20.00     0.043 A 
HETATM    3  C3  UNL     1     -35.920  15.876  -3.087  1.00 20.00     0.033 A 
HETATM    4  C4  UNL     1     -34.582  15.516  -3.003  1.00 20.00    -0.045 A 
HETATM    5  C5  UNL     1     -36.365  17.142  -2.727  1.00 20.00     0.017 A 
HETATM    6  C6  UNL     1     -34.109  17.748  -2.175  1.00 20.00     0.035 A 
HETATM    7  C7  UNL     1     -37.004  15.004  -3.549  1.00 20.00     0.171 A 
HETATM    8  C8  UNL     1     -38.361  15.670  -3.533  1.00 20.00     0.163 A 
HETATM    9  C9  UNL     1     -34.076  14.168  -3.385  1.00 20.00     0.049 C 
HETATM   10  O10 UNL     1     -36.832  13.851  -3.913  1.00 20.00    -0.291 OA
HETATM   11  S11 UNL     1     -38.106  17.363  -2.921  1.00 20.00    -0.121 SA
HETATM   12 CL12 UNL     1     -32.972  18.909  -1.606  1.00 20.00    -0.084 Cl
ENDROOT
TORSDOF 0
ENDMDL
