MODEL 1
REMARK VINA RESULT:      -4.1      0.000      0.000
REMARK  0 active torsions:
REMARK  status: ('A' for Active; 'I' for Inactive)
ROOT
HETATM    1  C1  UNL     1     -34.321   6.378   5.957  1.00 20.00     0.018 A 
HETATM    2  C2  UNL     1     -33.938   4.952   5.649  1.00 20.00     0.018 A 
HETATM    3  C3  UNL     1     -34.108   5.949   4.521  1.00 20.00     0.083 A 
HETATM    4  C4  UNL     1     -33.371   7.256   6.699  1.00 20.00     0.012 C 
HETATM    5  C5  UNL     1     -34.905   3.850   5.921  1.00 20.00     0.012 C 
HETATM    6 BR6  UNL     1     -35.640   5.884   3.378  1.00 20.00    -0.072 Br
HETATM    7 BR7  UNL     1     -32.541   6.477   3.560  1.00 20.00    -0.072 Br
ENDROOT
TORSDOF 0
ENDMDL
MODEL 2
REMARK VINA RESULT:      -4.0      0.044      2.768
REMARK  0 active torsions:
REMARK  status: ('A' for Active; 'I' for Inactive)
ROOT
HETATM    1  C1  UNL     1     -33.981   4.947   5.668  1.00 20.00     0.018 A 
HETATM    2  C2  UNL     1     -34.331   6.385   5.963  1.00 20.00     0.018 A 
HETATM    3  C3  UNL     1     -34.129   5.936   4.530  1.00 20.00     0.083 A 
HETATM    4  C4  UNL     1     -34.974   3.872   5.952  1.00 20.00     0.012 C 
HETATM    5  C5  UNL     1     -33.361   7.248   6.695  1.00 20.00     0.012 C 
HETATM    6 BR6  UNL     1     -32.550   6.419   3.565  1.00 20.00    -0.072 Br
HETATM    7 BR7  UNL     1     -35.662   5.897   3.388  1.00 20.00    -0.072 Br
ENDROOT
TORSDOF 0
ENDMDL
MODEL 3
REMARK VINA RESULT:      -3.9      2.175      2.832
REMARK  0 active torsions:
REMARK  status: ('A' for Active; 'I' for Inactive)
ROOT
HETATM    1  C1  UNL     1     -33.343   5.873   3.838  1.00 20.00     0.018 A 
HETATM    2  C2  UNL     1     -34.730   6.460   3.937  1.00 20.00     0.018 A 
HETATM    3  C3  UNL     1     -34.065   5.883   5.170  1.00 20.00     0.083 A 
HETATM    4  C4  UNL     1     -32.186   6.760   3.528  1.00 20.00     0.012 C 
HETATM    5  C5  UNL     1     -35.866   5.798   3.233  1.00 20.00     0.012 C 
HETATM    6 BR6  UNL     1     -34.622   4.201   5.888  1.00 20.00    -0.072 Br
HETATM    7 BR7  UNL     1     -33.555   7.100   6.554  1.00 20.00    -0.072 Br
ENDROOT
TORSDOF 0
ENDMDL
MODEL 4
REMARK VINA RESULT:      -3.9      2.176      3.420
REMARK  0 active torsions:
REMARK  status: ('A' for Active; 'I' for Inactive)
ROOT
HETATM    1  C1  UNL     1     -34.745   6.452   3.949  1.00 20.00     0.018 A 
HETATM    2  C2  UNL     1     -33.360   5.864   3.842  1.00 20.00     0.018 A 
HETATM    3  C3  UNL     1     -34.072   5.880   5.179  1.00 20.00     0.083 A 
HETATM    4  C4  UNL     1     -35.886   5.787   3.256  1.00 20.00     0.012 C 
HETATM    5  C5  UNL     1     -32.203   6.748   3.520  1.00 20.00     0.012 C 
HETATM    6 BR6  UNL     1     -33.550   7.102   6.553  1.00 20.00    -0.072 Br
HETATM    7 BR7  UNL     1     -34.625   4.201   5.909  1.00 20.00    -0.072 Br
ENDROOT
TORSDOF 0
ENDMDL
MODEL 5
REMARK VINA RESULT:      -3.5     12.434     13.303
REMARK  0 active torsions:
REMARK  status: ('A' for Active; 'I' for Inactive)
ROOT
HETATM    1  C1  UNL     1     -34.197  15.662  -2.740  1.00 20.00     0.018 A 
HETATM    2  C2  UNL     1     -34.368  16.343  -4.075  1.00 20.00     0.018 A 
HETATM    3  C3  UNL     1     -35.094  15.044  -3.792  1.00 20.00     0.083 A 
HETATM    4  C4  UNL     1     -34.716  16.316  -1.504  1.00 20.00     0.012 C 
HETATM    5  C5  UNL     1     -33.209  16.448  -5.006  1.00 20.00     0.012 C 
HETATM    6 BR6  UNL     1     -34.521  13.406  -4.595  1.00 20.00    -0.072 Br
HETATM    7 BR7  UNL     1     -36.998  15.111  -3.622  1.00 20.00    -0.072 Br
ENDROOT
TORSDOF 0
ENDMDL
MODEL 6
REMARK VINA RESULT:      -3.5     12.433     13.225
REMARK  0 active torsions:
REMARK  status: ('A' for Active; 'I' for Inactive)
ROOT
HETATM    1  C1  UNL     1     -34.377  16.321  -4.102  1.00 20.00     0.018 A 
HETATM    2  C2  UNL     1     -34.201  15.625  -2.776  1.00 20.00     0.018 A 
HETATM    3  C3  UNL     1     -35.090  15.011  -3.838  1.00 20.00     0.083 A 
HETATM    4  C4  UNL     1     -33.217  16.449  -5.030  1.00 20.00     0.012 C 
HETATM    5  C5  UNL     1     -34.728  16.257  -1.532  1.00 20.00     0.012 C 
HETATM    6 BR6  UNL     1     -36.994  15.056  -3.669  1.00 20.00    -0.072 Br
HETATM    7 BR7  UNL     1     -34.498  13.388  -4.659  1.00 20.00    -0.072 Br
ENDROOT
TORSDOF 0
ENDMDL
MODEL 7
REMARK VINA RESULT:      -3.4     12.757     13.488
REMARK  0 active torsions:
REMARK  status: ('A' for Active; 'I' for Inactive)
ROOT
HETATM    1  C1  UNL     1     -33.566  15.177  -3.399  1.00 20.00     0.018 A 
HETATM    2  C2  UNL     1     -34.720  15.679  -2.566  1.00 20.00     0.018 A 
HETATM    3  C3  UNL     1     -34.533  16.187  -3.981  1.00 20.00     0.083 A 
HETATM    4  C4  UNL     1     -33.525  13.747  -3.819  1.00 20.00     0.012 C 
HETATM    5  C5  UNL     1     -34.453  16.508  -1.356  1.00 20.00     0.012 C 
HETATM    6 BR6  UNL     1     -33.878  17.953  -4.310  1.00 20.00    -0.072 Br
HETATM    7 BR7  UNL     1     -35.828  15.667  -5.288  1.00 20.00    -0.072 Br
ENDROOT
TORSDOF 0
ENDMDL
MODEL 8
REMARK VINA RESULT:      -3.4     12.705     13.332
REMARK  0 active torsions:
REMARK  status: ('A' for Active; 'I' for Inactive)
ROOT
HETATM    1  C1  UNL     1     -34.551  15.760  -2.627  1.00 20.00     0.018 A 
HETATM    2  C2  UNL     1     -33.472  15.156  -3.491  1.00 20.00     0.018 A 
HETATM    3  C3  UNL     1     -34.447  16.150  -4.087  1.00 20.00     0.083 A 
HETATM    4  C4  UNL     1     -34.178  16.671  -1.507  1.00 20.00     0.012 C 
HETATM    5  C5  UNL     1     -33.499  13.697  -3.798  1.00 20.00     0.012 C 
HETATM    6 BR6  UNL     1     -35.842  15.572  -5.260  1.00 20.00    -0.072 Br
HETATM    7 BR7  UNL     1     -33.767  17.862  -4.599  1.00 20.00    -0.072 Br
ENDROOT
TORSDOF 0
ENDMDL
MODEL 9
REMARK VINA RESULT:      -3.3     12.478     13.183
REMARK  0 active torsions:
REMARK  status: ('A' for Active; 'I' for Inactive)
ROOT
HETATM    1  C1  UNL     1     -35.993  15.208  -4.220  1.00 20.00     0.018 A 
HETATM    2  C2  UNL     1     -35.043  14.135  -3.746  1.00 20.00     0.018 A 
HETATM    3  C3  UNL     1     -34.670  15.595  -3.591  1.00 20.00     0.083 A 
HETATM    4  C4  UNL     1     -37.307  15.385  -3.538  1.00 20.00     0.012 C 
HETATM    5  C5  UNL     1     -34.399  13.227  -4.738  1.00 20.00     0.012 C 
HETATM    6 BR6  UNL     1     -33.353  16.396  -4.721  1.00 20.00    -0.072 Br
HETATM    7 BR7  UNL     1     -34.598  16.308  -1.818  1.00 20.00    -0.072 Br
ENDROOT
TORSDOF 0
ENDMDL
