MODEL 1
REMARK VINA RESULT:      -4.4      0.000      0.000
REMARK  0 active torsions:
REMARK  status: ('A' for Active; 'I' for Inactive)
ROOT
HETATM    1  C1  UNL     1     -34.696  13.567  -4.041  1.00 20.00     0.064 C 
HETATM    2  C2  UNL     1     -34.485  17.140  -4.641  1.00 20.00     0.005 C 
HETATM    3  C3  UNL     1     -33.302  16.162  -4.617  1.00 20.00     0.006 C 
HETATM    4  C4  UNL     1     -35.786  15.635  -3.124  1.00 20.00     0.024 C 
HETATM    5  C5  UNL     1     -33.819  16.772  -2.385  1.00 20.00     0.010 C 
HETATM    6  C6  UNL     1     -34.615  14.638  -3.043  1.00 20.00     0.097 C 
HETATM    7  C7  UNL     1     -35.075  16.998  -3.228  1.00 20.00    -0.013 C 
HETATM    8  C8  UNL     1     -33.379  15.553  -3.202  1.00 20.00     0.003 C 
HETATM    9  N9  UNL     1     -34.760  12.719  -4.831  1.00 20.00    -0.197 NA
ENDROOT
TORSDOF 0
ENDMDL
MODEL 2
REMARK VINA RESULT:      -4.4      1.793      2.622
REMARK  0 active torsions:
REMARK  status: ('A' for Active; 'I' for Inactive)
ROOT
HETATM    1  C1  UNL     1     -37.116  14.712  -3.632  1.00 20.00     0.064 C 
HETATM    2  C2  UNL     1     -34.406  14.584  -6.041  1.00 20.00     0.005 C 
HETATM    3  C3  UNL     1     -34.838  13.439  -5.114  1.00 20.00     0.006 C 
HETATM    4  C4  UNL     1     -35.306  16.264  -4.421  1.00 20.00     0.024 C 
HETATM    5  C5  UNL     1     -33.418  14.897  -3.898  1.00 20.00     0.010 C 
HETATM    6  C6  UNL     1     -35.731  15.151  -3.443  1.00 20.00     0.097 C 
HETATM    7  C7  UNL     1     -34.021  15.697  -5.054  1.00 20.00    -0.013 C 
HETATM    8  C8  UNL     1     -34.680  14.049  -3.707  1.00 20.00     0.003 C 
HETATM    9  N9  UNL     1     -38.213  14.364  -3.782  1.00 20.00    -0.197 NA
ENDROOT
TORSDOF 0
ENDMDL
MODEL 3
REMARK VINA RESULT:      -4.3      0.902      2.110
REMARK  0 active torsions:
REMARK  status: ('A' for Active; 'I' for Inactive)
ROOT
HETATM    1  C1  UNL     1     -34.491  13.726  -4.754  1.00 20.00     0.064 C 
HETATM    2  C2  UNL     1     -34.771  16.008  -1.946  1.00 20.00     0.005 C 
HETATM    3  C3  UNL     1     -35.860  15.734  -2.993  1.00 20.00     0.006 C 
HETATM    4  C4  UNL     1     -32.998  15.381  -3.595  1.00 20.00     0.024 C 
HETATM    5  C5  UNL     1     -34.348  17.331  -3.879  1.00 20.00     0.010 C 
HETATM    6  C6  UNL     1     -34.052  15.123  -4.690  1.00 20.00     0.097 C 
HETATM    7  C7  UNL     1     -33.608  16.547  -2.795  1.00 20.00    -0.013 C 
HETATM    8  C8  UNL     1     -35.175  16.119  -4.320  1.00 20.00     0.003 C 
HETATM    9  N9  UNL     1     -34.838  12.620  -4.803  1.00 20.00    -0.197 NA
ENDROOT
TORSDOF 0
ENDMDL
MODEL 4
REMARK VINA RESULT:      -4.3      1.494      2.450
REMARK  0 active torsions:
REMARK  status: ('A' for Active; 'I' for Inactive)
ROOT
HETATM    1  C1  UNL     1     -36.692  14.481  -4.091  1.00 20.00     0.064 C 
HETATM    2  C2  UNL     1     -34.026  16.202  -2.331  1.00 20.00     0.005 C 
HETATM    3  C3  UNL     1     -35.092  16.864  -3.213  1.00 20.00     0.006 C 
HETATM    4  C4  UNL     1     -34.262  14.066  -3.612  1.00 20.00     0.024 C 
HETATM    5  C5  UNL     1     -33.364  16.042  -4.612  1.00 20.00     0.010 C 
HETATM    6  C6  UNL     1     -35.315  14.696  -4.544  1.00 20.00     0.097 C 
HETATM    7  C7  UNL     1     -33.319  15.246  -3.307  1.00 20.00    -0.013 C 
HETATM    8  C8  UNL     1     -34.889  16.181  -4.581  1.00 20.00     0.003 C 
HETATM    9  N9  UNL     1     -37.782  14.311  -3.731  1.00 20.00    -0.197 NA
ENDROOT
TORSDOF 0
ENDMDL
MODEL 5
REMARK VINA RESULT:      -4.3      2.194      3.365
REMARK  0 active torsions:
REMARK  status: ('A' for Active; 'I' for Inactive)
ROOT
HETATM    1  C1  UNL     1     -33.458  17.344  -4.910  1.00 20.00     0.064 C 
HETATM    2  C2  UNL     1     -35.615  14.789  -3.502  1.00 20.00     0.005 C 
HETATM    3  C3  UNL     1     -34.565  15.601  -2.732  1.00 20.00     0.006 C 
HETATM    4  C4  UNL     1     -34.330  15.100  -5.625  1.00 20.00     0.024 C 
HETATM    5  C5  UNL     1     -33.474  13.797  -3.815  1.00 20.00     0.010 C 
HETATM    6  C6  UNL     1     -33.234  15.896  -4.892  1.00 20.00     0.097 C 
HETATM    7  C7  UNL     1     -34.775  14.069  -4.570  1.00 20.00    -0.013 C 
HETATM    8  C8  UNL     1     -33.254  15.274  -3.476  1.00 20.00     0.003 C 
HETATM    9  N9  UNL     1     -33.637  18.491  -4.926  1.00 20.00    -0.197 NA
ENDROOT
TORSDOF 0
ENDMDL
MODEL 6
REMARK VINA RESULT:      -4.2      2.110      3.119
REMARK  0 active torsions:
REMARK  status: ('A' for Active; 'I' for Inactive)
ROOT
HETATM    1  C1  UNL     1     -34.765  16.331  -1.887  1.00 20.00     0.064 C 
HETATM    2  C2  UNL     1     -33.528  13.555  -3.869  1.00 20.00     0.005 C 
HETATM    3  C3  UNL     1     -32.769  14.856  -3.574  1.00 20.00     0.006 C 
HETATM    4  C4  UNL     1     -35.712  14.740  -3.583  1.00 20.00     0.024 C 
HETATM    5  C5  UNL     1     -34.238  15.238  -5.395  1.00 20.00     0.010 C 
HETATM    6  C6  UNL     1     -34.996  16.077  -3.311  1.00 20.00     0.097 C 
HETATM    7  C7  UNL     1     -34.785  14.051  -4.602  1.00 20.00    -0.013 C 
HETATM    8  C8  UNL     1     -33.702  15.943  -4.145  1.00 20.00     0.003 C 
HETATM    9  N9  UNL     1     -34.581  16.532  -0.758  1.00 20.00    -0.197 NA
ENDROOT
TORSDOF 0
ENDMDL
MODEL 7
REMARK VINA RESULT:      -4.2      1.728      2.873
REMARK  0 active torsions:
REMARK  status: ('A' for Active; 'I' for Inactive)
ROOT
HETATM    1  C1  UNL     1     -34.746  15.212  -6.621  1.00 20.00     0.064 C 
HETATM    2  C2  UNL     1     -33.202  13.781  -3.666  1.00 20.00     0.005 C 
HETATM    3  C3  UNL     1     -34.605  13.451  -4.195  1.00 20.00     0.006 C 
HETATM    4  C4  UNL     1     -33.305  16.039  -4.738  1.00 20.00     0.024 C 
HETATM    5  C5  UNL     1     -34.732  15.444  -2.916  1.00 20.00     0.010 C 
HETATM    6  C6  UNL     1     -34.728  15.767  -5.265  1.00 20.00     0.097 C 
HETATM    7  C7  UNL     1     -33.286  15.291  -3.391  1.00 20.00    -0.013 C 
HETATM    8  C8  UNL     1     -35.312  14.822  -4.190  1.00 20.00     0.003 C 
HETATM    9  N9  UNL     1     -34.760  14.773  -7.695  1.00 20.00    -0.197 NA
ENDROOT
TORSDOF 0
ENDMDL
MODEL 8
REMARK VINA RESULT:      -4.2     11.339     12.760
REMARK  0 active torsions:
REMARK  status: ('A' for Active; 'I' for Inactive)
ROOT
HETATM    1  C1  UNL     1     -42.915   6.911  -2.885  1.00 20.00     0.064 C 
HETATM    2  C2  UNL     1     -40.761   4.527  -1.198  1.00 20.00     0.005 C 
HETATM    3  C3  UNL     1     -42.231   4.299  -1.575  1.00 20.00     0.006 C 
HETATM    4  C4  UNL     1     -41.147   6.997  -1.103  1.00 20.00     0.024 C 
HETATM    5  C5  UNL     1     -42.157   5.503   0.465  1.00 20.00     0.010 C 
HETATM    6  C6  UNL     1     -42.638   6.817  -1.449  1.00 20.00     0.097 C 
HETATM    7  C7  UNL     1     -40.833   5.745  -0.262  1.00 20.00    -0.013 C 
HETATM    8  C8  UNL     1     -42.964   5.436  -0.835  1.00 20.00     0.003 C 
HETATM    9  N9  UNL     1     -43.133   6.986  -4.023  1.00 20.00    -0.197 NA
ENDROOT
TORSDOF 0
ENDMDL
MODEL 9
REMARK VINA RESULT:      -4.2     11.815     12.811
REMARK  0 active torsions:
REMARK  status: ('A' for Active; 'I' for Inactive)
ROOT
HETATM    1  C1  UNL     1     -42.582   6.219  -3.001  1.00 20.00     0.064 C 
HETATM    2  C2  UNL     1     -42.989   5.310   0.488  1.00 20.00     0.005 C 
HETATM    3  C3  UNL     1     -43.038   6.735  -0.080  1.00 20.00     0.006 C 
HETATM    4  C4  UNL     1     -41.535   4.580  -1.412  1.00 20.00     0.024 C 
HETATM    5  C5  UNL     1     -40.768   6.129   0.237  1.00 20.00     0.010 C 
HETATM    6  C6  UNL     1     -41.529   6.002  -2.006  1.00 20.00     0.097 C 
HETATM    7  C7  UNL     1     -41.576   4.838   0.106  1.00 20.00    -0.013 C 
HETATM    8  C8  UNL     1     -41.657   6.893  -0.749  1.00 20.00     0.003 C 
HETATM    9  N9  UNL     1     -43.417   6.391  -3.789  1.00 20.00    -0.197 NA
ENDROOT
TORSDOF 0
ENDMDL
