MODEL 1
REMARK VINA RESULT:      -4.0      0.000      0.000
REMARK  3 active torsions:
REMARK  status: ('A' for Active; 'I' for Inactive)
REMARK    1  A    between atoms: C1_1  and  C3_3 
REMARK    2  A    between atoms: C1_1  and  N4_4 
REMARK    3  A    between atoms: C2_2  and  C3_3 
ROOT
HETATM    1  C1  UNL     1     -32.672   6.092   3.401  1.00 20.00     0.222 C 
ENDROOT
BRANCH   1   2
HETATM    2  C3  UNL     1     -34.002   6.369   4.094  1.00 20.00     0.120 C 
HETATM    3 CL8  UNL     1     -33.765   6.565   5.864  1.00 20.00    -0.122 Cl
BRANCH   2   4
HETATM    4  C2  UNL     1     -35.050   5.285   3.821  1.00 20.00     0.136 C 
HETATM    5 CL7  UNL     1     -35.138   4.041   5.094  1.00 20.00    -0.129 Cl
ENDBRANCH   2   4
ENDBRANCH   1   2
BRANCH   1   6
HETATM    6  N4  UNL     1     -31.993   7.377   3.147  1.00 20.00    -0.154 N 
HETATM    7  O5  UNL     1     -31.181   7.771   4.001  1.00 20.00    -0.536 OA
HETATM    8  O6  UNL     1     -32.260   7.973   2.092  1.00 20.00    -0.536 OA
ENDBRANCH   1   6
TORSDOF 3
ENDMDL
MODEL 2
REMARK VINA RESULT:      -3.9     11.350     11.927
REMARK  3 active torsions:
REMARK  status: ('A' for Active; 'I' for Inactive)
REMARK    1  A    between atoms: C1_1  and  C3_3 
REMARK    2  A    between atoms: C1_1  and  N4_4 
REMARK    3  A    between atoms: C2_2  and  C3_3 
ROOT
HETATM    1  C1  UNL     1     -35.042  14.769  -3.538  1.00 20.00     0.222 C 
ENDROOT
BRANCH   1   2
HETATM    2  C3  UNL     1     -34.021  15.689  -2.877  1.00 20.00     0.120 C 
HETATM    3 CL8  UNL     1     -34.622  16.261  -1.283  1.00 20.00    -0.122 Cl
BRANCH   2   4
HETATM    4  C2  UNL     1     -33.643  16.885  -3.756  1.00 20.00     0.136 C 
HETATM    5 CL7  UNL     1     -33.353  16.453  -5.460  1.00 20.00    -0.129 Cl
ENDBRANCH   2   4
ENDBRANCH   1   2
BRANCH   1   6
HETATM    6  N4  UNL     1     -34.381  13.497  -3.885  1.00 20.00    -0.154 N 
HETATM    7  O5  UNL     1     -35.080  12.615  -4.413  1.00 20.00    -0.536 OA
HETATM    8  O6  UNL     1     -33.167  13.392  -3.644  1.00 20.00    -0.536 OA
ENDBRANCH   1   6
TORSDOF 3
ENDMDL
MODEL 3
REMARK VINA RESULT:      -3.7      1.423      2.395
REMARK  3 active torsions:
REMARK  status: ('A' for Active; 'I' for Inactive)
REMARK    1  A    between atoms: C1_1  and  C3_3 
REMARK    2  A    between atoms: C1_1  and  N4_4 
REMARK    3  A    between atoms: C2_2  and  C3_3 
ROOT
HETATM    1  C1  UNL     1     -34.109   6.527   3.867  1.00 20.00     0.222 C 
ENDROOT
BRANCH   1   2
HETATM    2  C3  UNL     1     -34.037   5.467   4.962  1.00 20.00     0.120 C 
HETATM    3 CL8  UNL     1     -35.158   4.110   4.603  1.00 20.00    -0.122 Cl
BRANCH   2   4
HETATM    4  C2  UNL     1     -34.325   6.034   6.355  1.00 20.00     0.136 C 
HETATM    5 CL7  UNL     1     -33.250   7.378   6.815  1.00 20.00    -0.129 Cl
ENDBRANCH   2   4
ENDBRANCH   1   2
BRANCH   1   6
HETATM    6  N4  UNL     1     -32.778   6.657   3.243  1.00 20.00    -0.154 N 
HETATM    7  O5  UNL     1     -32.013   5.680   3.321  1.00 20.00    -0.536 OA
HETATM    8  O6  UNL     1     -32.512   7.724   2.667  1.00 20.00    -0.536 OA
ENDBRANCH   1   6
TORSDOF 3
ENDMDL
MODEL 4
REMARK VINA RESULT:      -3.7     11.112     11.548
REMARK  3 active torsions:
REMARK  status: ('A' for Active; 'I' for Inactive)
REMARK    1  A    between atoms: C1_1  and  C3_3 
REMARK    2  A    between atoms: C1_1  and  N4_4 
REMARK    3  A    between atoms: C2_2  and  C3_3 
ROOT
HETATM    1  C1  UNL     1     -34.266  14.809  -4.361  1.00 20.00     0.222 C 
ENDROOT
BRANCH   1   2
HETATM    2  C3  UNL     1     -35.015  15.188  -3.087  1.00 20.00     0.120 C 
HETATM    3 CL8  UNL     1     -36.786  15.236  -3.385  1.00 20.00    -0.122 Cl
BRANCH   2   4
HETATM    4  C2  UNL     1     -34.544  16.520  -2.497  1.00 20.00     0.136 C 
HETATM    5 CL7  UNL     1     -34.608  16.574  -0.717  1.00 20.00    -0.129 Cl
ENDBRANCH   2   4
ENDBRANCH   1   2
BRANCH   1   6
HETATM    6  N4  UNL     1     -33.961  13.366  -4.321  1.00 20.00    -0.154 N 
HETATM    7  O5  UNL     1     -34.763  12.597  -4.878  1.00 20.00    -0.536 OA
HETATM    8  O6  UNL     1     -32.917  13.011  -3.750  1.00 20.00    -0.536 OA
ENDBRANCH   1   6
TORSDOF 3
ENDMDL
MODEL 5
REMARK VINA RESULT:      -3.7     11.172     11.557
REMARK  3 active torsions:
REMARK  status: ('A' for Active; 'I' for Inactive)
REMARK    1  A    between atoms: C1_1  and  C3_3 
REMARK    2  A    between atoms: C1_1  and  N4_4 
REMARK    3  A    between atoms: C2_2  and  C3_3 
ROOT
HETATM    1  C1  UNL     1     -34.639  14.843  -4.365  1.00 20.00     0.222 C 
ENDROOT
BRANCH   1   2
HETATM    2  C3  UNL     1     -35.596  15.092  -3.204  1.00 20.00     0.120 C 
HETATM    3 CL8  UNL     1     -37.300  14.868  -3.729  1.00 20.00    -0.122 Cl
BRANCH   2   4
HETATM    4  C2  UNL     1     -35.417  16.478  -2.576  1.00 20.00     0.136 C 
HETATM    5 CL7  UNL     1     -34.644  16.439  -0.971  1.00 20.00    -0.129 Cl
ENDBRANCH   2   4
ENDBRANCH   1   2
BRANCH   1   6
HETATM    6  N4  UNL     1     -34.156  13.450  -4.291  1.00 20.00    -0.154 N 
HETATM    7  O5  UNL     1     -33.080  13.249  -3.702  1.00 20.00    -0.536 OA
HETATM    8  O6  UNL     1     -34.860  12.567  -4.806  1.00 20.00    -0.536 OA
ENDBRANCH   1   6
TORSDOF 3
ENDMDL
MODEL 6
REMARK VINA RESULT:      -3.6     11.462     12.039
REMARK  3 active torsions:
REMARK  status: ('A' for Active; 'I' for Inactive)
REMARK    1  A    between atoms: C1_1  and  C3_3 
REMARK    2  A    between atoms: C1_1  and  N4_4 
REMARK    3  A    between atoms: C2_2  and  C3_3 
ROOT
HETATM    1  C1  UNL     1     -34.298  14.373  -3.401  1.00 20.00     0.222 C 
ENDROOT
BRANCH   1   2
HETATM    2  C3  UNL     1     -34.486  15.812  -3.871  1.00 20.00     0.120 C 
HETATM    3 CL8  UNL     1     -33.518  16.126  -5.351  1.00 20.00    -0.122 Cl
BRANCH   2   4
HETATM    4  C2  UNL     1     -34.142  16.840  -2.789  1.00 20.00     0.136 C 
HETATM    5 CL7  UNL     1     -34.641  16.345  -1.151  1.00 20.00    -0.129 Cl
ENDBRANCH   2   4
ENDBRANCH   1   2
BRANCH   1   6
HETATM    6  N4  UNL     1     -35.294  13.519  -4.075  1.00 20.00    -0.154 N 
HETATM    7  O5  UNL     1     -36.493  13.795  -3.905  1.00 20.00    -0.536 OA
HETATM    8  O6  UNL     1     -34.872  12.589  -4.783  1.00 20.00    -0.536 OA
ENDBRANCH   1   6
TORSDOF 3
ENDMDL
MODEL 7
REMARK VINA RESULT:      -3.5     12.304     12.723
REMARK  3 active torsions:
REMARK  status: ('A' for Active; 'I' for Inactive)
REMARK    1  A    between atoms: C1_1  and  C3_3 
REMARK    2  A    between atoms: C1_1  and  N4_4 
REMARK    3  A    between atoms: C2_2  and  C3_3 
ROOT
HETATM    1  C1  UNL     1     -34.831  14.869  -4.527  1.00 20.00     0.222 C 
ENDROOT
BRANCH   1   2
HETATM    2  C3  UNL     1     -33.809  15.546  -5.433  1.00 20.00     0.120 C 
HETATM    3 CL8  UNL     1     -33.388  17.177  -4.807  1.00 20.00    -0.122 Cl
BRANCH   2   4
HETATM    4  C2  UNL     1     -34.281  15.647  -6.887  1.00 20.00     0.136 C 
HETATM    5 CL7  UNL     1     -35.391  14.339  -7.369  1.00 20.00    -0.129 Cl
ENDBRANCH   2   4
ENDBRANCH   1   2
BRANCH   1   6
HETATM    6  N4  UNL     1     -34.356  13.509  -4.209  1.00 20.00    -0.154 N 
HETATM    7  O5  UNL     1     -33.200  13.396  -3.767  1.00 20.00    -0.536 OA
HETATM    8  O6  UNL     1     -35.145  12.566  -4.385  1.00 20.00    -0.536 OA
ENDBRANCH   1   6
TORSDOF 3
ENDMDL
MODEL 8
REMARK VINA RESULT:      -3.5     11.667     12.243
REMARK  3 active torsions:
REMARK  status: ('A' for Active; 'I' for Inactive)
REMARK    1  A    between atoms: C1_1  and  C3_3 
REMARK    2  A    between atoms: C1_1  and  N4_4 
REMARK    3  A    between atoms: C2_2  and  C3_3 
ROOT
HETATM    1  C1  UNL     1     -35.452  15.216  -4.259  1.00 20.00     0.222 C 
ENDROOT
BRANCH   1   2
HETATM    2  C3  UNL     1     -34.307  15.179  -3.252  1.00 20.00     0.120 C 
HETATM    3 CL8  UNL     1     -34.773  16.017  -1.733  1.00 20.00    -0.122 Cl
BRANCH   2   4
HETATM    4  C2  UNL     1     -33.011  15.778  -3.807  1.00 20.00     0.136 C 
HETATM    5 CL7  UNL     1     -33.170  16.409  -5.466  1.00 20.00    -0.129 Cl
ENDBRANCH   2   4
ENDBRANCH   1   2
BRANCH   1   6
HETATM    6  N4  UNL     1     -36.225  13.964  -4.145  1.00 20.00    -0.154 N 
HETATM    7  O5  UNL     1     -35.618  12.898  -4.345  1.00 20.00    -0.536 OA
HETATM    8  O6  UNL     1     -37.426  14.052  -3.841  1.00 20.00    -0.536 OA
ENDBRANCH   1   6
TORSDOF 3
ENDMDL
MODEL 9
REMARK VINA RESULT:      -3.5     12.146     12.499
REMARK  3 active torsions:
REMARK  status: ('A' for Active; 'I' for Inactive)
REMARK    1  A    between atoms: C1_1  and  C3_3 
REMARK    2  A    between atoms: C1_1  and  N4_4 
REMARK    3  A    between atoms: C2_2  and  C3_3 
ROOT
HETATM    1  C1  UNL     1     -34.319  14.676  -5.086  1.00 20.00     0.222 C 
ENDROOT
BRANCH   1   2
HETATM    2  C3  UNL     1     -35.426  14.497  -6.120  1.00 20.00     0.120 C 
HETATM    3 CL8  UNL     1     -34.801  14.801  -7.777  1.00 20.00    -0.122 Cl
BRANCH   2   4
HETATM    4  C2  UNL     1     -36.643  15.385  -5.845  1.00 20.00     0.136 C 
HETATM    5 CL7  UNL     1     -37.607  14.859  -4.442  1.00 20.00    -0.129 Cl
ENDBRANCH   2   4
ENDBRANCH   1   2
BRANCH   1   6
HETATM    6  N4  UNL     1     -34.134  13.403  -4.363  1.00 20.00    -0.154 N 
HETATM    7  O5  UNL     1     -33.084  13.262  -3.714  1.00 20.00    -0.536 OA
HETATM    8  O6  UNL     1     -35.045  12.562  -4.433  1.00 20.00    -0.536 OA
ENDBRANCH   1   6
TORSDOF 3
ENDMDL
