MODEL 1
REMARK VINA RESULT:      -4.7      0.000      0.000
REMARK  2 active torsions:
REMARK  status: ('A' for Active; 'I' for Inactive)
REMARK    1  A    between atoms: C7_7  and  C8_8 
REMARK    2  A    between atoms: C9_9  and  C10_10 
ROOT
HETATM    1  C1  UNL     1     -34.443  14.353  -3.288  1.00 20.00     0.047 C 
HETATM    2  C2  UNL     1     -33.984  15.605  -3.504  1.00 20.00    -0.017 C 
HETATM    3  C5  UNL     1     -34.532  13.727  -4.651  1.00 20.00     0.154 C 
HETATM    4  C7  UNL     1     -33.488  15.727  -4.904  1.00 20.00     0.028 C 
HETATM    5  C10 UNL     1     -34.557  14.862  -5.614  1.00 20.00     0.075 C 
HETATM    6  O11 UNL     1     -34.668  12.543  -4.884  1.00 20.00    -0.293 OA
ENDROOT
BRANCH   5   7
HETATM    7  C9  UNL     1     -34.303  15.153  -7.086  1.00 20.00     0.021 C 
HETATM    8  C4  UNL     1     -34.656  16.554  -7.527  1.00 20.00    -0.025 C 
HETATM    9  C3  UNL     1     -35.994  16.688  -7.445  1.00 20.00    -0.025 C 
HETATM   10  C8  UNL     1     -36.541  15.408  -6.814  1.00 20.00     0.017 C 
HETATM   11  C6  UNL     1     -35.609  14.463  -7.591  1.00 20.00     0.018 C 
ENDBRANCH   5   7
TORSDOF 2
ENDMDL
MODEL 2
REMARK VINA RESULT:      -4.7      3.137      4.491
REMARK  2 active torsions:
REMARK  status: ('A' for Active; 'I' for Inactive)
REMARK    1  A    between atoms: C7_7  and  C8_8 
REMARK    2  A    between atoms: C9_9  and  C10_10 
ROOT
HETATM    1  C1  UNL     1     -33.697  17.973  -0.856  1.00 20.00     0.047 C 
HETATM    2  C2  UNL     1     -34.441  16.904  -0.495  1.00 20.00    -0.017 C 
HETATM    3  C5  UNL     1     -33.748  17.997  -2.357  1.00 20.00     0.154 C 
HETATM    4  C7  UNL     1     -35.217  16.409  -1.667  1.00 20.00     0.028 C 
HETATM    5  C10 UNL     1     -34.151  16.624  -2.769  1.00 20.00     0.075 C 
HETATM    6  O11 UNL     1     -33.416  18.925  -3.067  1.00 20.00    -0.293 OA
ENDROOT
BRANCH   5   7
HETATM    7  C9  UNL     1     -34.744  15.887  -3.960  1.00 20.00     0.021 C 
HETATM    8  C4  UNL     1     -34.904  14.396  -3.770  1.00 20.00    -0.025 C 
HETATM    9  C3  UNL     1     -33.673  13.855  -3.694  1.00 20.00    -0.025 C 
HETATM   10  C8  UNL     1     -32.669  15.007  -3.699  1.00 20.00     0.017 C 
HETATM   11  C6  UNL     1     -33.409  15.830  -4.767  1.00 20.00     0.018 C 
ENDBRANCH   5   7
TORSDOF 2
ENDMDL
MODEL 3
REMARK VINA RESULT:      -4.7      2.918      4.442
REMARK  2 active torsions:
REMARK  status: ('A' for Active; 'I' for Inactive)
REMARK    1  A    between atoms: C7_7  and  C8_8 
REMARK    2  A    between atoms: C9_9  and  C10_10 
ROOT
HETATM    1  C1  UNL     1     -34.414  13.644  -3.693  1.00 20.00     0.047 C 
HETATM    2  C2  UNL     1     -33.211  14.258  -3.744  1.00 20.00    -0.017 C 
HETATM    3  C5  UNL     1     -35.411  14.753  -3.507  1.00 20.00     0.154 C 
HETATM    4  C7  UNL     1     -33.398  15.727  -3.902  1.00 20.00     0.028 C 
HETATM    5  C10 UNL     1     -34.633  15.911  -2.986  1.00 20.00     0.075 C 
HETATM    6  O11 UNL     1     -36.613  14.661  -3.652  1.00 20.00    -0.293 OA
ENDROOT
BRANCH   5   7
HETATM    7  C9  UNL     1     -34.734  17.423  -2.855  1.00 20.00     0.021 C 
HETATM    8  C4  UNL     1     -33.563  18.081  -2.163  1.00 20.00    -0.025 C 
HETATM    9  C3  UNL     1     -33.573  17.689  -0.874  1.00 20.00    -0.025 C 
HETATM   10  C8  UNL     1     -34.683  16.651  -0.722  1.00 20.00     0.017 C 
HETATM   11  C6  UNL     1     -35.688  17.392  -1.620  1.00 20.00     0.018 C 
ENDBRANCH   5   7
TORSDOF 2
ENDMDL
MODEL 4
REMARK VINA RESULT:      -4.6     12.580     14.094
REMARK  2 active torsions:
REMARK  status: ('A' for Active; 'I' for Inactive)
REMARK    1  A    between atoms: C7_7  and  C8_8 
REMARK    2  A    between atoms: C9_9  and  C10_10 
ROOT
HETATM    1  C1  UNL     1     -34.458   4.746   6.791  1.00 20.00     0.047 C 
HETATM    2  C2  UNL     1     -34.958   3.972   5.802  1.00 20.00    -0.017 C 
HETATM    3  C5  UNL     1     -34.183   6.075   6.146  1.00 20.00     0.154 C 
HETATM    4  C7  UNL     1     -35.301   4.817   4.623  1.00 20.00     0.028 C 
HETATM    5  C10 UNL     1     -34.112   5.807   4.684  1.00 20.00     0.075 C 
HETATM    6  O11 UNL     1     -33.957   7.117   6.730  1.00 20.00    -0.293 OA
ENDROOT
BRANCH   5   7
HETATM    7  C9  UNL     1     -34.216   6.540   3.355  1.00 20.00     0.021 C 
HETATM    8  C4  UNL     1     -33.923   5.693   2.138  1.00 20.00    -0.025 C 
HETATM    9  C3  UNL     1     -32.618   5.360   2.170  1.00 20.00    -0.025 C 
HETATM   10  C8  UNL     1     -32.050   5.875   3.492  1.00 20.00     0.017 C 
HETATM   11  C6  UNL     1     -32.810   7.212   3.457  1.00 20.00     0.018 C 
ENDBRANCH   5   7
TORSDOF 2
ENDMDL
MODEL 5
REMARK VINA RESULT:      -4.5      2.051      4.028
REMARK  2 active torsions:
REMARK  status: ('A' for Active; 'I' for Inactive)
REMARK    1  A    between atoms: C7_7  and  C8_8 
REMARK    2  A    between atoms: C9_9  and  C10_10 
ROOT
HETATM    1  C1  UNL     1     -35.022  13.969  -5.613  1.00 20.00     0.047 C 
HETATM    2  C2  UNL     1     -35.124  13.348  -4.418  1.00 20.00    -0.017 C 
HETATM    3  C5  UNL     1     -34.237  15.221  -5.338  1.00 20.00     0.154 C 
HETATM    4  C7  UNL     1     -34.193  13.977  -3.440  1.00 20.00     0.028 C 
HETATM    5  C10 UNL     1     -34.352  15.455  -3.873  1.00 20.00     0.075 C 
HETATM    6  O11 UNL     1     -33.720  15.935  -6.174  1.00 20.00    -0.293 OA
ENDROOT
BRANCH   5   7
HETATM    7  C9  UNL     1     -33.657  16.211  -2.751  1.00 20.00     0.021 C 
HETATM    8  C4  UNL     1     -34.453  16.324  -1.472  1.00 20.00    -0.025 C 
HETATM    9  C3  UNL     1     -35.520  17.110  -1.717  1.00 20.00    -0.025 C 
HETATM   10  C8  UNL     1     -35.519  17.424  -3.212  1.00 20.00     0.017 C 
HETATM   11  C6  UNL     1     -33.998  17.629  -3.309  1.00 20.00     0.018 C 
ENDBRANCH   5   7
TORSDOF 2
ENDMDL
MODEL 6
REMARK VINA RESULT:      -4.5      1.582      3.811
REMARK  2 active torsions:
REMARK  status: ('A' for Active; 'I' for Inactive)
REMARK    1  A    between atoms: C7_7  and  C8_8 
REMARK    2  A    between atoms: C9_9  and  C10_10 
ROOT
HETATM    1  C1  UNL     1     -36.049  14.658  -7.620  1.00 20.00     0.047 C 
HETATM    2  C2  UNL     1     -34.725  14.888  -7.756  1.00 20.00    -0.017 C 
HETATM    3  C5  UNL     1     -36.390  15.139  -6.238  1.00 20.00     0.154 C 
HETATM    4  C7  UNL     1     -34.247  15.765  -6.650  1.00 20.00     0.028 C 
HETATM    5  C10 UNL     1     -35.100  15.182  -5.497  1.00 20.00     0.075 C 
HETATM    6  O11 UNL     1     -37.509  15.336  -5.807  1.00 20.00    -0.293 OA
ENDROOT
BRANCH   5   7
HETATM    7  C9  UNL     1     -34.480  15.822  -4.263  1.00 20.00     0.021 C 
HETATM    8  C4  UNL     1     -33.064  15.387  -3.964  1.00 20.00    -0.025 C 
HETATM    9  C3  UNL     1     -33.098  14.086  -3.615  1.00 20.00    -0.025 C 
HETATM   10  C8  UNL     1     -34.533  13.600  -3.808  1.00 20.00     0.017 C 
HETATM   11  C6  UNL     1     -35.187  14.873  -3.245  1.00 20.00     0.018 C 
ENDBRANCH   5   7
TORSDOF 2
ENDMDL
MODEL 7
REMARK VINA RESULT:      -4.4      2.110      3.954
REMARK  2 active torsions:
REMARK  status: ('A' for Active; 'I' for Inactive)
REMARK    1  A    between atoms: C7_7  and  C8_8 
REMARK    2  A    between atoms: C9_9  and  C10_10 
ROOT
HETATM    1  C1  UNL     1     -34.780  13.686  -5.319  1.00 20.00     0.047 C 
HETATM    2  C2  UNL     1     -35.947  14.364  -5.262  1.00 20.00    -0.017 C 
HETATM    3  C5  UNL     1     -34.112  13.946  -3.998  1.00 20.00     0.154 C 
HETATM    4  C7  UNL     1     -36.209  14.805  -3.863  1.00 20.00     0.028 C 
HETATM    5  C10 UNL     1     -34.761  15.168  -3.452  1.00 20.00     0.075 C 
HETATM    6  O11 UNL     1     -33.164  13.334  -3.547  1.00 20.00    -0.293 OA
ENDROOT
BRANCH   5   7
HETATM    7  C9  UNL     1     -34.959  15.896  -2.131  1.00 20.00     0.021 C 
HETATM    8  C4  UNL     1     -35.788  17.157  -2.217  1.00 20.00    -0.025 C 
HETATM    9  C3  UNL     1     -35.090  18.062  -2.931  1.00 20.00    -0.025 C 
HETATM   10  C8  UNL     1     -33.833  17.363  -3.446  1.00 20.00     0.017 C 
HETATM   11  C6  UNL     1     -33.561  16.591  -2.144  1.00 20.00     0.018 C 
ENDBRANCH   5   7
TORSDOF 2
ENDMDL
MODEL 8
REMARK VINA RESULT:      -4.3      1.825      2.233
REMARK  2 active torsions:
REMARK  status: ('A' for Active; 'I' for Inactive)
REMARK    1  A    between atoms: C7_7  and  C8_8 
REMARK    2  A    between atoms: C9_9  and  C10_10 
ROOT
HETATM    1  C1  UNL     1     -33.184  13.808  -3.627  1.00 20.00     0.047 C 
HETATM    2  C2  UNL     1     -32.911  15.128  -3.720  1.00 20.00    -0.017 C 
HETATM    3  C5  UNL     1     -34.409  13.602  -4.473  1.00 20.00     0.154 C 
HETATM    4  C7  UNL     1     -33.714  15.735  -4.819  1.00 20.00     0.028 C 
HETATM    5  C10 UNL     1     -35.031  14.946  -4.617  1.00 20.00     0.075 C 
HETATM    6  O11 UNL     1     -34.840  12.531  -4.853  1.00 20.00    -0.293 OA
ENDROOT
BRANCH   5   7
HETATM    7  C9  UNL     1     -36.010  15.692  -5.510  1.00 20.00     0.021 C 
HETATM    8  C4  UNL     1     -36.317  17.107  -5.076  1.00 20.00    -0.025 C 
HETATM    9  C3  UNL     1     -36.995  17.043  -3.913  1.00 20.00    -0.025 C 
HETATM   10  C8  UNL     1     -37.031  15.576  -3.487  1.00 20.00     0.017 C 
HETATM   11  C6  UNL     1     -37.286  15.029  -4.902  1.00 20.00     0.018 C 
ENDBRANCH   5   7
TORSDOF 2
ENDMDL
MODEL 9
REMARK VINA RESULT:      -4.3      1.452      1.760
REMARK  2 active torsions:
REMARK  status: ('A' for Active; 'I' for Inactive)
REMARK    1  A    between atoms: C7_7  and  C8_8 
REMARK    2  A    between atoms: C9_9  and  C10_10 
ROOT
HETATM    1  C1  UNL     1     -35.173  15.510  -2.580  1.00 20.00     0.047 C 
HETATM    2  C2  UNL     1     -33.940  15.435  -3.128  1.00 20.00    -0.017 C 
HETATM    3  C5  UNL     1     -36.097  14.929  -3.612  1.00 20.00     0.154 C 
HETATM    4  C7  UNL     1     -33.976  14.563  -4.335  1.00 20.00     0.028 C 
HETATM    5  C10 UNL     1     -35.352  14.991  -4.900  1.00 20.00     0.075 C 
HETATM    6  O11 UNL     1     -37.248  14.589  -3.427  1.00 20.00    -0.293 OA
ENDROOT
BRANCH   5   7
HETATM    7  C9  UNL     1     -35.358  14.364  -6.286  1.00 20.00     0.021 C 
HETATM    8  C4  UNL     1     -34.374  14.967  -7.261  1.00 20.00    -0.025 C 
HETATM    9  C3  UNL     1     -34.773  16.226  -7.525  1.00 20.00    -0.025 C 
HETATM   10  C8  UNL     1     -35.965  16.525  -6.616  1.00 20.00     0.017 C 
HETATM   11  C6  UNL     1     -36.616  15.142  -6.785  1.00 20.00     0.018 C 
ENDBRANCH   5   7
TORSDOF 2
ENDMDL
