MODEL 1
REMARK VINA RESULT:      -5.7      0.000      0.000
REMARK  1 active torsions:
REMARK  status: ('A' for Active; 'I' for Inactive)
REMARK    1  A    between atoms: C6_6  and  C7_7 
ROOT
HETATM    1  C1  UNL     1     -35.180   4.577   4.401  1.00 20.00     0.051 A 
HETATM    2  C2  UNL     1     -34.194   5.940   6.298  1.00 20.00     0.051 A 
HETATM    3  C3  UNL     1     -34.609   5.410   3.525  1.00 20.00    -0.013 A 
HETATM    4  C4  UNL     1     -33.635   6.758   5.400  1.00 20.00    -0.013 A 
HETATM    5  C5  UNL     1     -34.998   4.778   5.856  1.00 20.00     0.171 A 
HETATM    6  C6  UNL     1     -33.755   6.588   3.909  1.00 20.00     0.044 A 
HETATM    7  O8  UNL     1     -35.502   4.011   6.669  1.00 20.00    -0.289 OA
ENDROOT
BRANCH   6   8
HETATM    8  C7  UNL     1     -32.365   6.456   3.282  1.00 20.00     0.127 C 
HETATM    9 CL9  UNL     1     -32.028   7.860   2.255  1.00 20.00    -0.130 Cl
ENDBRANCH   6   8
TORSDOF 1
ENDMDL
MODEL 2
REMARK VINA RESULT:      -4.7     12.040     12.446
REMARK  1 active torsions:
REMARK  status: ('A' for Active; 'I' for Inactive)
REMARK    1  A    between atoms: C6_6  and  C7_7 
ROOT
HETATM    1  C1  UNL     1     -33.491  14.222  -3.801  1.00 20.00     0.051 A 
HETATM    2  C2  UNL     1     -36.020  14.394  -3.814  1.00 20.00     0.051 A 
HETATM    3  C3  UNL     1     -33.429  15.393  -3.158  1.00 20.00    -0.013 A 
HETATM    4  C4  UNL     1     -35.930  15.563  -3.171  1.00 20.00    -0.013 A 
HETATM    5  C5  UNL     1     -34.799  13.632  -4.162  1.00 20.00     0.171 A 
HETATM    6  C6  UNL     1     -34.632  16.198  -2.748  1.00 20.00     0.044 A 
HETATM    7  O8  UNL     1     -34.870  12.551  -4.736  1.00 20.00    -0.289 OA
ENDROOT
BRANCH   6   8
HETATM    8  C7  UNL     1     -34.625  16.420  -1.234  1.00 20.00     0.127 C 
HETATM    9 CL9  UNL     1     -33.442  17.668  -0.809  1.00 20.00    -0.130 Cl
ENDBRANCH   6   8
TORSDOF 1
ENDMDL
MODEL 3
REMARK VINA RESULT:      -4.7     12.062     13.187
REMARK  1 active torsions:
REMARK  status: ('A' for Active; 'I' for Inactive)
REMARK    1  A    between atoms: C6_6  and  C7_7 
ROOT
HETATM    1  C1  UNL     1     -33.393  13.844  -3.739  1.00 20.00     0.051 A 
HETATM    2  C2  UNL     1     -34.683  14.647  -5.768  1.00 20.00     0.051 A 
HETATM    3  C3  UNL     1     -32.858  15.064  -3.615  1.00 20.00    -0.013 A 
HETATM    4  C4  UNL     1     -34.133  15.857  -5.622  1.00 20.00    -0.013 A 
HETATM    5  C5  UNL     1     -34.360  13.556  -4.822  1.00 20.00     0.171 A 
HETATM    6  C6  UNL     1     -33.171  16.222  -4.523  1.00 20.00     0.044 A 
HETATM    7  O8  UNL     1     -34.871  12.447  -4.936  1.00 20.00    -0.289 OA
ENDROOT
BRANCH   6   8
HETATM    8  C7  UNL     1     -33.723  17.394  -3.709  1.00 20.00     0.127 C 
HETATM    9 CL9  UNL     1     -33.778  16.966  -1.990  1.00 20.00    -0.130 Cl
ENDBRANCH   6   8
TORSDOF 1
ENDMDL
MODEL 4
REMARK VINA RESULT:      -4.6     11.875     12.760
REMARK  1 active torsions:
REMARK  status: ('A' for Active; 'I' for Inactive)
REMARK    1  A    between atoms: C6_6  and  C7_7 
ROOT
HETATM    1  C1  UNL     1     -33.339  13.909  -3.770  1.00 20.00     0.051 A 
HETATM    2  C2  UNL     1     -35.557  14.836  -4.574  1.00 20.00     0.051 A 
HETATM    3  C3  UNL     1     -32.902  15.159  -3.579  1.00 20.00    -0.013 A 
HETATM    4  C4  UNL     1     -35.095  16.075  -4.375  1.00 20.00    -0.013 A 
HETATM    5  C5  UNL     1     -34.710  13.661  -4.270  1.00 20.00     0.171 A 
HETATM    6  C6  UNL     1     -33.725  16.392  -3.838  1.00 20.00     0.044 A 
HETATM    7  O8  UNL     1     -35.128  12.520  -4.432  1.00 20.00    -0.289 OA
ENDROOT
BRANCH   6   8
HETATM    8  C7  UNL     1     -33.841  17.224  -2.560  1.00 20.00     0.127 C 
HETATM    9 CL9  UNL     1     -34.651  16.285  -1.295  1.00 20.00    -0.130 Cl
ENDBRANCH   6   8
TORSDOF 1
ENDMDL
MODEL 5
REMARK VINA RESULT:      -4.5     12.628     13.720
REMARK  1 active torsions:
REMARK  status: ('A' for Active; 'I' for Inactive)
REMARK    1  A    between atoms: C6_6  and  C7_7 
ROOT
HETATM    1  C1  UNL     1     -33.560  14.186  -3.687  1.00 20.00     0.051 A 
HETATM    2  C2  UNL     1     -34.661  14.480  -5.952  1.00 20.00     0.051 A 
HETATM    3  C3  UNL     1     -32.995  15.391  -3.822  1.00 20.00    -0.013 A 
HETATM    4  C4  UNL     1     -34.082  15.681  -6.061  1.00 20.00    -0.013 A 
HETATM    5  C5  UNL     1     -34.449  13.652  -4.743  1.00 20.00     0.171 A 
HETATM    6  C6  UNL     1     -33.196  16.292  -5.010  1.00 20.00     0.044 A 
HETATM    7  O8  UNL     1     -34.988  12.557  -4.623  1.00 20.00    -0.289 OA
ENDROOT
BRANCH   6   8
HETATM    8  C7  UNL     1     -33.770  17.637  -4.557  1.00 20.00     0.127 C 
HETATM    9 CL9  UNL     1     -33.568  18.845  -5.837  1.00 20.00    -0.130 Cl
ENDBRANCH   6   8
TORSDOF 1
ENDMDL
MODEL 6
REMARK VINA RESULT:      -4.5     12.162     12.761
REMARK  1 active torsions:
REMARK  status: ('A' for Active; 'I' for Inactive)
REMARK    1  A    between atoms: C6_6  and  C7_7 
ROOT
HETATM    1  C1  UNL     1     -35.856  14.562  -3.711  1.00 20.00     0.051 A 
HETATM    2  C2  UNL     1     -33.392  13.979  -3.838  1.00 20.00     0.051 A 
HETATM    3  C3  UNL     1     -35.535  15.733  -3.150  1.00 20.00    -0.013 A 
HETATM    4  C4  UNL     1     -33.099  15.156  -3.274  1.00 20.00    -0.013 A 
HETATM    5  C5  UNL     1     -34.798  13.606  -4.109  1.00 20.00     0.171 A 
HETATM    6  C6  UNL     1     -34.126  16.183  -2.878  1.00 20.00     0.044 A 
HETATM    7  O8  UNL     1     -35.078  12.537  -4.641  1.00 20.00    -0.289 OA
ENDROOT
BRANCH   6   8
HETATM    8  C7  UNL     1     -33.850  17.506  -3.596  1.00 20.00     0.127 C 
HETATM    9 CL9  UNL     1     -33.365  17.198  -5.272  1.00 20.00    -0.130 Cl
ENDBRANCH   6   8
TORSDOF 1
ENDMDL
MODEL 7
REMARK VINA RESULT:      -4.3      3.044      4.055
REMARK  1 active torsions:
REMARK  status: ('A' for Active; 'I' for Inactive)
REMARK    1  A    between atoms: C6_6  and  C7_7 
ROOT
HETATM    1  C1  UNL     1     -33.148   6.963   5.041  1.00 20.00     0.051 A 
HETATM    2  C2  UNL     1     -33.111   6.014   2.690  1.00 20.00     0.051 A 
HETATM    3  C3  UNL     1     -34.288   6.303   5.274  1.00 20.00    -0.013 A 
HETATM    4  C4  UNL     1     -34.252   5.365   2.950  1.00 20.00    -0.013 A 
HETATM    5  C5  UNL     1     -32.471   6.851   3.729  1.00 20.00     0.171 A 
HETATM    6  C6  UNL     1     -34.970   5.413   4.271  1.00 20.00     0.044 A 
HETATM    7  O8  UNL     1     -31.416   7.437   3.509  1.00 20.00    -0.289 OA
ENDROOT
BRANCH   6   8
HETATM    8  C7  UNL     1     -35.118   4.000   4.840  1.00 20.00     0.127 C 
HETATM    9 CL9  UNL     1     -34.362   3.906   6.439  1.00 20.00    -0.130 Cl
ENDBRANCH   6   8
TORSDOF 1
ENDMDL
MODEL 8
REMARK VINA RESULT:      -4.1     12.312     12.808
REMARK  1 active torsions:
REMARK  status: ('A' for Active; 'I' for Inactive)
REMARK    1  A    between atoms: C6_6  and  C7_7 
ROOT
HETATM    1  C1  UNL     1     -36.188  15.660  -3.153  1.00 20.00     0.051 A 
HETATM    2  C2  UNL     1     -35.513  13.488  -4.272  1.00 20.00     0.051 A 
HETATM    3  C3  UNL     1     -34.896  15.987  -3.041  1.00 20.00    -0.013 A 
HETATM    4  C4  UNL     1     -34.228  13.839  -4.146  1.00 20.00    -0.013 A 
HETATM    5  C5  UNL     1     -36.587  14.387  -3.793  1.00 20.00     0.171 A 
HETATM    6  C6  UNL     1     -33.761  15.133  -3.536  1.00 20.00     0.044 A 
HETATM    7  O8  UNL     1     -37.769  14.084  -3.918  1.00 20.00    -0.289 OA
ENDROOT
BRANCH   6   8
HETATM    8  C7  UNL     1     -32.916  15.914  -4.544  1.00 20.00     0.127 C 
HETATM    9 CL9  UNL     1     -33.883  16.299  -5.977  1.00 20.00    -0.130 Cl
ENDBRANCH   6   8
TORSDOF 1
ENDMDL
MODEL 9
REMARK VINA RESULT:      -4.1     12.327     13.371
REMARK  1 active torsions:
REMARK  status: ('A' for Active; 'I' for Inactive)
REMARK    1  A    between atoms: C6_6  and  C7_7 
ROOT
HETATM    1  C1  UNL     1     -34.711  13.699  -4.817  1.00 20.00     0.051 A 
HETATM    2  C2  UNL     1     -33.934  15.977  -5.614  1.00 20.00     0.051 A 
HETATM    3  C3  UNL     1     -34.332  14.019  -3.576  1.00 20.00    -0.013 A 
HETATM    4  C4  UNL     1     -33.563  16.271  -4.363  1.00 20.00    -0.013 A 
HETATM    5  C5  UNL     1     -34.550  14.667  -5.925  1.00 20.00     0.171 A 
HETATM    6  C6  UNL     1     -33.730  15.344  -3.190  1.00 20.00     0.044 A 
HETATM    7  O8  UNL     1     -34.910  14.392  -7.065  1.00 20.00    -0.289 OA
ENDROOT
BRANCH   6   8
HETATM    8  C7  UNL     1     -34.582  16.012  -2.109  1.00 20.00     0.127 C 
HETATM    9 CL9  UNL     1     -33.612  17.198  -1.219  1.00 20.00    -0.130 Cl
ENDBRANCH   6   8
TORSDOF 1
ENDMDL
