MODEL 1
REMARK VINA RESULT:      -5.4      0.000      0.000
REMARK  1 active torsions:
REMARK  status: ('A' for Active; 'I' for Inactive)
REMARK    1  A    between atoms: C1_1  and  C3_3 
ROOT
HETATM    1  C1  UNL     1     -35.678  14.773  -3.890  1.00 20.00     0.038 A 
HETATM    2  C2  UNL     1     -34.688  13.682  -4.154  1.00 20.00     0.160 A 
HETATM    3  C4  UNL     1     -33.330  14.132  -3.647  1.00 20.00     0.090 A 
HETATM    4  C5  UNL     1     -35.029  15.897  -3.199  1.00 20.00     0.039 A 
HETATM    5  C6  UNL     1     -33.567  15.500  -3.045  1.00 20.00     0.011 A 
HETATM    6  C7  UNL     1     -33.945  16.736  -3.845  1.00 20.00    -0.035 A 
HETATM    7  C9  UNL     1     -33.780  16.750  -5.345  1.00 20.00     0.016 C 
HETATM    8  C10 UNL     1     -33.653  18.073  -3.209  1.00 20.00     0.016 C 
HETATM    9  O12 UNL     1     -34.925  12.614  -4.691  1.00 20.00    -0.293 OA
ENDROOT
BRANCH   1  10
HETATM   10  C3  UNL     1     -36.951  14.651  -4.276  1.00 20.00     0.155 C 
HETATM   11  C8  UNL     1     -37.346  15.223  -5.629  1.00 20.00     0.096 C 
HETATM   12  O11 UNL     1     -37.947  14.120  -3.697  1.00 20.00    -0.293 OA
ENDBRANCH   1  10
TORSDOF 1
ENDMDL
MODEL 2
REMARK VINA RESULT:      -5.1      2.121      3.144
REMARK  1 active torsions:
REMARK  status: ('A' for Active; 'I' for Inactive)
REMARK    1  A    between atoms: C1_1  and  C3_3 
ROOT
HETATM    1  C1  UNL     1     -33.778  15.246  -3.693  1.00 20.00     0.038 A 
HETATM    2  C2  UNL     1     -33.716  16.209  -4.838  1.00 20.00     0.160 A 
HETATM    3  C4  UNL     1     -33.702  17.620  -4.279  1.00 20.00     0.090 A 
HETATM    4  C5  UNL     1     -33.765  15.972  -2.414  1.00 20.00     0.039 A 
HETATM    5  C6  UNL     1     -33.717  17.450  -2.775  1.00 20.00     0.011 A 
HETATM    6  C7  UNL     1     -34.891  16.892  -1.986  1.00 20.00    -0.035 A 
HETATM    7  C9  UNL     1     -36.254  16.783  -2.626  1.00 20.00     0.016 C 
HETATM    8  C10 UNL     1     -34.956  17.249  -0.521  1.00 20.00     0.016 C 
HETATM    9  O12 UNL     1     -33.690  15.915  -6.020  1.00 20.00    -0.293 OA
ENDROOT
BRANCH   1  10
HETATM   10  C3  UNL     1     -33.841  13.930  -3.907  1.00 20.00     0.155 C 
HETATM   11  C8  UNL     1     -35.179  13.337  -4.323  1.00 20.00     0.096 C 
HETATM   12  O11 UNL     1     -32.950  13.031  -3.826  1.00 20.00    -0.293 OA
ENDBRANCH   1  10
TORSDOF 1
ENDMDL
MODEL 3
REMARK VINA RESULT:      -5.0      1.178      3.002
REMARK  1 active torsions:
REMARK  status: ('A' for Active; 'I' for Inactive)
REMARK    1  A    between atoms: C1_1  and  C3_3 
ROOT
HETATM    1  C1  UNL     1     -35.209  14.957  -3.789  1.00 20.00     0.038 A 
HETATM    2  C2  UNL     1     -36.690  15.048  -3.592  1.00 20.00     0.160 A 
HETATM    3  C4  UNL     1     -37.053  16.501  -3.342  1.00 20.00     0.090 A 
HETATM    4  C5  UNL     1     -34.600  16.293  -3.716  1.00 20.00     0.039 A 
HETATM    5  C6  UNL     1     -35.745  17.257  -3.439  1.00 20.00     0.011 A 
HETATM    6  C7  UNL     1     -34.600  17.123  -2.448  1.00 20.00    -0.035 A 
HETATM    7  C9  UNL     1     -34.829  16.469  -1.107  1.00 20.00     0.016 C 
HETATM    8  C10 UNL     1     -33.618  18.267  -2.385  1.00 20.00     0.016 C 
HETATM    9  O12 UNL     1     -37.475  14.117  -3.618  1.00 20.00    -0.293 OA
ENDROOT
BRANCH   1  10
HETATM   10  C3  UNL     1     -34.616  13.777  -3.989  1.00 20.00     0.155 C 
HETATM   11  C8  UNL     1     -33.137  13.654  -3.654  1.00 20.00     0.096 C 
HETATM   12  O11 UNL     1     -35.076  12.680  -4.428  1.00 20.00    -0.293 OA
ENDBRANCH   1  10
TORSDOF 1
ENDMDL
MODEL 4
REMARK VINA RESULT:      -4.9      1.804      2.629
REMARK  1 active torsions:
REMARK  status: ('A' for Active; 'I' for Inactive)
REMARK    1  A    between atoms: C1_1  and  C3_3 
ROOT
HETATM    1  C1  UNL     1     -34.801  14.725  -3.875  1.00 20.00     0.038 A 
HETATM    2  C2  UNL     1     -33.499  15.238  -3.341  1.00 20.00     0.160 A 
HETATM    3  C4  UNL     1     -33.793  16.300  -2.298  1.00 20.00     0.090 A 
HETATM    4  C5  UNL     1     -35.927  15.381  -3.194  1.00 20.00     0.039 A 
HETATM    5  C6  UNL     1     -35.303  16.362  -2.211  1.00 20.00     0.011 A 
HETATM    6  C7  UNL     1     -36.207  16.865  -3.326  1.00 20.00    -0.035 A 
HETATM    7  C9  UNL     1     -35.629  17.654  -4.475  1.00 20.00     0.016 C 
HETATM    8  C10 UNL     1     -37.585  17.333  -2.925  1.00 20.00     0.016 C 
HETATM    9  O12 UNL     1     -32.389  14.874  -3.688  1.00 20.00    -0.293 OA
ENDROOT
BRANCH   1  10
HETATM   10  C3  UNL     1     -34.829  13.803  -4.841  1.00 20.00     0.155 C 
HETATM   11  C8  UNL     1     -34.955  14.280  -6.280  1.00 20.00     0.096 C 
HETATM   12  O11 UNL     1     -34.768  12.537  -4.784  1.00 20.00    -0.293 OA
ENDBRANCH   1  10
TORSDOF 1
ENDMDL
MODEL 5
REMARK VINA RESULT:      -4.9      1.796      2.621
REMARK  1 active torsions:
REMARK  status: ('A' for Active; 'I' for Inactive)
REMARK    1  A    between atoms: C1_1  and  C3_3 
ROOT
HETATM    1  C1  UNL     1     -34.813  15.181  -3.643  1.00 20.00     0.038 A 
HETATM    2  C2  UNL     1     -34.285  16.133  -4.670  1.00 20.00     0.160 A 
HETATM    3  C4  UNL     1     -33.555  17.256  -3.955  1.00 20.00     0.090 A 
HETATM    4  C5  UNL     1     -34.424  15.617  -2.293  1.00 20.00     0.039 A 
HETATM    5  C6  UNL     1     -33.640  16.908  -2.484  1.00 20.00     0.011 A 
HETATM    6  C7  UNL     1     -34.928  16.906  -1.676  1.00 20.00    -0.035 A 
HETATM    7  C9  UNL     1     -36.165  17.581  -2.215  1.00 20.00     0.016 C 
HETATM    8  C10 UNL     1     -34.791  17.040  -0.178  1.00 20.00     0.016 C 
HETATM    9  O12 UNL     1     -34.421  16.033  -5.877  1.00 20.00    -0.293 OA
ENDROOT
BRANCH   1  10
HETATM   10  C3  UNL     1     -35.534  14.115  -4.002  1.00 20.00     0.155 C 
HETATM   11  C8  UNL     1     -37.033  14.296  -4.186  1.00 20.00     0.096 C 
HETATM   12  O11 UNL     1     -35.187  12.917  -4.233  1.00 20.00    -0.293 OA
ENDBRANCH   1  10
TORSDOF 1
ENDMDL
MODEL 6
REMARK VINA RESULT:      -4.8      1.960      3.525
REMARK  1 active torsions:
REMARK  status: ('A' for Active; 'I' for Inactive)
REMARK    1  A    between atoms: C1_1  and  C3_3 
ROOT
HETATM    1  C1  UNL     1     -33.875  15.024  -4.983  1.00 20.00     0.038 A 
HETATM    2  C2  UNL     1     -34.699  13.836  -5.373  1.00 20.00     0.160 A 
HETATM    3  C4  UNL     1     -35.292  14.092  -6.746  1.00 20.00     0.090 A 
HETATM    4  C5  UNL     1     -33.877  16.023  -6.062  1.00 20.00     0.039 A 
HETATM    5  C6  UNL     1     -34.757  15.446  -7.161  1.00 20.00     0.011 A 
HETATM    6  C7  UNL     1     -35.131  16.758  -6.491  1.00 20.00    -0.035 A 
HETATM    7  C9  UNL     1     -36.327  16.831  -5.574  1.00 20.00     0.016 C 
HETATM    8  C10 UNL     1     -34.935  18.016  -7.303  1.00 20.00     0.016 C 
HETATM    9  O12 UNL     1     -34.874  12.834  -4.701  1.00 20.00    -0.293 OA
ENDROOT
BRANCH   1  10
HETATM   10  C3  UNL     1     -33.268  15.077  -3.795  1.00 20.00     0.155 C 
HETATM   11  C8  UNL     1     -33.953  15.846  -2.676  1.00 20.00     0.096 C 
HETATM   12  O11 UNL     1     -32.170  14.580  -3.400  1.00 20.00    -0.293 OA
ENDBRANCH   1  10
TORSDOF 1
ENDMDL
MODEL 7
REMARK VINA RESULT:      -4.7      1.478      1.768
REMARK  1 active torsions:
REMARK  status: ('A' for Active; 'I' for Inactive)
REMARK    1  A    between atoms: C1_1  and  C3_3 
ROOT
HETATM    1  C1  UNL     1     -35.781  15.385  -3.495  1.00 20.00     0.038 A 
HETATM    2  C2  UNL     1     -34.911  15.228  -4.704  1.00 20.00     0.160 A 
HETATM    3  C4  UNL     1     -33.479  15.539  -4.309  1.00 20.00     0.090 A 
HETATM    4  C5  UNL     1     -34.968  15.748  -2.325  1.00 20.00     0.039 A 
HETATM    5  C6  UNL     1     -33.534  15.844  -2.828  1.00 20.00     0.011 A 
HETATM    6  C7  UNL     1     -34.218  17.061  -2.227  1.00 20.00    -0.035 A 
HETATM    7  C9  UNL     1     -34.601  18.228  -3.104  1.00 20.00     0.016 C 
HETATM    8  C10 UNL     1     -33.767  17.484  -0.850  1.00 20.00     0.016 C 
HETATM    9  O12 UNL     1     -35.286  14.911  -5.819  1.00 20.00    -0.293 OA
ENDROOT
BRANCH   1  10
HETATM   10  C3  UNL     1     -37.102  15.207  -3.574  1.00 20.00     0.155 C 
HETATM   11  C8  UNL     1     -37.997  16.430  -3.441  1.00 20.00     0.096 C 
HETATM   12  O11 UNL     1     -37.789  14.156  -3.747  1.00 20.00    -0.293 OA
ENDBRANCH   1  10
TORSDOF 1
ENDMDL
MODEL 8
REMARK VINA RESULT:      -4.7      2.922      3.994
REMARK  1 active torsions:
REMARK  status: ('A' for Active; 'I' for Inactive)
REMARK    1  A    between atoms: C1_1  and  C3_3 
ROOT
HETATM    1  C1  UNL     1     -34.639  16.421  -2.206  1.00 20.00     0.038 A 
HETATM    2  C2  UNL     1     -33.979  17.571  -2.902  1.00 20.00     0.160 A 
HETATM    3  C4  UNL     1     -33.460  18.535  -1.850  1.00 20.00     0.090 A 
HETATM    4  C5  UNL     1     -34.537  16.579  -0.748  1.00 20.00     0.039 A 
HETATM    5  C6  UNL     1     -33.803  17.894  -0.523  1.00 20.00     0.011 A 
HETATM    6  C7  UNL     1     -35.218  17.708   0.000  1.00 20.00    -0.035 A 
HETATM    7  C9  UNL     1     -36.366  18.460  -0.628  1.00 20.00     0.016 C 
HETATM    8  C10 UNL     1     -35.374  17.536   1.492  1.00 20.00     0.016 C 
HETATM    9  O12 UNL     1     -33.879  17.717  -4.108  1.00 20.00    -0.293 OA
ENDROOT
BRANCH   1  10
HETATM   10  C3  UNL     1     -35.220  15.441  -2.903  1.00 20.00     0.155 C 
HETATM   11  C8  UNL     1     -34.338  14.317  -3.425  1.00 20.00     0.096 C 
HETATM   12  O11 UNL     1     -36.431  15.259  -3.230  1.00 20.00    -0.293 OA
ENDBRANCH   1  10
TORSDOF 1
ENDMDL
MODEL 9
REMARK VINA RESULT:      -4.5      2.581      3.982
REMARK  1 active torsions:
REMARK  status: ('A' for Active; 'I' for Inactive)
REMARK    1  A    between atoms: C1_1  and  C3_3 
ROOT
HETATM    1  C1  UNL     1     -34.792  16.827  -3.314  1.00 20.00     0.038 A 
HETATM    2  C2  UNL     1     -33.859  17.712  -4.081  1.00 20.00     0.160 A 
HETATM    3  C4  UNL     1     -33.471  17.003  -5.366  1.00 20.00     0.090 A 
HETATM    4  C5  UNL     1     -35.057  15.591  -4.065  1.00 20.00     0.039 A 
HETATM    5  C6  UNL     1     -34.237  15.698  -5.343  1.00 20.00     0.011 A 
HETATM    6  C7  UNL     1     -33.978  14.568  -4.359  1.00 20.00    -0.035 A 
HETATM    7  C9  UNL     1     -32.706  14.542  -3.548  1.00 20.00     0.016 C 
HETATM    8  C10 UNL     1     -34.443  13.191  -4.767  1.00 20.00     0.016 C 
HETATM    9  O12 UNL     1     -33.467  18.812  -3.733  1.00 20.00    -0.293 OA
ENDROOT
BRANCH   1  10
HETATM   10  C3  UNL     1     -35.258  17.196  -2.118  1.00 20.00     0.155 C 
HETATM   11  C8  UNL     1     -34.596  16.610  -0.881  1.00 20.00     0.096 C 
HETATM   12  O11 UNL     1     -36.199  17.985  -1.801  1.00 20.00    -0.293 OA
ENDBRANCH   1  10
TORSDOF 1
ENDMDL
