MODEL 1
REMARK VINA RESULT:      -5.4      0.000      0.000
REMARK  0 active torsions:
REMARK  status: ('A' for Active; 'I' for Inactive)
ROOT
HETATM    1  C1  UNL     1     -34.613  15.632  -2.645  1.00 20.00     0.009 C 
HETATM    2  C2  UNL     1     -35.937  13.975  -3.984  1.00 20.00     0.012 C 
HETATM    3  C3  UNL     1     -33.442  13.754  -3.831  1.00 20.00     0.012 C 
HETATM    4  C4  UNL     1     -35.681  16.332  -4.804  1.00 20.00     0.051 C 
HETATM    5  C5  UNL     1     -33.188  16.112  -4.651  1.00 20.00     0.051 C 
HETATM    6  C6  UNL     1     -35.843  15.451  -3.553  1.00 20.00    -0.010 C 
HETATM    7  C7  UNL     1     -33.332  15.229  -3.400  1.00 20.00    -0.010 C 
HETATM    8  C8  UNL     1     -34.663  13.561  -4.747  1.00 20.00     0.024 C 
HETATM    9  C9  UNL     1     -34.502  14.456  -5.987  1.00 20.00     0.213 C 
HETATM   10  C10 UNL     1     -34.411  15.925  -5.561  1.00 20.00     0.135 C 
HETATM   11  F11 UNL     1     -35.586  14.292  -6.796  1.00 20.00    -0.246 F 
HETATM   12  F12 UNL     1     -34.271  16.703  -6.662  1.00 20.00    -0.240 F 
ENDROOT
TORSDOF 0
ENDMDL
MODEL 2
REMARK VINA RESULT:      -5.3      0.823      2.500
REMARK  0 active torsions:
REMARK  status: ('A' for Active; 'I' for Inactive)
ROOT
HETATM    1  C1  UNL     1     -33.472  13.738  -3.873  1.00 20.00     0.009 C 
HETATM    2  C2  UNL     1     -34.597  15.606  -2.634  1.00 20.00     0.012 C 
HETATM    3  C3  UNL     1     -35.963  14.021  -4.019  1.00 20.00     0.012 C 
HETATM    4  C4  UNL     1     -33.157  16.111  -4.625  1.00 20.00     0.051 C 
HETATM    5  C5  UNL     1     -34.520  14.526  -6.009  1.00 20.00     0.051 C 
HETATM    6  C6  UNL     1     -33.325  15.196  -3.399  1.00 20.00    -0.010 C 
HETATM    7  C7  UNL     1     -34.699  13.601  -4.794  1.00 20.00    -0.010 C 
HETATM    8  C8  UNL     1     -35.832  15.480  -3.548  1.00 20.00     0.024 C 
HETATM    9  C9  UNL     1     -35.649  16.385  -4.776  1.00 20.00     0.213 C 
HETATM   10  C10 UNL     1     -34.382  15.980  -5.538  1.00 20.00     0.135 C 
HETATM   11  F11 UNL     1     -35.526  17.677  -4.360  1.00 20.00    -0.246 F 
HETATM   12  F12 UNL     1     -34.231  16.787  -6.617  1.00 20.00    -0.240 F 
ENDROOT
TORSDOF 0
ENDMDL
MODEL 3
REMARK VINA RESULT:      -5.3      1.438      2.637
REMARK  0 active torsions:
REMARK  status: ('A' for Active; 'I' for Inactive)
ROOT
HETATM    1  C1  UNL     1     -33.099  16.284  -4.570  1.00 20.00     0.009 C 
HETATM    2  C2  UNL     1     -35.578  16.660  -4.594  1.00 20.00     0.012 C 
HETATM    3  C3  UNL     1     -34.465  15.775  -2.527  1.00 20.00     0.012 C 
HETATM    4  C4  UNL     1     -34.581  14.791  -5.936  1.00 20.00     0.051 C 
HETATM    5  C5  UNL     1     -33.467  13.906  -3.872  1.00 20.00     0.051 C 
HETATM    6  C6  UNL     1     -34.367  16.232  -5.443  1.00 20.00    -0.010 C 
HETATM    7  C7  UNL     1     -33.246  15.340  -3.363  1.00 20.00    -0.010 C 
HETATM    8  C8  UNL     1     -35.741  15.718  -3.385  1.00 20.00     0.024 C 
HETATM    9  C9  UNL     1     -35.940  14.279  -3.887  1.00 20.00     0.213 C 
HETATM   10  C10 UNL     1     -34.736  13.852  -4.734  1.00 20.00     0.135 C 
HETATM   11  F11 UNL     1     -37.065  14.228  -4.653  1.00 20.00    -0.246 F 
HETATM   12  F12 UNL     1     -34.924  12.583  -5.172  1.00 20.00    -0.240 F 
ENDROOT
TORSDOF 0
ENDMDL
MODEL 4
REMARK VINA RESULT:      -5.3      0.942      2.863
REMARK  0 active torsions:
REMARK  status: ('A' for Active; 'I' for Inactive)
ROOT
HETATM    1  C1  UNL     1     -34.532  15.745  -2.428  1.00 20.00     0.009 C 
HETATM    2  C2  UNL     1     -33.364  16.548  -4.498  1.00 20.00     0.012 C 
HETATM    3  C3  UNL     1     -35.858  16.759  -4.305  1.00 20.00     0.012 C 
HETATM    4  C4  UNL     1     -33.532  14.090  -4.026  1.00 20.00     0.051 C 
HETATM    5  C5  UNL     1     -36.023  14.300  -3.832  1.00 20.00     0.051 C 
HETATM    6  C6  UNL     1     -33.358  15.479  -3.389  1.00 20.00    -0.010 C 
HETATM    7  C7  UNL     1     -35.867  15.690  -3.194  1.00 20.00    -0.010 C 
HETATM    8  C8  UNL     1     -34.694  16.498  -5.277  1.00 20.00     0.024 C 
HETATM    9  C9  UNL     1     -34.866  15.103  -5.898  1.00 20.00     0.213 C 
HETATM   10  C10 UNL     1     -34.858  14.038  -4.796  1.00 20.00     0.135 C 
HETATM   11  F11 UNL     1     -33.833  14.869  -6.754  1.00 20.00    -0.246 F 
HETATM   12  F12 UNL     1     -35.008  12.813  -5.356  1.00 20.00    -0.240 F 
ENDROOT
TORSDOF 0
ENDMDL
MODEL 5
REMARK VINA RESULT:      -5.2      1.436      2.659
REMARK  0 active torsions:
REMARK  status: ('A' for Active; 'I' for Inactive)
ROOT
HETATM    1  C1  UNL     1     -33.424  13.788  -3.855  1.00 20.00     0.009 C 
HETATM    2  C2  UNL     1     -34.444  14.491  -6.036  1.00 20.00     0.012 C 
HETATM    3  C3  UNL     1     -33.173  16.155  -4.652  1.00 20.00     0.012 C 
HETATM    4  C4  UNL     1     -35.916  13.977  -4.072  1.00 20.00     0.051 C 
HETATM    5  C5  UNL     1     -34.647  15.638  -2.688  1.00 20.00     0.051 C 
HETATM    6  C6  UNL     1     -34.621  13.585  -4.803  1.00 20.00    -0.010 C 
HETATM    7  C7  UNL     1     -33.343  15.260  -3.409  1.00 20.00    -0.010 C 
HETATM    8  C8  UNL     1     -34.368  15.969  -5.604  1.00 20.00     0.024 C 
HETATM    9  C9  UNL     1     -35.660  16.347  -4.861  1.00 20.00     0.213 C 
HETATM   10  C10 UNL     1     -35.839  15.445  -3.636  1.00 20.00     0.135 C 
HETATM   11  F11 UNL     1     -36.719  16.176  -5.701  1.00 20.00    -0.246 F 
HETATM   12  F12 UNL     1     -36.982  15.786  -2.991  1.00 20.00    -0.240 F 
ENDROOT
TORSDOF 0
ENDMDL
MODEL 6
REMARK VINA RESULT:      -5.2      1.471      2.769
REMARK  0 active torsions:
REMARK  status: ('A' for Active; 'I' for Inactive)
ROOT
HETATM    1  C1  UNL     1     -35.780  16.727  -4.619  1.00 20.00     0.009 C 
HETATM    2  C2  UNL     1     -34.692  15.776  -2.569  1.00 20.00     0.012 C 
HETATM    3  C3  UNL     1     -33.282  16.489  -4.519  1.00 20.00     0.012 C 
HETATM    4  C4  UNL     1     -36.036  14.290  -4.079  1.00 20.00     0.051 C 
HETATM    5  C5  UNL     1     -34.629  15.003  -6.028  1.00 20.00     0.051 C 
HETATM    6  C6  UNL     1     -35.933  15.703  -3.479  1.00 20.00    -0.010 C 
HETATM    7  C7  UNL     1     -34.515  16.420  -5.442  1.00 20.00    -0.010 C 
HETATM    8  C8  UNL     1     -33.418  15.463  -3.380  1.00 20.00     0.024 C 
HETATM    9  C9  UNL     1     -33.537  14.056  -3.988  1.00 20.00     0.213 C 
HETATM   10  C10 UNL     1     -34.772  13.981  -4.891  1.00 20.00     0.135 C 
HETATM   11  F11 UNL     1     -33.664  13.148  -2.980  1.00 20.00    -0.246 F 
HETATM   12  F12 UNL     1     -34.866  12.736  -5.420  1.00 20.00    -0.240 F 
ENDROOT
TORSDOF 0
ENDMDL
MODEL 7
REMARK VINA RESULT:      -5.1      1.504      2.864
REMARK  0 active torsions:
REMARK  status: ('A' for Active; 'I' for Inactive)
ROOT
HETATM    1  C1  UNL     1     -36.205  14.085  -4.006  1.00 20.00     0.009 C 
HETATM    2  C2  UNL     1     -35.791  16.440  -4.761  1.00 20.00     0.012 C 
HETATM    3  C3  UNL     1     -35.067  14.517  -6.202  1.00 20.00     0.012 C 
HETATM    4  C4  UNL     1     -34.489  15.494  -2.837  1.00 20.00     0.051 C 
HETATM    5  C5  UNL     1     -33.766  13.571  -4.275  1.00 20.00     0.051 C 
HETATM    6  C6  UNL     1     -35.860  15.511  -3.536  1.00 20.00    -0.010 C 
HETATM    7  C7  UNL     1     -35.131  13.574  -4.985  1.00 20.00    -0.010 C 
HETATM    8  C8  UNL     1     -34.713  15.944  -5.746  1.00 20.00     0.024 C 
HETATM    9  C9  UNL     1     -33.351  15.917  -5.036  1.00 20.00     0.213 C 
HETATM   10  C10 UNL     1     -33.418  14.994  -3.814  1.00 20.00     0.135 C 
HETATM   11  F11 UNL     1     -33.040  17.178  -4.626  1.00 20.00    -0.246 F 
HETATM   12  F12 UNL     1     -32.212  14.980  -3.196  1.00 20.00    -0.240 F 
ENDROOT
TORSDOF 0
ENDMDL
MODEL 8
REMARK VINA RESULT:      -5.1      1.855      2.929
REMARK  0 active torsions:
REMARK  status: ('A' for Active; 'I' for Inactive)
ROOT
HETATM    1  C1  UNL     1     -35.876  16.275  -5.525  1.00 20.00     0.009 C 
HETATM    2  C2  UNL     1     -34.681  14.101  -5.893  1.00 20.00     0.012 C 
HETATM    3  C3  UNL     1     -36.501  14.255  -4.172  1.00 20.00     0.012 C 
HETATM    4  C4  UNL     1     -33.486  16.020  -4.807  1.00 20.00     0.051 C 
HETATM    5  C5  UNL     1     -35.304  16.176  -3.087  1.00 20.00     0.051 C 
HETATM    6  C6  UNL     1     -34.521  15.633  -5.877  1.00 20.00    -0.010 C 
HETATM    7  C7  UNL     1     -36.352  15.788  -4.144  1.00 20.00    -0.010 C 
HETATM    8  C8  UNL     1     -35.151  13.600  -4.513  1.00 20.00     0.024 C 
HETATM    9  C9  UNL     1     -34.118  14.004  -3.449  1.00 20.00     0.213 C 
HETATM   10  C10 UNL     1     -33.956  15.528  -3.432  1.00 20.00     0.135 C 
HETATM   11  F11 UNL     1     -32.921  13.431  -3.753  1.00 20.00    -0.246 F 
HETATM   12  F12 UNL     1     -33.042  15.871  -2.492  1.00 20.00    -0.240 F 
ENDROOT
TORSDOF 0
ENDMDL
MODEL 9
REMARK VINA RESULT:      -5.1      1.799      3.236
REMARK  0 active torsions:
REMARK  status: ('A' for Active; 'I' for Inactive)
ROOT
HETATM    1  C1  UNL     1     -34.508  14.553  -6.057  1.00 20.00     0.009 C 
HETATM    2  C2  UNL     1     -33.124  16.089  -4.638  1.00 20.00     0.012 C 
HETATM    3  C3  UNL     1     -33.531  13.727  -3.896  1.00 20.00     0.012 C 
HETATM    4  C4  UNL     1     -35.597  16.457  -4.839  1.00 20.00     0.051 C 
HETATM    5  C5  UNL     1     -36.005  14.097  -4.099  1.00 20.00     0.051 C 
HETATM    6  C6  UNL     1     -34.331  16.010  -5.591  1.00 20.00    -0.010 C 
HETATM    7  C7  UNL     1     -34.743  13.633  -4.844  1.00 20.00    -0.010 C 
HETATM    8  C8  UNL     1     -33.349  15.178  -3.416  1.00 20.00     0.024 C 
HETATM    9  C9  UNL     1     -34.623  15.622  -2.680  1.00 20.00     0.213 C 
HETATM   10  C10 UNL     1     -35.825  15.546  -3.627  1.00 20.00     0.135 C 
HETATM   11  F11 UNL     1     -34.466  16.909  -2.260  1.00 20.00    -0.246 F 
HETATM   12  F12 UNL     1     -36.941  15.942  -2.967  1.00 20.00    -0.240 F 
ENDROOT
TORSDOF 0
ENDMDL
