MODEL 1
REMARK VINA RESULT:      -5.4      0.000      0.000
REMARK  1 active torsions:
REMARK  status: ('A' for Active; 'I' for Inactive)
REMARK    1  A    between atoms: C8_8  and  C12_12 
ROOT
HETATM    1  C1  UNL     1     -34.322  15.780  -6.197  1.00 20.00    -0.023 C 
HETATM    2  C2  UNL     1     -33.750  16.624  -5.318  1.00 20.00    -0.081 C 
HETATM    3  C3  UNL     1     -34.622  14.339  -5.876  1.00 20.00     0.034 C 
HETATM    4  C4  UNL     1     -33.113  14.644  -3.914  1.00 20.00     0.018 C 
HETATM    5  C5  UNL     1     -35.605  14.541  -3.541  1.00 20.00     0.173 C 
HETATM    6  C6  UNL     1     -33.331  16.164  -3.923  1.00 20.00     0.043 C 
HETATM    7  C7  UNL     1     -34.424  14.008  -4.383  1.00 20.00     0.014 C 
HETATM    8  C8  UNL     1     -34.432  16.522  -2.891  1.00 20.00     0.133 C 
HETATM    9  C9  UNL     1     -33.478  18.060  -5.661  1.00 20.00     0.043 C 
HETATM   10  O13 UNL     1     -35.158  15.359  -2.460  1.00 20.00    -0.384 OA
ENDROOT
BRANCH   8  11
HETATM   11  C12 UNL     1     -33.824  17.141  -1.636  1.00 20.00     0.007 C 
HETATM   12  C10 UNL     1     -33.591  18.637  -1.836  1.00 20.00     0.012 C 
HETATM   13  C11 UNL     1     -34.724  16.894  -0.428  1.00 20.00     0.012 C 
ENDBRANCH   8  11
TORSDOF 1
ENDMDL
MODEL 2
REMARK VINA RESULT:      -5.0      1.596      2.773
REMARK  1 active torsions:
REMARK  status: ('A' for Active; 'I' for Inactive)
REMARK    1  A    between atoms: C8_8  and  C12_12 
ROOT
HETATM    1  C1  UNL     1     -34.838  13.683  -5.554  1.00 20.00    -0.023 C 
HETATM    2  C2  UNL     1     -34.522  14.859  -6.128  1.00 20.00    -0.081 C 
HETATM    3  C3  UNL     1     -34.675  13.417  -4.081  1.00 20.00     0.034 C 
HETATM    4  C4  UNL     1     -33.268  15.475  -4.043  1.00 20.00     0.018 C 
HETATM    5  C5  UNL     1     -35.597  15.563  -3.080  1.00 20.00     0.173 C 
HETATM    6  C6  UNL     1     -33.938  16.013  -5.315  1.00 20.00     0.043 C 
HETATM    7  C7  UNL     1     -34.338  14.690  -3.280  1.00 20.00     0.014 C 
HETATM    8  C8  UNL     1     -35.062  17.004  -4.913  1.00 20.00     0.133 C 
HETATM    9  C9  UNL     1     -34.710  15.102  -7.597  1.00 20.00     0.043 C 
HETATM   10  O13 UNL     1     -35.385  16.906  -3.516  1.00 20.00    -0.384 OA
ENDROOT
BRANCH   8  11
HETATM   11  C12 UNL     1     -34.630  18.448  -5.155  1.00 20.00     0.007 C 
HETATM   12  C10 UNL     1     -33.970  19.025  -3.905  1.00 20.00     0.012 C 
HETATM   13  C11 UNL     1     -33.685  18.530  -6.350  1.00 20.00     0.012 C 
ENDBRANCH   8  11
TORSDOF 1
ENDMDL
MODEL 3
REMARK VINA RESULT:      -4.9      1.455      4.030
REMARK  1 active torsions:
REMARK  status: ('A' for Active; 'I' for Inactive)
REMARK    1  A    between atoms: C8_8  and  C12_12 
ROOT
HETATM    1  C1  UNL     1     -33.960  17.265  -2.720  1.00 20.00    -0.023 C 
HETATM    2  C2  UNL     1     -34.099  17.507  -4.037  1.00 20.00    -0.081 C 
HETATM    3  C3  UNL     1     -34.585  16.079  -2.032  1.00 20.00     0.034 C 
HETATM    4  C4  UNL     1     -35.972  15.837  -4.090  1.00 20.00     0.018 C 
HETATM    5  C5  UNL     1     -34.081  14.218  -3.687  1.00 20.00     0.173 C 
HETATM    6  C6  UNL     1     -34.938  16.598  -4.933  1.00 20.00     0.043 C 
HETATM    7  C7  UNL     1     -35.189  15.066  -3.024  1.00 20.00     0.014 C 
HETATM    8  C8  UNL     1     -34.025  15.574  -5.657  1.00 20.00     0.133 C 
HETATM    9  C9  UNL     1     -33.451  18.688  -4.698  1.00 20.00     0.043 C 
HETATM   10  O13 UNL     1     -34.168  14.252  -5.111  1.00 20.00    -0.384 OA
ENDROOT
BRANCH   8  11
HETATM   11  C12 UNL     1     -34.385  15.471  -7.136  1.00 20.00     0.007 C 
HETATM   12  C10 UNL     1     -35.431  14.381  -7.358  1.00 20.00     0.012 C 
HETATM   13  C11 UNL     1     -34.888  16.814  -7.659  1.00 20.00     0.012 C 
ENDBRANCH   8  11
TORSDOF 1
ENDMDL
MODEL 4
REMARK VINA RESULT:      -4.8      1.418      2.752
REMARK  1 active torsions:
REMARK  status: ('A' for Active; 'I' for Inactive)
REMARK    1  A    between atoms: C8_8  and  C12_12 
ROOT
HETATM    1  C1  UNL     1     -34.695  14.622  -6.142  1.00 20.00    -0.023 C 
HETATM    2  C2  UNL     1     -34.679  14.636  -4.796  1.00 20.00    -0.081 C 
HETATM    3  C3  UNL     1     -34.984  15.844  -6.973  1.00 20.00     0.034 C 
HETATM    4  C4  UNL     1     -35.827  16.866  -4.861  1.00 20.00     0.018 C 
HETATM    5  C5  UNL     1     -33.595  17.603  -5.775  1.00 20.00     0.173 C 
HETATM    6  C6  UNL     1     -34.987  15.906  -4.006  1.00 20.00     0.043 C 
HETATM    7  C7  UNL     1     -35.023  17.138  -6.136  1.00 20.00     0.014 C 
HETATM    8  C8  UNL     1     -33.669  16.614  -3.598  1.00 20.00     0.133 C 
HETATM    9  C9  UNL     1     -34.371  13.405  -3.994  1.00 20.00     0.043 C 
HETATM   10  O13 UNL     1     -33.442  17.805  -4.370  1.00 20.00    -0.384 OA
ENDROOT
BRANCH   8  11
HETATM   11  C12 UNL     1     -33.711  17.048  -2.136  1.00 20.00     0.007 C 
HETATM   12  C10 UNL     1     -33.932  18.556  -2.033  1.00 20.00     0.012 C 
HETATM   13  C11 UNL     1     -34.802  16.292  -1.384  1.00 20.00     0.012 C 
ENDBRANCH   8  11
TORSDOF 1
ENDMDL
MODEL 5
REMARK VINA RESULT:      -4.8      1.532      1.760
REMARK  1 active torsions:
REMARK  status: ('A' for Active; 'I' for Inactive)
REMARK    1  A    between atoms: C8_8  and  C12_12 
ROOT
HETATM    1  C1  UNL     1     -36.589  15.719  -6.003  1.00 20.00    -0.023 C 
HETATM    2  C2  UNL     1     -36.153  16.626  -5.109  1.00 20.00    -0.081 C 
HETATM    3  C3  UNL     1     -35.762  14.542  -6.450  1.00 20.00     0.034 C 
HETATM    4  C4  UNL     1     -33.828  15.734  -5.420  1.00 20.00     0.018 C 
HETATM    5  C5  UNL     1     -34.808  13.734  -4.237  1.00 20.00     0.173 C 
HETATM    6  C6  UNL     1     -34.756  16.541  -4.499  1.00 20.00     0.043 C 
HETATM    7  C7  UNL     1     -34.481  14.362  -5.610  1.00 20.00     0.014 C 
HETATM    8  C8  UNL     1     -34.821  15.846  -3.114  1.00 20.00     0.133 C 
HETATM    9  C9  UNL     1     -37.007  17.780  -4.671  1.00 20.00     0.043 C 
HETATM   10  O13 UNL     1     -34.286  14.512  -3.161  1.00 20.00    -0.384 OA
ENDROOT
BRANCH   8  11
HETATM   11  C12 UNL     1     -33.993  16.606  -2.082  1.00 20.00     0.007 C 
HETATM   12  C10 UNL     1     -33.733  18.035  -2.553  1.00 20.00     0.012 C 
HETATM   13  C11 UNL     1     -34.696  16.606  -0.727  1.00 20.00     0.012 C 
ENDBRANCH   8  11
TORSDOF 1
ENDMDL
MODEL 6
REMARK VINA RESULT:      -4.8      1.748      4.406
REMARK  1 active torsions:
REMARK  status: ('A' for Active; 'I' for Inactive)
REMARK    1  A    between atoms: C8_8  and  C12_12 
ROOT
HETATM    1  C1  UNL     1     -34.539  15.157  -2.703  1.00 20.00    -0.023 C 
HETATM    2  C2  UNL     1     -34.664  14.706  -3.965  1.00 20.00    -0.081 C 
HETATM    3  C3  UNL     1     -33.992  16.519  -2.367  1.00 20.00     0.034 C 
HETATM    4  C4  UNL     1     -33.174  16.578  -4.722  1.00 20.00     0.018 C 
HETATM    5  C5  UNL     1     -35.176  17.971  -4.084  1.00 20.00     0.173 C 
HETATM    6  C6  UNL     1     -34.223  15.546  -5.162  1.00 20.00     0.043 C 
HETATM    7  C7  UNL     1     -33.816  17.413  -3.611  1.00 20.00     0.014 C 
HETATM    8  C8  UNL     1     -35.442  16.292  -5.767  1.00 20.00     0.133 C 
HETATM    9  C9  UNL     1     -35.229  13.349  -4.270  1.00 20.00     0.043 C 
HETATM   10  O13 UNL     1     -35.411  17.697  -5.465  1.00 20.00    -0.384 OA
ENDROOT
BRANCH   8  11
HETATM   11  C12 UNL     1     -35.451  16.178  -7.288  1.00 20.00     0.007 C 
HETATM   12  C10 UNL     1     -34.717  17.360  -7.918  1.00 20.00     0.012 C 
HETATM   13  C11 UNL     1     -34.825  14.859  -7.730  1.00 20.00     0.012 C 
ENDBRANCH   8  11
TORSDOF 1
ENDMDL
MODEL 7
REMARK VINA RESULT:      -4.8      1.834      4.542
REMARK  1 active torsions:
REMARK  status: ('A' for Active; 'I' for Inactive)
REMARK    1  A    between atoms: C8_8  and  C12_12 
ROOT
HETATM    1  C1  UNL     1     -35.461  16.471  -2.325  1.00 20.00    -0.023 C 
HETATM    2  C2  UNL     1     -36.229  15.847  -3.238  1.00 20.00    -0.081 C 
HETATM    3  C3  UNL     1     -33.972  16.265  -2.224  1.00 20.00     0.034 C 
HETATM    4  C4  UNL     1     -34.327  14.271  -3.678  1.00 20.00     0.018 C 
HETATM    5  C5  UNL     1     -33.290  16.344  -4.670  1.00 20.00     0.173 C 
HETATM    6  C6  UNL     1     -35.638  14.848  -4.230  1.00 20.00     0.043 C 
HETATM    7  C7  UNL     1     -33.401  15.460  -3.408  1.00 20.00     0.014 C 
HETATM    8  C8  UNL     1     -35.351  15.548  -5.585  1.00 20.00     0.133 C 
HETATM    9  C9  UNL     1     -37.708  16.085  -3.325  1.00 20.00     0.043 C 
HETATM   10  O13 UNL     1     -33.944  15.752  -5.792  1.00 20.00    -0.384 OA
ENDROOT
BRANCH   8  11
HETATM   11  C12 UNL     1     -35.841  14.698  -6.753  1.00 20.00     0.007 C 
HETATM   12  C10 UNL     1     -37.232  15.146  -7.195  1.00 20.00     0.012 C 
HETATM   13  C11 UNL     1     -34.857  14.772  -7.918  1.00 20.00     0.012 C 
ENDBRANCH   8  11
TORSDOF 1
ENDMDL
MODEL 8
REMARK VINA RESULT:      -4.8      1.485      3.962
REMARK  1 active torsions:
REMARK  status: ('A' for Active; 'I' for Inactive)
REMARK    1  A    between atoms: C8_8  and  C12_12 
ROOT
HETATM    1  C1  UNL     1     -35.043  18.402  -2.477  1.00 20.00    -0.023 C 
HETATM    2  C2  UNL     1     -34.560  17.185  -2.165  1.00 20.00    -0.081 C 
HETATM    3  C3  UNL     1     -35.093  18.931  -3.886  1.00 20.00     0.034 C 
HETATM    4  C4  UNL     1     -33.538  17.066  -4.454  1.00 20.00     0.018 C 
HETATM    5  C5  UNL     1     -35.956  16.903  -5.150  1.00 20.00     0.173 C 
HETATM    6  C6  UNL     1     -33.993  16.253  -3.234  1.00 20.00     0.043 C 
HETATM    7  C7  UNL     1     -34.758  17.855  -4.938  1.00 20.00     0.014 C 
HETATM    8  C8  UNL     1     -35.074  15.234  -3.681  1.00 20.00     0.133 C 
HETATM    9  C9  UNL     1     -34.538  16.678  -0.753  1.00 20.00     0.043 C 
HETATM   10  O13 UNL     1     -35.580  15.535  -4.992  1.00 20.00    -0.384 OA
ENDROOT
BRANCH   8  11
HETATM   11  C12 UNL     1     -34.498  13.823  -3.754  1.00 20.00     0.007 C 
HETATM   12  C10 UNL     1     -34.800  13.192  -5.112  1.00 20.00     0.012 C 
HETATM   13  C11 UNL     1     -32.994  13.844  -3.494  1.00 20.00     0.012 C 
ENDBRANCH   8  11
TORSDOF 1
ENDMDL
MODEL 9
REMARK VINA RESULT:      -4.7      1.765      3.999
REMARK  1 active torsions:
REMARK  status: ('A' for Active; 'I' for Inactive)
REMARK    1  A    between atoms: C8_8  and  C12_12 
ROOT
HETATM    1  C1  UNL     1     -36.324  17.797  -1.879  1.00 20.00    -0.023 C 
HETATM    2  C2  UNL     1     -35.188  17.078  -1.954  1.00 20.00    -0.081 C 
HETATM    3  C3  UNL     1     -37.316  17.887  -3.009  1.00 20.00     0.034 C 
HETATM    4  C4  UNL     1     -35.508  16.934  -4.439  1.00 20.00     0.018 C 
HETATM    5  C5  UNL     1     -37.440  15.462  -3.759  1.00 20.00     0.173 C 
HETATM    6  C6  UNL     1     -34.807  16.316  -3.221  1.00 20.00     0.043 C 
HETATM    7  C7  UNL     1     -37.012  16.895  -4.149  1.00 20.00     0.014 C 
HETATM    8  C8  UNL     1     -35.230  14.829  -3.096  1.00 20.00     0.133 C 
HETATM    9  C9  UNL     1     -34.226  16.995  -0.805  1.00 20.00     0.043 C 
HETATM   10  O13 UNL     1     -36.372  14.528  -3.916  1.00 20.00    -0.384 OA
ENDROOT
BRANCH   8  11
HETATM   11  C12 UNL     1     -34.111  13.901  -3.558  1.00 20.00     0.007 C 
HETATM   12  C10 UNL     1     -34.491  13.215  -4.869  1.00 20.00     0.012 C 
HETATM   13  C11 UNL     1     -32.805  14.675  -3.716  1.00 20.00     0.012 C 
ENDBRANCH   8  11
TORSDOF 1
ENDMDL
