MODEL 1
REMARK VINA RESULT:      -4.9      0.000      0.000
REMARK  5 active torsions:
REMARK  status: ('A' for Active; 'I' for Inactive)
REMARK    1  A    between atoms: C1_1  and  C2_2 
REMARK    2  A    between atoms: C1_1  and  C3_3 
REMARK    3  A    between atoms: C2_2  and  C7_7 
REMARK    4  A    between atoms: C7_7  and  C8_8 
REMARK    5  A    between atoms: C8_8  and  O9_9 
ROOT
HETATM    1  C2  UNL     1     -33.819   5.434   3.210  1.00 20.00     0.070 C 
ENDROOT
BRANCH   1   2
HETATM    2  C1  UNL     1     -32.969   6.413   3.092  1.00 20.00    -0.166 C 
BRANCH   2   3
HETATM    3  C3  UNL     1     -32.120   7.397   2.980  1.00 20.00     0.022 C 
HETATM    4  C4  UNL     1     -32.038   8.248   1.745  1.00 20.00     0.029 C 
HETATM    5  C5  UNL     1     -31.162   7.761   4.078  1.00 20.00     0.029 C 
ENDBRANCH   2   3
ENDBRANCH   1   2
BRANCH   1   6
HETATM    6  C7  UNL     1     -35.216   5.572   3.747  1.00 20.00     0.048 C 
BRANCH   6   7
HETATM    7  C8  UNL     1     -35.370   4.888   5.109  1.00 20.00     0.115 C 
HETATM    8  C6  UNL     1     -34.379   5.447   6.120  1.00 20.00     0.039 C 
BRANCH   7   9
HETATM    9  O9  UNL     1     -35.119   3.492   4.953  1.00 20.00    -0.396 OA
HETATM   10  H23 UNL     1     -34.253   3.323   5.354  1.00 20.00     0.210 HD
ENDBRANCH   7   9
ENDBRANCH   6   7
ENDBRANCH   1   6
TORSDOF 5
ENDMDL
MODEL 2
REMARK VINA RESULT:      -4.9      2.153      4.488
REMARK  5 active torsions:
REMARK  status: ('A' for Active; 'I' for Inactive)
REMARK    1  A    between atoms: C1_1  and  C2_2 
REMARK    2  A    between atoms: C1_1  and  C3_3 
REMARK    3  A    between atoms: C2_2  and  C7_7 
REMARK    4  A    between atoms: C7_7  and  C8_8 
REMARK    5  A    between atoms: C8_8  and  O9_9 
ROOT
HETATM    1  C2  UNL     1     -33.855   5.684   3.037  1.00 20.00     0.070 C 
ENDROOT
BRANCH   1   2
HETATM    2  C1  UNL     1     -34.140   5.603   4.304  1.00 20.00    -0.166 C 
BRANCH   2   3
HETATM    3  C3  UNL     1     -34.417   5.523   5.577  1.00 20.00     0.022 C 
HETATM    4  C4  UNL     1     -35.144   4.348   6.166  1.00 20.00     0.029 C 
HETATM    5  C5  UNL     1     -34.028   6.596   6.553  1.00 20.00     0.029 C 
ENDBRANCH   2   3
ENDBRANCH   1   2
BRANCH   1   6
HETATM    6  C7  UNL     1     -32.544   6.163   2.481  1.00 20.00     0.048 C 
BRANCH   6   7
HETATM    7  C8  UNL     1     -32.305   7.645   2.787  1.00 20.00     0.115 C 
HETATM    8  C6  UNL     1     -31.899   8.406   1.532  1.00 20.00     0.039 C 
BRANCH   7   9
HETATM    9  O9  UNL     1     -31.252   7.754   3.743  1.00 20.00    -0.396 OA
HETATM   10  H23 UNL     1     -31.202   8.690   3.992  1.00 20.00     0.210 HD
ENDBRANCH   7   9
ENDBRANCH   6   7
ENDBRANCH   1   6
TORSDOF 5
ENDMDL
MODEL 3
REMARK VINA RESULT:      -4.8      2.675      4.937
REMARK  5 active torsions:
REMARK  status: ('A' for Active; 'I' for Inactive)
REMARK    1  A    between atoms: C1_1  and  C2_2 
REMARK    2  A    between atoms: C1_1  and  C3_3 
REMARK    3  A    between atoms: C2_2  and  C7_7 
REMARK    4  A    between atoms: C7_7  and  C8_8 
REMARK    5  A    between atoms: C8_8  and  O9_9 
ROOT
HETATM    1  C2  UNL     1     -32.536   6.525   3.016  1.00 20.00     0.070 C 
ENDROOT
BRANCH   1   2
HETATM    2  C1  UNL     1     -33.337   6.176   3.980  1.00 20.00    -0.166 C 
BRANCH   2   3
HETATM    3  C3  UNL     1     -34.146   5.825   4.942  1.00 20.00     0.022 C 
HETATM    4  C4  UNL     1     -35.223   4.796   4.747  1.00 20.00     0.029 C 
HETATM    5  C5  UNL     1     -34.061   6.417   6.320  1.00 20.00     0.029 C 
ENDBRANCH   2   3
ENDBRANCH   1   2
BRANCH   1   6
HETATM    6  C7  UNL     1     -31.895   7.878   2.881  1.00 20.00     0.048 C 
BRANCH   6   7
HETATM    7  C8  UNL     1     -32.441   8.647   1.674  1.00 20.00     0.115 C 
HETATM    8  C6  UNL     1     -31.480   8.572   0.495  1.00 20.00     0.039 C 
BRANCH   7   9
HETATM    9  O9  UNL     1     -32.605  10.016   2.038  1.00 20.00    -0.396 OA
HETATM   10  H23 UNL     1     -31.882  10.228   2.647  1.00 20.00     0.210 HD
ENDBRANCH   7   9
ENDBRANCH   6   7
ENDBRANCH   1   6
TORSDOF 5
ENDMDL
MODEL 4
REMARK VINA RESULT:      -4.6      1.229      1.745
REMARK  5 active torsions:
REMARK  status: ('A' for Active; 'I' for Inactive)
REMARK    1  A    between atoms: C1_1  and  C2_2 
REMARK    2  A    between atoms: C1_1  and  C3_3 
REMARK    3  A    between atoms: C2_2  and  C7_7 
REMARK    4  A    between atoms: C7_7  and  C8_8 
REMARK    5  A    between atoms: C8_8  and  O9_9 
ROOT
HETATM    1  C2  UNL     1     -33.943   5.556   2.957  1.00 20.00     0.070 C 
ENDROOT
BRANCH   1   2
HETATM    2  C1  UNL     1     -33.040   6.492   2.909  1.00 20.00    -0.166 C 
BRANCH   2   3
HETATM    3  C3  UNL     1     -32.141   7.436   2.864  1.00 20.00     0.022 C 
HETATM    4  C4  UNL     1     -31.201   7.701   4.007  1.00 20.00     0.029 C 
HETATM    5  C5  UNL     1     -31.970   8.329   1.669  1.00 20.00     0.029 C 
ENDBRANCH   2   3
ENDBRANCH   1   2
BRANCH   1   6
HETATM    6  C7  UNL     1     -34.968   5.408   4.045  1.00 20.00     0.048 C 
BRANCH   6   7
HETATM    7  C8  UNL     1     -34.315   5.198   5.415  1.00 20.00     0.115 C 
HETATM    8  C6  UNL     1     -35.138   4.249   6.276  1.00 20.00     0.039 C 
BRANCH   7   9
HETATM    9  O9  UNL     1     -34.231   6.456   6.082  1.00 20.00    -0.396 OA
HETATM   10  H23 UNL     1     -35.048   6.551   6.594  1.00 20.00     0.210 HD
ENDBRANCH   7   9
ENDBRANCH   6   7
ENDBRANCH   1   6
TORSDOF 5
ENDMDL
MODEL 5
REMARK VINA RESULT:      -4.5      1.533      2.119
REMARK  5 active torsions:
REMARK  status: ('A' for Active; 'I' for Inactive)
REMARK    1  A    between atoms: C1_1  and  C2_2 
REMARK    2  A    between atoms: C1_1  and  C3_3 
REMARK    3  A    between atoms: C2_2  and  C7_7 
REMARK    4  A    between atoms: C7_7  and  C8_8 
REMARK    5  A    between atoms: C8_8  and  O9_9 
ROOT
HETATM    1  C2  UNL     1     -32.582   6.637   3.431  1.00 20.00     0.070 C 
ENDROOT
BRANCH   1   2
HETATM    2  C1  UNL     1     -32.384   7.613   2.593  1.00 20.00    -0.166 C 
BRANCH   2   3
HETATM    3  C3  UNL     1     -32.193   8.593   1.753  1.00 20.00     0.022 C 
HETATM    4  C4  UNL     1     -31.441   8.409   0.465  1.00 20.00     0.029 C 
HETATM    5  C5  UNL     1     -32.714   9.980   2.003  1.00 20.00     0.029 C 
ENDBRANCH   2   3
ENDBRANCH   1   2
BRANCH   1   6
HETATM    6  C7  UNL     1     -33.932   6.134   3.857  1.00 20.00     0.048 C 
BRANCH   6   7
HETATM    7  C8  UNL     1     -33.897   5.544   5.271  1.00 20.00     0.115 C 
HETATM    8  C6  UNL     1     -35.053   4.577   5.490  1.00 20.00     0.039 C 
BRANCH   7   9
HETATM    9  O9  UNL     1     -34.011   6.607   6.215  1.00 20.00    -0.396 OA
HETATM   10  H23 UNL     1     -33.792   6.230   7.081  1.00 20.00     0.210 HD
ENDBRANCH   7   9
ENDBRANCH   6   7
ENDBRANCH   1   6
TORSDOF 5
ENDMDL
MODEL 6
REMARK VINA RESULT:      -4.5      1.037      1.779
REMARK  5 active torsions:
REMARK  status: ('A' for Active; 'I' for Inactive)
REMARK    1  A    between atoms: C1_1  and  C2_2 
REMARK    2  A    between atoms: C1_1  and  C3_3 
REMARK    3  A    between atoms: C2_2  and  C7_7 
REMARK    4  A    between atoms: C7_7  and  C8_8 
REMARK    5  A    between atoms: C8_8  and  O9_9 
ROOT
HETATM    1  C2  UNL     1     -32.551   6.610   3.400  1.00 20.00     0.070 C 
ENDROOT
BRANCH   1   2
HETATM    2  C1  UNL     1     -32.372   7.607   2.583  1.00 20.00    -0.166 C 
BRANCH   2   3
HETATM    3  C3  UNL     1     -32.196   8.602   1.757  1.00 20.00     0.022 C 
HETATM    4  C4  UNL     1     -31.447   8.447   0.464  1.00 20.00     0.029 C 
HETATM    5  C5  UNL     1     -32.732   9.978   2.031  1.00 20.00     0.029 C 
ENDBRANCH   2   3
ENDBRANCH   1   2
BRANCH   1   6
HETATM    6  C7  UNL     1     -33.690   5.633   3.325  1.00 20.00     0.048 C 
BRANCH   6   7
HETATM    7  C8  UNL     1     -34.716   5.869   4.437  1.00 20.00     0.115 C 
HETATM    8  C6  UNL     1     -34.029   6.140   5.769  1.00 20.00     0.039 C 
BRANCH   7   9
HETATM    9  O9  UNL     1     -35.524   4.701   4.574  1.00 20.00    -0.396 OA
HETATM   10  H23 UNL     1     -34.920   3.944   4.541  1.00 20.00     0.210 HD
ENDBRANCH   7   9
ENDBRANCH   6   7
ENDBRANCH   1   6
TORSDOF 5
ENDMDL
MODEL 7
REMARK VINA RESULT:      -4.4     11.274     11.966
REMARK  5 active torsions:
REMARK  status: ('A' for Active; 'I' for Inactive)
REMARK    1  A    between atoms: C1_1  and  C2_2 
REMARK    2  A    between atoms: C1_1  and  C3_3 
REMARK    3  A    between atoms: C2_2  and  C7_7 
REMARK    4  A    between atoms: C7_7  and  C8_8 
REMARK    5  A    between atoms: C8_8  and  O9_9 
ROOT
HETATM    1  C2  UNL     1     -34.777  15.045  -2.944  1.00 20.00     0.070 C 
ENDROOT
BRANCH   1   2
HETATM    2  C1  UNL     1     -34.547  16.043  -2.141  1.00 20.00    -0.166 C 
BRANCH   2   3
HETATM    3  C3  UNL     1     -34.311  17.047  -1.341  1.00 20.00     0.022 C 
HETATM    4  C4  UNL     1     -33.501  18.238  -1.768  1.00 20.00     0.029 C 
HETATM    5  C5  UNL     1     -34.834  17.093   0.066  1.00 20.00     0.029 C 
ENDBRANCH   2   3
ENDBRANCH   1   2
BRANCH   1   6
HETATM    6  C7  UNL     1     -33.717  14.272  -3.677  1.00 20.00     0.048 C 
BRANCH   6   7
HETATM    7  C8  UNL     1     -34.322  13.343  -4.734  1.00 20.00     0.115 C 
HETATM    8  C6  UNL     1     -34.926  14.138  -5.884  1.00 20.00     0.039 C 
BRANCH   7   9
HETATM    9  O9  UNL     1     -35.355  12.568  -4.128  1.00 20.00    -0.396 OA
HETATM   10  H23 UNL     1     -35.839  13.167  -3.540  1.00 20.00     0.210 HD
ENDBRANCH   7   9
ENDBRANCH   6   7
ENDBRANCH   1   6
TORSDOF 5
ENDMDL
MODEL 8
REMARK VINA RESULT:      -4.4     11.233     11.996
REMARK  5 active torsions:
REMARK  status: ('A' for Active; 'I' for Inactive)
REMARK    1  A    between atoms: C1_1  and  C2_2 
REMARK    2  A    between atoms: C1_1  and  C3_3 
REMARK    3  A    between atoms: C2_2  and  C7_7 
REMARK    4  A    between atoms: C7_7  and  C8_8 
REMARK    5  A    between atoms: C8_8  and  O9_9 
ROOT
HETATM    1  C2  UNL     1     -34.786  15.128  -2.988  1.00 20.00     0.070 C 
ENDROOT
BRANCH   1   2
HETATM    2  C1  UNL     1     -34.544  16.091  -2.147  1.00 20.00    -0.166 C 
BRANCH   2   3
HETATM    3  C3  UNL     1     -34.301  17.062  -1.310  1.00 20.00     0.022 C 
HETATM    4  C4  UNL     1     -34.854  17.072   0.088  1.00 20.00     0.029 C 
HETATM    5  C5  UNL     1     -33.449  18.243  -1.674  1.00 20.00     0.029 C 
ENDBRANCH   2   3
ENDBRANCH   1   2
BRANCH   1   6
HETATM    6  C7  UNL     1     -33.737  14.256  -3.619  1.00 20.00     0.048 C 
BRANCH   6   7
HETATM    7  C8  UNL     1     -34.329  13.352  -4.705  1.00 20.00     0.115 C 
HETATM    8  C6  UNL     1     -34.929  14.174  -5.837  1.00 20.00     0.039 C 
BRANCH   7   9
HETATM    9  O9  UNL     1     -35.361  12.555  -4.127  1.00 20.00    -0.396 OA
HETATM   10  H23 UNL     1     -35.779  12.075  -4.857  1.00 20.00     0.210 HD
ENDBRANCH   7   9
ENDBRANCH   6   7
ENDBRANCH   1   6
TORSDOF 5
ENDMDL
MODEL 9
REMARK VINA RESULT:      -4.2     11.305     11.942
REMARK  5 active torsions:
REMARK  status: ('A' for Active; 'I' for Inactive)
REMARK    1  A    between atoms: C1_1  and  C2_2 
REMARK    2  A    between atoms: C1_1  and  C3_3 
REMARK    3  A    between atoms: C2_2  and  C7_7 
REMARK    4  A    between atoms: C7_7  and  C8_8 
REMARK    5  A    between atoms: C8_8  and  O9_9 
ROOT
HETATM    1  C2  UNL     1     -34.531  15.639  -2.421  1.00 20.00     0.070 C 
ENDROOT
BRANCH   1   2
HETATM    2  C1  UNL     1     -34.376  16.491  -1.450  1.00 20.00    -0.166 C 
BRANCH   2   3
HETATM    3  C3  UNL     1     -34.216  17.350  -0.481  1.00 20.00     0.022 C 
HETATM    4  C4  UNL     1     -33.061  18.310  -0.443  1.00 20.00     0.029 C 
HETATM    5  C5  UNL     1     -35.176  17.451   0.670  1.00 20.00     0.029 C 
ENDBRANCH   2   3
ENDBRANCH   1   2
BRANCH   1   6
HETATM    6  C7  UNL     1     -33.584  15.474  -3.577  1.00 20.00     0.048 C 
BRANCH   6   7
HETATM    7  C8  UNL     1     -33.813  14.151  -4.314  1.00 20.00     0.115 C 
HETATM    8  C6  UNL     1     -35.218  13.620  -4.066  1.00 20.00     0.039 C 
BRANCH   7   9
HETATM    9  O9  UNL     1     -32.875  13.189  -3.834  1.00 20.00    -0.396 OA
HETATM   10  H23 UNL     1     -33.392  12.423  -3.542  1.00 20.00     0.210 HD
ENDBRANCH   7   9
ENDBRANCH   6   7
ENDBRANCH   1   6
TORSDOF 5
ENDMDL
