MODEL 1
REMARK VINA RESULT:      -3.6      0.000      0.000
REMARK  0 active torsions:
REMARK  status: ('A' for Active; 'I' for Inactive)
ROOT
HETATM    1  C1  UNL     1     -34.425   5.824   6.330  1.00 20.00     0.028 C 
HETATM    2  C2  UNL     1     -34.866   4.446   5.912  1.00 20.00     0.028 C 
HETATM    3  C3  UNL     1     -33.773   6.341   5.066  1.00 20.00     0.167 C 
HETATM    4  C4  UNL     1     -35.291   4.677   4.477  1.00 20.00     0.167 C 
HETATM    5  O5  UNL     1     -34.465   5.732   3.966  1.00 20.00    -0.391 OA
ENDROOT
TORSDOF 0
ENDMDL
MODEL 2
REMARK VINA RESULT:      -3.6      0.033      1.754
REMARK  0 active torsions:
REMARK  status: ('A' for Active; 'I' for Inactive)
ROOT
HETATM    1  C1  UNL     1     -34.870   4.454   5.887  1.00 20.00     0.028 C 
HETATM    2  C2  UNL     1     -34.397   5.821   6.308  1.00 20.00     0.028 C 
HETATM    3  C3  UNL     1     -35.312   4.702   4.461  1.00 20.00     0.167 C 
HETATM    4  C4  UNL     1     -33.753   6.333   5.037  1.00 20.00     0.167 C 
HETATM    5  O5  UNL     1     -34.472   5.745   3.944  1.00 20.00    -0.391 OA
ENDROOT
TORSDOF 0
ENDMDL
MODEL 3
REMARK VINA RESULT:      -3.5      1.323      2.463
REMARK  0 active torsions:
REMARK  status: ('A' for Active; 'I' for Inactive)
ROOT
HETATM    1  C1  UNL     1     -35.172   4.998   4.375  1.00 20.00     0.028 C 
HETATM    2  C2  UNL     1     -34.090   6.044   4.434  1.00 20.00     0.028 C 
HETATM    3  C3  UNL     1     -34.914   4.210   5.641  1.00 20.00     0.167 C 
HETATM    4  C4  UNL     1     -34.028   6.346   5.917  1.00 20.00     0.167 C 
HETATM    5  O5  UNL     1     -34.376   5.133   6.599  1.00 20.00    -0.391 OA
ENDROOT
TORSDOF 0
ENDMDL
MODEL 4
REMARK VINA RESULT:      -3.5      1.320      1.806
REMARK  0 active torsions:
REMARK  status: ('A' for Active; 'I' for Inactive)
ROOT
HETATM    1  C1  UNL     1     -34.063   6.061   4.442  1.00 20.00     0.028 C 
HETATM    2  C2  UNL     1     -35.149   5.021   4.354  1.00 20.00     0.028 C 
HETATM    3  C3  UNL     1     -34.027   6.351   5.927  1.00 20.00     0.167 C 
HETATM    4  C4  UNL     1     -34.919   4.222   5.619  1.00 20.00     0.167 C 
HETATM    5  O5  UNL     1     -34.393   5.134   6.594  1.00 20.00    -0.391 OA
ENDROOT
TORSDOF 0
ENDMDL
MODEL 5
REMARK VINA RESULT:      -3.3      1.188      2.160
REMARK  0 active torsions:
REMARK  status: ('A' for Active; 'I' for Inactive)
ROOT
HETATM    1  C1  UNL     1     -35.371   4.856   4.566  1.00 20.00     0.028 C 
HETATM    2  C2  UNL     1     -34.428   5.308   3.481  1.00 20.00     0.028 C 
HETATM    3  C3  UNL     1     -34.605   5.224   5.818  1.00 20.00     0.167 C 
HETATM    4  C4  UNL     1     -33.850   6.574   4.078  1.00 20.00     0.167 C 
HETATM    5  O5  UNL     1     -33.826   6.386   5.500  1.00 20.00    -0.391 OA
ENDROOT
TORSDOF 0
ENDMDL
MODEL 6
REMARK VINA RESULT:      -3.2      1.021      1.284
REMARK  0 active torsions:
REMARK  status: ('A' for Active; 'I' for Inactive)
ROOT
HETATM    1  C1  UNL     1     -34.151   6.297   5.460  1.00 20.00     0.028 C 
HETATM    2  C2  UNL     1     -34.132   5.112   6.391  1.00 20.00     0.028 C 
HETATM    3  C3  UNL     1     -34.390   5.637   4.119  1.00 20.00     0.167 C 
HETATM    4  C4  UNL     1     -35.196   4.221   5.784  1.00 20.00     0.167 C 
HETATM    5  O5  UNL     1     -35.182   4.467   4.371  1.00 20.00    -0.391 OA
ENDROOT
TORSDOF 0
ENDMDL
MODEL 7
REMARK VINA RESULT:      -2.7     12.157     12.577
REMARK  0 active torsions:
REMARK  status: ('A' for Active; 'I' for Inactive)
ROOT
HETATM    1  C1  UNL     1     -33.789  14.932  -3.733  1.00 20.00     0.028 C 
HETATM    2  C2  UNL     1     -35.251  14.982  -3.375  1.00 20.00     0.028 C 
HETATM    3  C3  UNL     1     -33.546  13.443  -3.850  1.00 20.00     0.167 C 
HETATM    4  C4  UNL     1     -35.814  13.844  -4.200  1.00 20.00     0.167 C 
HETATM    5  O5  UNL     1     -34.775  12.859  -4.307  1.00 20.00    -0.391 OA
ENDROOT
TORSDOF 0
ENDMDL
MODEL 8
REMARK VINA RESULT:      -2.7     12.156     12.631
REMARK  0 active torsions:
REMARK  status: ('A' for Active; 'I' for Inactive)
ROOT
HETATM    1  C1  UNL     1     -35.236  14.984  -3.372  1.00 20.00     0.028 C 
HETATM    2  C2  UNL     1     -33.774  14.928  -3.733  1.00 20.00     0.028 C 
HETATM    3  C3  UNL     1     -35.805  13.850  -4.197  1.00 20.00     0.167 C 
HETATM    4  C4  UNL     1     -33.539  13.437  -3.853  1.00 20.00     0.167 C 
HETATM    5  O5  UNL     1     -34.771  12.860  -4.306  1.00 20.00    -0.391 OA
ENDROOT
TORSDOF 0
ENDMDL
MODEL 9
REMARK VINA RESULT:      -2.6      8.783      9.398
REMARK  0 active torsions:
REMARK  status: ('A' for Active; 'I' for Inactive)
ROOT
HETATM    1  C1  UNL     1     -40.833   5.908  -0.205  1.00 20.00     0.028 C 
HETATM    2  C2  UNL     1     -40.741   4.650  -1.028  1.00 20.00     0.028 C 
HETATM    3  C3  UNL     1     -41.153   6.947  -1.257  1.00 20.00     0.167 C 
HETATM    4  C4  UNL     1     -41.833   4.868  -2.055  1.00 20.00     0.167 C 
HETATM    5  O5  UNL     1     -41.914   6.283  -2.276  1.00 20.00    -0.391 OA
ENDROOT
TORSDOF 0
ENDMDL
