MODEL 1
REMARK VINA RESULT:      -3.6      0.000      0.000
REMARK  0 active torsions:
REMARK  status: ('A' for Active; 'I' for Inactive)
ROOT
HETATM    1  C1  UNL     1     -34.535  13.856  -4.596  1.00 20.00     0.201 C 
HETATM    2  C2  UNL     1     -33.109  15.924  -4.531  1.00 20.00     0.099 C 
HETATM    3  C3  UNL     1     -33.788  14.832  -3.697  1.00 20.00     0.074 C 
HETATM    4  C4  UNL     1     -34.741  15.394  -2.644  1.00 20.00     0.020 C 
HETATM    5  O5  UNL     1     -34.912  12.749  -4.236  1.00 20.00    -0.284 OA
HETATM    6  S6  UNL     1     -34.867  14.475  -6.213  1.00 20.00    -0.019 SA
HETATM    7  S7  UNL     1     -34.256  16.387  -5.839  1.00 20.00    -0.089 SA
ENDROOT
TORSDOF 0
ENDMDL
MODEL 2
REMARK VINA RESULT:      -3.6     12.820     13.332
REMARK  0 active torsions:
REMARK  status: ('A' for Active; 'I' for Inactive)
ROOT
HETATM    1  C1  UNL     1     -33.909   6.310   5.490  1.00 20.00     0.201 C 
HETATM    2  C2  UNL     1     -35.505   5.300   3.833  1.00 20.00     0.099 C 
HETATM    3  C3  UNL     1     -35.081   5.357   5.305  1.00 20.00     0.074 C 
HETATM    4  C4  UNL     1     -34.723   3.985   5.873  1.00 20.00     0.020 C 
HETATM    5  O5  UNL     1     -33.564   6.765   6.572  1.00 20.00    -0.284 OA
HETATM    6  S6  UNL     1     -33.036   6.677   4.003  1.00 20.00    -0.019 SA
HETATM    7  S7  UNL     1     -34.000   5.300   2.844  1.00 20.00    -0.089 SA
ENDROOT
TORSDOF 0
ENDMDL
MODEL 3
REMARK VINA RESULT:      -3.5      1.896      2.467
REMARK  0 active torsions:
REMARK  status: ('A' for Active; 'I' for Inactive)
ROOT
HETATM    1  C1  UNL     1     -34.611  13.801  -4.795  1.00 20.00     0.201 C 
HETATM    2  C2  UNL     1     -35.120  16.223  -5.228  1.00 20.00     0.099 C 
HETATM    3  C3  UNL     1     -35.328  14.784  -5.710  1.00 20.00     0.074 C 
HETATM    4  C4  UNL     1     -34.874  14.569  -7.153  1.00 20.00     0.020 C 
HETATM    5  O5  UNL     1     -34.842  12.600  -4.769  1.00 20.00    -0.284 OA
HETATM    6  S6  UNL     1     -33.360  14.533  -3.792  1.00 20.00    -0.019 SA
HETATM    7  S7  UNL     1     -33.407  16.364  -4.694  1.00 20.00    -0.089 SA
ENDROOT
TORSDOF 0
ENDMDL
MODEL 4
REMARK VINA RESULT:      -3.3      1.746      1.844
REMARK  0 active torsions:
REMARK  status: ('A' for Active; 'I' for Inactive)
ROOT
HETATM    1  C1  UNL     1     -35.218  13.865  -4.411  1.00 20.00     0.201 C 
HETATM    2  C2  UNL     1     -34.729  16.187  -5.239  1.00 20.00     0.099 C 
HETATM    3  C3  UNL     1     -34.125  14.842  -4.820  1.00 20.00     0.074 C 
HETATM    4  C4  UNL     1     -33.104  14.975  -3.691  1.00 20.00     0.020 C 
HETATM    5  O5  UNL     1     -35.053  12.657  -4.316  1.00 20.00    -0.284 OA
HETATM    6  S6  UNL     1     -36.760  14.629  -4.026  1.00 20.00    -0.019 SA
HETATM    7  S7  UNL     1     -36.069  16.549  -4.092  1.00 20.00    -0.089 SA
ENDROOT
TORSDOF 0
ENDMDL
MODEL 5
REMARK VINA RESULT:      -3.3      2.101      2.332
REMARK  0 active torsions:
REMARK  status: ('A' for Active; 'I' for Inactive)
ROOT
HETATM    1  C1  UNL     1     -33.493  14.824  -3.746  1.00 20.00     0.201 C 
HETATM    2  C2  UNL     1     -35.605  16.134  -4.112  1.00 20.00     0.099 C 
HETATM    3  C3  UNL     1     -34.267  16.078  -3.367  1.00 20.00     0.074 C 
HETATM    4  C4  UNL     1     -34.430  16.142  -1.849  1.00 20.00     0.020 C 
HETATM    5  O5  UNL     1     -32.297  14.670  -3.535  1.00 20.00    -0.284 OA
HETATM    6  S6  UNL     1     -34.480  13.561  -4.482  1.00 20.00    -0.019 SA
HETATM    7  S7  UNL     1     -36.277  14.464  -4.129  1.00 20.00    -0.089 SA
ENDROOT
TORSDOF 0
ENDMDL
MODEL 6
REMARK VINA RESULT:      -3.2      1.829      2.482
REMARK  0 active torsions:
REMARK  status: ('A' for Active; 'I' for Inactive)
ROOT
HETATM    1  C1  UNL     1     -33.307  15.147  -3.789  1.00 20.00     0.201 C 
HETATM    2  C2  UNL     1     -35.755  15.565  -3.403  1.00 20.00     0.099 C 
HETATM    3  C3  UNL     1     -34.632  14.522  -3.375  1.00 20.00     0.074 C 
HETATM    4  C4  UNL     1     -34.925  13.308  -4.255  1.00 20.00     0.020 C 
HETATM    5  O5  UNL     1     -32.216  14.636  -3.579  1.00 20.00    -0.284 OA
HETATM    6  S6  UNL     1     -33.471  16.672  -4.659  1.00 20.00    -0.019 SA
HETATM    7  S7  UNL     1     -35.500  16.583  -4.866  1.00 20.00    -0.089 SA
ENDROOT
TORSDOF 0
ENDMDL
MODEL 7
REMARK VINA RESULT:      -3.2      1.238      1.259
REMARK  0 active torsions:
REMARK  status: ('A' for Active; 'I' for Inactive)
ROOT
HETATM    1  C1  UNL     1     -35.624  14.564  -4.081  1.00 20.00     0.201 C 
HETATM    2  C2  UNL     1     -33.196  15.165  -3.841  1.00 20.00     0.099 C 
HETATM    3  C3  UNL     1     -34.488  14.810  -3.098  1.00 20.00     0.074 C 
HETATM    4  C4  UNL     1     -34.905  15.878  -2.087  1.00 20.00     0.020 C 
HETATM    5  O5  UNL     1     -36.666  13.991  -3.791  1.00 20.00    -0.284 OA
HETATM    6  S6  UNL     1     -35.340  15.226  -5.690  1.00 20.00    -0.019 SA
HETATM    7  S7  UNL     1     -33.646  16.255  -5.202  1.00 20.00    -0.089 SA
ENDROOT
TORSDOF 0
ENDMDL
MODEL 8
REMARK VINA RESULT:      -3.1      1.878      2.259
REMARK  0 active torsions:
REMARK  status: ('A' for Active; 'I' for Inactive)
ROOT
HETATM    1  C1  UNL     1     -36.552  14.594  -4.439  1.00 20.00     0.201 C 
HETATM    2  C2  UNL     1     -34.609  14.494  -6.029  1.00 20.00     0.099 C 
HETATM    3  C3  UNL     1     -35.286  13.840  -4.820  1.00 20.00     0.074 C 
HETATM    4  C4  UNL     1     -34.364  13.738  -3.606  1.00 20.00     0.020 C 
HETATM    5  O5  UNL     1     -37.428  14.137  -3.717  1.00 20.00    -0.284 OA
HETATM    6  S6  UNL     1     -36.640  16.230  -5.090  1.00 20.00    -0.019 SA
HETATM    7  S7  UNL     1     -34.729  16.277  -5.807  1.00 20.00    -0.089 SA
ENDROOT
TORSDOF 0
ENDMDL
MODEL 9
REMARK VINA RESULT:      -3.1      1.832      2.495
REMARK  0 active torsions:
REMARK  status: ('A' for Active; 'I' for Inactive)
ROOT
HETATM    1  C1  UNL     1     -35.148  15.205  -3.337  1.00 20.00     0.201 C 
HETATM    2  C2  UNL     1     -34.725  13.212  -4.806  1.00 20.00     0.099 C 
HETATM    3  C3  UNL     1     -34.272  13.981  -3.560  1.00 20.00     0.074 C 
HETATM    4  C4  UNL     1     -32.805  14.403  -3.623  1.00 20.00     0.020 C 
HETATM    5  O5  UNL     1     -35.202  15.823  -2.281  1.00 20.00    -0.284 OA
HETATM    6  S6  UNL     1     -36.061  15.708  -4.759  1.00 20.00    -0.019 SA
HETATM    7  S7  UNL     1     -35.145  14.431  -6.062  1.00 20.00    -0.089 SA
ENDROOT
TORSDOF 0
ENDMDL
