MODEL 1
REMARK VINA RESULT:      -5.3      0.000      0.000
REMARK  3 active torsions:
REMARK  status: ('A' for Active; 'I' for Inactive)
REMARK    1  A    between atoms: C1_1  and  C7_7 
REMARK    2  A    between atoms: C1_1  and  O9_9 
REMARK    3  A    between atoms: C5_5  and  C7_7 
ROOT
HETATM    1  C2  UNL     1     -34.306   3.960   5.466  1.00 20.00     0.011 A 
HETATM    2  C3  UNL     1     -35.079   5.019   6.260  1.00 20.00     0.011 A 
HETATM    3  C4  UNL     1     -35.453   5.609   3.644  1.00 20.00     0.015 A 
HETATM    4  C5  UNL     1     -34.134   6.279   4.055  1.00 20.00     0.005 A 
HETATM    5  C6  UNL     1     -34.735   5.214   4.855  1.00 20.00    -0.036 A 
ENDROOT
BRANCH   4   6
HETATM    6  C7  UNL     1     -32.894   6.026   3.270  1.00 20.00     0.115 C 
BRANCH   6   7
HETATM    7  C1  UNL     1     -32.109   7.291   2.975  1.00 20.00     0.139 C 
HETATM    8  O8  UNL     1     -32.185   7.943   1.944  1.00 20.00    -0.650 OA
BRANCH   7   9
HETATM    9  O9  UNL     1     -31.296   7.615   4.014  1.00 20.00    -0.776 OA
HETATM   10  H19 UNL     1     -31.155   8.583   4.079  1.00 20.00     0.167 HD
ENDBRANCH   7   9
ENDBRANCH   6   7
ENDBRANCH   4   6
TORSDOF 3
ENDMDL
MODEL 2
REMARK VINA RESULT:      -4.8      0.878      1.283
REMARK  3 active torsions:
REMARK  status: ('A' for Active; 'I' for Inactive)
REMARK    1  A    between atoms: C1_1  and  C7_7 
REMARK    2  A    between atoms: C1_1  and  O9_9 
REMARK    3  A    between atoms: C5_5  and  C7_7 
ROOT
HETATM    1  C2  UNL     1     -35.525   4.713   4.750  1.00 20.00     0.011 A 
HETATM    2  C3  UNL     1     -34.547   4.018   5.704  1.00 20.00     0.011 A 
HETATM    3  C4  UNL     1     -34.002   6.667   5.853  1.00 20.00     0.015 A 
HETATM    4  C5  UNL     1     -33.204   6.126   4.658  1.00 20.00     0.005 A 
HETATM    5  C6  UNL     1     -34.321   5.381   5.234  1.00 20.00    -0.036 A 
ENDROOT
BRANCH   4   6
HETATM    6  C7  UNL     1     -33.333   6.772   3.323  1.00 20.00     0.115 C 
BRANCH   6   7
HETATM    7  C1  UNL     1     -32.094   7.547   2.915  1.00 20.00     0.139 C 
HETATM    8  O8  UNL     1     -31.912   8.057   1.818  1.00 20.00    -0.650 OA
BRANCH   7   9
HETATM    9  O9  UNL     1     -31.196   7.607   3.932  1.00 20.00    -0.776 OA
HETATM   10  H19 UNL     1     -30.813   8.504   4.029  1.00 20.00     0.167 HD
ENDBRANCH   7   9
ENDBRANCH   6   7
ENDBRANCH   4   6
TORSDOF 3
ENDMDL
MODEL 3
REMARK VINA RESULT:      -4.5     10.917     12.129
REMARK  3 active torsions:
REMARK  status: ('A' for Active; 'I' for Inactive)
REMARK    1  A    between atoms: C1_1  and  C7_7 
REMARK    2  A    between atoms: C1_1  and  O9_9 
REMARK    3  A    between atoms: C5_5  and  C7_7 
ROOT
HETATM    1  C2  UNL     1     -35.165  17.253  -1.212  1.00 20.00     0.011 A 
HETATM    2  C3  UNL     1     -33.678  17.375  -0.862  1.00 20.00     0.011 A 
HETATM    3  C4  UNL     1     -33.809  17.185  -3.560  1.00 20.00     0.015 A 
HETATM    4  C5  UNL     1     -33.806  15.747  -3.023  1.00 20.00     0.005 A 
HETATM    5  C6  UNL     1     -34.121  16.885  -2.163  1.00 20.00    -0.036 A 
ENDROOT
BRANCH   4   6
HETATM    6  C7  UNL     1     -34.874  14.796  -3.439  1.00 20.00     0.115 C 
BRANCH   6   7
HETATM    7  C1  UNL     1     -34.338  13.423  -3.806  1.00 20.00     0.139 C 
HETATM    8  O8  UNL     1     -33.157  13.110  -3.820  1.00 20.00    -0.650 OA
BRANCH   7   9
HETATM    9  O9  UNL     1     -35.348  12.572  -4.122  1.00 20.00    -0.776 OA
HETATM   10  H19 UNL     1     -35.855  12.295  -3.330  1.00 20.00     0.167 HD
ENDBRANCH   7   9
ENDBRANCH   6   7
ENDBRANCH   4   6
TORSDOF 3
ENDMDL
MODEL 4
REMARK VINA RESULT:      -4.5     11.088     12.124
REMARK  3 active torsions:
REMARK  status: ('A' for Active; 'I' for Inactive)
REMARK    1  A    between atoms: C1_1  and  C7_7 
REMARK    2  A    between atoms: C1_1  and  O9_9 
REMARK    3  A    between atoms: C5_5  and  C7_7 
ROOT
HETATM    1  C2  UNL     1     -35.141  17.209  -1.368  1.00 20.00     0.011 A 
HETATM    2  C3  UNL     1     -33.669  17.341  -0.961  1.00 20.00     0.011 A 
HETATM    3  C4  UNL     1     -33.687  17.020  -3.650  1.00 20.00     0.015 A 
HETATM    4  C5  UNL     1     -33.717  15.609  -3.044  1.00 20.00     0.005 A 
HETATM    5  C6  UNL     1     -34.060  16.790  -2.255  1.00 20.00    -0.036 A 
ENDROOT
BRANCH   4   6
HETATM    6  C7  UNL     1     -34.772  14.644  -3.457  1.00 20.00     0.115 C 
BRANCH   6   7
HETATM    7  C1  UNL     1     -34.211  13.390  -4.104  1.00 20.00     0.139 C 
HETATM    8  O8  UNL     1     -34.858  12.586  -4.759  1.00 20.00    -0.650 OA
BRANCH   7   9
HETATM    9  O9  UNL     1     -32.880  13.268  -3.862  1.00 20.00    -0.776 OA
HETATM   10  H19 UNL     1     -32.403  12.883  -4.627  1.00 20.00     0.167 HD
ENDBRANCH   7   9
ENDBRANCH   6   7
ENDBRANCH   4   6
TORSDOF 3
ENDMDL
MODEL 5
REMARK VINA RESULT:      -4.4      2.661      4.396
REMARK  3 active torsions:
REMARK  status: ('A' for Active; 'I' for Inactive)
REMARK    1  A    between atoms: C1_1  and  C7_7 
REMARK    2  A    between atoms: C1_1  and  O9_9 
REMARK    3  A    between atoms: C5_5  and  C7_7 
ROOT
HETATM    1  C2  UNL     1     -32.663   8.015   2.295  1.00 20.00     0.011 A 
HETATM    2  C3  UNL     1     -31.418   8.018   3.188  1.00 20.00     0.011 A 
HETATM    3  C4  UNL     1     -32.160   5.427   2.930  1.00 20.00     0.015 A 
HETATM    4  C5  UNL     1     -32.982   6.000   4.093  1.00 20.00     0.005 A 
HETATM    5  C6  UNL     1     -32.313   6.867   3.126  1.00 20.00    -0.036 A 
ENDROOT
BRANCH   4   6
HETATM    6  C7  UNL     1     -34.465   5.869   4.091  1.00 20.00     0.115 C 
BRANCH   6   7
HETATM    7  C1  UNL     1     -34.992   5.054   5.258  1.00 20.00     0.139 C 
HETATM    8  O8  UNL     1     -34.936   5.388   6.432  1.00 20.00    -0.650 OA
BRANCH   7   9
HETATM    9  O9  UNL     1     -35.542   3.887   4.832  1.00 20.00    -0.776 OA
HETATM   10  H19 UNL     1     -34.905   3.144   4.878  1.00 20.00     0.167 HD
ENDBRANCH   7   9
ENDBRANCH   6   7
ENDBRANCH   4   6
TORSDOF 3
ENDMDL
MODEL 6
REMARK VINA RESULT:      -4.2      1.727      2.503
REMARK  3 active torsions:
REMARK  status: ('A' for Active; 'I' for Inactive)
REMARK    1  A    between atoms: C1_1  and  C7_7 
REMARK    2  A    between atoms: C1_1  and  O9_9 
REMARK    3  A    between atoms: C5_5  and  C7_7 
ROOT
HETATM    1  C2  UNL     1     -33.996   6.277   5.009  1.00 20.00     0.011 A 
HETATM    2  C3  UNL     1     -34.776   5.489   3.950  1.00 20.00     0.011 A 
HETATM    3  C4  UNL     1     -32.182   5.447   3.171  1.00 20.00     0.015 A 
HETATM    4  C5  UNL     1     -32.779   6.751   2.623  1.00 20.00     0.005 A 
HETATM    5  C6  UNL     1     -33.432   5.998   3.691  1.00 20.00    -0.036 A 
ENDROOT
BRANCH   4   6
HETATM    6  C7  UNL     1     -32.115   8.052   2.913  1.00 20.00     0.115 C 
BRANCH   6   7
HETATM    7  C1  UNL     1     -32.135   9.006   1.732  1.00 20.00     0.139 C 
HETATM    8  O8  UNL     1     -32.644  10.117   1.734  1.00 20.00    -0.650 OA
BRANCH   7   9
HETATM    9  O9  UNL     1     -31.507   8.466   0.656  1.00 20.00    -0.776 OA
HETATM   10  H19 UNL     1     -32.144   8.178  -0.032  1.00 20.00     0.167 HD
ENDBRANCH   7   9
ENDBRANCH   6   7
ENDBRANCH   4   6
TORSDOF 3
ENDMDL
MODEL 7
REMARK VINA RESULT:      -4.2     11.418     13.217
REMARK  3 active torsions:
REMARK  status: ('A' for Active; 'I' for Inactive)
REMARK    1  A    between atoms: C1_1  and  C7_7 
REMARK    2  A    between atoms: C1_1  and  O9_9 
REMARK    3  A    between atoms: C5_5  and  C7_7 
ROOT
HETATM    1  C2  UNL     1     -34.401  15.026  -7.318  1.00 20.00     0.011 A 
HETATM    2  C3  UNL     1     -35.768  14.536  -7.811  1.00 20.00     0.011 A 
HETATM    3  C4  UNL     1     -36.268  16.334  -5.848  1.00 20.00     0.015 A 
HETATM    4  C5  UNL     1     -36.046  14.982  -5.153  1.00 20.00     0.005 A 
HETATM    5  C6  UNL     1     -35.614  15.217  -6.529  1.00 20.00    -0.036 A 
ENDROOT
BRANCH   4   6
HETATM    6  C7  UNL     1     -35.046  14.865  -4.056  1.00 20.00     0.115 C 
BRANCH   6   7
HETATM    7  C1  UNL     1     -34.430  13.480  -3.958  1.00 20.00     0.139 C 
HETATM    8  O8  UNL     1     -33.252  13.248  -3.728  1.00 20.00    -0.650 OA
BRANCH   7   9
HETATM    9  O9  UNL     1     -35.363  12.515  -4.160  1.00 20.00    -0.776 OA
HETATM   10  H19 UNL     1     -36.171  12.668  -3.625  1.00 20.00     0.167 HD
ENDBRANCH   7   9
ENDBRANCH   6   7
ENDBRANCH   4   6
TORSDOF 3
ENDMDL
MODEL 8
REMARK VINA RESULT:      -4.2     11.281     12.722
REMARK  3 active torsions:
REMARK  status: ('A' for Active; 'I' for Inactive)
REMARK    1  A    between atoms: C1_1  and  C7_7 
REMARK    2  A    between atoms: C1_1  and  O9_9 
REMARK    3  A    between atoms: C5_5  and  C7_7 
ROOT
HETATM    1  C2  UNL     1     -33.710  17.461  -4.344  1.00 20.00     0.011 A 
HETATM    2  C3  UNL     1     -35.107  17.925  -3.915  1.00 20.00     0.011 A 
HETATM    3  C4  UNL     1     -34.148  16.421  -1.877  1.00 20.00     0.015 A 
HETATM    4  C5  UNL     1     -34.791  15.444  -2.873  1.00 20.00     0.005 A 
HETATM    5  C6  UNL     1     -34.435  16.808  -3.257  1.00 20.00    -0.036 A 
ENDROOT
BRANCH   4   6
HETATM    6  C7  UNL     1     -34.009  14.286  -3.388  1.00 20.00     0.115 C 
BRANCH   6   7
HETATM    7  C1  UNL     1     -34.670  13.602  -4.571  1.00 20.00     0.139 C 
HETATM    8  O8  UNL     1     -34.584  13.969  -5.734  1.00 20.00    -0.650 OA
BRANCH   7   9
HETATM    9  O9  UNL     1     -35.381  12.515  -4.175  1.00 20.00    -0.776 OA
HETATM   10  H19 UNL     1     -36.168  12.765  -3.647  1.00 20.00     0.167 HD
ENDBRANCH   7   9
ENDBRANCH   6   7
ENDBRANCH   4   6
TORSDOF 3
ENDMDL
MODEL 9
REMARK VINA RESULT:      -4.1      2.694      4.063
REMARK  3 active torsions:
REMARK  status: ('A' for Active; 'I' for Inactive)
REMARK    1  A    between atoms: C1_1  and  C7_7 
REMARK    2  A    between atoms: C1_1  and  O9_9 
REMARK    3  A    between atoms: C5_5  and  C7_7 
ROOT
HETATM    1  C2  UNL     1     -33.002   7.298   3.404  1.00 20.00     0.011 A 
HETATM    2  C3  UNL     1     -31.941   6.231   3.107  1.00 20.00     0.011 A 
HETATM    3  C4  UNL     1     -34.273   5.283   2.107  1.00 20.00     0.015 A 
HETATM    4  C5  UNL     1     -34.242   4.885   3.590  1.00 20.00     0.005 A 
HETATM    5  C6  UNL     1     -33.368   5.928   3.058  1.00 20.00    -0.036 A 
ENDROOT
BRANCH   4   6
HETATM    6  C7  UNL     1     -35.384   5.236   4.478  1.00 20.00     0.115 C 
BRANCH   6   7
HETATM    7  C1  UNL     1     -35.049   5.116   5.954  1.00 20.00     0.139 C 
HETATM    8  O8  UNL     1     -34.452   5.956   6.611  1.00 20.00    -0.650 OA
BRANCH   7   9
HETATM    9  O9  UNL     1     -35.499   3.941   6.464  1.00 20.00    -0.776 OA
HETATM   10  H19 UNL     1     -36.021   3.433   5.807  1.00 20.00     0.167 HD
ENDBRANCH   7   9
ENDBRANCH   6   7
ENDBRANCH   4   6
TORSDOF 3
ENDMDL
