MODEL 1
REMARK VINA RESULT:      -3.8      0.000      0.000
REMARK  0 active torsions:
REMARK  status: ('A' for Active; 'I' for Inactive)
ROOT
HETATM    1  C1  UNL     1     -34.489  13.622  -4.670  1.00 20.00     0.260 C 
HETATM    2  C2  UNL     1     -33.318  14.149  -3.881  1.00 20.00     0.137 C 
HETATM    3  C3  UNL     1     -33.590  15.538  -3.330  1.00 20.00     0.177 C 
HETATM    4  C4  UNL     1     -34.055  15.417  -6.285  1.00 20.00     0.205 C 
HETATM    5  C5  UNL     1     -34.181  16.624  -5.372  1.00 20.00     0.194 C 
HETATM    6  O6  UNL     1     -35.104  12.617  -4.320  1.00 20.00    -0.265 OA
HETATM    7  O7  UNL     1     -34.831  14.306  -5.787  1.00 20.00    -0.319 OA
HETATM    8  O8  UNL     1     -33.268  16.548  -4.280  1.00 20.00    -0.389 OA
ENDROOT
TORSDOF 0
ENDMDL
MODEL 2
REMARK VINA RESULT:      -3.8     12.251     13.459
REMARK  0 active torsions:
REMARK  status: ('A' for Active; 'I' for Inactive)
ROOT
HETATM    1  C1  UNL     1     -33.254   6.436   4.155  1.00 20.00     0.260 C 
HETATM    2  C2  UNL     1     -33.779   6.737   5.536  1.00 20.00     0.137 C 
HETATM    3  C3  UNL     1     -33.946   5.473   6.361  1.00 20.00     0.177 C 
HETATM    4  C4  UNL     1     -35.369   5.266   3.735  1.00 20.00     0.205 C 
HETATM    5  C5  UNL     1     -35.323   4.238   4.853  1.00 20.00     0.194 C 
HETATM    6  O6  UNL     1     -32.167   6.861   3.770  1.00 20.00    -0.265 OA
HETATM    7  O7  UNL     1     -34.039   5.678   3.354  1.00 20.00    -0.319 OA
HETATM    8  O8  UNL     1     -35.211   4.862   6.130  1.00 20.00    -0.389 OA
ENDROOT
TORSDOF 0
ENDMDL
MODEL 3
REMARK VINA RESULT:      -3.8     12.317     13.801
REMARK  0 active torsions:
REMARK  status: ('A' for Active; 'I' for Inactive)
ROOT
HETATM    1  C1  UNL     1     -33.882   6.535   6.246  1.00 20.00     0.260 C 
HETATM    2  C2  UNL     1     -33.159   6.463   4.925  1.00 20.00     0.137 C 
HETATM    3  C3  UNL     1     -34.126   6.486   3.753  1.00 20.00     0.177 C 
HETATM    4  C4  UNL     1     -34.826   4.334   5.713  1.00 20.00     0.205 C 
HETATM    5  C5  UNL     1     -35.518   4.659   4.401  1.00 20.00     0.194 C 
HETATM    6  O6  UNL     1     -33.724   7.477   7.018  1.00 20.00    -0.265 OA
HETATM    7  O7  UNL     1     -34.712   5.508   6.545  1.00 20.00    -0.319 OA
HETATM    8  O8  UNL     1     -34.600   5.180   3.443  1.00 20.00    -0.389 OA
ENDROOT
TORSDOF 0
ENDMDL
MODEL 4
REMARK VINA RESULT:      -3.8      1.412      1.909
REMARK  0 active torsions:
REMARK  status: ('A' for Active; 'I' for Inactive)
ROOT
HETATM    1  C1  UNL     1     -34.729  13.657  -4.069  1.00 20.00     0.260 C 
HETATM    2  C2  UNL     1     -35.671  14.763  -3.667  1.00 20.00     0.137 C 
HETATM    3  C3  UNL     1     -35.625  15.925  -4.644  1.00 20.00     0.177 C 
HETATM    4  C4  UNL     1     -32.894  15.226  -3.637  1.00 20.00     0.205 C 
HETATM    5  C5  UNL     1     -33.276  16.343  -4.593  1.00 20.00     0.194 C 
HETATM    6  O6  UNL     1     -35.137  12.536  -4.362  1.00 20.00    -0.265 OA
HETATM    7  O7  UNL     1     -33.409  13.956  -4.089  1.00 20.00    -0.319 OA
HETATM    8  O8  UNL     1     -34.583  16.839  -4.318  1.00 20.00    -0.389 OA
ENDROOT
TORSDOF 0
ENDMDL
MODEL 5
REMARK VINA RESULT:      -3.8      1.376      3.181
REMARK  0 active torsions:
REMARK  status: ('A' for Active; 'I' for Inactive)
ROOT
HETATM    1  C1  UNL     1     -33.621  15.453  -4.119  1.00 20.00     0.260 C 
HETATM    2  C2  UNL     1     -33.517  13.965  -3.900  1.00 20.00     0.137 C 
HETATM    3  C3  UNL     1     -34.466  13.196  -4.803  1.00 20.00     0.177 C 
HETATM    4  C4  UNL     1     -35.905  15.302  -3.235  1.00 20.00     0.205 C 
HETATM    5  C5  UNL     1     -36.497  14.304  -4.214  1.00 20.00     0.194 C 
HETATM    6  O6  UNL     1     -32.672  16.113  -4.533  1.00 20.00    -0.265 OA
HETATM    7  O7  UNL     1     -34.812  16.031  -3.833  1.00 20.00    -0.319 OA
HETATM    8  O8  UNL     1     -35.762  13.083  -4.222  1.00 20.00    -0.389 OA
ENDROOT
TORSDOF 0
ENDMDL
MODEL 6
REMARK VINA RESULT:      -3.7      1.087      2.926
REMARK  0 active torsions:
REMARK  status: ('A' for Active; 'I' for Inactive)
ROOT
HETATM    1  C1  UNL     1     -33.666  16.050  -4.707  1.00 20.00     0.260 C 
HETATM    2  C2  UNL     1     -33.321  15.382  -3.401  1.00 20.00     0.137 C 
HETATM    3  C3  UNL     1     -33.021  13.905  -3.586  1.00 20.00     0.177 C 
HETATM    4  C4  UNL     1     -35.675  14.644  -4.758  1.00 20.00     0.205 C 
HETATM    5  C5  UNL     1     -35.032  13.269  -4.705  1.00 20.00     0.194 C 
HETATM    6  O6  UNL     1     -32.973  16.950  -5.176  1.00 20.00    -0.265 OA
HETATM    7  O7  UNL     1     -34.781  15.614  -5.341  1.00 20.00    -0.319 OA
HETATM    8  O8  UNL     1     -34.211  13.123  -3.549  1.00 20.00    -0.389 OA
ENDROOT
TORSDOF 0
ENDMDL
MODEL 7
REMARK VINA RESULT:      -3.6      1.785      2.643
REMARK  0 active torsions:
REMARK  status: ('A' for Active; 'I' for Inactive)
ROOT
HETATM    1  C1  UNL     1     -33.982  13.719  -3.794  1.00 20.00     0.260 C 
HETATM    2  C2  UNL     1     -34.792  13.265  -4.982  1.00 20.00     0.137 C 
HETATM    3  C3  UNL     1     -34.923  14.360  -6.026  1.00 20.00     0.177 C 
HETATM    4  C4  UNL     1     -35.789  15.310  -3.322  1.00 20.00     0.205 C 
HETATM    5  C5  UNL     1     -35.802  16.084  -4.629  1.00 20.00     0.194 C 
HETATM    6  O6  UNL     1     -32.917  13.186  -3.496  1.00 20.00    -0.265 OA
HETATM    7  O7  UNL     1     -34.487  14.744  -3.066  1.00 20.00    -0.319 OA
HETATM    8  O8  UNL     1     -36.020  15.222  -5.743  1.00 20.00    -0.389 OA
ENDROOT
TORSDOF 0
ENDMDL
MODEL 8
REMARK VINA RESULT:      -3.5      1.954      2.448
REMARK  0 active torsions:
REMARK  status: ('A' for Active; 'I' for Inactive)
ROOT
HETATM    1  C1  UNL     1     -36.361  14.604  -3.939  1.00 20.00     0.260 C 
HETATM    2  C2  UNL     1     -35.261  13.806  -4.593  1.00 20.00     0.137 C 
HETATM    3  C3  UNL     1     -34.086  13.595  -3.655  1.00 20.00     0.177 C 
HETATM    4  C4  UNL     1     -34.796  16.493  -3.891  1.00 20.00     0.205 C 
HETATM    5  C5  UNL     1     -33.666  15.875  -3.086  1.00 20.00     0.194 C 
HETATM    6  O6  UNL     1     -37.478  14.130  -3.749  1.00 20.00    -0.265 OA
HETATM    7  O7  UNL     1     -36.060  15.873  -3.574  1.00 20.00    -0.319 OA
HETATM    8  O8  UNL     1     -33.175  14.688  -3.705  1.00 20.00    -0.389 OA
ENDROOT
TORSDOF 0
ENDMDL
MODEL 9
REMARK VINA RESULT:      -3.4     12.083     13.468
REMARK  0 active torsions:
REMARK  status: ('A' for Active; 'I' for Inactive)
ROOT
HETATM    1  C1  UNL     1     -34.928   4.550   5.195  1.00 20.00     0.260 C 
HETATM    2  C2  UNL     1     -35.254   5.272   3.912  1.00 20.00     0.137 C 
HETATM    3  C3  UNL     1     -33.999   5.673   3.157  1.00 20.00     0.177 C 
HETATM    4  C4  UNL     1     -33.941   6.653   5.986  1.00 20.00     0.205 C 
HETATM    5  C5  UNL     1     -32.900   6.875   4.902  1.00 20.00     0.194 C 
HETATM    6  O6  UNL     1     -35.266   3.385   5.385  1.00 20.00    -0.265 OA
HETATM    7  O7  UNL     1     -34.246   5.250   6.133  1.00 20.00    -0.319 OA
HETATM    8  O8  UNL     1     -33.497   6.927   3.609  1.00 20.00    -0.389 OA
ENDROOT
TORSDOF 0
ENDMDL
