MODEL 1
REMARK VINA RESULT:      -4.7      0.000      0.000
REMARK  0 active torsions:
REMARK  status: ('A' for Active; 'I' for Inactive)
ROOT
HETATM    1  C1  UNL     1     -34.409  13.562  -4.711  1.00 20.00     0.127 C 
HETATM    2  C2  UNL     1     -33.311  13.953  -3.745  1.00 20.00     0.078 C 
HETATM    3  C3  UNL     1     -34.747  14.501  -5.848  1.00 20.00     0.078 C 
HETATM    4  C4  UNL     1     -33.303  15.416  -3.320  1.00 20.00     0.007 C 
HETATM    5  C5  UNL     1     -36.066  15.227  -5.613  1.00 20.00     0.007 C 
HETATM    6  C6  UNL     1     -34.497  15.849  -2.469  1.00 20.00     0.000 C 
HETATM    7  C7  UNL     1     -36.046  16.274  -4.493  1.00 20.00     0.000 C 
HETATM    8  C8  UNL     1     -35.890  15.690  -3.085  1.00 20.00     0.000 C 
HETATM    9  O9  UNL     1     -34.994  12.483  -4.592  1.00 20.00    -0.298 OA
ENDROOT
TORSDOF 0
ENDMDL
MODEL 2
REMARK VINA RESULT:      -4.5     12.249     13.389
REMARK  0 active torsions:
REMARK  status: ('A' for Active; 'I' for Inactive)
ROOT
HETATM    1  C1  UNL     1     -34.551   4.575   5.857  1.00 20.00     0.127 C 
HETATM    2  C2  UNL     1     -35.392   4.314   4.625  1.00 20.00     0.078 C 
HETATM    3  C3  UNL     1     -34.585   5.951   6.484  1.00 20.00     0.078 C 
HETATM    4  C4  UNL     1     -35.399   5.432   3.589  1.00 20.00     0.007 C 
HETATM    5  C5  UNL     1     -33.307   6.734   6.207  1.00 20.00     0.007 C 
HETATM    6  C6  UNL     1     -34.063   5.671   2.886  1.00 20.00     0.000 C 
HETATM    7  C7  UNL     1     -33.118   7.185   4.754  1.00 20.00     0.000 C 
HETATM    8  C8  UNL     1     -32.866   6.042   3.765  1.00 20.00     0.000 C 
HETATM    9  O9  UNL     1     -33.877   3.672   6.358  1.00 20.00    -0.298 OA
ENDROOT
TORSDOF 0
ENDMDL
MODEL 3
REMARK VINA RESULT:      -4.5     11.911     12.901
REMARK  0 active torsions:
REMARK  status: ('A' for Active; 'I' for Inactive)
ROOT
HETATM    1  C1  UNL     1     -35.262   5.285   3.627  1.00 20.00     0.127 C 
HETATM    2  C2  UNL     1     -35.483   4.261   4.720  1.00 20.00     0.078 C 
HETATM    3  C3  UNL     1     -33.868   5.459   3.064  1.00 20.00     0.078 C 
HETATM    4  C4  UNL     1     -34.404   4.208   5.795  1.00 20.00     0.007 C 
HETATM    5  C5  UNL     1     -33.217   6.750   3.547  1.00 20.00     0.007 C 
HETATM    6  C6  UNL     1     -34.313   5.449   6.683  1.00 20.00     0.000 C 
HETATM    7  C7  UNL     1     -32.833   6.774   5.030  1.00 20.00     0.000 C 
HETATM    8  C8  UNL     1     -34.026   6.785   5.992  1.00 20.00     0.000 C 
HETATM    9  O9  UNL     1     -36.206   5.940   3.181  1.00 20.00    -0.298 OA
ENDROOT
TORSDOF 0
ENDMDL
MODEL 4
REMARK VINA RESULT:      -4.5      1.480      2.926
REMARK  0 active torsions:
REMARK  status: ('A' for Active; 'I' for Inactive)
ROOT
HETATM    1  C1  UNL     1     -34.005  13.760  -4.002  1.00 20.00     0.127 C 
HETATM    2  C2  UNL     1     -34.735  13.586  -5.318  1.00 20.00     0.078 C 
HETATM    3  C3  UNL     1     -34.574  14.713  -2.974  1.00 20.00     0.078 C 
HETATM    4  C4  UNL     1     -35.275  14.868  -5.941  1.00 20.00     0.007 C 
HETATM    5  C5  UNL     1     -33.763  16.000  -2.882  1.00 20.00     0.007 C 
HETATM    6  C6  UNL     1     -34.209  15.854  -6.419  1.00 20.00     0.000 C 
HETATM    7  C7  UNL     1     -33.872  16.931  -4.095  1.00 20.00     0.000 C 
HETATM    8  C8  UNL     1     -33.226  16.384  -5.372  1.00 20.00     0.000 C 
HETATM    9  O9  UNL     1     -32.985  13.112  -3.761  1.00 20.00    -0.298 OA
ENDROOT
TORSDOF 0
ENDMDL
MODEL 5
REMARK VINA RESULT:      -4.4      1.407      3.011
REMARK  0 active torsions:
REMARK  status: ('A' for Active; 'I' for Inactive)
ROOT
HETATM    1  C1  UNL     1     -34.076  13.956  -3.787  1.00 20.00     0.127 C 
HETATM    2  C2  UNL     1     -35.490  13.560  -4.158  1.00 20.00     0.078 C 
HETATM    3  C3  UNL     1     -33.801  15.391  -3.394  1.00 20.00     0.078 C 
HETATM    4  C4  UNL     1     -36.243  14.560  -5.026  1.00 20.00     0.007 C 
HETATM    5  C5  UNL     1     -33.063  16.149  -4.491  1.00 20.00     0.007 C 
HETATM    6  C6  UNL     1     -35.693  14.732  -6.442  1.00 20.00     0.000 C 
HETATM    7  C7  UNL     1     -33.885  16.444  -5.751  1.00 20.00     0.000 C 
HETATM    8  C8  UNL     1     -34.242  15.204  -6.576  1.00 20.00     0.000 C 
HETATM    9  O9  UNL     1     -33.173  13.117  -3.772  1.00 20.00    -0.298 OA
ENDROOT
TORSDOF 0
ENDMDL
MODEL 6
REMARK VINA RESULT:      -4.4     11.913     12.866
REMARK  0 active torsions:
REMARK  status: ('A' for Active; 'I' for Inactive)
ROOT
HETATM    1  C1  UNL     1     -32.998   6.507   4.090  1.00 20.00     0.127 C 
HETATM    2  C2  UNL     1     -32.915   6.926   5.544  1.00 20.00     0.078 C 
HETATM    3  C3  UNL     1     -34.303   6.702   3.350  1.00 20.00     0.078 C 
HETATM    4  C4  UNL     1     -34.131   6.580   6.394  1.00 20.00     0.007 C 
HETATM    5  C5  UNL     1     -35.033   5.383   3.126  1.00 20.00     0.007 C 
HETATM    6  C6  UNL     1     -34.360   5.084   6.618  1.00 20.00     0.000 C 
HETATM    7  C7  UNL     1     -35.617   4.736   4.387  1.00 20.00     0.000 C 
HETATM    8  C8  UNL     1     -34.568   4.215   5.375  1.00 20.00     0.000 C 
HETATM    9  O9  UNL     1     -32.011   6.048   3.513  1.00 20.00    -0.298 OA
ENDROOT
TORSDOF 0
ENDMDL
MODEL 7
REMARK VINA RESULT:      -4.3     12.230     13.329
REMARK  0 active torsions:
REMARK  status: ('A' for Active; 'I' for Inactive)
ROOT
HETATM    1  C1  UNL     1     -33.690   6.426   6.041  1.00 20.00     0.127 C 
HETATM    2  C2  UNL     1     -32.900   6.842   4.817  1.00 20.00     0.078 C 
HETATM    3  C3  UNL     1     -33.716   4.963   6.428  1.00 20.00     0.078 C 
HETATM    4  C4  UNL     1     -33.026   5.917   3.612  1.00 20.00     0.007 C 
HETATM    5  C5  UNL     1     -35.057   4.314   6.109  1.00 20.00     0.007 C 
HETATM    6  C6  UNL     1     -34.411   5.878   2.967  1.00 20.00     0.000 C 
HETATM    7  C7  UNL     1     -35.354   4.127   4.617  1.00 20.00     0.000 C 
HETATM    8  C8  UNL     1     -35.581   5.433   3.849  1.00 20.00     0.000 C 
HETATM    9  O9  UNL     1     -34.273   7.268   6.727  1.00 20.00    -0.298 OA
ENDROOT
TORSDOF 0
ENDMDL
MODEL 8
REMARK VINA RESULT:      -4.3      1.856      3.007
REMARK  0 active torsions:
REMARK  status: ('A' for Active; 'I' for Inactive)
ROOT
HETATM    1  C1  UNL     1     -33.646  16.097  -3.365  1.00 20.00     0.127 C 
HETATM    2  C2  UNL     1     -32.784  14.895  -3.687  1.00 20.00     0.078 C 
HETATM    3  C3  UNL     1     -34.738  15.953  -2.328  1.00 20.00     0.078 C 
HETATM    4  C4  UNL     1     -33.525  13.568  -3.796  1.00 20.00     0.007 C 
HETATM    5  C5  UNL     1     -36.123  15.910  -2.963  1.00 20.00     0.007 C 
HETATM    6  C6  UNL     1     -34.489  13.460  -4.978  1.00 20.00     0.000 C 
HETATM    7  C7  UNL     1     -36.439  14.639  -3.759  1.00 20.00     0.000 C 
HETATM    8  C8  UNL     1     -35.627  14.482  -5.048  1.00 20.00     0.000 C 
HETATM    9  O9  UNL     1     -33.439  17.182  -3.913  1.00 20.00    -0.298 OA
ENDROOT
TORSDOF 0
ENDMDL
MODEL 9
REMARK VINA RESULT:      -4.2      1.455      2.805
REMARK  0 active torsions:
REMARK  status: ('A' for Active; 'I' for Inactive)
ROOT
HETATM    1  C1  UNL     1     -35.985  15.276  -4.573  1.00 20.00     0.127 C 
HETATM    2  C2  UNL     1     -36.058  16.219  -3.391  1.00 20.00     0.078 C 
HETATM    3  C3  UNL     1     -35.800  13.797  -4.314  1.00 20.00     0.078 C 
HETATM    4  C4  UNL     1     -35.067  15.939  -2.267  1.00 20.00     0.007 C 
HETATM    5  C5  UNL     1     -34.388  13.333  -4.649  1.00 20.00     0.007 C 
HETATM    6  C6  UNL     1     -33.599  16.166  -2.628  1.00 20.00     0.000 C 
HETATM    7  C7  UNL     1     -33.291  13.836  -3.703  1.00 20.00     0.000 C 
HETATM    8  C8  UNL     1     -33.027  15.343  -3.786  1.00 20.00     0.000 C 
HETATM    9  O9  UNL     1     -36.107  15.702  -5.724  1.00 20.00    -0.298 OA
ENDROOT
TORSDOF 0
ENDMDL
