MODEL 1
REMARK VINA RESULT:      -3.6      0.000      0.000
REMARK  3 active torsions:
REMARK  status: ('A' for Active; 'I' for Inactive)
REMARK    1  A    between atoms: C1_1  and  C3_3 
REMARK    2  A    between atoms: C1_1  and  O6_6 
REMARK    3  A    between atoms: C3_3  and  C4_4 
ROOT
HETATM    1  C1  UNL     1     -35.011   4.737   5.148  1.00 20.00     0.259 C 
HETATM    2  O5  UNL     1     -35.090   3.533   4.944  1.00 20.00    -0.265 OA
ENDROOT
BRANCH   1   3
HETATM    3  C3  UNL     1     -34.942   5.803   4.074  1.00 20.00     0.122 C 
BRANCH   3   4
HETATM    4  C4  UNL     1     -33.942   5.436   2.973  1.00 20.00     0.096 C 
HETATM    5  S7  UNL     1     -32.451   6.490   3.134  1.00 20.00    -0.097 SA
ENDBRANCH   3   4
ENDBRANCH   1   3
BRANCH   1   6
HETATM    6  O6  UNL     1     -34.969   5.341   6.372  1.00 20.00    -0.326 OA
HETATM    7  C2  UNL     1     -34.076   6.454   6.480  1.00 20.00     0.213 C 
ENDBRANCH   1   6
TORSDOF 3
ENDMDL
MODEL 2
REMARK VINA RESULT:      -3.4      1.663      1.898
REMARK  3 active torsions:
REMARK  status: ('A' for Active; 'I' for Inactive)
REMARK    1  A    between atoms: C1_1  and  C3_3 
REMARK    2  A    between atoms: C1_1  and  O6_6 
REMARK    3  A    between atoms: C3_3  and  C4_4 
ROOT
HETATM    1  C1  UNL     1     -34.407   5.823   4.013  1.00 20.00     0.259 C 
HETATM    2  O5  UNL     1     -35.531   5.400   3.780  1.00 20.00    -0.265 OA
ENDROOT
BRANCH   1   3
HETATM    3  C3  UNL     1     -33.261   5.851   3.024  1.00 20.00     0.122 C 
BRANCH   3   4
HETATM    4  C4  UNL     1     -32.188   6.868   3.426  1.00 20.00     0.096 C 
HETATM    5  S7  UNL     1     -32.073   8.167   2.139  1.00 20.00    -0.097 SA
ENDBRANCH   3   4
ENDBRANCH   1   3
BRANCH   1   6
HETATM    6  O6  UNL     1     -33.978   6.346   5.200  1.00 20.00    -0.326 OA
HETATM    7  C2  UNL     1     -34.441   5.670   6.374  1.00 20.00     0.213 C 
ENDBRANCH   1   6
TORSDOF 3
ENDMDL
MODEL 3
REMARK VINA RESULT:      -3.3     12.476     12.758
REMARK  3 active torsions:
REMARK  status: ('A' for Active; 'I' for Inactive)
REMARK    1  A    between atoms: C1_1  and  C3_3 
REMARK    2  A    between atoms: C1_1  and  O6_6 
REMARK    3  A    between atoms: C3_3  and  C4_4 
ROOT
HETATM    1  C1  UNL     1     -35.190  13.528  -4.127  1.00 20.00     0.259 C 
HETATM    2  O5  UNL     1     -34.651  12.658  -4.799  1.00 20.00    -0.265 OA
ENDROOT
BRANCH   1   3
HETATM    3  C3  UNL     1     -34.466  14.536  -3.259  1.00 20.00     0.122 C 
BRANCH   3   4
HETATM    4  C4  UNL     1     -33.125  14.953  -3.871  1.00 20.00     0.096 C 
HETATM    5  S7  UNL     1     -33.373  16.435  -4.920  1.00 20.00    -0.097 SA
ENDBRANCH   3   4
ENDBRANCH   1   3
BRANCH   1   6
HETATM    6  O6  UNL     1     -36.534  13.752  -4.036  1.00 20.00    -0.326 OA
HETATM    7  C2  UNL     1     -36.912  15.054  -3.579  1.00 20.00     0.213 C 
ENDBRANCH   1   6
TORSDOF 3
ENDMDL
MODEL 4
REMARK VINA RESULT:      -3.3      1.329      2.169
REMARK  3 active torsions:
REMARK  status: ('A' for Active; 'I' for Inactive)
REMARK    1  A    between atoms: C1_1  and  C3_3 
REMARK    2  A    between atoms: C1_1  and  O6_6 
REMARK    3  A    between atoms: C3_3  and  C4_4 
ROOT
HETATM    1  C1  UNL     1     -34.066   6.213   5.603  1.00 20.00     0.259 C 
HETATM    2  O5  UNL     1     -33.361   6.877   6.351  1.00 20.00    -0.265 OA
ENDROOT
BRANCH   1   3
HETATM    3  C3  UNL     1     -34.012   6.250   4.089  1.00 20.00     0.122 C 
BRANCH   3   4
HETATM    4  C4  UNL     1     -32.572   6.195   3.571  1.00 20.00     0.096 C 
HETATM    5  S7  UNL     1     -32.210   7.723   2.625  1.00 20.00    -0.097 SA
ENDBRANCH   3   4
ENDBRANCH   1   3
BRANCH   1   6
HETATM    6  O6  UNL     1     -35.026   5.321   5.988  1.00 20.00    -0.326 OA
HETATM    7  C2  UNL     1     -34.850   3.984   5.510  1.00 20.00     0.213 C 
ENDBRANCH   1   6
TORSDOF 3
ENDMDL
MODEL 5
REMARK VINA RESULT:      -3.3     12.402     13.088
REMARK  3 active torsions:
REMARK  status: ('A' for Active; 'I' for Inactive)
REMARK    1  A    between atoms: C1_1  and  C3_3 
REMARK    2  A    between atoms: C1_1  and  O6_6 
REMARK    3  A    between atoms: C3_3  and  C4_4 
ROOT
HETATM    1  C1  UNL     1     -34.355  13.477  -4.646  1.00 20.00     0.259 C 
HETATM    2  O5  UNL     1     -35.156  12.581  -4.416  1.00 20.00    -0.265 OA
ENDROOT
BRANCH   1   3
HETATM    3  C3  UNL     1     -33.238  13.911  -3.719  1.00 20.00     0.122 C 
BRANCH   3   4
HETATM    4  C4  UNL     1     -33.221  15.430  -3.522  1.00 20.00     0.096 C 
HETATM    5  S7  UNL     1     -34.639  15.921  -2.471  1.00 20.00    -0.097 SA
ENDBRANCH   3   4
ENDBRANCH   1   3
BRANCH   1   6
HETATM    6  O6  UNL     1     -34.318  14.249  -5.772  1.00 20.00    -0.326 OA
HETATM    7  C2  UNL     1     -35.592  14.571  -6.340  1.00 20.00     0.213 C 
ENDBRANCH   1   6
TORSDOF 3
ENDMDL
MODEL 6
REMARK VINA RESULT:      -3.1     12.062     12.753
REMARK  3 active torsions:
REMARK  status: ('A' for Active; 'I' for Inactive)
REMARK    1  A    between atoms: C1_1  and  C3_3 
REMARK    2  A    between atoms: C1_1  and  O6_6 
REMARK    3  A    between atoms: C3_3  and  C4_4 
ROOT
HETATM    1  C1  UNL     1     -34.109  13.507  -4.025  1.00 20.00     0.259 C 
HETATM    2  O5  UNL     1     -33.058  13.053  -3.593  1.00 20.00    -0.265 OA
ENDROOT
BRANCH   1   3
HETATM    3  C3  UNL     1     -34.838  14.710  -3.465  1.00 20.00     0.122 C 
BRANCH   3   4
HETATM    4  C4  UNL     1     -33.866  15.754  -2.905  1.00 20.00     0.096 C 
HETATM    5  S7  UNL     1     -34.593  16.518  -1.407  1.00 20.00    -0.097 SA
ENDBRANCH   3   4
ENDBRANCH   1   3
BRANCH   1   6
HETATM    6  O6  UNL     1     -34.817  13.017  -5.086  1.00 20.00    -0.326 OA
HETATM    7  C2  UNL     1     -35.171  13.977  -6.086  1.00 20.00     0.213 C 
ENDBRANCH   1   6
TORSDOF 3
ENDMDL
MODEL 7
REMARK VINA RESULT:      -3.1      3.259      3.779
REMARK  3 active torsions:
REMARK  status: ('A' for Active; 'I' for Inactive)
REMARK    1  A    between atoms: C1_1  and  C3_3 
REMARK    2  A    between atoms: C1_1  and  O6_6 
REMARK    3  A    between atoms: C3_3  and  C4_4 
ROOT
HETATM    1  C1  UNL     1     -32.541   6.436   3.341  1.00 20.00     0.259 C 
HETATM    2  O5  UNL     1     -32.085   5.376   2.935  1.00 20.00    -0.265 OA
ENDROOT
BRANCH   1   3
HETATM    3  C3  UNL     1     -33.871   6.604   4.045  1.00 20.00     0.122 C 
BRANCH   3   4
HETATM    4  C4  UNL     1     -34.733   5.341   3.940  1.00 20.00     0.096 C 
HETATM    5  S7  UNL     1     -34.867   4.560   5.592  1.00 20.00    -0.097 SA
ENDBRANCH   3   4
ENDBRANCH   1   3
BRANCH   1   6
HETATM    6  O6  UNL     1     -31.941   7.659   3.236  1.00 20.00    -0.326 OA
HETATM    7  C2  UNL     1     -32.054   8.292   1.957  1.00 20.00     0.213 C 
ENDBRANCH   1   6
TORSDOF 3
ENDMDL
MODEL 8
REMARK VINA RESULT:      -3.1     12.769     13.337
REMARK  3 active torsions:
REMARK  status: ('A' for Active; 'I' for Inactive)
REMARK    1  A    between atoms: C1_1  and  C3_3 
REMARK    2  A    between atoms: C1_1  and  O6_6 
REMARK    3  A    between atoms: C3_3  and  C4_4 
ROOT
HETATM    1  C1  UNL     1     -34.337  13.551  -4.567  1.00 20.00     0.259 C 
HETATM    2  O5  UNL     1     -35.111  12.609  -4.455  1.00 20.00    -0.265 OA
ENDROOT
BRANCH   1   3
HETATM    3  C3  UNL     1     -34.493  14.698  -5.544  1.00 20.00     0.122 C 
BRANCH   3   4
HETATM    4  C4  UNL     1     -35.250  14.271  -6.806  1.00 20.00     0.096 C 
HETATM    5  S7  UNL     1     -36.781  15.264  -6.958  1.00 20.00    -0.097 SA
ENDBRANCH   3   4
ENDBRANCH   1   3
BRANCH   1   6
HETATM    6  O6  UNL     1     -33.198  13.743  -3.839  1.00 20.00    -0.326 OA
HETATM    7  C2  UNL     1     -32.814  15.108  -3.646  1.00 20.00     0.213 C 
ENDBRANCH   1   6
TORSDOF 3
ENDMDL
MODEL 9
REMARK VINA RESULT:      -3.0      2.832      3.411
REMARK  3 active torsions:
REMARK  status: ('A' for Active; 'I' for Inactive)
REMARK    1  A    between atoms: C1_1  and  C3_3 
REMARK    2  A    between atoms: C1_1  and  O6_6 
REMARK    3  A    between atoms: C3_3  and  C4_4 
ROOT
HETATM    1  C1  UNL     1     -33.574   5.940   3.281  1.00 20.00     0.259 C 
HETATM    2  O5  UNL     1     -34.022   5.145   2.466  1.00 20.00    -0.265 OA
ENDROOT
BRANCH   1   3
HETATM    3  C3  UNL     1     -34.368   6.592   4.395  1.00 20.00     0.122 C 
BRANCH   3   4
HETATM    4  C4  UNL     1     -34.085   5.938   5.752  1.00 20.00     0.096 C 
HETATM    5  S7  UNL     1     -34.884   4.291   5.809  1.00 20.00    -0.097 SA
ENDBRANCH   3   4
ENDBRANCH   1   3
BRANCH   1   6
HETATM    6  O6  UNL     1     -32.285   6.387   3.340  1.00 20.00    -0.326 OA
HETATM    7  C2  UNL     1     -32.030   7.622   2.664  1.00 20.00     0.213 C 
ENDBRANCH   1   6
TORSDOF 3
ENDMDL
