MODEL 1
REMARK VINA RESULT:      -2.6      0.000      0.000
REMARK  0 active torsions:
REMARK  status: ('A' for Active; 'I' for Inactive)
ROOT
HETATM    1  C1  UNL     1     -33.489  14.018  -3.861  1.00 20.00     0.149 C 
HETATM    2  C2  UNL     1     -33.428  16.427  -5.254  1.00 20.00     0.149 C 
HETATM    3  C3  UNL     1     -35.637  14.756  -5.526  1.00 20.00     0.149 C 
HETATM    4  S4  UNL     1     -33.447  15.799  -3.551  1.00 20.00    -0.149 SA
HETATM    5  S5  UNL     1     -35.106  13.411  -4.426  1.00 20.00    -0.149 SA
HETATM    6  S6  UNL     1     -34.297  15.457  -6.518  1.00 20.00    -0.149 SA
ENDROOT
TORSDOF 0
ENDMDL
MODEL 2
REMARK VINA RESULT:      -2.6      0.033      2.421
REMARK  0 active torsions:
REMARK  status: ('A' for Active; 'I' for Inactive)
ROOT
HETATM    1  C1  UNL     1     -35.664  14.744  -5.537  1.00 20.00     0.149 C 
HETATM    2  C2  UNL     1     -33.452  16.412  -5.275  1.00 20.00     0.149 C 
HETATM    3  C3  UNL     1     -33.508  14.004  -3.882  1.00 20.00     0.149 C 
HETATM    4  S4  UNL     1     -34.329  15.443  -6.535  1.00 20.00    -0.149 SA
HETATM    5  S5  UNL     1     -35.128  13.398  -4.438  1.00 20.00    -0.149 SA
HETATM    6  S6  UNL     1     -33.464  15.785  -3.572  1.00 20.00    -0.149 SA
ENDROOT
TORSDOF 0
ENDMDL
MODEL 3
REMARK VINA RESULT:      -2.6      1.063      2.592
REMARK  0 active torsions:
REMARK  status: ('A' for Active; 'I' for Inactive)
ROOT
HETATM    1  C1  UNL     1     -33.175  16.197  -4.721  1.00 20.00     0.149 C 
HETATM    2  C2  UNL     1     -34.733  14.473  -6.252  1.00 20.00     0.149 C 
HETATM    3  C3  UNL     1     -35.185  14.638  -3.511  1.00 20.00     0.149 C 
HETATM    4  S4  UNL     1     -34.376  16.244  -6.071  1.00 20.00    -0.149 SA
HETATM    5  S5  UNL     1     -33.916  15.869  -3.094  1.00 20.00    -0.149 SA
HETATM    6  S6  UNL     1     -34.656  13.442  -4.761  1.00 20.00    -0.149 SA
ENDROOT
TORSDOF 0
ENDMDL
MODEL 4
REMARK VINA RESULT:      -2.5      1.097      2.518
REMARK  0 active torsions:
REMARK  status: ('A' for Active; 'I' for Inactive)
ROOT
HETATM    1  C1  UNL     1     -35.281  14.757  -3.437  1.00 20.00     0.149 C 
HETATM    2  C2  UNL     1     -34.745  14.432  -6.148  1.00 20.00     0.149 C 
HETATM    3  C3  UNL     1     -33.146  16.142  -4.644  1.00 20.00     0.149 C 
HETATM    4  S4  UNL     1     -34.778  13.474  -4.607  1.00 20.00    -0.149 SA
HETATM    5  S5  UNL     1     -33.958  15.937  -3.032  1.00 20.00    -0.149 SA
HETATM    6  S6  UNL     1     -34.297  16.187  -6.038  1.00 20.00    -0.149 SA
ENDROOT
TORSDOF 0
ENDMDL
MODEL 5
REMARK VINA RESULT:      -2.5      1.719      2.529
REMARK  0 active torsions:
REMARK  status: ('A' for Active; 'I' for Inactive)
ROOT
HETATM    1  C1  UNL     1     -33.562  15.579  -3.524  1.00 20.00     0.149 C 
HETATM    2  C2  UNL     1     -35.153  13.508  -4.487  1.00 20.00     0.149 C 
HETATM    3  C3  UNL     1     -34.320  15.506  -6.236  1.00 20.00     0.149 C 
HETATM    4  S4  UNL     1     -33.517  13.786  -3.750  1.00 20.00    -0.149 SA
HETATM    5  S5  UNL     1     -33.362  16.516  -5.069  1.00 20.00    -0.149 SA
HETATM    6  S6  UNL     1     -35.839  14.824  -5.530  1.00 20.00    -0.149 SA
ENDROOT
TORSDOF 0
ENDMDL
MODEL 6
REMARK VINA RESULT:      -2.5      1.469      2.965
REMARK  0 active torsions:
REMARK  status: ('A' for Active; 'I' for Inactive)
ROOT
HETATM    1  C1  UNL     1     -33.575  13.843  -3.766  1.00 20.00     0.149 C 
HETATM    2  C2  UNL     1     -36.306  14.192  -4.173  1.00 20.00     0.149 C 
HETATM    3  C3  UNL     1     -34.636  16.418  -4.185  1.00 20.00     0.149 C 
HETATM    4  S4  UNL     1     -34.870  13.393  -4.944  1.00 20.00    -0.149 SA
HETATM    5  S5  UNL     1     -33.053  15.580  -3.881  1.00 20.00    -0.149 SA
HETATM    6  S6  UNL     1     -36.018  15.726  -3.246  1.00 20.00    -0.149 SA
ENDROOT
TORSDOF 0
ENDMDL
MODEL 7
REMARK VINA RESULT:      -2.5      1.521      2.407
REMARK  0 active torsions:
REMARK  status: ('A' for Active; 'I' for Inactive)
ROOT
HETATM    1  C1  UNL     1     -35.214  16.549  -4.958  1.00 20.00     0.149 C 
HETATM    2  C2  UNL     1     -33.058  15.230  -3.793  1.00 20.00     0.149 C 
HETATM    3  C3  UNL     1     -34.803  13.802  -5.424  1.00 20.00     0.149 C 
HETATM    4  S4  UNL     1     -33.407  16.564  -4.975  1.00 20.00    -0.149 SA
HETATM    5  S5  UNL     1     -35.942  15.149  -5.860  1.00 20.00    -0.149 SA
HETATM    6  S6  UNL     1     -34.238  13.855  -3.707  1.00 20.00    -0.149 SA
ENDROOT
TORSDOF 0
ENDMDL
MODEL 8
REMARK VINA RESULT:      -2.5      1.524      2.088
REMARK  0 active torsions:
REMARK  status: ('A' for Active; 'I' for Inactive)
ROOT
HETATM    1  C1  UNL     1     -34.803  13.799  -5.419  1.00 20.00     0.149 C 
HETATM    2  C2  UNL     1     -33.054  15.232  -3.797  1.00 20.00     0.149 C 
HETATM    3  C3  UNL     1     -35.212  16.548  -4.962  1.00 20.00     0.149 C 
HETATM    4  S4  UNL     1     -34.234  13.856  -3.704  1.00 20.00    -0.149 SA
HETATM    5  S5  UNL     1     -35.942  15.146  -5.857  1.00 20.00    -0.149 SA
HETATM    6  S6  UNL     1     -33.404  16.562  -4.982  1.00 20.00    -0.149 SA
ENDROOT
TORSDOF 0
ENDMDL
MODEL 9
REMARK VINA RESULT:      -2.5      1.532      3.085
REMARK  0 active torsions:
REMARK  status: ('A' for Active; 'I' for Inactive)
ROOT
HETATM    1  C1  UNL     1     -34.964  16.534  -4.882  1.00 20.00     0.149 C 
HETATM    2  C2  UNL     1     -36.238  14.178  -4.124  1.00 20.00     0.149 C 
HETATM    3  C3  UNL     1     -33.480  14.390  -3.817  1.00 20.00     0.149 C 
HETATM    4  S4  UNL     1     -36.193  15.942  -3.695  1.00 20.00    -0.149 SA
HETATM    5  S5  UNL     1     -33.257  16.076  -4.457  1.00 20.00    -0.149 SA
HETATM    6  S6  UNL     1     -34.704  13.421  -4.730  1.00 20.00    -0.149 SA
ENDROOT
TORSDOF 0
ENDMDL
