MODEL 1
REMARK VINA RESULT:      -3.7      0.000      0.000
REMARK  1 active torsions:
REMARK  status: ('A' for Active; 'I' for Inactive)
REMARK    1  A    between atoms: C1_1  and  C2_2 
ROOT
HETATM    1  C2  UNL     1     -34.347  14.955  -4.990  1.00 20.00     0.281 C 
HETATM    2 CL5  UNL     1     -34.362  14.833  -6.757  1.00 20.00    -0.073 Cl
HETATM    3 CL6  UNL     1     -35.907  15.539  -4.388  1.00 20.00    -0.073 Cl
HETATM    4 CL7  UNL     1     -33.029  16.015  -4.461  1.00 20.00    -0.073 Cl
ENDROOT
BRANCH   1   5
HETATM    5  C1  UNL     1     -34.136  13.585  -4.407  1.00 20.00     0.352 C 
HETATM    6  O3  UNL     1     -34.929  12.656  -4.471  1.00 20.00    -0.255 OA
HETATM    7  F4  UNL     1     -32.955  13.316  -3.829  1.00 20.00    -0.160 F 
ENDBRANCH   1   5
TORSDOF 1
ENDMDL
MODEL 2
REMARK VINA RESULT:      -3.6      0.033      1.905
REMARK  1 active torsions:
REMARK  status: ('A' for Active; 'I' for Inactive)
REMARK    1  A    between atoms: C1_1  and  C2_2 
ROOT
HETATM    1  C2  UNL     1     -34.347  14.959  -4.992  1.00 20.00     0.281 C 
HETATM    2 CL5  UNL     1     -35.898  15.593  -4.417  1.00 20.00    -0.073 Cl
HETATM    3 CL6  UNL     1     -33.009  15.974  -4.431  1.00 20.00    -0.073 Cl
HETATM    4 CL7  UNL     1     -34.353  14.843  -6.760  1.00 20.00    -0.073 Cl
ENDROOT
BRANCH   1   5
HETATM    5  C1  UNL     1     -34.133  13.589  -4.412  1.00 20.00     0.352 C 
HETATM    6  O3  UNL     1     -34.920  12.655  -4.485  1.00 20.00    -0.255 OA
HETATM    7  F4  UNL     1     -32.956  13.325  -3.824  1.00 20.00    -0.160 F 
ENDBRANCH   1   5
TORSDOF 1
ENDMDL
MODEL 3
REMARK VINA RESULT:      -3.6      0.039      1.895
REMARK  1 active torsions:
REMARK  status: ('A' for Active; 'I' for Inactive)
REMARK    1  A    between atoms: C1_1  and  C2_2 
ROOT
HETATM    1  C2  UNL     1     -34.344  14.968  -4.966  1.00 20.00     0.281 C 
HETATM    2 CL5  UNL     1     -33.005  16.013  -4.462  1.00 20.00    -0.073 Cl
HETATM    3 CL6  UNL     1     -34.383  14.806  -6.730  1.00 20.00    -0.073 Cl
HETATM    4 CL7  UNL     1     -35.880  15.606  -4.356  1.00 20.00    -0.073 Cl
ENDROOT
BRANCH   1   5
HETATM    5  C1  UNL     1     -34.128  13.590  -4.403  1.00 20.00     0.352 C 
HETATM    6  O3  UNL     1     -34.912  12.656  -4.491  1.00 20.00    -0.255 OA
HETATM    7  F4  UNL     1     -32.951  13.322  -3.817  1.00 20.00    -0.160 F 
ENDBRANCH   1   5
TORSDOF 1
ENDMDL
MODEL 4
REMARK VINA RESULT:      -3.6     13.199     13.619
REMARK  1 active torsions:
REMARK  status: ('A' for Active; 'I' for Inactive)
REMARK    1  A    between atoms: C1_1  and  C2_2 
ROOT
HETATM    1  C2  UNL     1     -34.470   5.263   4.675  1.00 20.00     0.281 C 
HETATM    2 CL5  UNL     1     -33.032   5.696   3.736  1.00 20.00    -0.073 Cl
HETATM    3 CL6  UNL     1     -34.511   3.521   4.991  1.00 20.00    -0.073 Cl
HETATM    4 CL7  UNL     1     -35.935   5.784   3.825  1.00 20.00    -0.073 Cl
ENDROOT
BRANCH   1   5
HETATM    5  C1  UNL     1     -34.408   5.951   6.011  1.00 20.00     0.352 C 
HETATM    6  O3  UNL     1     -33.683   6.895   6.291  1.00 20.00    -0.255 OA
HETATM    7  F4  UNL     1     -35.265   5.559   6.966  1.00 20.00    -0.160 F 
ENDBRANCH   1   5
TORSDOF 1
ENDMDL
MODEL 5
REMARK VINA RESULT:      -3.5     13.226     13.579
REMARK  1 active torsions:
REMARK  status: ('A' for Active; 'I' for Inactive)
REMARK    1  A    between atoms: C1_1  and  C2_2 
ROOT
HETATM    1  C2  UNL     1     -34.348   5.671   4.806  1.00 20.00     0.281 C 
HETATM    2 CL5  UNL     1     -35.797   6.010   3.843  1.00 20.00    -0.073 Cl
HETATM    3 CL6  UNL     1     -34.195   6.829   6.136  1.00 20.00    -0.073 Cl
HETATM    4 CL7  UNL     1     -32.909   5.701   3.773  1.00 20.00    -0.073 Cl
ENDROOT
BRANCH   1   5
HETATM    5  C1  UNL     1     -34.480   4.306   5.423  1.00 20.00     0.352 C 
HETATM    6  O3  UNL     1     -35.028   3.342   4.907  1.00 20.00    -0.255 OA
HETATM    7  F4  UNL     1     -33.888   4.087   6.608  1.00 20.00    -0.160 F 
ENDBRANCH   1   5
TORSDOF 1
ENDMDL
MODEL 6
REMARK VINA RESULT:      -3.5     13.234     13.564
REMARK  1 active torsions:
REMARK  status: ('A' for Active; 'I' for Inactive)
REMARK    1  A    between atoms: C1_1  and  C2_2 
ROOT
HETATM    1  C2  UNL     1     -34.329   5.684   4.831  1.00 20.00     0.281 C 
HETATM    2 CL5  UNL     1     -32.890   5.721   3.798  1.00 20.00    -0.073 Cl
HETATM    3 CL6  UNL     1     -35.789   6.008   3.884  1.00 20.00    -0.073 Cl
HETATM    4 CL7  UNL     1     -34.162   6.851   6.153  1.00 20.00    -0.073 Cl
ENDROOT
BRANCH   1   5
HETATM    5  C1  UNL     1     -34.478   4.305   5.412  1.00 20.00     0.352 C 
HETATM    6  O3  UNL     1     -35.043   3.364   4.872  1.00 20.00    -0.255 OA
HETATM    7  F4  UNL     1     -33.886   4.044   6.588  1.00 20.00    -0.160 F 
ENDBRANCH   1   5
TORSDOF 1
ENDMDL
MODEL 7
REMARK VINA RESULT:      -3.5      2.027      2.443
REMARK  1 active torsions:
REMARK  status: ('A' for Active; 'I' for Inactive)
REMARK    1  A    between atoms: C1_1  and  C2_2 
ROOT
HETATM    1  C2  UNL     1     -34.188  14.762  -3.804  1.00 20.00     0.281 C 
HETATM    2 CL5  UNL     1     -32.648  13.939  -3.503  1.00 20.00    -0.073 Cl
HETATM    3 CL6  UNL     1     -34.069  15.814  -5.224  1.00 20.00    -0.073 Cl
HETATM    4 CL7  UNL     1     -34.678  15.684  -2.374  1.00 20.00    -0.073 Cl
ENDROOT
BRANCH   1   5
HETATM    5  C1  UNL     1     -35.241  13.732  -4.108  1.00 20.00     0.352 C 
HETATM    6  O3  UNL     1     -35.030  12.588  -4.484  1.00 20.00    -0.255 OA
HETATM    7  F4  UNL     1     -36.525  14.052  -3.882  1.00 20.00    -0.160 F 
ENDBRANCH   1   5
TORSDOF 1
ENDMDL
MODEL 8
REMARK VINA RESULT:      -3.5     13.184     13.625
REMARK  1 active torsions:
REMARK  status: ('A' for Active; 'I' for Inactive)
REMARK    1  A    between atoms: C1_1  and  C2_2 
ROOT
HETATM    1  C2  UNL     1     -34.477   5.260   4.670  1.00 20.00     0.281 C 
HETATM    2 CL5  UNL     1     -35.943   5.791   3.828  1.00 20.00    -0.073 Cl
HETATM    3 CL6  UNL     1     -33.030   5.708   3.752  1.00 20.00    -0.073 Cl
HETATM    4 CL7  UNL     1     -34.531   3.511   4.948  1.00 20.00    -0.073 Cl
ENDROOT
BRANCH   1   5
HETATM    5  C1  UNL     1     -34.393   5.965   5.996  1.00 20.00     0.352 C 
HETATM    6  O3  UNL     1     -33.657   6.907   6.255  1.00 20.00    -0.255 OA
HETATM    7  F4  UNL     1     -35.241   5.592   6.967  1.00 20.00    -0.160 F 
ENDBRANCH   1   5
TORSDOF 1
ENDMDL
MODEL 9
REMARK VINA RESULT:      -3.5     12.402     12.900
REMARK  1 active torsions:
REMARK  status: ('A' for Active; 'I' for Inactive)
REMARK    1  A    between atoms: C1_1  and  C2_2 
ROOT
HETATM    1  C2  UNL     1     -34.644   5.396   4.525  1.00 20.00     0.281 C 
HETATM    2 CL5  UNL     1     -34.235   6.449   5.890  1.00 20.00    -0.073 Cl
HETATM    3 CL6  UNL     1     -36.198   5.864   3.816  1.00 20.00    -0.073 Cl
HETATM    4 CL7  UNL     1     -34.673   3.703   5.047  1.00 20.00    -0.073 Cl
ENDROOT
BRANCH   1   5
HETATM    5  C1  UNL     1     -33.604   5.560   3.452  1.00 20.00     0.352 C 
HETATM    6  O3  UNL     1     -32.498   6.060   3.604  1.00 20.00    -0.255 OA
HETATM    7  F4  UNL     1     -33.862   5.056   2.235  1.00 20.00    -0.160 F 
ENDBRANCH   1   5
TORSDOF 1
ENDMDL
