MODEL 1
REMARK VINA RESULT:      -5.5      0.000      0.000
REMARK  2 active torsions:
REMARK  status: ('A' for Active; 'I' for Inactive)
REMARK    1  A    between atoms: C1_1  and  C2_2 
REMARK    2  A    between atoms: C1_1  and  C3_3 
ROOT
HETATM    1  C1  UNL     1     -33.802   5.486   5.076  1.00 20.00     0.374 C 
HETATM    2  O4  UNL     1     -33.936   6.490   5.925  1.00 20.00    -0.216 OA
ENDROOT
BRANCH   1   3
HETATM    3  C2  UNL     1     -33.559   6.072   3.679  1.00 20.00     0.424 C 
HETATM    4  F5  UNL     1     -32.238   6.291   3.478  1.00 20.00    -0.168 F 
HETATM    5  F6  UNL     1     -33.984   5.255   2.690  1.00 20.00    -0.168 F 
HETATM    6  F7  UNL     1     -34.181   7.264   3.526  1.00 20.00    -0.168 F 
ENDBRANCH   1   3
BRANCH   1   7
HETATM    7  C3  UNL     1     -35.102   4.673   5.091  1.00 20.00     0.424 C 
HETATM    8  F8  UNL     1     -36.054   5.244   4.317  1.00 20.00    -0.168 F 
HETATM    9  F9  UNL     1     -35.607   4.607   6.347  1.00 20.00    -0.168 F 
HETATM   10  F10 UNL     1     -34.929   3.402   4.662  1.00 20.00    -0.168 F 
ENDBRANCH   1   7
TORSDOF 2
ENDMDL
MODEL 2
REMARK VINA RESULT:      -5.5      1.681      2.338
REMARK  2 active torsions:
REMARK  status: ('A' for Active; 'I' for Inactive)
REMARK    1  A    between atoms: C1_1  and  C2_2 
REMARK    2  A    between atoms: C1_1  and  C3_3 
ROOT
HETATM    1  C1  UNL     1     -35.175   4.991   4.754  1.00 20.00     0.374 C 
HETATM    2  O4  UNL     1     -35.118   3.693   4.509  1.00 20.00    -0.216 OA
ENDROOT
BRANCH   1   3
HETATM    3  C2  UNL     1     -34.218   5.702   3.789  1.00 20.00     0.424 C 
HETATM    4  F5  UNL     1     -34.487   7.027   3.742  1.00 20.00    -0.168 F 
HETATM    5  F6  UNL     1     -32.922   5.569   4.149  1.00 20.00    -0.168 F 
HETATM    6  F7  UNL     1     -34.346   5.231   2.527  1.00 20.00    -0.168 F 
ENDBRANCH   1   3
BRANCH   1   7
HETATM    7  C3  UNL     1     -34.735   5.222   6.205  1.00 20.00     0.424 C 
HETATM    8  F8  UNL     1     -33.770   4.347   6.575  1.00 20.00    -0.168 F 
HETATM    9  F9  UNL     1     -35.775   5.038   7.053  1.00 20.00    -0.168 F 
HETATM   10  F10 UNL     1     -34.262   6.470   6.416  1.00 20.00    -0.168 F 
ENDBRANCH   1   7
TORSDOF 2
ENDMDL
MODEL 3
REMARK VINA RESULT:      -5.5      1.684      2.375
REMARK  2 active torsions:
REMARK  status: ('A' for Active; 'I' for Inactive)
REMARK    1  A    between atoms: C1_1  and  C2_2 
REMARK    2  A    between atoms: C1_1  and  C3_3 
ROOT
HETATM    1  C1  UNL     1     -35.179   4.989   4.755  1.00 20.00     0.374 C 
HETATM    2  O4  UNL     1     -35.107   3.693   4.505  1.00 20.00    -0.216 OA
ENDROOT
BRANCH   1   3
HETATM    3  C2  UNL     1     -34.231   5.714   3.792  1.00 20.00     0.424 C 
HETATM    4  F5  UNL     1     -34.363   5.226   2.537  1.00 20.00    -0.168 F 
HETATM    5  F6  UNL     1     -34.467   7.044   3.731  1.00 20.00    -0.168 F 
HETATM    6  F7  UNL     1     -32.936   5.540   4.145  1.00 20.00    -0.168 F 
ENDBRANCH   1   3
BRANCH   1   7
HETATM    7  C3  UNL     1     -34.738   5.218   6.206  1.00 20.00     0.424 C 
HETATM    8  F8  UNL     1     -33.775   4.343   6.577  1.00 20.00    -0.168 F 
HETATM    9  F9  UNL     1     -35.780   5.035   7.054  1.00 20.00    -0.168 F 
HETATM   10  F10 UNL     1     -34.265   6.466   6.418  1.00 20.00    -0.168 F 
ENDBRANCH   1   7
TORSDOF 2
ENDMDL
MODEL 4
REMARK VINA RESULT:      -5.5      0.031      1.683
REMARK  2 active torsions:
REMARK  status: ('A' for Active; 'I' for Inactive)
REMARK    1  A    between atoms: C1_1  and  C2_2 
REMARK    2  A    between atoms: C1_1  and  C3_3 
ROOT
HETATM    1  C1  UNL     1     -33.791   5.491   5.073  1.00 20.00     0.374 C 
HETATM    2  O4  UNL     1     -33.902   6.501   5.918  1.00 20.00    -0.216 OA
ENDROOT
BRANCH   1   3
HETATM    3  C2  UNL     1     -33.543   6.065   3.673  1.00 20.00     0.424 C 
HETATM    4  F5  UNL     1     -34.182   7.249   3.523  1.00 20.00    -0.168 F 
HETATM    5  F6  UNL     1     -32.233   6.282   3.423  1.00 20.00    -0.168 F 
HETATM    6  F7  UNL     1     -34.015   5.241   2.708  1.00 20.00    -0.168 F 
ENDBRANCH   1   3
BRANCH   1   7
HETATM    7  C3  UNL     1     -35.107   4.703   5.098  1.00 20.00     0.424 C 
HETATM    8  F8  UNL     1     -35.613   4.621   6.350  1.00 20.00    -0.168 F 
HETATM    9  F9  UNL     1     -34.907   3.431   4.674  1.00 20.00    -0.168 F 
HETATM   10  F10 UNL     1     -36.057   5.245   4.304  1.00 20.00    -0.168 F 
ENDBRANCH   1   7
TORSDOF 2
ENDMDL
MODEL 5
REMARK VINA RESULT:      -5.4      1.491      2.776
REMARK  2 active torsions:
REMARK  status: ('A' for Active; 'I' for Inactive)
REMARK    1  A    between atoms: C1_1  and  C2_2 
REMARK    2  A    between atoms: C1_1  and  C3_3 
ROOT
HETATM    1  C1  UNL     1     -34.252   6.184   4.702  1.00 20.00     0.374 C 
HETATM    2  O4  UNL     1     -32.973   6.166   4.368  1.00 20.00    -0.216 OA
ENDROOT
BRANCH   1   3
HETATM    3  C2  UNL     1     -34.370   5.741   6.165  1.00 20.00     0.424 C 
HETATM    4  F5  UNL     1     -34.096   6.772   6.999  1.00 20.00    -0.168 F 
HETATM    5  F6  UNL     1     -35.606   5.292   6.477  1.00 20.00    -0.168 F 
HETATM    6  F7  UNL     1     -33.487   4.757   6.458  1.00 20.00    -0.168 F 
ENDBRANCH   1   3
BRANCH   1   7
HETATM    7  C3  UNL     1     -34.997   5.203   3.789  1.00 20.00     0.424 C 
HETATM    8  F8  UNL     1     -34.402   5.104   2.577  1.00 20.00    -0.168 F 
HETATM    9  F9  UNL     1     -36.265   5.627   3.568  1.00 20.00    -0.168 F 
HETATM   10  F10 UNL     1     -35.076   3.959   4.312  1.00 20.00    -0.168 F 
ENDBRANCH   1   7
TORSDOF 2
ENDMDL
MODEL 6
REMARK VINA RESULT:      -5.4      1.498      2.968
REMARK  2 active torsions:
REMARK  status: ('A' for Active; 'I' for Inactive)
REMARK    1  A    between atoms: C1_1  and  C2_2 
REMARK    2  A    between atoms: C1_1  and  C3_3 
ROOT
HETATM    1  C1  UNL     1     -34.233   6.179   4.683  1.00 20.00     0.374 C 
HETATM    2  O4  UNL     1     -32.957   6.106   4.346  1.00 20.00    -0.216 OA
ENDROOT
BRANCH   1   3
HETATM    3  C2  UNL     1     -34.366   5.738   6.146  1.00 20.00     0.424 C 
HETATM    4  F5  UNL     1     -34.104   6.771   6.981  1.00 20.00    -0.168 F 
HETATM    5  F6  UNL     1     -35.604   5.286   6.444  1.00 20.00    -0.168 F 
HETATM    6  F7  UNL     1     -33.484   4.756   6.450  1.00 20.00    -0.168 F 
ENDBRANCH   1   3
BRANCH   1   7
HETATM    7  C3  UNL     1     -35.022   5.233   3.770  1.00 20.00     0.424 C 
HETATM    8  F8  UNL     1     -35.076   3.981   4.280  1.00 20.00    -0.168 F 
HETATM    9  F9  UNL     1     -34.425   5.135   2.557  1.00 20.00    -0.168 F 
HETATM   10  F10 UNL     1     -36.291   5.648   3.559  1.00 20.00    -0.168 F 
ENDBRANCH   1   7
TORSDOF 2
ENDMDL
MODEL 7
REMARK VINA RESULT:      -5.3      1.505      2.729
REMARK  2 active torsions:
REMARK  status: ('A' for Active; 'I' for Inactive)
REMARK    1  A    between atoms: C1_1  and  C2_2 
REMARK    2  A    between atoms: C1_1  and  C3_3 
ROOT
HETATM    1  C1  UNL     1     -34.225   6.191   4.671  1.00 20.00     0.374 C 
HETATM    2  O4  UNL     1     -32.944   6.137   4.348  1.00 20.00    -0.216 OA
ENDROOT
BRANCH   1   3
HETATM    3  C2  UNL     1     -34.367   5.748   6.133  1.00 20.00     0.424 C 
HETATM    4  F5  UNL     1     -33.496   4.750   6.414  1.00 20.00    -0.168 F 
HETATM    5  F6  UNL     1     -34.125   6.749   7.008  1.00 20.00    -0.168 F 
HETATM    6  F7  UNL     1     -35.607   5.267   6.387  1.00 20.00    -0.168 F 
ENDBRANCH   1   3
BRANCH   1   7
HETATM    7  C3  UNL     1     -34.990   5.234   3.749  1.00 20.00     0.424 C 
HETATM    8  F8  UNL     1     -36.269   5.636   3.569  1.00 20.00    -0.168 F 
HETATM    9  F9  UNL     1     -35.042   3.993   4.290  1.00 20.00    -0.168 F 
HETATM   10  F10 UNL     1     -34.420   5.116   2.529  1.00 20.00    -0.168 F 
ENDBRANCH   1   7
TORSDOF 2
ENDMDL
MODEL 8
REMARK VINA RESULT:      -5.3      1.453      2.431
REMARK  2 active torsions:
REMARK  status: ('A' for Active; 'I' for Inactive)
REMARK    1  A    between atoms: C1_1  and  C2_2 
REMARK    2  A    between atoms: C1_1  and  C3_3 
ROOT
HETATM    1  C1  UNL     1     -33.919   5.655   4.789  1.00 20.00     0.374 C 
HETATM    2  O4  UNL     1     -33.887   6.940   4.477  1.00 20.00    -0.216 OA
ENDROOT
BRANCH   1   3
HETATM    3  C2  UNL     1     -34.912   4.961   3.849  1.00 20.00     0.424 C 
HETATM    4  F5  UNL     1     -35.148   3.692   4.260  1.00 20.00    -0.168 F 
HETATM    5  F6  UNL     1     -36.106   5.592   3.793  1.00 20.00    -0.168 F 
HETATM    6  F7  UNL     1     -34.429   4.880   2.588  1.00 20.00    -0.168 F 
ENDBRANCH   1   3
BRANCH   1   7
HETATM    7  C3  UNL     1     -34.387   5.530   6.244  1.00 20.00     0.424 C 
HETATM    8  F8  UNL     1     -34.249   6.698   6.912  1.00 20.00    -0.168 F 
HETATM    9  F9  UNL     1     -33.644   4.610   6.906  1.00 20.00    -0.168 F 
HETATM   10  F10 UNL     1     -35.680   5.148   6.346  1.00 20.00    -0.168 F 
ENDBRANCH   1   7
TORSDOF 2
ENDMDL
MODEL 9
REMARK VINA RESULT:      -5.3      1.373      3.385
REMARK  2 active torsions:
REMARK  status: ('A' for Active; 'I' for Inactive)
REMARK    1  A    between atoms: C1_1  and  C2_2 
REMARK    2  A    between atoms: C1_1  and  C3_3 
ROOT
HETATM    1  C1  UNL     1     -33.897   6.609   4.102  1.00 20.00     0.374 C 
HETATM    2  O4  UNL     1     -33.717   6.390   5.393  1.00 20.00    -0.216 OA
ENDROOT
BRANCH   1   3
HETATM    3  C2  UNL     1     -34.682   5.426   3.521  1.00 20.00     0.424 C 
HETATM    4  F5  UNL     1     -35.993   5.741   3.395  1.00 20.00    -0.168 F 
HETATM    5  F6  UNL     1     -34.239   5.057   2.299  1.00 20.00    -0.168 F 
HETATM    6  F7  UNL     1     -34.616   4.343   4.330  1.00 20.00    -0.168 F 
ENDBRANCH   1   3
BRANCH   1   7
HETATM    7  C3  UNL     1     -32.518   6.709   3.438  1.00 20.00     0.424 C 
HETATM    8  F8  UNL     1     -31.671   7.473   4.166  1.00 20.00    -0.168 F 
HETATM    9  F9  UNL     1     -32.618   7.290   2.218  1.00 20.00    -0.168 F 
HETATM   10  F10 UNL     1     -31.936   5.502   3.260  1.00 20.00    -0.168 F 
ENDBRANCH   1   7
TORSDOF 2
ENDMDL
