MODEL 1
REMARK VINA RESULT:      -4.5      0.000      0.000
REMARK  1 active torsions:
REMARK  status: ('A' for Active; 'I' for Inactive)
REMARK    1  A    between atoms: C3_3  and  C8_8 
ROOT
HETATM    1  C1  UNL     1     -33.439  16.653  -4.134  1.00 20.00    -0.026 C 
HETATM    2  C2  UNL     1     -33.083  15.414  -3.765  1.00 20.00    -0.025 C 
HETATM    3  C4  UNL     1     -34.711  16.109  -2.282  1.00 20.00     0.017 C 
HETATM    4  C5  UNL     1     -35.813  16.017  -4.391  1.00 20.00     0.021 C 
HETATM    5  C6  UNL     1     -34.826  16.898  -3.590  1.00 20.00     0.009 C 
HETATM    6  C7  UNL     1     -34.239  14.828  -2.982  1.00 20.00     0.019 C 
HETATM    7  C8  UNL     1     -35.431  14.579  -3.937  1.00 20.00     0.063 C 
ENDROOT
BRANCH   7   8
HETATM    8  C3  UNL     1     -35.098  13.671  -5.080  1.00 20.00     0.128 C 
HETATM    9  C9  UNL     1     -35.246  14.243  -6.464  1.00 20.00     0.091 C 
HETATM   10  O10 UNL     1     -34.719  12.515  -4.897  1.00 20.00    -0.298 OA
ENDBRANCH   7   8
TORSDOF 1
ENDMDL
MODEL 2
REMARK VINA RESULT:      -4.5      1.478      2.201
REMARK  1 active torsions:
REMARK  status: ('A' for Active; 'I' for Inactive)
REMARK    1  A    between atoms: C3_3  and  C8_8 
ROOT
HETATM    1  C1  UNL     1     -33.402  13.783  -3.791  1.00 20.00    -0.026 C 
HETATM    2  C2  UNL     1     -34.728  13.596  -3.881  1.00 20.00    -0.025 C 
HETATM    3  C4  UNL     1     -34.409  15.532  -2.663  1.00 20.00     0.017 C 
HETATM    4  C5  UNL     1     -33.534  16.024  -4.822  1.00 20.00     0.021 C 
HETATM    5  C6  UNL     1     -33.177  15.253  -3.530  1.00 20.00     0.009 C 
HETATM    6  C7  UNL     1     -35.386  14.946  -3.690  1.00 20.00     0.019 C 
HETATM    7  C8  UNL     1     -35.077  15.845  -4.911  1.00 20.00     0.063 C 
ENDROOT
BRANCH   7   8
HETATM    8  C3  UNL     1     -35.525  15.256  -6.213  1.00 20.00     0.128 C 
HETATM    9  C9  UNL     1     -34.460  15.006  -7.246  1.00 20.00     0.091 C 
HETATM   10  O10 UNL     1     -36.707  14.985  -6.426  1.00 20.00    -0.298 OA
ENDBRANCH   7   8
TORSDOF 1
ENDMDL
MODEL 3
REMARK VINA RESULT:      -4.4      1.697      2.688
REMARK  1 active torsions:
REMARK  status: ('A' for Active; 'I' for Inactive)
REMARK    1  A    between atoms: C3_3  and  C8_8 
ROOT
HETATM    1  C1  UNL     1     -34.183  15.078  -5.715  1.00 20.00    -0.026 C 
HETATM    2  C2  UNL     1     -35.051  14.057  -5.649  1.00 20.00    -0.025 C 
HETATM    3  C4  UNL     1     -33.588  13.803  -3.880  1.00 20.00     0.017 C 
HETATM    4  C5  UNL     1     -34.733  15.842  -3.431  1.00 20.00     0.021 C 
HETATM    5  C6  UNL     1     -33.614  15.268  -4.330  1.00 20.00     0.009 C 
HETATM    6  C7  UNL     1     -35.068  13.574  -4.215  1.00 20.00     0.019 C 
HETATM    7  C8  UNL     1     -35.725  14.649  -3.317  1.00 20.00     0.063 C 
ENDROOT
BRANCH   7   8
HETATM    8  C3  UNL     1     -37.119  15.003  -3.735  1.00 20.00     0.128 C 
HETATM    9  C9  UNL     1     -37.363  16.433  -4.135  1.00 20.00     0.091 C 
HETATM   10  O10 UNL     1     -38.019  14.165  -3.755  1.00 20.00    -0.298 OA
ENDBRANCH   7   8
TORSDOF 1
ENDMDL
MODEL 4
REMARK VINA RESULT:      -4.4     11.456     12.409
REMARK  1 active torsions:
REMARK  status: ('A' for Active; 'I' for Inactive)
REMARK    1  A    between atoms: C3_3  and  C8_8 
ROOT
HETATM    1  C1  UNL     1     -42.891   5.263   0.309  1.00 20.00    -0.026 C 
HETATM    2  C2  UNL     1     -43.052   6.514  -0.148  1.00 20.00    -0.025 C 
HETATM    3  C4  UNL     1     -40.780   6.177   0.091  1.00 20.00     0.017 C 
HETATM    4  C5  UNL     1     -41.447   4.631  -1.593  1.00 20.00     0.021 C 
HETATM    5  C6  UNL     1     -41.493   4.830  -0.060  1.00 20.00     0.009 C 
HETATM    6  C7  UNL     1     -41.761   6.910  -0.832  1.00 20.00     0.019 C 
HETATM    7  C8  UNL     1     -41.592   6.084  -2.130  1.00 20.00     0.063 C 
ENDROOT
BRANCH   7   8
HETATM    8  C3  UNL     1     -42.731   6.244  -3.090  1.00 20.00     0.128 C 
HETATM    9  C9  UNL     1     -42.989   7.634  -3.607  1.00 20.00     0.091 C 
HETATM   10  O10 UNL     1     -43.417   5.286  -3.443  1.00 20.00    -0.298 OA
ENDBRANCH   7   8
TORSDOF 1
ENDMDL
MODEL 5
REMARK VINA RESULT:      -4.3      2.032      3.630
REMARK  1 active torsions:
REMARK  status: ('A' for Active; 'I' for Inactive)
REMARK    1  A    between atoms: C3_3  and  C8_8 
ROOT
HETATM    1  C1  UNL     1     -35.829  14.899  -5.150  1.00 20.00    -0.026 C 
HETATM    2  C2  UNL     1     -35.989  14.676  -3.837  1.00 20.00    -0.025 C 
HETATM    3  C4  UNL     1     -34.077  13.550  -4.478  1.00 20.00     0.017 C 
HETATM    4  C5  UNL     1     -33.572  15.850  -4.830  1.00 20.00     0.021 C 
HETATM    5  C6  UNL     1     -34.368  14.686  -5.464  1.00 20.00     0.009 C 
HETATM    6  C7  UNL     1     -34.629  14.323  -3.273  1.00 20.00     0.019 C 
HETATM    7  C8  UNL     1     -33.719  15.574  -3.306  1.00 20.00     0.063 C 
ENDROOT
BRANCH   7   8
HETATM    8  C3  UNL     1     -34.280  16.739  -2.551  1.00 20.00     0.128 C 
HETATM    9  C9  UNL     1     -34.556  16.527  -1.086  1.00 20.00     0.091 C 
HETATM   10  O10 UNL     1     -34.501  17.818  -3.099  1.00 20.00    -0.298 OA
ENDBRANCH   7   8
TORSDOF 1
ENDMDL
MODEL 6
REMARK VINA RESULT:      -4.3      1.116      1.399
REMARK  1 active torsions:
REMARK  status: ('A' for Active; 'I' for Inactive)
REMARK    1  A    between atoms: C3_3  and  C8_8 
ROOT
HETATM    1  C1  UNL     1     -34.499  17.044  -4.783  1.00 20.00    -0.026 C 
HETATM    2  C2  UNL     1     -33.327  16.495  -4.430  1.00 20.00    -0.025 C 
HETATM    3  C4  UNL     1     -34.429  17.034  -2.473  1.00 20.00     0.017 C 
HETATM    4  C5  UNL     1     -35.797  15.379  -3.501  1.00 20.00     0.021 C 
HETATM    5  C6  UNL     1     -35.439  16.879  -3.614  1.00 20.00     0.009 C 
HETATM    6  C7  UNL     1     -33.491  15.953  -3.026  1.00 20.00     0.019 C 
HETATM    7  C8  UNL     1     -34.452  14.740  -3.052  1.00 20.00     0.063 C 
ENDROOT
BRANCH   7   8
HETATM    8  C3  UNL     1     -33.994  13.638  -3.957  1.00 20.00     0.128 C 
HETATM    9  C9  UNL     1     -34.889  13.301  -5.119  1.00 20.00     0.091 C 
HETATM   10  O10 UNL     1     -32.936  13.041  -3.763  1.00 20.00    -0.298 OA
ENDBRANCH   7   8
TORSDOF 1
ENDMDL
MODEL 7
REMARK VINA RESULT:      -4.3      1.640      3.014
REMARK  1 active torsions:
REMARK  status: ('A' for Active; 'I' for Inactive)
REMARK    1  A    between atoms: C3_3  and  C8_8 
ROOT
HETATM    1  C1  UNL     1     -35.698  14.669  -7.474  1.00 20.00    -0.026 C 
HETATM    2  C2  UNL     1     -34.429  14.776  -7.052  1.00 20.00    -0.025 C 
HETATM    3  C4  UNL     1     -35.531  16.678  -6.345  1.00 20.00     0.017 C 
HETATM    4  C5  UNL     1     -36.599  14.894  -5.185  1.00 20.00     0.021 C 
HETATM    5  C6  UNL     1     -36.539  15.551  -6.583  1.00 20.00     0.009 C 
HETATM    6  C7  UNL     1     -34.427  15.723  -5.871  1.00 20.00     0.019 C 
HETATM    7  C8  UNL     1     -35.138  15.051  -4.672  1.00 20.00     0.063 C 
ENDROOT
BRANCH   7   8
HETATM    8  C3  UNL     1     -34.516  13.751  -4.264  1.00 20.00     0.128 C 
HETATM    9  C9  UNL     1     -33.131  13.818  -3.678  1.00 20.00     0.091 C 
HETATM   10  O10 UNL     1     -35.110  12.682  -4.396  1.00 20.00    -0.298 OA
ENDBRANCH   7   8
TORSDOF 1
ENDMDL
MODEL 8
REMARK VINA RESULT:      -4.3      1.179      2.080
REMARK  1 active torsions:
REMARK  status: ('A' for Active; 'I' for Inactive)
REMARK    1  A    between atoms: C3_3  and  C8_8 
ROOT
HETATM    1  C1  UNL     1     -33.889  16.652  -2.160  1.00 20.00    -0.026 C 
HETATM    2  C2  UNL     1     -34.956  15.840  -2.141  1.00 20.00    -0.025 C 
HETATM    3  C4  UNL     1     -35.272  17.317  -3.888  1.00 20.00     0.017 C 
HETATM    4  C5  UNL     1     -33.340  16.066  -4.496  1.00 20.00     0.021 C 
HETATM    5  C6  UNL     1     -33.780  17.213  -3.557  1.00 20.00     0.009 C 
HETATM    6  C7  UNL     1     -35.553  15.851  -3.532  1.00 20.00     0.019 C 
HETATM    7  C8  UNL     1     -34.589  15.139  -4.511  1.00 20.00     0.063 C 
ENDROOT
BRANCH   7   8
HETATM    8  C3  UNL     1     -34.278  13.727  -4.119  1.00 20.00     0.128 C 
HETATM    9  C9  UNL     1     -32.897  13.463  -3.583  1.00 20.00     0.091 C 
HETATM   10  O10 UNL     1     -35.112  12.829  -4.226  1.00 20.00    -0.298 OA
ENDBRANCH   7   8
TORSDOF 1
ENDMDL
MODEL 9
REMARK VINA RESULT:      -4.2      2.139      3.571
REMARK  1 active torsions:
REMARK  status: ('A' for Active; 'I' for Inactive)
REMARK    1  A    between atoms: C3_3  and  C8_8 
ROOT
HETATM    1  C1  UNL     1     -33.812  13.657  -3.550  1.00 20.00    -0.026 C 
HETATM    2  C2  UNL     1     -33.018  14.692  -3.864  1.00 20.00    -0.025 C 
HETATM    3  C4  UNL     1     -34.728  14.667  -5.416  1.00 20.00     0.017 C 
HETATM    4  C5  UNL     1     -35.805  15.101  -3.338  1.00 20.00     0.021 C 
HETATM    5  C6  UNL     1     -35.171  13.942  -4.142  1.00 20.00     0.009 C 
HETATM    6  C7  UNL     1     -33.854  15.674  -4.657  1.00 20.00     0.019 C 
HETATM    7  C8  UNL     1     -34.913  16.315  -3.729  1.00 20.00     0.063 C 
ENDROOT
BRANCH   7   8
HETATM    8  C3  UNL     1     -34.322  17.015  -2.544  1.00 20.00     0.128 C 
HETATM    9  C9  UNL     1     -34.679  16.469  -1.188  1.00 20.00     0.091 C 
HETATM   10  O10 UNL     1     -33.576  17.985  -2.673  1.00 20.00    -0.298 OA
ENDBRANCH   7   8
TORSDOF 1
ENDMDL
