MODEL 1
REMARK VINA RESULT:      -2.9      0.000      0.000
REMARK  0 active torsions:
REMARK  status: ('A' for Active; 'I' for Inactive)
ROOT
HETATM    1  C1  UNL     1     -35.184   4.239   4.620  1.00 20.00     0.177 C 
HETATM    2  C2  UNL     1     -34.205   5.296   6.505  1.00 20.00     0.177 C 
HETATM    3  C3  UNL     1     -34.983   5.388   3.645  1.00 20.00     0.100 C 
HETATM    4  C4  UNL     1     -33.855   6.606   5.816  1.00 20.00     0.100 C 
HETATM    5  O5  UNL     1     -35.382   4.709   5.953  1.00 20.00    -0.390 OA
HETATM    6  S6  UNL     1     -33.481   6.320   4.062  1.00 20.00    -0.165 SA
ENDROOT
TORSDOF 0
ENDMDL
MODEL 2
REMARK VINA RESULT:      -2.9      1.314      2.177
REMARK  0 active torsions:
REMARK  status: ('A' for Active; 'I' for Inactive)
ROOT
HETATM    1  C1  UNL     1     -33.995   6.497   6.020  1.00 20.00     0.177 C 
HETATM    2  C2  UNL     1     -35.179   4.448   6.180  1.00 20.00     0.177 C 
HETATM    3  C3  UNL     1     -33.614   6.370   4.553  1.00 20.00     0.100 C 
HETATM    4  C4  UNL     1     -34.978   4.010   4.738  1.00 20.00     0.100 C 
HETATM    5  O5  UNL     1     -34.078   5.221   6.654  1.00 20.00    -0.390 OA
HETATM    6  S6  UNL     1     -34.891   5.455   3.642  1.00 20.00    -0.165 SA
ENDROOT
TORSDOF 0
ENDMDL
MODEL 3
REMARK VINA RESULT:      -2.8      1.870      3.009
REMARK  0 active torsions:
REMARK  status: ('A' for Active; 'I' for Inactive)
ROOT
HETATM    1  C1  UNL     1     -33.320   6.642   5.128  1.00 20.00     0.177 C 
HETATM    2  C2  UNL     1     -34.449   5.455   3.413  1.00 20.00     0.177 C 
HETATM    3  C3  UNL     1     -34.198   6.176   6.278  1.00 20.00     0.100 C 
HETATM    4  C4  UNL     1     -35.499   4.808   4.303  1.00 20.00     0.100 C 
HETATM    5  O5  UNL     1     -34.055   6.733   3.908  1.00 20.00    -0.390 OA
HETATM    6  S6  UNL     1     -34.824   4.501   5.960  1.00 20.00    -0.165 SA
ENDROOT
TORSDOF 0
ENDMDL
MODEL 4
REMARK VINA RESULT:      -2.8     12.754     12.823
REMARK  0 active torsions:
REMARK  status: ('A' for Active; 'I' for Inactive)
ROOT
HETATM    1  C1  UNL     1     -34.523  13.238  -4.723  1.00 20.00     0.177 C 
HETATM    2  C2  UNL     1     -32.951  14.685  -3.690  1.00 20.00     0.177 C 
HETATM    3  C3  UNL     1     -35.773  13.925  -4.197  1.00 20.00     0.100 C 
HETATM    4  C4  UNL     1     -33.963  15.592  -3.007  1.00 20.00     0.100 C 
HETATM    5  O5  UNL     1     -33.436  13.348  -3.803  1.00 20.00    -0.390 OA
HETATM    6  S6  UNL     1     -35.482  15.707  -3.997  1.00 20.00    -0.165 SA
ENDROOT
TORSDOF 0
ENDMDL
MODEL 5
REMARK VINA RESULT:      -2.7     12.513     12.834
REMARK  0 active torsions:
REMARK  status: ('A' for Active; 'I' for Inactive)
ROOT
HETATM    1  C1  UNL     1     -36.353  14.712  -4.036  1.00 20.00     0.177 C 
HETATM    2  C2  UNL     1     -34.634  13.259  -4.785  1.00 20.00     0.177 C 
HETATM    3  C3  UNL     1     -35.524  15.450  -2.996  1.00 20.00     0.100 C 
HETATM    4  C4  UNL     1     -33.544  13.776  -3.858  1.00 20.00     0.100 C 
HETATM    5  O5  UNL     1     -35.924  13.359  -4.186  1.00 20.00    -0.390 OA
HETATM    6  S6  UNL     1     -33.787  15.543  -3.517  1.00 20.00    -0.165 SA
ENDROOT
TORSDOF 0
ENDMDL
MODEL 6
REMARK VINA RESULT:      -2.7     12.680     13.480
REMARK  0 active torsions:
REMARK  status: ('A' for Active; 'I' for Inactive)
ROOT
HETATM    1  C1  UNL     1     -34.160  13.633  -3.529  1.00 20.00     0.177 C 
HETATM    2  C2  UNL     1     -35.215  13.686  -5.653  1.00 20.00     0.177 C 
HETATM    3  C3  UNL     1     -33.153  14.739  -3.800  1.00 20.00     0.100 C 
HETATM    4  C4  UNL     1     -34.367  14.800  -6.247  1.00 20.00     0.100 C 
HETATM    5  O5  UNL     1     -34.476  12.905  -4.716  1.00 20.00    -0.390 OA
HETATM    6  S6  UNL     1     -33.846  15.961  -4.951  1.00 20.00    -0.165 SA
ENDROOT
TORSDOF 0
ENDMDL
MODEL 7
REMARK VINA RESULT:      -2.7     12.917     13.549
REMARK  0 active torsions:
REMARK  status: ('A' for Active; 'I' for Inactive)
ROOT
HETATM    1  C1  UNL     1     -33.350  14.658  -3.499  1.00 20.00     0.177 C 
HETATM    2  C2  UNL     1     -34.831  13.227  -4.677  1.00 20.00     0.177 C 
HETATM    3  C3  UNL     1     -33.295  15.760  -4.545  1.00 20.00     0.100 C 
HETATM    4  C4  UNL     1     -35.000  14.112  -5.902  1.00 20.00     0.100 C 
HETATM    5  O5  UNL     1     -33.536  13.375  -4.097  1.00 20.00    -0.390 OA
HETATM    6  S6  UNL     1     -34.871  15.864  -5.442  1.00 20.00    -0.165 SA
ENDROOT
TORSDOF 0
ENDMDL
MODEL 8
REMARK VINA RESULT:      -2.7     13.211     13.887
REMARK  0 active torsions:
REMARK  status: ('A' for Active; 'I' for Inactive)
ROOT
HETATM    1  C1  UNL     1     -34.208  16.048  -5.611  1.00 20.00     0.177 C 
HETATM    2  C2  UNL     1     -33.237  15.340  -3.566  1.00 20.00     0.177 C 
HETATM    3  C3  UNL     1     -34.515  14.662  -6.154  1.00 20.00     0.100 C 
HETATM    4  C4  UNL     1     -33.396  13.845  -3.799  1.00 20.00     0.100 C 
HETATM    5  O5  UNL     1     -33.040  16.045  -4.790  1.00 20.00    -0.390 OA
HETATM    6  S6  UNL     1     -34.877  13.513  -4.795  1.00 20.00    -0.165 SA
ENDROOT
TORSDOF 0
ENDMDL
MODEL 9
REMARK VINA RESULT:      -2.6      9.058     10.033
REMARK  0 active torsions:
REMARK  status: ('A' for Active; 'I' for Inactive)
ROOT
HETATM    1  C1  UNL     1     -40.757   5.844  -0.358  1.00 20.00     0.177 C 
HETATM    2  C2  UNL     1     -41.885   4.460  -1.920  1.00 20.00     0.177 C 
HETATM    3  C3  UNL     1     -41.224   7.174  -0.926  1.00 20.00     0.100 C 
HETATM    4  C4  UNL     1     -42.523   5.581  -2.726  1.00 20.00     0.100 C 
HETATM    5  O5  UNL     1     -40.626   4.853  -1.378  1.00 20.00    -0.390 OA
HETATM    6  S6  UNL     1     -42.878   7.007  -1.659  1.00 20.00    -0.165 SA
ENDROOT
TORSDOF 0
ENDMDL
