MODEL 1
REMARK VINA RESULT:      -4.7      0.000      0.000
REMARK  0 active torsions:
REMARK  status: ('A' for Active; 'I' for Inactive)
ROOT
HETATM    1  C1  UNL     1     -36.169  16.940  -2.639  1.00 20.00     0.008 C 
HETATM    2  C2  UNL     1     -36.581  16.575  -3.971  1.00 20.00     0.028 C 
HETATM    3  C3  UNL     1     -34.113  15.564  -2.470  1.00 20.00     0.034 C 
HETATM    4  C4  UNL     1     -35.092  16.508  -1.964  1.00 20.00    -0.060 C 
HETATM    5  C5  UNL     1     -36.365  15.416  -4.605  1.00 20.00     0.085 C 
HETATM    6  C6  UNL     1     -34.300  14.579  -3.359  1.00 20.00     0.086 C 
HETATM    7  C7  UNL     1     -35.558  14.278  -4.093  1.00 20.00     0.215 C 
HETATM    8  C8  UNL     1     -34.798  17.031  -0.582  1.00 20.00     0.048 C 
HETATM    9  O9  UNL     1     -35.871  13.119  -4.353  1.00 20.00    -0.285 OA
HETATM   10 CL10 UNL     1     -37.089  15.154  -6.161  1.00 20.00    -0.080 Cl
HETATM   11 CL11 UNL     1     -32.985  13.499  -3.709  1.00 20.00    -0.080 Cl
ENDROOT
TORSDOF 0
ENDMDL
MODEL 2
REMARK VINA RESULT:      -4.6      2.786      3.291
REMARK  0 active torsions:
REMARK  status: ('A' for Active; 'I' for Inactive)
ROOT
HETATM    1  C1  UNL     1     -34.405  16.575  -1.055  1.00 20.00     0.008 C 
HETATM    2  C2  UNL     1     -34.923  15.759  -2.124  1.00 20.00     0.028 C 
HETATM    3  C3  UNL     1     -33.765  18.582  -2.362  1.00 20.00     0.034 C 
HETATM    4  C4  UNL     1     -33.893  17.814  -1.139  1.00 20.00    -0.060 C 
HETATM    5  C5  UNL     1     -34.553  15.765  -3.410  1.00 20.00     0.085 C 
HETATM    6  C6  UNL     1     -33.596  18.124  -3.610  1.00 20.00     0.086 C 
HETATM    7  C7  UNL     1     -33.578  16.699  -4.033  1.00 20.00     0.215 C 
HETATM    8  C8  UNL     1     -33.429  18.533   0.101  1.00 20.00     0.048 C 
HETATM    9  O9  UNL     1     -32.843  16.323  -4.944  1.00 20.00    -0.285 OA
HETATM   10 CL10 UNL     1     -35.222  14.582  -4.490  1.00 20.00    -0.080 Cl
HETATM   11 CL11 UNL     1     -33.343  19.262  -4.899  1.00 20.00    -0.080 Cl
ENDROOT
TORSDOF 0
ENDMDL
MODEL 3
REMARK VINA RESULT:      -4.5      1.419      1.565
REMARK  0 active torsions:
REMARK  status: ('A' for Active; 'I' for Inactive)
ROOT
HETATM    1  C1  UNL     1     -36.071  17.582  -2.315  1.00 20.00     0.008 C 
HETATM    2  C2  UNL     1     -37.002  17.536  -3.414  1.00 20.00     0.028 C 
HETATM    3  C3  UNL     1     -34.828  15.483  -2.759  1.00 20.00     0.034 C 
HETATM    4  C4  UNL     1     -35.111  16.693  -2.011  1.00 20.00    -0.060 C 
HETATM    5  C5  UNL     1     -37.498  16.450  -4.020  1.00 20.00     0.085 C 
HETATM    6  C6  UNL     1     -35.679  14.741  -3.482  1.00 20.00     0.086 C 
HETATM    7  C7  UNL     1     -37.112  15.042  -3.741  1.00 20.00     0.215 C 
HETATM    8  C8  UNL     1     -34.200  16.926  -0.835  1.00 20.00     0.048 C 
HETATM    9  O9  UNL     1     -37.939  14.137  -3.820  1.00 20.00    -0.285 OA
HETATM   10 CL10 UNL     1     -38.725  16.643  -5.232  1.00 20.00    -0.080 Cl
HETATM   11 CL11 UNL     1     -35.114  13.257  -4.187  1.00 20.00    -0.080 Cl
ENDROOT
TORSDOF 0
ENDMDL
MODEL 4
REMARK VINA RESULT:      -4.5      2.062      2.812
REMARK  0 active torsions:
REMARK  status: ('A' for Active; 'I' for Inactive)
ROOT
HETATM    1  C1  UNL     1     -33.569  16.232  -3.256  1.00 20.00     0.008 C 
HETATM    2  C2  UNL     1     -33.493  15.770  -4.619  1.00 20.00     0.028 C 
HETATM    3  C3  UNL     1     -35.869  15.480  -2.711  1.00 20.00     0.034 C 
HETATM    4  C4  UNL     1     -34.601  16.115  -2.404  1.00 20.00    -0.060 C 
HETATM    5  C5  UNL     1     -34.496  15.636  -5.494  1.00 20.00     0.085 C 
HETATM    6  C6  UNL     1     -36.476  15.384  -3.902  1.00 20.00     0.086 C 
HETATM    7  C7  UNL     1     -35.939  15.850  -5.208  1.00 20.00     0.215 C 
HETATM    8  C8  UNL     1     -34.488  16.631  -0.993  1.00 20.00     0.048 C 
HETATM    9  O9  UNL     1     -36.688  16.312  -6.066  1.00 20.00    -0.285 OA
HETATM   10 CL10 UNL     1     -34.136  15.197  -7.135  1.00 20.00    -0.080 Cl
HETATM   11 CL11 UNL     1     -38.062  14.678  -3.985  1.00 20.00    -0.080 Cl
ENDROOT
TORSDOF 0
ENDMDL
MODEL 5
REMARK VINA RESULT:      -4.4      2.118      2.200
REMARK  0 active torsions:
REMARK  status: ('A' for Active; 'I' for Inactive)
ROOT
HETATM    1  C1  UNL     1     -34.079  17.713  -2.965  1.00 20.00     0.008 C 
HETATM    2  C2  UNL     1     -33.892  17.773  -4.393  1.00 20.00     0.028 C 
HETATM    3  C3  UNL     1     -34.524  15.285  -2.725  1.00 20.00     0.034 C 
HETATM    4  C4  UNL     1     -34.357  16.633  -2.217  1.00 20.00    -0.060 C 
HETATM    5  C5  UNL     1     -34.446  16.987  -5.324  1.00 20.00     0.085 C 
HETATM    6  C6  UNL     1     -34.963  14.909  -3.934  1.00 20.00     0.086 C 
HETATM    7  C7  UNL     1     -35.312  15.807  -5.067  1.00 20.00     0.215 C 
HETATM    8  C8  UNL     1     -34.483  16.755  -0.720  1.00 20.00     0.048 C 
HETATM    9  O9  UNL     1     -36.235  15.527  -5.829  1.00 20.00    -0.285 OA
HETATM   10 CL10 UNL     1     -34.183  17.346  -7.002  1.00 20.00    -0.080 Cl
HETATM   11 CL11 UNL     1     -35.193  13.217  -4.258  1.00 20.00    -0.080 Cl
ENDROOT
TORSDOF 0
ENDMDL
MODEL 6
REMARK VINA RESULT:      -4.4      3.331      4.499
REMARK  0 active torsions:
REMARK  status: ('A' for Active; 'I' for Inactive)
ROOT
HETATM    1  C1  UNL     1     -34.614  14.663  -4.481  1.00 20.00     0.008 C 
HETATM    2  C2  UNL     1     -34.514  15.046  -3.095  1.00 20.00     0.028 C 
HETATM    3  C3  UNL     1     -33.724  16.727  -5.528  1.00 20.00     0.034 C 
HETATM    4  C4  UNL     1     -34.273  15.385  -5.561  1.00 20.00    -0.060 C 
HETATM    5  C5  UNL     1     -34.598  16.278  -2.580  1.00 20.00     0.085 C 
HETATM    6  C6  UNL     1     -33.928  17.679  -4.607  1.00 20.00     0.086 C 
HETATM    7  C7  UNL     1     -34.717  17.542  -3.354  1.00 20.00     0.215 C 
HETATM    8  C8  UNL     1     -34.413  14.803  -6.943  1.00 20.00     0.048 C 
HETATM    9  O9  UNL     1     -35.375  18.485  -2.919  1.00 20.00    -0.285 OA
HETATM   10 CL10 UNL     1     -34.595  16.477  -0.855  1.00 20.00    -0.080 Cl
HETATM   11 CL11 UNL     1     -33.250  19.259  -4.862  1.00 20.00    -0.080 Cl
ENDROOT
TORSDOF 0
ENDMDL
MODEL 7
REMARK VINA RESULT:      -4.3      2.763      4.006
REMARK  0 active torsions:
REMARK  status: ('A' for Active; 'I' for Inactive)
ROOT
HETATM    1  C1  UNL     1     -34.459  17.737  -5.569  1.00 20.00     0.008 C 
HETATM    2  C2  UNL     1     -34.337  17.655  -4.135  1.00 20.00     0.028 C 
HETATM    3  C3  UNL     1     -34.769  15.330  -6.077  1.00 20.00     0.034 C 
HETATM    4  C4  UNL     1     -34.649  16.729  -6.436  1.00 20.00    -0.060 C 
HETATM    5  C5  UNL     1     -33.853  16.638  -3.412  1.00 20.00     0.085 C 
HETATM    6  C6  UNL     1     -34.224  14.697  -5.029  1.00 20.00     0.086 C 
HETATM    7  C7  UNL     1     -33.421  15.318  -3.942  1.00 20.00     0.215 C 
HETATM    8  C8  UNL     1     -34.791  17.009  -7.910  1.00 20.00     0.048 C 
HETATM    9  O9  UNL     1     -32.482  14.712  -3.430  1.00 20.00    -0.285 OA
HETATM   10 CL10 UNL     1     -33.668  16.830  -1.697  1.00 20.00    -0.080 Cl
HETATM   11 CL11 UNL     1     -34.419  12.976  -4.888  1.00 20.00    -0.080 Cl
ENDROOT
TORSDOF 0
ENDMDL
MODEL 8
REMARK VINA RESULT:      -4.2      2.797      3.471
REMARK  0 active torsions:
REMARK  status: ('A' for Active; 'I' for Inactive)
ROOT
HETATM    1  C1  UNL     1     -34.025  16.612  -6.416  1.00 20.00     0.008 C 
HETATM    2  C2  UNL     1     -34.163  15.216  -6.086  1.00 20.00     0.028 C 
HETATM    3  C3  UNL     1     -33.653  17.522  -4.139  1.00 20.00     0.034 C 
HETATM    4  C4  UNL     1     -33.801  17.637  -5.577  1.00 20.00    -0.060 C 
HETATM    5  C5  UNL     1     -34.632  14.687  -4.950  1.00 20.00     0.085 C 
HETATM    6  C6  UNL     1     -34.196  16.607  -3.325  1.00 20.00     0.086 C 
HETATM    7  C7  UNL     1     -35.027  15.443  -3.733  1.00 20.00     0.215 C 
HETATM    8  C8  UNL     1     -33.647  19.038  -6.109  1.00 20.00     0.048 C 
HETATM    9  O9  UNL     1     -35.957  15.058  -3.028  1.00 20.00    -0.285 OA
HETATM   10 CL10 UNL     1     -34.842  12.967  -4.840  1.00 20.00    -0.080 Cl
HETATM   11 CL11 UNL     1     -33.963  16.761  -1.609  1.00 20.00    -0.080 Cl
ENDROOT
TORSDOF 0
ENDMDL
MODEL 9
REMARK VINA RESULT:      -4.2      2.233      3.279
REMARK  0 active torsions:
REMARK  status: ('A' for Active; 'I' for Inactive)
ROOT
HETATM    1  C1  UNL     1     -33.855  15.493  -3.011  1.00 20.00     0.008 C 
HETATM    2  C2  UNL     1     -33.893  15.026  -4.374  1.00 20.00     0.028 C 
HETATM    3  C3  UNL     1     -36.075  16.593  -2.907  1.00 20.00     0.034 C 
HETATM    4  C4  UNL     1     -34.800  16.181  -2.351  1.00 20.00    -0.060 C 
HETATM    5  C5  UNL     1     -34.538  15.577  -5.409  1.00 20.00     0.085 C 
HETATM    6  C6  UNL     1     -36.364  16.874  -4.185  1.00 20.00     0.086 C 
HETATM    7  C7  UNL     1     -35.445  16.753  -5.346  1.00 20.00     0.215 C 
HETATM    8  C8  UNL     1     -34.601  16.556  -0.905  1.00 20.00     0.048 C 
HETATM    9  O9  UNL     1     -35.501  17.553  -6.278  1.00 20.00    -0.285 OA
HETATM   10 CL10 UNL     1     -34.315  14.912  -6.997  1.00 20.00    -0.080 Cl
HETATM   11 CL11 UNL     1     -37.949  17.471  -4.578  1.00 20.00    -0.080 Cl
ENDROOT
TORSDOF 0
ENDMDL
