MODEL 1
REMARK VINA RESULT:      -4.3      0.000      0.000
REMARK  2 active torsions:
REMARK  status: ('A' for Active; 'I' for Inactive)
REMARK    1  A    between atoms: C1_1  and  O10_10 
REMARK    2  A    between atoms: C8_8  and  O10_10 
ROOT
HETATM    1  C2  UNL     1     -33.511  17.429  -1.412  1.00 20.00     0.005 C 
HETATM    2  C3  UNL     1     -34.681  16.610  -0.848  1.00 20.00     0.007 C 
HETATM    3  C4  UNL     1     -35.282  17.423  -3.001  1.00 20.00     0.012 C 
HETATM    4  C5  UNL     1     -33.450  15.969  -3.449  1.00 20.00     0.037 C 
HETATM    5  C6  UNL     1     -33.756  17.386  -2.931  1.00 20.00    -0.012 C 
HETATM    6  C7  UNL     1     -35.445  16.186  -2.114  1.00 20.00     0.015 C 
HETATM    7  C8  UNL     1     -34.605  15.137  -2.867  1.00 20.00     0.135 C 
ENDROOT
BRANCH   7   8
HETATM    8  O10 UNL     1     -35.360  14.561  -3.924  1.00 20.00    -0.323 OA
BRANCH   8   9
HETATM    9  C1  UNL     1     -34.670  13.742  -4.765  1.00 20.00     0.398 C 
HETATM   10  O9  UNL     1     -34.723  12.523  -4.820  1.00 20.00    -0.276 OA
ENDBRANCH   8   9
ENDBRANCH   7   8
TORSDOF 2
ENDMDL
MODEL 2
REMARK VINA RESULT:      -4.2     11.618     12.439
REMARK  2 active torsions:
REMARK  status: ('A' for Active; 'I' for Inactive)
REMARK    1  A    between atoms: C1_1  and  O10_10 
REMARK    2  A    between atoms: C8_8  and  O10_10 
ROOT
HETATM    1  C2  UNL     1     -34.853   4.788   6.100  1.00 20.00     0.005 C 
HETATM    2  C3  UNL     1     -34.769   3.876   4.867  1.00 20.00     0.007 C 
HETATM    3  C4  UNL     1     -35.517   6.026   4.179  1.00 20.00     0.012 C 
HETATM    4  C5  UNL     1     -33.321   6.441   5.000  1.00 20.00     0.037 C 
HETATM    5  C6  UNL     1     -34.760   6.200   5.494  1.00 20.00    -0.012 C 
HETATM    6  C7  UNL     1     -34.622   4.876   3.708  1.00 20.00     0.015 C 
HETATM    7  C8  UNL     1     -33.220   5.511   3.779  1.00 20.00     0.135 C 
ENDROOT
BRANCH   7   8
HETATM    8  O10 UNL     1     -32.962   6.279   2.612  1.00 20.00    -0.323 OA
BRANCH   8   9
HETATM    9  C1  UNL     1     -32.182   7.381   2.791  1.00 20.00     0.398 C 
HETATM   10  O9  UNL     1     -32.179   8.402   2.121  1.00 20.00    -0.276 OA
ENDBRANCH   8   9
ENDBRANCH   7   8
TORSDOF 2
ENDMDL
MODEL 3
REMARK VINA RESULT:      -4.2      2.303      3.673
REMARK  2 active torsions:
REMARK  status: ('A' for Active; 'I' for Inactive)
REMARK    1  A    between atoms: C1_1  and  O10_10 
REMARK    2  A    between atoms: C8_8  and  O10_10 
ROOT
HETATM    1  C2  UNL     1     -33.541  15.506  -4.407  1.00 20.00     0.005 C 
HETATM    2  C3  UNL     1     -34.404  15.130  -5.621  1.00 20.00     0.007 C 
HETATM    3  C4  UNL     1     -34.628  13.435  -3.968  1.00 20.00     0.012 C 
HETATM    4  C5  UNL     1     -35.551  15.361  -2.915  1.00 20.00     0.037 C 
HETATM    5  C6  UNL     1     -34.195  14.717  -3.259  1.00 20.00    -0.012 C 
HETATM    6  C7  UNL     1     -35.455  14.185  -5.017  1.00 20.00     0.015 C 
HETATM    7  C8  UNL     1     -36.414  15.011  -4.139  1.00 20.00     0.135 C 
ENDROOT
BRANCH   7   8
HETATM    8  O10 UNL     1     -37.523  14.220  -3.732  1.00 20.00    -0.323 OA
BRANCH   8   9
HETATM    9  C1  UNL     1     -38.749  14.700  -4.080  1.00 20.00     0.398 C 
HETATM   10  O9  UNL     1     -39.698  14.063  -4.511  1.00 20.00    -0.276 OA
ENDBRANCH   8   9
ENDBRANCH   7   8
TORSDOF 2
ENDMDL
MODEL 4
REMARK VINA RESULT:      -4.1      0.903      1.059
REMARK  2 active torsions:
REMARK  status: ('A' for Active; 'I' for Inactive)
REMARK    1  A    between atoms: C1_1  and  O10_10 
REMARK    2  A    between atoms: C8_8  and  O10_10 
ROOT
HETATM    1  C2  UNL     1     -34.419  18.059  -1.750  1.00 20.00     0.005 C 
HETATM    2  C3  UNL     1     -34.418  16.640  -1.160  1.00 20.00     0.007 C 
HETATM    3  C4  UNL     1     -35.824  16.671  -3.078  1.00 20.00     0.012 C 
HETATM    4  C5  UNL     1     -33.668  17.155  -3.965  1.00 20.00     0.037 C 
HETATM    5  C6  UNL     1     -34.833  17.826  -3.214  1.00 20.00    -0.012 C 
HETATM    6  C7  UNL     1     -34.815  15.768  -2.362  1.00 20.00     0.015 C 
HETATM    7  C8  UNL     1     -33.643  15.741  -3.362  1.00 20.00     0.135 C 
ENDROOT
BRANCH   7   8
HETATM    8  O10 UNL     1     -33.880  14.781  -4.382  1.00 20.00    -0.323 OA
BRANCH   8   9
HETATM    9  C1  UNL     1     -34.157  13.519  -3.952  1.00 20.00     0.398 C 
HETATM   10  O9  UNL     1     -34.792  12.659  -4.542  1.00 20.00    -0.276 OA
ENDBRANCH   8   9
ENDBRANCH   7   8
TORSDOF 2
ENDMDL
MODEL 5
REMARK VINA RESULT:      -4.0      2.168      4.003
REMARK  2 active torsions:
REMARK  status: ('A' for Active; 'I' for Inactive)
REMARK    1  A    between atoms: C1_1  and  O10_10 
REMARK    2  A    between atoms: C8_8  and  O10_10 
ROOT
HETATM    1  C2  UNL     1     -34.666  13.329  -4.572  1.00 20.00     0.005 C 
HETATM    2  C3  UNL     1     -33.373  13.619  -3.795  1.00 20.00     0.007 C 
HETATM    3  C4  UNL     1     -34.030  15.591  -4.951  1.00 20.00     0.012 C 
HETATM    4  C5  UNL     1     -35.810  15.233  -3.410  1.00 20.00     0.037 C 
HETATM    5  C6  UNL     1     -35.277  14.728  -4.764  1.00 20.00    -0.012 C 
HETATM    6  C7  UNL     1     -33.411  15.147  -3.623  1.00 20.00     0.015 C 
HETATM    7  C8  UNL     1     -34.521  15.503  -2.616  1.00 20.00     0.135 C 
ENDROOT
BRANCH   7   8
HETATM    8  O10 UNL     1     -34.453  16.878  -2.265  1.00 20.00    -0.323 OA
BRANCH   8   9
HETATM    9  C1  UNL     1     -34.158  17.141  -0.962  1.00 20.00     0.398 C 
HETATM   10  O9  UNL     1     -34.832  16.867   0.019  1.00 20.00    -0.276 OA
ENDBRANCH   8   9
ENDBRANCH   7   8
TORSDOF 2
ENDMDL
MODEL 6
REMARK VINA RESULT:      -4.0      0.931      1.831
REMARK  2 active torsions:
REMARK  status: ('A' for Active; 'I' for Inactive)
REMARK    1  A    between atoms: C1_1  and  O10_10 
REMARK    2  A    between atoms: C8_8  and  O10_10 
ROOT
HETATM    1  C2  UNL     1     -35.161  18.329  -2.604  1.00 20.00     0.005 C 
HETATM    2  C3  UNL     1     -33.700  17.910  -2.822  1.00 20.00     0.007 C 
HETATM    3  C4  UNL     1     -34.694  16.432  -1.246  1.00 20.00     0.012 C 
HETATM    4  C5  UNL     1     -35.931  16.029  -3.241  1.00 20.00     0.037 C 
HETATM    5  C6  UNL     1     -35.819  17.039  -2.083  1.00 20.00    -0.012 C 
HETATM    6  C7  UNL     1     -33.702  16.427  -2.413  1.00 20.00     0.015 C 
HETATM    7  C8  UNL     1     -34.467  15.623  -3.482  1.00 20.00     0.135 C 
ENDROOT
BRANCH   7   8
HETATM    8  O10 UNL     1     -34.314  14.228  -3.259  1.00 20.00    -0.323 OA
BRANCH   8   9
HETATM    9  C1  UNL     1     -35.100  13.419  -4.021  1.00 20.00     0.398 C 
HETATM   10  O9  UNL     1     -34.735  12.611  -4.861  1.00 20.00    -0.276 OA
ENDBRANCH   8   9
ENDBRANCH   7   8
TORSDOF 2
ENDMDL
MODEL 7
REMARK VINA RESULT:      -4.0      2.731      4.060
REMARK  2 active torsions:
REMARK  status: ('A' for Active; 'I' for Inactive)
REMARK    1  A    between atoms: C1_1  and  O10_10 
REMARK    2  A    between atoms: C8_8  and  O10_10 
ROOT
HETATM    1  C2  UNL     1     -34.463  13.193  -4.834  1.00 20.00     0.005 C 
HETATM    2  C3  UNL     1     -35.015  14.280  -5.768  1.00 20.00     0.007 C 
HETATM    3  C4  UNL     1     -35.364  14.957  -3.515  1.00 20.00     0.012 C 
HETATM    4  C5  UNL     1     -32.992  14.885  -3.711  1.00 20.00     0.037 C 
HETATM    5  C6  UNL     1     -34.208  13.958  -3.523  1.00 20.00    -0.012 C 
HETATM    6  C7  UNL     1     -34.994  15.538  -4.883  1.00 20.00     0.015 C 
HETATM    7  C8  UNL     1     -33.529  15.963  -4.666  1.00 20.00     0.135 C 
ENDROOT
BRANCH   7   8
HETATM    8  O10 UNL     1     -33.469  17.235  -4.036  1.00 20.00    -0.323 OA
BRANCH   8   9
HETATM    9  C1  UNL     1     -33.769  18.301  -4.827  1.00 20.00     0.398 C 
HETATM   10  O9  UNL     1     -33.410  18.492  -5.979  1.00 20.00    -0.276 OA
ENDBRANCH   8   9
ENDBRANCH   7   8
TORSDOF 2
ENDMDL
MODEL 8
REMARK VINA RESULT:      -3.9      1.139      2.117
REMARK  2 active torsions:
REMARK  status: ('A' for Active; 'I' for Inactive)
REMARK    1  A    between atoms: C1_1  and  O10_10 
REMARK    2  A    between atoms: C8_8  and  O10_10 
ROOT
HETATM    1  C2  UNL     1     -33.757  17.652  -2.618  1.00 20.00     0.005 C 
HETATM    2  C3  UNL     1     -33.769  17.902  -4.133  1.00 20.00     0.007 C 
HETATM    3  C4  UNL     1     -33.020  15.681  -3.731  1.00 20.00     0.012 C 
HETATM    4  C5  UNL     1     -35.259  15.666  -2.920  1.00 20.00     0.037 C 
HETATM    5  C6  UNL     1     -33.842  16.118  -2.519  1.00 20.00    -0.012 C 
HETATM    6  C7  UNL     1     -33.875  16.483  -4.716  1.00 20.00     0.015 C 
HETATM    7  C8  UNL     1     -35.289  15.938  -4.433  1.00 20.00     0.135 C 
ENDROOT
BRANCH   7   8
HETATM    8  O10 UNL     1     -35.502  14.721  -5.134  1.00 20.00    -0.323 OA
BRANCH   8   9
HETATM    9  C1  UNL     1     -35.667  13.615  -4.359  1.00 20.00     0.398 C 
HETATM   10  O9  UNL     1     -34.987  12.600  -4.363  1.00 20.00    -0.276 OA
ENDBRANCH   8   9
ENDBRANCH   7   8
TORSDOF 2
ENDMDL
MODEL 9
REMARK VINA RESULT:      -3.9      2.164      3.902
REMARK  2 active torsions:
REMARK  status: ('A' for Active; 'I' for Inactive)
REMARK    1  A    between atoms: C1_1  and  O10_10 
REMARK    2  A    between atoms: C8_8  and  O10_10 
ROOT
HETATM    1  C2  UNL     1     -34.032  15.613  -5.601  1.00 20.00     0.005 C 
HETATM    2  C3  UNL     1     -34.860  14.539  -4.881  1.00 20.00     0.007 C 
HETATM    3  C4  UNL     1     -32.876  14.940  -3.633  1.00 20.00     0.012 C 
HETATM    4  C5  UNL     1     -34.028  17.022  -3.527  1.00 20.00     0.037 C 
HETATM    5  C6  UNL     1     -33.150  16.184  -4.476  1.00 20.00    -0.012 C 
HETATM    6  C7  UNL     1     -34.363  14.637  -3.429  1.00 20.00     0.015 C 
HETATM    7  C8  UNL     1     -34.879  15.955  -2.819  1.00 20.00     0.135 C 
ENDROOT
BRANCH   7   8
HETATM    8  O10 UNL     1     -34.626  15.990  -1.422  1.00 20.00    -0.323 OA
BRANCH   8   9
HETATM    9  C1  UNL     1     -34.114  17.157  -0.944  1.00 20.00     0.398 C 
HETATM   10  O9  UNL     1     -34.192  17.586   0.197  1.00 20.00    -0.276 OA
ENDBRANCH   8   9
ENDBRANCH   7   8
TORSDOF 2
ENDMDL
