MODEL 1
REMARK VINA RESULT:      -4.4      0.000      0.000
REMARK  0 active torsions:
REMARK  status: ('A' for Active; 'I' for Inactive)
ROOT
HETATM    1  C1  UNL     1     -33.678  13.526  -3.942  1.00 20.00     0.270 A 
HETATM    2  C2  UNL     1     -34.173  15.000  -4.013  1.00 20.00     0.072 A 
HETATM    3  C3  UNL     1     -35.403  14.327  -4.739  1.00 20.00     0.079 A 
HETATM    4  C4  UNL     1     -33.262  15.899  -4.850  1.00 20.00     0.029 C 
HETATM    5  C5  UNL     1     -34.413  15.620  -2.637  1.00 20.00     0.029 C 
HETATM    6  C6  UNL     1     -35.594  14.615  -6.227  1.00 20.00     0.047 C 
HETATM    7  C7  UNL     1     -36.747  14.336  -4.011  1.00 20.00     0.047 C 
HETATM    8  O8  UNL     1     -32.713  12.931  -3.516  1.00 20.00    -0.264 OA
HETATM    9  O9  UNL     1     -34.769  13.017  -4.573  1.00 20.00    -0.309 OA
ENDROOT
TORSDOF 0
ENDMDL
MODEL 2
REMARK VINA RESULT:      -4.3      1.022      3.015
REMARK  0 active torsions:
REMARK  status: ('A' for Active; 'I' for Inactive)
ROOT
HETATM    1  C1  UNL     1     -34.887  13.638  -4.099  1.00 20.00     0.270 A 
HETATM    2  C2  UNL     1     -35.640  14.988  -4.281  1.00 20.00     0.072 A 
HETATM    3  C3  UNL     1     -34.450  15.525  -3.395  1.00 20.00     0.079 A 
HETATM    4  C4  UNL     1     -37.038  14.983  -3.662  1.00 20.00     0.029 C 
HETATM    5  C5  UNL     1     -35.705  15.448  -5.737  1.00 20.00     0.029 C 
HETATM    6  C6  UNL     1     -34.775  15.998  -1.979  1.00 20.00     0.047 C 
HETATM    7  C7  UNL     1     -33.440  16.463  -4.056  1.00 20.00     0.047 C 
HETATM    8  O8  UNL     1     -35.029  12.486  -4.447  1.00 20.00    -0.264 OA
HETATM    9  O9  UNL     1     -33.894  14.172  -3.341  1.00 20.00    -0.309 OA
ENDROOT
TORSDOF 0
ENDMDL
MODEL 3
REMARK VINA RESULT:      -4.2      1.440      2.206
REMARK  0 active torsions:
REMARK  status: ('A' for Active; 'I' for Inactive)
ROOT
HETATM    1  C1  UNL     1     -35.031  13.832  -4.148  1.00 20.00     0.270 A 
HETATM    2  C2  UNL     1     -34.119  15.085  -4.304  1.00 20.00     0.072 A 
HETATM    3  C3  UNL     1     -35.242  15.748  -3.416  1.00 20.00     0.079 A 
HETATM    4  C4  UNL     1     -33.991  15.556  -5.753  1.00 20.00     0.029 C 
HETATM    5  C5  UNL     1     -32.736  14.902  -3.680  1.00 20.00     0.029 C 
HETATM    6  C6  UNL     1     -36.127  16.811  -4.066  1.00 20.00     0.047 C 
HETATM    7  C7  UNL     1     -34.871  16.156  -1.990  1.00 20.00     0.047 C 
HETATM    8  O8  UNL     1     -35.028  12.678  -4.515  1.00 20.00    -0.264 OA
HETATM    9  O9  UNL     1     -35.957  14.471  -3.385  1.00 20.00    -0.309 OA
ENDROOT
TORSDOF 0
ENDMDL
MODEL 4
REMARK VINA RESULT:      -4.1      1.262      2.329
REMARK  0 active torsions:
REMARK  status: ('A' for Active; 'I' for Inactive)
ROOT
HETATM    1  C1  UNL     1     -34.909  13.741  -4.681  1.00 20.00     0.270 A 
HETATM    2  C2  UNL     1     -35.312  15.102  -4.041  1.00 20.00     0.072 A 
HETATM    3  C3  UNL     1     -34.709  15.668  -5.385  1.00 20.00     0.079 A 
HETATM    4  C4  UNL     1     -34.558  15.401  -2.744  1.00 20.00     0.029 C 
HETATM    5  C5  UNL     1     -36.819  15.241  -3.824  1.00 20.00     0.029 C 
HETATM    6  C6  UNL     1     -33.412  16.471  -5.298  1.00 20.00     0.047 C 
HETATM    7  C7  UNL     1     -35.675  16.311  -6.380  1.00 20.00     0.047 C 
HETATM    8  O8  UNL     1     -34.966  12.568  -4.386  1.00 20.00    -0.264 OA
HETATM    9  O9  UNL     1     -34.408  14.301  -5.813  1.00 20.00    -0.309 OA
ENDROOT
TORSDOF 0
ENDMDL
MODEL 5
REMARK VINA RESULT:      -4.0      2.175      2.808
REMARK  0 active torsions:
REMARK  status: ('A' for Active; 'I' for Inactive)
ROOT
HETATM    1  C1  UNL     1     -36.659  14.663  -4.248  1.00 20.00     0.270 A 
HETATM    2  C2  UNL     1     -35.131  14.780  -3.976  1.00 20.00     0.072 A 
HETATM    3  C3  UNL     1     -35.170  15.599  -5.325  1.00 20.00     0.079 A 
HETATM    4  C4  UNL     1     -34.415  13.429  -3.988  1.00 20.00     0.029 C 
HETATM    5  C5  UNL     1     -34.806  15.542  -2.691  1.00 20.00     0.029 C 
HETATM    6  C6  UNL     1     -34.496  14.984  -6.550  1.00 20.00     0.047 C 
HETATM    7  C7  UNL     1     -34.888  17.100  -5.251  1.00 20.00     0.047 C 
HETATM    8  O8  UNL     1     -37.621  14.157  -3.715  1.00 20.00    -0.264 OA
HETATM    9  O9  UNL     1     -36.616  15.380  -5.402  1.00 20.00    -0.309 OA
ENDROOT
TORSDOF 0
ENDMDL
MODEL 6
REMARK VINA RESULT:      -4.0      1.689      3.002
REMARK  0 active torsions:
REMARK  status: ('A' for Active; 'I' for Inactive)
ROOT
HETATM    1  C1  UNL     1     -36.768  14.450  -3.858  1.00 20.00     0.270 A 
HETATM    2  C2  UNL     1     -35.627  15.509  -3.849  1.00 20.00     0.072 A 
HETATM    3  C3  UNL     1     -34.837  14.352  -4.575  1.00 20.00     0.079 A 
HETATM    4  C4  UNL     1     -35.180  15.897  -2.439  1.00 20.00     0.029 C 
HETATM    5  C5  UNL     1     -35.962  16.759  -4.663  1.00 20.00     0.029 C 
HETATM    6  C6  UNL     1     -33.685  13.695  -3.817  1.00 20.00     0.047 C 
HETATM    7  C7  UNL     1     -34.468  14.558  -6.044  1.00 20.00     0.047 C 
HETATM    8  O8  UNL     1     -37.917  14.376  -3.482  1.00 20.00    -0.264 OA
HETATM    9  O9  UNL     1     -36.026  13.501  -4.488  1.00 20.00    -0.309 OA
ENDROOT
TORSDOF 0
ENDMDL
MODEL 7
REMARK VINA RESULT:      -3.9      2.128      3.158
REMARK  0 active torsions:
REMARK  status: ('A' for Active; 'I' for Inactive)
ROOT
HETATM    1  C1  UNL     1     -36.519  14.838  -3.745  1.00 20.00     0.270 A 
HETATM    2  C2  UNL     1     -35.051  14.760  -4.256  1.00 20.00     0.072 A 
HETATM    3  C3  UNL     1     -34.953  16.163  -3.540  1.00 20.00     0.079 A 
HETATM    4  C4  UNL     1     -34.948  14.733  -5.782  1.00 20.00     0.029 C 
HETATM    5  C5  UNL     1     -34.265  13.597  -3.650  1.00 20.00     0.029 C 
HETATM    6  C6  UNL     1     -34.767  17.398  -4.421  1.00 20.00     0.047 C 
HETATM    7  C7  UNL     1     -34.084  16.260  -2.286  1.00 20.00     0.047 C 
HETATM    8  O8  UNL     1     -37.516  14.152  -3.793  1.00 20.00    -0.264 OA
HETATM    9  O9  UNL     1     -36.359  16.049  -3.150  1.00 20.00    -0.309 OA
ENDROOT
TORSDOF 0
ENDMDL
MODEL 8
REMARK VINA RESULT:      -3.9      1.978      2.689
REMARK  0 active torsions:
REMARK  status: ('A' for Active; 'I' for Inactive)
ROOT
HETATM    1  C1  UNL     1     -33.864  16.308  -4.883  1.00 20.00     0.270 A 
HETATM    2  C2  UNL     1     -33.797  15.389  -3.628  1.00 20.00     0.072 A 
HETATM    3  C3  UNL     1     -35.011  14.681  -4.347  1.00 20.00     0.079 A 
HETATM    4  C4  UNL     1     -34.082  16.133  -2.323  1.00 20.00     0.029 C 
HETATM    5  C5  UNL     1     -32.484  14.613  -3.522  1.00 20.00     0.029 C 
HETATM    6  C6  UNL     1     -36.387  14.793  -3.693  1.00 20.00     0.047 C 
HETATM    7  C7  UNL     1     -34.787  13.271  -4.893  1.00 20.00     0.047 C 
HETATM    8  O8  UNL     1     -33.270  17.272  -5.312  1.00 20.00    -0.264 OA
HETATM    9  O9  UNL     1     -34.911  15.648  -5.442  1.00 20.00    -0.309 OA
ENDROOT
TORSDOF 0
ENDMDL
MODEL 9
REMARK VINA RESULT:      -3.9      1.969      2.462
REMARK  0 active torsions:
REMARK  status: ('A' for Active; 'I' for Inactive)
ROOT
HETATM    1  C1  UNL     1     -34.644  15.759  -2.453  1.00 20.00     0.270 A 
HETATM    2  C2  UNL     1     -33.834  15.525  -3.762  1.00 20.00     0.072 A 
HETATM    3  C3  UNL     1     -35.164  14.799  -4.203  1.00 20.00     0.079 A 
HETATM    4  C4  UNL     1     -32.590  14.660  -3.551  1.00 20.00     0.029 C 
HETATM    5  C5  UNL     1     -33.463  16.824  -4.478  1.00 20.00     0.029 C 
HETATM    6  C6  UNL     1     -35.119  13.283  -4.383  1.00 20.00     0.047 C 
HETATM    7  C7  UNL     1     -35.993  15.449  -5.311  1.00 20.00     0.047 C 
HETATM    8  O8  UNL     1     -34.466  16.289  -1.379  1.00 20.00    -0.264 OA
HETATM    9  O9  UNL     1     -35.756  15.119  -2.902  1.00 20.00    -0.309 OA
ENDROOT
TORSDOF 0
ENDMDL
