MODEL 1
REMARK VINA RESULT:      -5.6      0.000      0.000
REMARK  3 active torsions:
REMARK  status: ('A' for Active; 'I' for Inactive)
REMARK    1  A    between atoms: C1_1  and  C3_3 
REMARK    2  A    between atoms: C1_1  and  O4_4 
REMARK    3  A    between atoms: C2_2  and  O4_4 
ROOT
HETATM    1  C1  UNL     1     -33.904   5.783   5.184  1.00 20.00     0.330 C 
HETATM    2 CL10 UNL     1     -33.859   6.831   6.625  1.00 20.00    -0.086 Cl
ENDROOT
BRANCH   1   3
HETATM    3  C3  UNL     1     -35.060   4.813   5.298  1.00 20.00     0.427 C 
HETATM    4  F7  UNL     1     -36.025   5.069   4.389  1.00 20.00    -0.167 F 
HETATM    5  F8  UNL     1     -35.623   4.886   6.526  1.00 20.00    -0.167 F 
HETATM    6  F9  UNL     1     -34.649   3.538   5.121  1.00 20.00    -0.167 F 
ENDBRANCH   1   3
BRANCH   1   7
HETATM    7  O4  UNL     1     -34.106   6.579   4.017  1.00 20.00    -0.302 OA
BRANCH   7   8
HETATM    8  C2  UNL     1     -33.263   6.205   2.943  1.00 20.00     0.501 C 
HETATM    9  F5  UNL     1     -32.090   5.774   3.471  1.00 20.00    -0.184 F 
HETATM   10  F6  UNL     1     -33.817   5.148   2.300  1.00 20.00    -0.184 F 
ENDBRANCH   7   8
ENDBRANCH   1   7
TORSDOF 3
ENDMDL
MODEL 2
REMARK VINA RESULT:      -5.6      0.018      1.192
REMARK  3 active torsions:
REMARK  status: ('A' for Active; 'I' for Inactive)
REMARK    1  A    between atoms: C1_1  and  C3_3 
REMARK    2  A    between atoms: C1_1  and  O4_4 
REMARK    3  A    between atoms: C2_2  and  O4_4 
ROOT
HETATM    1  C1  UNL     1     -33.912   5.771   5.185  1.00 20.00     0.330 C 
HETATM    2 CL10 UNL     1     -33.867   6.823   6.623  1.00 20.00    -0.086 Cl
ENDROOT
BRANCH   1   3
HETATM    3  C3  UNL     1     -35.062   4.794   5.306  1.00 20.00     0.427 C 
HETATM    4  F7  UNL     1     -34.665   3.520   5.105  1.00 20.00    -0.167 F 
HETATM    5  F8  UNL     1     -36.021   5.074   4.393  1.00 20.00    -0.167 F 
HETATM    6  F9  UNL     1     -35.639   4.864   6.526  1.00 20.00    -0.167 F 
ENDBRANCH   1   3
BRANCH   1   7
HETATM    7  O4  UNL     1     -34.123   6.561   4.016  1.00 20.00    -0.302 OA
BRANCH   7   8
HETATM    8  C2  UNL     1     -33.273   6.198   2.944  1.00 20.00     0.501 C 
HETATM    9  F5  UNL     1     -32.100   5.770   3.475  1.00 20.00    -0.184 F 
HETATM   10  F6  UNL     1     -33.818   5.142   2.292  1.00 20.00    -0.184 F 
ENDBRANCH   7   8
ENDBRANCH   1   7
TORSDOF 3
ENDMDL
MODEL 3
REMARK VINA RESULT:      -5.5      0.013      1.196
REMARK  3 active torsions:
REMARK  status: ('A' for Active; 'I' for Inactive)
REMARK    1  A    between atoms: C1_1  and  C3_3 
REMARK    2  A    between atoms: C1_1  and  O4_4 
REMARK    3  A    between atoms: C2_2  and  O4_4 
ROOT
HETATM    1  C1  UNL     1     -33.908   5.783   5.188  1.00 20.00     0.330 C 
HETATM    2 CL10 UNL     1     -33.856   6.838   6.624  1.00 20.00    -0.086 Cl
ENDROOT
BRANCH   1   3
HETATM    3  C3  UNL     1     -35.063   4.812   5.313  1.00 20.00     0.427 C 
HETATM    4  F7  UNL     1     -35.636   4.864   6.533  1.00 20.00    -0.167 F 
HETATM    5  F8  UNL     1     -34.640   3.543   5.111  1.00 20.00    -0.167 F 
HETATM    6  F9  UNL     1     -36.019   5.067   4.392  1.00 20.00    -0.167 F 
ENDBRANCH   1   3
BRANCH   1   7
HETATM    7  O4  UNL     1     -34.116   6.573   4.019  1.00 20.00    -0.302 OA
BRANCH   7   8
HETATM    8  C2  UNL     1     -33.268   6.203   2.946  1.00 20.00     0.501 C 
HETATM    9  F5  UNL     1     -32.096   5.776   3.477  1.00 20.00    -0.184 F 
HETATM   10  F6  UNL     1     -33.817   5.145   2.301  1.00 20.00    -0.184 F 
ENDBRANCH   7   8
ENDBRANCH   1   7
TORSDOF 3
ENDMDL
MODEL 4
REMARK VINA RESULT:      -5.3      1.156      2.023
REMARK  3 active torsions:
REMARK  status: ('A' for Active; 'I' for Inactive)
REMARK    1  A    between atoms: C1_1  and  C3_3 
REMARK    2  A    between atoms: C1_1  and  O4_4 
REMARK    3  A    between atoms: C2_2  and  O4_4 
ROOT
HETATM    1  C1  UNL     1     -33.796   5.753   4.636  1.00 20.00     0.330 C 
HETATM    2 CL10 UNL     1     -34.326   6.180   6.283  1.00 20.00    -0.086 Cl
ENDROOT
BRANCH   1   3
HETATM    3  C3  UNL     1     -34.904   5.010   3.922  1.00 20.00     0.427 C 
HETATM    4  F7  UNL     1     -35.149   3.808   4.484  1.00 20.00    -0.167 F 
HETATM    5  F8  UNL     1     -34.576   4.798   2.627  1.00 20.00    -0.167 F 
HETATM    6  F9  UNL     1     -36.055   5.718   3.933  1.00 20.00    -0.167 F 
ENDBRANCH   1   3
BRANCH   1   7
HETATM    7  O4  UNL     1     -33.512   6.941   3.899  1.00 20.00    -0.302 OA
BRANCH   7   8
HETATM    8  C2  UNL     1     -32.187   6.978   3.401  1.00 20.00     0.501 C 
HETATM    9  F5  UNL     1     -31.777   5.696   3.228  1.00 20.00    -0.184 F 
HETATM   10  F6  UNL     1     -32.197   7.556   2.175  1.00 20.00    -0.184 F 
ENDBRANCH   7   8
ENDBRANCH   1   7
TORSDOF 3
ENDMDL
MODEL 5
REMARK VINA RESULT:      -5.3      2.075      3.208
REMARK  3 active torsions:
REMARK  status: ('A' for Active; 'I' for Inactive)
REMARK    1  A    between atoms: C1_1  and  C3_3 
REMARK    2  A    between atoms: C1_1  and  O4_4 
REMARK    3  A    between atoms: C2_2  and  O4_4 
ROOT
HETATM    1  C1  UNL     1     -33.840   6.420   3.952  1.00 20.00     0.330 C 
HETATM    2 CL10 UNL     1     -32.421   6.565   2.884  1.00 20.00    -0.086 Cl
ENDROOT
BRANCH   1   3
HETATM    3  C3  UNL     1     -34.776   5.360   3.412  1.00 20.00     0.427 C 
HETATM    4  F7  UNL     1     -36.036   5.823   3.273  1.00 20.00    -0.167 F 
HETATM    5  F8  UNL     1     -34.819   4.296   4.247  1.00 20.00    -0.167 F 
HETATM    6  F9  UNL     1     -34.362   4.907   2.208  1.00 20.00    -0.167 F 
ENDBRANCH   1   3
BRANCH   1   7
HETATM    7  O4  UNL     1     -33.422   6.020   5.256  1.00 20.00    -0.302 OA
BRANCH   7   8
HETATM    8  C2  UNL     1     -34.053   6.758   6.287  1.00 20.00     0.501 C 
HETATM    9  F5  UNL     1     -34.795   5.889   7.018  1.00 20.00    -0.184 F 
HETATM   10  F6  UNL     1     -33.101   7.255   7.114  1.00 20.00    -0.184 F 
ENDBRANCH   7   8
ENDBRANCH   1   7
TORSDOF 3
ENDMDL
MODEL 6
REMARK VINA RESULT:      -5.0      1.644      1.820
REMARK  3 active torsions:
REMARK  status: ('A' for Active; 'I' for Inactive)
REMARK    1  A    between atoms: C1_1  and  C3_3 
REMARK    2  A    between atoms: C1_1  and  O4_4 
REMARK    3  A    between atoms: C2_2  and  O4_4 
ROOT
HETATM    1  C1  UNL     1     -34.741   5.765   4.956  1.00 20.00     0.330 C 
HETATM    2 CL10 UNL     1     -35.577   5.617   3.389  1.00 20.00    -0.086 Cl
ENDROOT
BRANCH   1   3
HETATM    3  C3  UNL     1     -34.774   4.434   5.678  1.00 20.00     0.427 C 
HETATM    4  F7  UNL     1     -35.116   3.422   4.853  1.00 20.00    -0.167 F 
HETATM    5  F8  UNL     1     -35.673   4.464   6.687  1.00 20.00    -0.167 F 
HETATM    6  F9  UNL     1     -33.571   4.142   6.221  1.00 20.00    -0.167 F 
ENDBRANCH   1   3
BRANCH   1   7
HETATM    7  O4  UNL     1     -33.376   6.119   4.741  1.00 20.00    -0.302 OA
BRANCH   7   8
HETATM    8  C2  UNL     1     -33.032   6.183   3.368  1.00 20.00     0.501 C 
HETATM    9  F5  UNL     1     -32.918   7.492   3.034  1.00 20.00    -0.184 F 
HETATM   10  F6  UNL     1     -31.809   5.625   3.198  1.00 20.00    -0.184 F 
ENDBRANCH   7   8
ENDBRANCH   1   7
TORSDOF 3
ENDMDL
MODEL 7
REMARK VINA RESULT:      -5.0      1.351      3.677
REMARK  3 active torsions:
REMARK  status: ('A' for Active; 'I' for Inactive)
REMARK    1  A    between atoms: C1_1  and  C3_3 
REMARK    2  A    between atoms: C1_1  and  O4_4 
REMARK    3  A    between atoms: C2_2  and  O4_4 
ROOT
HETATM    1  C1  UNL     1     -33.673   6.642   4.077  1.00 20.00     0.330 C 
HETATM    2 CL10 UNL     1     -33.505   6.798   5.845  1.00 20.00    -0.086 Cl
ENDROOT
BRANCH   1   3
HETATM    3  C3  UNL     1     -32.322   6.829   3.420  1.00 20.00     0.427 C 
HETATM    4  F7  UNL     1     -31.488   7.567   4.183  1.00 20.00    -0.167 F 
HETATM    5  F8  UNL     1     -32.456   7.458   2.230  1.00 20.00    -0.167 F 
HETATM    6  F9  UNL     1     -31.725   5.641   3.180  1.00 20.00    -0.167 F 
ENDBRANCH   1   3
BRANCH   1   7
HETATM    7  O4  UNL     1     -34.147   5.337   3.752  1.00 20.00    -0.302 OA
BRANCH   7   8
HETATM    8  C2  UNL     1     -35.191   4.901   4.605  1.00 20.00     0.501 C 
HETATM    9  F5  UNL     1     -36.367   5.254   4.029  1.00 20.00    -0.184 F 
HETATM   10  F6  UNL     1     -35.171   3.547   4.663  1.00 20.00    -0.184 F 
ENDBRANCH   7   8
ENDBRANCH   1   7
TORSDOF 3
ENDMDL
MODEL 8
REMARK VINA RESULT:      -5.0      1.371      3.678
REMARK  3 active torsions:
REMARK  status: ('A' for Active; 'I' for Inactive)
REMARK    1  A    between atoms: C1_1  and  C3_3 
REMARK    2  A    between atoms: C1_1  and  O4_4 
REMARK    3  A    between atoms: C2_2  and  O4_4 
ROOT
HETATM    1  C1  UNL     1     -33.669   6.644   4.048  1.00 20.00     0.330 C 
HETATM    2 CL10 UNL     1     -33.513   6.787   5.818  1.00 20.00    -0.086 Cl
ENDROOT
BRANCH   1   3
HETATM    3  C3  UNL     1     -32.311   6.821   3.403  1.00 20.00     0.427 C 
HETATM    4  F7  UNL     1     -31.695   5.638   3.193  1.00 20.00    -0.167 F 
HETATM    5  F8  UNL     1     -31.505   7.570   4.189  1.00 20.00    -0.167 F 
HETATM    6  F9  UNL     1     -32.413   7.455   2.214  1.00 20.00    -0.167 F 
ENDBRANCH   1   3
BRANCH   1   7
HETATM    7  O4  UNL     1     -34.154   5.345   3.712  1.00 20.00    -0.302 OA
BRANCH   7   8
HETATM    8  C2  UNL     1     -35.202   4.912   4.560  1.00 20.00     0.501 C 
HETATM    9  F5  UNL     1     -36.375   5.264   3.978  1.00 20.00    -0.184 F 
HETATM   10  F6  UNL     1     -35.183   3.558   4.621  1.00 20.00    -0.184 F 
ENDBRANCH   7   8
ENDBRANCH   1   7
TORSDOF 3
ENDMDL
MODEL 9
REMARK VINA RESULT:      -4.9      1.733      2.052
REMARK  3 active torsions:
REMARK  status: ('A' for Active; 'I' for Inactive)
REMARK    1  A    between atoms: C1_1  and  C3_3 
REMARK    2  A    between atoms: C1_1  and  O4_4 
REMARK    3  A    between atoms: C2_2  and  O4_4 
ROOT
HETATM    1  C1  UNL     1     -34.456   5.969   4.495  1.00 20.00     0.330 C 
HETATM    2 CL10 UNL     1     -34.623   5.289   2.856  1.00 20.00    -0.086 Cl
ENDROOT
BRANCH   1   3
HETATM    3  C3  UNL     1     -34.738   4.893   5.522  1.00 20.00     0.427 C 
HETATM    4  F7  UNL     1     -35.288   5.400   6.645  1.00 20.00    -0.167 F 
HETATM    5  F8  UNL     1     -33.594   4.262   5.873  1.00 20.00    -0.167 F 
HETATM    6  F9  UNL     1     -35.578   3.956   5.032  1.00 20.00    -0.167 F 
ENDBRANCH   1   3
BRANCH   1   7
HETATM    7  O4  UNL     1     -33.121   6.430   4.690  1.00 20.00    -0.302 OA
BRANCH   7   8
HETATM    8  C2  UNL     1     -32.426   6.640   3.473  1.00 20.00     0.501 C 
HETATM    9  F5  UNL     1     -31.583   7.686   3.657  1.00 20.00    -0.184 F 
HETATM   10  F6  UNL     1     -31.656   5.554   3.218  1.00 20.00    -0.184 F 
ENDBRANCH   7   8
ENDBRANCH   1   7
TORSDOF 3
ENDMDL
