MODEL 1
REMARK VINA RESULT:      -2.8      0.000      0.000
REMARK  0 active torsions:
REMARK  status: ('A' for Active; 'I' for Inactive)
ROOT
HETATM    1  C1  UNL     1     -33.451  13.705  -3.817  1.00 20.00     0.020 C 
HETATM    2  C2  UNL     1     -34.772  13.376  -4.512  1.00 20.00     0.075 C 
HETATM    3  C3  UNL     1     -33.110  15.184  -3.647  1.00 20.00     0.075 C 
HETATM    4  C4  UNL     1     -35.442  16.045  -4.891  1.00 20.00     0.147 C 
HETATM    5  S5  UNL     1     -36.087  14.550  -4.090  1.00 20.00    -0.159 SA
HETATM    6  S6  UNL     1     -33.641  16.186  -5.062  1.00 20.00    -0.159 SA
ENDROOT
TORSDOF 0
ENDMDL
MODEL 2
REMARK VINA RESULT:      -2.8      0.020      2.336
REMARK  0 active torsions:
REMARK  status: ('A' for Active; 'I' for Inactive)
ROOT
HETATM    1  C1  UNL     1     -33.453  13.698  -3.821  1.00 20.00     0.020 C 
HETATM    2  C2  UNL     1     -33.122  15.180  -3.642  1.00 20.00     0.075 C 
HETATM    3  C3  UNL     1     -34.763  13.365  -4.531  1.00 20.00     0.075 C 
HETATM    4  C4  UNL     1     -35.450  16.033  -4.895  1.00 20.00     0.147 C 
HETATM    5  S5  UNL     1     -33.649  16.183  -5.058  1.00 20.00    -0.159 SA
HETATM    6  S6  UNL     1     -36.093  14.526  -4.117  1.00 20.00    -0.159 SA
ENDROOT
TORSDOF 0
ENDMDL
MODEL 3
REMARK VINA RESULT:      -2.7      1.734      2.644
REMARK  0 active torsions:
REMARK  status: ('A' for Active; 'I' for Inactive)
ROOT
HETATM    1  C1  UNL     1     -33.637  16.265  -2.698  1.00 20.00     0.020 C 
HETATM    2  C2  UNL     1     -33.192  15.485  -3.935  1.00 20.00     0.075 C 
HETATM    3  C3  UNL     1     -35.025  15.946  -2.145  1.00 20.00     0.075 C 
HETATM    4  C4  UNL     1     -35.556  14.036  -4.093  1.00 20.00     0.147 C 
HETATM    5  S5  UNL     1     -33.770  13.768  -3.917  1.00 20.00    -0.159 SA
HETATM    6  S6  UNL     1     -36.230  15.594  -3.453  1.00 20.00    -0.159 SA
ENDROOT
TORSDOF 0
ENDMDL
MODEL 4
REMARK VINA RESULT:      -2.7      1.733      2.365
REMARK  0 active torsions:
REMARK  status: ('A' for Active; 'I' for Inactive)
ROOT
HETATM    1  C1  UNL     1     -33.644  16.251  -2.694  1.00 20.00     0.020 C 
HETATM    2  C2  UNL     1     -35.034  15.931  -2.145  1.00 20.00     0.075 C 
HETATM    3  C3  UNL     1     -33.197  15.480  -3.934  1.00 20.00     0.075 C 
HETATM    4  C4  UNL     1     -35.559  14.024  -4.096  1.00 20.00     0.147 C 
HETATM    5  S5  UNL     1     -36.234  15.583  -3.460  1.00 20.00    -0.159 SA
HETATM    6  S6  UNL     1     -33.773  13.760  -3.927  1.00 20.00    -0.159 SA
ENDROOT
TORSDOF 0
ENDMDL
MODEL 5
REMARK VINA RESULT:      -2.7      1.426      2.411
REMARK  0 active torsions:
REMARK  status: ('A' for Active; 'I' for Inactive)
ROOT
HETATM    1  C1  UNL     1     -34.471  13.991  -3.493  1.00 20.00     0.020 C 
HETATM    2  C2  UNL     1     -34.428  15.517  -3.420  1.00 20.00     0.075 C 
HETATM    3  C3  UNL     1     -34.354  13.363  -4.880  1.00 20.00     0.075 C 
HETATM    4  C4  UNL     1     -34.153  15.818  -6.168  1.00 20.00     0.147 C 
HETATM    5  S5  UNL     1     -33.286  16.236  -4.631  1.00 20.00    -0.159 SA
HETATM    6  S6  UNL     1     -35.198  14.335  -6.156  1.00 20.00    -0.159 SA
ENDROOT
TORSDOF 0
ENDMDL
MODEL 6
REMARK VINA RESULT:      -2.7      1.082      1.356
REMARK  0 active torsions:
REMARK  status: ('A' for Active; 'I' for Inactive)
ROOT
HETATM    1  C1  UNL     1     -32.994  15.119  -3.658  1.00 20.00     0.020 C 
HETATM    2  C2  UNL     1     -33.600  13.746  -3.945  1.00 20.00     0.075 C 
HETATM    3  C3  UNL     1     -33.589  16.307  -4.411  1.00 20.00     0.075 C 
HETATM    4  C4  UNL     1     -35.432  14.741  -5.780  1.00 20.00     0.147 C 
HETATM    5  S5  UNL     1     -35.391  13.822  -4.217  1.00 20.00    -0.159 SA
HETATM    6  S6  UNL     1     -34.064  15.885  -6.109  1.00 20.00    -0.159 SA
ENDROOT
TORSDOF 0
ENDMDL
MODEL 7
REMARK VINA RESULT:      -2.7      1.070      2.459
REMARK  0 active torsions:
REMARK  status: ('A' for Active; 'I' for Inactive)
ROOT
HETATM    1  C1  UNL     1     -32.983  15.085  -3.721  1.00 20.00     0.020 C 
HETATM    2  C2  UNL     1     -33.548  16.293  -4.466  1.00 20.00     0.075 C 
HETATM    3  C3  UNL     1     -33.650  13.737  -3.987  1.00 20.00     0.075 C 
HETATM    4  C4  UNL     1     -35.494  14.802  -5.773  1.00 20.00     0.147 C 
HETATM    5  S5  UNL     1     -34.084  15.881  -6.148  1.00 20.00    -0.159 SA
HETATM    6  S6  UNL     1     -35.443  13.881  -4.211  1.00 20.00    -0.159 SA
ENDROOT
TORSDOF 0
ENDMDL
MODEL 8
REMARK VINA RESULT:      -2.7      1.454      1.454
REMARK  0 active torsions:
REMARK  status: ('A' for Active; 'I' for Inactive)
ROOT
HETATM    1  C1  UNL     1     -34.531  14.005  -3.524  1.00 20.00     0.020 C 
HETATM    2  C2  UNL     1     -34.397  13.374  -4.909  1.00 20.00     0.075 C 
HETATM    3  C3  UNL     1     -34.473  15.530  -3.452  1.00 20.00     0.075 C 
HETATM    4  C4  UNL     1     -34.134  15.822  -6.195  1.00 20.00     0.147 C 
HETATM    5  S5  UNL     1     -35.205  14.358  -6.200  1.00 20.00    -0.159 SA
HETATM    6  S6  UNL     1     -33.299  16.237  -4.639  1.00 20.00    -0.159 SA
ENDROOT
TORSDOF 0
ENDMDL
MODEL 9
REMARK VINA RESULT:      -2.7     12.362     13.394
REMARK  0 active torsions:
REMARK  status: ('A' for Active; 'I' for Inactive)
ROOT
HETATM    1  C1  UNL     1     -34.121   5.926   3.382  1.00 20.00     0.020 C 
HETATM    2  C2  UNL     1     -33.048   6.272   4.413  1.00 20.00     0.075 C 
HETATM    3  C3  UNL     1     -35.389   5.254   3.905  1.00 20.00     0.075 C 
HETATM    4  C4  UNL     1     -34.514   5.255   6.543  1.00 20.00     0.147 C 
HETATM    5  S5  UNL     1     -33.754   6.809   5.994  1.00 20.00    -0.159 SA
HETATM    6  S6  UNL     1     -35.053   4.094   5.257  1.00 20.00    -0.159 SA
ENDROOT
TORSDOF 0
ENDMDL
