MODEL 1
REMARK VINA RESULT:      -4.6      0.000      0.000
REMARK  2 active torsions:
REMARK  status: ('A' for Active; 'I' for Inactive)
REMARK    1  A    between atoms: C1_1  and  C3_3 
REMARK    2  A    between atoms: C3_3  and  O6_6 
ROOT
HETATM    1  C1  UNL     1     -33.769   6.535   4.975  1.00 20.00     0.156 C 
HETATM    2  C2  UNL     1     -34.022   6.488   6.285  1.00 20.00     0.273 C 
HETATM    3  F7  UNL     1     -33.350   7.314   7.116  1.00 20.00    -0.173 F 
HETATM    4  F8  UNL     1     -34.934   5.635   6.798  1.00 20.00    -0.173 F 
ENDROOT
BRANCH   1   5
HETATM    5  C3  UNL     1     -34.479   5.652   4.025  1.00 20.00     0.287 C 
HETATM    6  O5  UNL     1     -35.543   5.092   4.235  1.00 20.00    -0.260 OA
BRANCH   5   7
HETATM    7  O6  UNL     1     -33.731   5.585   2.890  1.00 20.00    -0.323 OA
HETATM    8  C4  UNL     1     -32.447   6.214   2.962  1.00 20.00     0.213 C 
ENDBRANCH   5   7
ENDBRANCH   1   5
TORSDOF 2
ENDMDL
MODEL 2
REMARK VINA RESULT:      -4.6      1.436      1.802
REMARK  2 active torsions:
REMARK  status: ('A' for Active; 'I' for Inactive)
REMARK    1  A    between atoms: C1_1  and  C3_3 
REMARK    2  A    between atoms: C3_3  and  O6_6 
ROOT
HETATM    1  C1  UNL     1     -34.030   6.125   4.930  1.00 20.00     0.156 C 
HETATM    2  C2  UNL     1     -34.693   5.178   5.599  1.00 20.00     0.273 C 
HETATM    3  F7  UNL     1     -35.105   5.427   6.861  1.00 20.00    -0.173 F 
HETATM    4  F8  UNL     1     -34.961   3.978   5.042  1.00 20.00    -0.173 F 
ENDROOT
BRANCH   1   5
HETATM    5  C3  UNL     1     -33.559   5.901   3.547  1.00 20.00     0.287 C 
HETATM    6  O5  UNL     1     -34.201   5.367   2.656  1.00 20.00    -0.260 OA
BRANCH   5   7
HETATM    7  O6  UNL     1     -32.294   6.395   3.459  1.00 20.00    -0.323 OA
HETATM    8  C4  UNL     1     -32.146   7.565   2.648  1.00 20.00     0.213 C 
ENDBRANCH   5   7
ENDBRANCH   1   5
TORSDOF 2
ENDMDL
MODEL 3
REMARK VINA RESULT:      -4.3      2.624      3.246
REMARK  2 active torsions:
REMARK  status: ('A' for Active; 'I' for Inactive)
REMARK    1  A    between atoms: C1_1  and  C3_3 
REMARK    2  A    between atoms: C3_3  and  O6_6 
ROOT
HETATM    1  C1  UNL     1     -33.426   6.895   4.016  1.00 20.00     0.156 C 
HETATM    2  C2  UNL     1     -32.303   6.718   3.315  1.00 20.00     0.273 C 
HETATM    3  F7  UNL     1     -31.453   7.756   3.157  1.00 20.00    -0.173 F 
HETATM    4  F8  UNL     1     -31.998   5.525   2.762  1.00 20.00    -0.173 F 
ENDROOT
BRANCH   1   5
HETATM    5  C3  UNL     1     -34.387   5.790   4.218  1.00 20.00     0.287 C 
HETATM    6  O5  UNL     1     -35.079   5.283   3.350  1.00 20.00    -0.260 OA
BRANCH   5   7
HETATM    7  O6  UNL     1     -34.352   5.453   5.536  1.00 20.00    -0.323 OA
HETATM    8  C4  UNL     1     -34.855   4.150   5.851  1.00 20.00     0.213 C 
ENDBRANCH   5   7
ENDBRANCH   1   5
TORSDOF 2
ENDMDL
MODEL 4
REMARK VINA RESULT:      -4.2      2.786      3.418
REMARK  2 active torsions:
REMARK  status: ('A' for Active; 'I' for Inactive)
REMARK    1  A    between atoms: C1_1  and  C3_3 
REMARK    2  A    between atoms: C3_3  and  O6_6 
ROOT
HETATM    1  C1  UNL     1     -33.650   6.941   3.812  1.00 20.00     0.156 C 
HETATM    2  C2  UNL     1     -32.536   6.682   3.123  1.00 20.00     0.273 C 
HETATM    3  F7  UNL     1     -32.229   7.448   2.053  1.00 20.00    -0.173 F 
HETATM    4  F8  UNL     1     -31.709   5.674   3.473  1.00 20.00    -0.173 F 
ENDROOT
BRANCH   1   5
HETATM    5  C3  UNL     1     -34.029   6.133   4.991  1.00 20.00     0.287 C 
HETATM    6  O5  UNL     1     -33.840   6.445   6.156  1.00 20.00    -0.260 OA
BRANCH   5   7
HETATM    7  O6  UNL     1     -34.619   4.995   4.535  1.00 20.00    -0.323 OA
HETATM    8  C4  UNL     1     -34.948   4.028   5.539  1.00 20.00     0.213 C 
ENDBRANCH   5   7
ENDBRANCH   1   5
TORSDOF 2
ENDMDL
MODEL 5
REMARK VINA RESULT:      -4.2      1.447      1.999
REMARK  2 active torsions:
REMARK  status: ('A' for Active; 'I' for Inactive)
REMARK    1  A    between atoms: C1_1  and  C3_3 
REMARK    2  A    between atoms: C3_3  and  O6_6 
ROOT
HETATM    1  C1  UNL     1     -34.662   5.004   4.607  1.00 20.00     0.156 C 
HETATM    2  C2  UNL     1     -34.883   4.987   5.923  1.00 20.00     0.273 C 
HETATM    3  F7  UNL     1     -35.434   3.888   6.485  1.00 20.00    -0.173 F 
HETATM    4  F8  UNL     1     -34.568   6.041   6.705  1.00 20.00    -0.173 F 
ENDROOT
BRANCH   1   5
HETATM    5  C3  UNL     1     -34.060   6.181   3.945  1.00 20.00     0.287 C 
HETATM    6  O5  UNL     1     -34.645   7.217   3.670  1.00 20.00    -0.260 OA
BRANCH   5   7
HETATM    7  O6  UNL     1     -32.753   5.892   3.704  1.00 20.00    -0.323 OA
HETATM    8  C4  UNL     1     -31.949   6.996   3.273  1.00 20.00     0.213 C 
ENDBRANCH   5   7
ENDBRANCH   1   5
TORSDOF 2
ENDMDL
MODEL 6
REMARK VINA RESULT:      -4.1      2.629      3.307
REMARK  2 active torsions:
REMARK  status: ('A' for Active; 'I' for Inactive)
REMARK    1  A    between atoms: C1_1  and  C3_3 
REMARK    2  A    between atoms: C3_3  and  O6_6 
ROOT
HETATM    1  C1  UNL     1     -33.665   5.825   4.434  1.00 20.00     0.156 C 
HETATM    2  C2  UNL     1     -33.576   5.856   3.102  1.00 20.00     0.273 C 
HETATM    3  F7  UNL     1     -32.662   6.664   2.520  1.00 20.00    -0.173 F 
HETATM    4  F8  UNL     1     -34.377   5.098   2.324  1.00 20.00    -0.173 F 
ENDROOT
BRANCH   1   5
HETATM    5  C3  UNL     1     -34.647   4.958   5.117  1.00 20.00     0.287 C 
HETATM    6  O5  UNL     1     -35.154   3.952   4.647  1.00 20.00    -0.260 OA
BRANCH   5   7
HETATM    7  O6  UNL     1     -34.873   5.487   6.350  1.00 20.00    -0.323 OA
HETATM    8  C4  UNL     1     -34.072   6.624   6.688  1.00 20.00     0.213 C 
ENDBRANCH   5   7
ENDBRANCH   1   5
TORSDOF 2
ENDMDL
MODEL 7
REMARK VINA RESULT:      -4.1      1.565      2.186
REMARK  2 active torsions:
REMARK  status: ('A' for Active; 'I' for Inactive)
REMARK    1  A    between atoms: C1_1  and  C3_3 
REMARK    2  A    between atoms: C3_3  and  O6_6 
ROOT
HETATM    1  C1  UNL     1     -33.960   5.870   4.467  1.00 20.00     0.156 C 
HETATM    2  C2  UNL     1     -33.969   6.251   5.747  1.00 20.00     0.273 C 
HETATM    3  F7  UNL     1     -34.985   5.857   6.545  1.00 20.00    -0.173 F 
HETATM    4  F8  UNL     1     -32.984   7.018   6.261  1.00 20.00    -0.173 F 
ENDROOT
BRANCH   1   5
HETATM    5  C3  UNL     1     -32.870   6.273   3.554  1.00 20.00     0.287 C 
HETATM    6  O5  UNL     1     -31.903   5.589   3.257  1.00 20.00    -0.260 OA
BRANCH   5   7
HETATM    7  O6  UNL     1     -33.147   7.530   3.115  1.00 20.00    -0.323 OA
HETATM    8  C4  UNL     1     -32.162   8.112   2.254  1.00 20.00     0.213 C 
ENDBRANCH   5   7
ENDBRANCH   1   5
TORSDOF 2
ENDMDL
MODEL 8
REMARK VINA RESULT:      -4.0      2.067      2.737
REMARK  2 active torsions:
REMARK  status: ('A' for Active; 'I' for Inactive)
REMARK    1  A    between atoms: C1_1  and  C3_3 
REMARK    2  A    between atoms: C3_3  and  O6_6 
ROOT
HETATM    1  C1  UNL     1     -34.133   5.753   3.270  1.00 20.00     0.156 C 
HETATM    2  C2  UNL     1     -34.669   5.485   4.463  1.00 20.00     0.273 C 
HETATM    3  F7  UNL     1     -35.899   4.929   4.523  1.00 20.00    -0.173 F 
HETATM    4  F8  UNL     1     -34.009   5.755   5.609  1.00 20.00    -0.173 F 
ENDROOT
BRANCH   1   5
HETATM    5  C3  UNL     1     -32.790   6.359   3.151  1.00 20.00     0.287 C 
HETATM    6  O5  UNL     1     -31.730   5.768   3.281  1.00 20.00    -0.260 OA
BRANCH   5   7
HETATM    7  O6  UNL     1     -32.960   7.680   2.873  1.00 20.00    -0.323 OA
HETATM    8  C4  UNL     1     -32.016   8.242   1.955  1.00 20.00     0.213 C 
ENDBRANCH   5   7
ENDBRANCH   1   5
TORSDOF 2
ENDMDL
MODEL 9
REMARK VINA RESULT:      -4.0     11.894     12.434
REMARK  2 active torsions:
REMARK  status: ('A' for Active; 'I' for Inactive)
REMARK    1  A    between atoms: C1_1  and  C3_3 
REMARK    2  A    between atoms: C3_3  and  O6_6 
ROOT
HETATM    1  C1  UNL     1     -33.805  14.539  -3.654  1.00 20.00     0.156 C 
HETATM    2  C2  UNL     1     -34.511  15.294  -2.808  1.00 20.00     0.273 C 
HETATM    3  F7  UNL     1     -33.857  16.079  -1.923  1.00 20.00    -0.173 F 
HETATM    4  F8  UNL     1     -35.860  15.292  -2.818  1.00 20.00    -0.173 F 
ENDROOT
BRANCH   1   5
HETATM    5  C3  UNL     1     -34.473  13.665  -4.641  1.00 20.00     0.287 C 
HETATM    6  O5  UNL     1     -35.013  12.598  -4.395  1.00 20.00    -0.260 OA
BRANCH   5   7
HETATM    7  O6  UNL     1     -34.371  14.267  -5.857  1.00 20.00    -0.323 OA
HETATM    8  C4  UNL     1     -35.614  14.623  -6.473  1.00 20.00     0.213 C 
ENDBRANCH   5   7
ENDBRANCH   1   5
TORSDOF 2
ENDMDL
