MODEL 1
REMARK VINA RESULT:      -3.6      0.000      0.000
REMARK  0 active torsions:
REMARK  status: ('A' for Active; 'I' for Inactive)
ROOT
HETATM    1  C1  UNL     1     -35.092  15.608  -2.637  1.00 20.00     0.016 C 
HETATM    2  C2  UNL     1     -33.626  15.779  -3.030  1.00 20.00     0.016 C 
HETATM    3  C3  UNL     1     -35.809  15.111  -3.889  1.00 20.00     0.140 C 
HETATM    4  C4  UNL     1     -33.222  14.488  -3.731  1.00 20.00     0.140 C 
HETATM    5  O5  UNL     1     -34.472  14.425  -6.053  1.00 20.00    -0.228 OA
HETATM    6  O6  UNL     1     -35.000  12.639  -4.331  1.00 20.00    -0.228 OA
HETATM    7  S7  UNL     1     -34.654  14.001  -4.681  1.00 20.00     0.144 S 
ENDROOT
TORSDOF 0
ENDMDL
MODEL 2
REMARK VINA RESULT:      -3.6      0.018      2.130
REMARK  0 active torsions:
REMARK  status: ('A' for Active; 'I' for Inactive)
ROOT
HETATM    1  C1  UNL     1     -33.629  15.773  -3.042  1.00 20.00     0.016 C 
HETATM    2  C2  UNL     1     -35.098  15.608  -2.657  1.00 20.00     0.016 C 
HETATM    3  C3  UNL     1     -33.228  14.478  -3.740  1.00 20.00     0.140 C 
HETATM    4  C4  UNL     1     -35.811  15.113  -3.910  1.00 20.00     0.140 C 
HETATM    5  O5  UNL     1     -35.012  12.636  -4.346  1.00 20.00    -0.228 OA
HETATM    6  O6  UNL     1     -34.467  14.418  -6.068  1.00 20.00    -0.228 OA
HETATM    7  S7  UNL     1     -34.659  13.996  -4.696  1.00 20.00     0.144 S 
ENDROOT
TORSDOF 0
ENDMDL
MODEL 3
REMARK VINA RESULT:      -3.6     12.366     12.854
REMARK  0 active torsions:
REMARK  status: ('A' for Active; 'I' for Inactive)
ROOT
HETATM    1  C1  UNL     1     -34.380   5.818   6.358  1.00 20.00     0.016 C 
HETATM    2  C2  UNL     1     -34.280   4.312   6.122  1.00 20.00     0.016 C 
HETATM    3  C3  UNL     1     -34.114   6.475   5.008  1.00 20.00     0.140 C 
HETATM    4  C4  UNL     1     -35.140   4.017   4.898  1.00 20.00     0.140 C 
HETATM    5  O5  UNL     1     -33.911   5.047   2.803  1.00 20.00    -0.228 OA
HETATM    6  O6  UNL     1     -36.186   5.960   3.458  1.00 20.00    -0.228 OA
HETATM    7  S7  UNL     1     -34.893   5.408   3.805  1.00 20.00     0.144 S 
ENDROOT
TORSDOF 0
ENDMDL
MODEL 4
REMARK VINA RESULT:      -3.6     12.359     12.843
REMARK  0 active torsions:
REMARK  status: ('A' for Active; 'I' for Inactive)
ROOT
HETATM    1  C1  UNL     1     -34.266   4.310   6.108  1.00 20.00     0.016 C 
HETATM    2  C2  UNL     1     -34.369   5.817   6.342  1.00 20.00     0.016 C 
HETATM    3  C3  UNL     1     -35.131   4.013   4.888  1.00 20.00     0.140 C 
HETATM    4  C4  UNL     1     -34.110   6.473   4.991  1.00 20.00     0.140 C 
HETATM    5  O5  UNL     1     -36.186   5.952   3.450  1.00 20.00    -0.228 OA
HETATM    6  O6  UNL     1     -33.913   5.043   2.787  1.00 20.00    -0.228 OA
HETATM    7  S7  UNL     1     -34.891   5.404   3.792  1.00 20.00     0.144 S 
ENDROOT
TORSDOF 0
ENDMDL
MODEL 5
REMARK VINA RESULT:      -3.5      1.637      2.186
REMARK  0 active torsions:
REMARK  status: ('A' for Active; 'I' for Inactive)
ROOT
HETATM    1  C1  UNL     1     -33.505  15.564  -4.239  1.00 20.00     0.016 C 
HETATM    2  C2  UNL     1     -34.435  15.995  -5.373  1.00 20.00     0.016 C 
HETATM    3  C3  UNL     1     -34.363  14.750  -3.276  1.00 20.00     0.140 C 
HETATM    4  C4  UNL     1     -35.173  14.738  -5.816  1.00 20.00     0.140 C 
HETATM    5  O5  UNL     1     -36.838  14.075  -3.880  1.00 20.00    -0.228 OA
HETATM    6  O6  UNL     1     -34.959  12.479  -4.477  1.00 20.00    -0.228 OA
HETATM    7  S7  UNL     1     -35.481  13.819  -4.315  1.00 20.00     0.144 S 
ENDROOT
TORSDOF 0
ENDMDL
MODEL 6
REMARK VINA RESULT:      -3.5      1.668      2.026
REMARK  0 active torsions:
REMARK  status: ('A' for Active; 'I' for Inactive)
ROOT
HETATM    1  C1  UNL     1     -34.162  15.973  -5.350  1.00 20.00     0.016 C 
HETATM    2  C2  UNL     1     -33.374  15.540  -4.114  1.00 20.00     0.016 C 
HETATM    3  C3  UNL     1     -34.887  14.726  -5.846  1.00 20.00     0.140 C 
HETATM    4  C4  UNL     1     -34.355  14.775  -3.235  1.00 20.00     0.140 C 
HETATM    5  O5  UNL     1     -34.889  12.493  -4.447  1.00 20.00    -0.228 OA
HETATM    6  O6  UNL     1     -36.770  14.157  -4.089  1.00 20.00    -0.228 OA
HETATM    7  S7  UNL     1     -35.383  13.852  -4.368  1.00 20.00     0.144 S 
ENDROOT
TORSDOF 0
ENDMDL
MODEL 7
REMARK VINA RESULT:      -3.4     12.214     12.672
REMARK  0 active torsions:
REMARK  status: ('A' for Active; 'I' for Inactive)
ROOT
HETATM    1  C1  UNL     1     -34.861   4.242   5.566  1.00 20.00     0.016 C 
HETATM    2  C2  UNL     1     -34.777   5.464   6.480  1.00 20.00     0.016 C 
HETATM    3  C3  UNL     1     -34.926   4.785   4.142  1.00 20.00     0.140 C 
HETATM    4  C4  UNL     1     -33.679   6.350   5.903  1.00 20.00     0.140 C 
HETATM    5  O5  UNL     1     -34.580   7.347   3.633  1.00 20.00    -0.228 OA
HETATM    6  O6  UNL     1     -32.562   5.811   3.579  1.00 20.00    -0.228 OA
HETATM    7  S7  UNL     1     -33.841   6.205   4.130  1.00 20.00     0.144 S 
ENDROOT
TORSDOF 0
ENDMDL
MODEL 8
REMARK VINA RESULT:      -3.4     12.219     12.722
REMARK  0 active torsions:
REMARK  status: ('A' for Active; 'I' for Inactive)
ROOT
HETATM    1  C1  UNL     1     -34.776   5.462   6.487  1.00 20.00     0.016 C 
HETATM    2  C2  UNL     1     -34.849   4.238   5.576  1.00 20.00     0.016 C 
HETATM    3  C3  UNL     1     -33.685   6.356   5.907  1.00 20.00     0.140 C 
HETATM    4  C4  UNL     1     -34.919   4.774   4.151  1.00 20.00     0.140 C 
HETATM    5  O5  UNL     1     -32.564   5.819   3.583  1.00 20.00    -0.228 OA
HETATM    6  O6  UNL     1     -34.596   7.337   3.634  1.00 20.00    -0.228 OA
HETATM    7  S7  UNL     1     -33.847   6.203   4.133  1.00 20.00     0.144 S 
ENDROOT
TORSDOF 0
ENDMDL
MODEL 9
REMARK VINA RESULT:      -3.4      1.543      2.063
REMARK  0 active torsions:
REMARK  status: ('A' for Active; 'I' for Inactive)
ROOT
HETATM    1  C1  UNL     1     -35.190  15.806  -5.489  1.00 20.00     0.016 C 
HETATM    2  C2  UNL     1     -34.914  16.224  -4.046  1.00 20.00     0.016 C 
HETATM    3  C3  UNL     1     -34.358  14.551  -5.732  1.00 20.00     0.140 C 
HETATM    4  C4  UNL     1     -35.085  14.967  -3.202  1.00 20.00     0.140 C 
HETATM    5  O5  UNL     1     -33.073  13.356  -3.767  1.00 20.00    -0.228 OA
HETATM    6  O6  UNL     1     -35.434  12.604  -4.315  1.00 20.00    -0.228 OA
HETATM    7  S7  UNL     1     -34.427  13.638  -4.198  1.00 20.00     0.144 S 
ENDROOT
TORSDOF 0
ENDMDL
