MODEL 1
REMARK VINA RESULT:      -3.4      0.000      0.000
REMARK  0 active torsions:
REMARK  status: ('A' for Active; 'I' for Inactive)
ROOT
HETATM    1  C1  UNL     1     -33.581   6.230   5.418  1.00 20.00     0.090 A 
HETATM    2  C2  UNL     1     -35.258   4.804   4.441  1.00 20.00     0.167 A 
HETATM    3  C3  UNL     1     -33.597   6.179   4.040  1.00 20.00     0.109 A 
HETATM    4  N4  UNL     1     -34.558   5.361   3.478  1.00 20.00    -0.246 NA
HETATM    5  S5  UNL     1     -34.817   5.219   6.047  1.00 20.00    -0.092 SA
HETATM    6 BR6  UNL     1     -32.392   7.152   2.949  1.00 20.00    -0.029 Br
ENDROOT
TORSDOF 0
ENDMDL
MODEL 2
REMARK VINA RESULT:      -3.2      1.345      1.692
REMARK  0 active torsions:
REMARK  status: ('A' for Active; 'I' for Inactive)
ROOT
HETATM    1  C1  UNL     1     -34.348   5.173   3.941  1.00 20.00     0.090 A 
HETATM    2  C2  UNL     1     -34.368   5.828   6.258  1.00 20.00     0.167 A 
HETATM    3  C3  UNL     1     -33.524   6.227   4.274  1.00 20.00     0.109 A 
HETATM    4  N4  UNL     1     -33.535   6.605   5.602  1.00 20.00    -0.246 NA
HETATM    5  S5  UNL     1     -35.172   4.621   5.340  1.00 20.00    -0.092 SA
HETATM    6 BR6  UNL     1     -32.432   7.132   3.016  1.00 20.00    -0.029 Br
ENDROOT
TORSDOF 0
ENDMDL
MODEL 3
REMARK VINA RESULT:      -2.9     12.130     12.483
REMARK  0 active torsions:
REMARK  status: ('A' for Active; 'I' for Inactive)
ROOT
HETATM    1  C1  UNL     1     -34.904  15.508  -4.810  1.00 20.00     0.090 A 
HETATM    2  C2  UNL     1     -34.468  13.142  -4.714  1.00 20.00     0.167 A 
HETATM    3  C3  UNL     1     -34.578  15.008  -3.567  1.00 20.00     0.109 A 
HETATM    4  N4  UNL     1     -34.328  13.651  -3.510  1.00 20.00    -0.246 NA
HETATM    5  S5  UNL     1     -34.898  14.238  -5.963  1.00 20.00    -0.092 SA
HETATM    6 BR6  UNL     1     -34.472  16.081  -2.009  1.00 20.00    -0.029 Br
ENDROOT
TORSDOF 0
ENDMDL
MODEL 4
REMARK VINA RESULT:      -2.8      9.454      9.975
REMARK  0 active torsions:
REMARK  status: ('A' for Active; 'I' for Inactive)
ROOT
HETATM    1  C1  UNL     1     -42.152   5.812  -2.345  1.00 20.00     0.090 A 
HETATM    2  C2  UNL     1     -40.682   5.830  -0.438  1.00 20.00     0.167 A 
HETATM    3  C3  UNL     1     -41.638   4.589  -1.973  1.00 20.00     0.109 A 
HETATM    4  N4  UNL     1     -40.793   4.597  -0.880  1.00 20.00    -0.246 NA
HETATM    5  S5  UNL     1     -41.565   7.030  -1.289  1.00 20.00    -0.092 SA
HETATM    6 BR6  UNL     1     -42.036   2.973  -2.880  1.00 20.00    -0.029 Br
ENDROOT
TORSDOF 0
ENDMDL
MODEL 5
REMARK VINA RESULT:      -2.8     12.741     13.113
REMARK  0 active torsions:
REMARK  status: ('A' for Active; 'I' for Inactive)
ROOT
HETATM    1  C1  UNL     1     -33.937  15.695  -5.250  1.00 20.00     0.090 A 
HETATM    2  C2  UNL     1     -33.811  13.700  -3.907  1.00 20.00     0.167 A 
HETATM    3  C3  UNL     1     -34.540  14.575  -5.781  1.00 20.00     0.109 A 
HETATM    4  N4  UNL     1     -34.468  13.429  -5.013  1.00 20.00    -0.246 NA
HETATM    5  S5  UNL     1     -33.251  15.312  -3.725  1.00 20.00    -0.092 SA
HETATM    6 BR6  UNL     1     -35.419  14.564  -7.460  1.00 20.00    -0.029 Br
ENDROOT
TORSDOF 0
ENDMDL
MODEL 6
REMARK VINA RESULT:      -2.7     12.887     13.115
REMARK  0 active torsions:
REMARK  status: ('A' for Active; 'I' for Inactive)
ROOT
HETATM    1  C1  UNL     1     -33.732  17.255  -3.562  1.00 20.00     0.090 A 
HETATM    2  C2  UNL     1     -33.833  14.973  -4.325  1.00 20.00     0.167 A 
HETATM    3  C3  UNL     1     -34.140  16.327  -2.628  1.00 20.00     0.109 A 
HETATM    4  N4  UNL     1     -34.199  15.018  -3.064  1.00 20.00    -0.246 NA
HETATM    5  S5  UNL     1     -33.404  16.468  -5.051  1.00 20.00    -0.092 SA
HETATM    6 BR6  UNL     1     -34.602  16.779  -0.846  1.00 20.00    -0.029 Br
ENDROOT
TORSDOF 0
ENDMDL
MODEL 7
REMARK VINA RESULT:      -2.7      2.697      2.794
REMARK  0 active torsions:
REMARK  status: ('A' for Active; 'I' for Inactive)
ROOT
HETATM    1  C1  UNL     1     -33.208   6.337   4.810  1.00 20.00     0.090 A 
HETATM    2  C2  UNL     1     -34.021   5.634   2.655  1.00 20.00     0.167 A 
HETATM    3  C3  UNL     1     -34.260   5.447   4.827  1.00 20.00     0.109 A 
HETATM    4  N4  UNL     1     -34.728   5.043   3.592  1.00 20.00    -0.246 NA
HETATM    5  S5  UNL     1     -32.776   6.689   3.188  1.00 20.00    -0.092 SA
HETATM    6 BR6  UNL     1     -35.046   4.795   6.423  1.00 20.00    -0.029 Br
ENDROOT
TORSDOF 0
ENDMDL
MODEL 8
REMARK VINA RESULT:      -2.7     12.016     12.284
REMARK  0 active torsions:
REMARK  status: ('A' for Active; 'I' for Inactive)
ROOT
HETATM    1  C1  UNL     1     -35.174  15.318  -3.596  1.00 20.00     0.090 A 
HETATM    2  C2  UNL     1     -34.395  13.187  -4.404  1.00 20.00     0.167 A 
HETATM    3  C3  UNL     1     -36.153  14.435  -4.002  1.00 20.00     0.109 A 
HETATM    4  N4  UNL     1     -35.707  13.213  -4.466  1.00 20.00    -0.246 NA
HETATM    5  S5  UNL     1     -33.630  14.599  -3.796  1.00 20.00    -0.092 SA
HETATM    6 BR6  UNL     1     -38.004  14.836  -3.945  1.00 20.00    -0.029 Br
ENDROOT
TORSDOF 0
ENDMDL
MODEL 9
REMARK VINA RESULT:      -2.6     12.701     13.088
REMARK  0 active torsions:
REMARK  status: ('A' for Active; 'I' for Inactive)
ROOT
HETATM    1  C1  UNL     1     -34.773  14.899  -5.460  1.00 20.00     0.090 A 
HETATM    2  C2  UNL     1     -33.441  13.841  -3.755  1.00 20.00     0.167 A 
HETATM    3  C3  UNL     1     -33.833  15.701  -4.848  1.00 20.00     0.109 A 
HETATM    4  N4  UNL     1     -33.069  15.096  -3.869  1.00 20.00    -0.246 NA
HETATM    5  S5  UNL     1     -34.704  13.320  -4.794  1.00 20.00    -0.092 SA
HETATM    6 BR6  UNL     1     -33.577  17.526  -5.289  1.00 20.00    -0.029 Br
ENDROOT
TORSDOF 0
ENDMDL
