MODEL 1
REMARK VINA RESULT:      -2.8      0.000      0.000
REMARK  2 active torsions:
REMARK  status: ('A' for Active; 'I' for Inactive)
REMARK    1  A    between atoms: P5_5  and  P6_6 
REMARK    2  A    between atoms: P5_5  and  S8_8 
ROOT
HETATM    1  C1  UNL     1     -33.540  17.670  -5.319  1.00 20.00     0.061 C 
HETATM    2  P5  UNL     1     -33.714  16.267  -4.158  1.00 20.00    -0.021 P 
ENDROOT
BRANCH   2   3
HETATM    3  P6  UNL     1     -34.859  14.849  -5.300  1.00 20.00    -0.027 P 
HETATM    4  C2  UNL     1     -34.515  13.188  -4.711  1.00 20.00     0.060 C 
HETATM    5  C3  UNL     1     -36.574  15.093  -4.815  1.00 20.00     0.060 C 
HETATM    6  S7  UNL     1     -34.536  15.122  -7.201  1.00 20.00    -0.092 SA
ENDBRANCH   2   3
BRANCH   2   7
HETATM    7  S8  UNL     1     -35.156  16.992  -2.801  1.00 20.00    -0.137 SA
HETATM    8  C4  UNL     1     -34.591  16.511  -1.155  1.00 20.00     0.095 C 
ENDBRANCH   2   7
TORSDOF 2
ENDMDL
MODEL 2
REMARK VINA RESULT:      -2.8      1.633      1.898
REMARK  2 active torsions:
REMARK  status: ('A' for Active; 'I' for Inactive)
REMARK    1  A    between atoms: P5_5  and  P6_6 
REMARK    2  A    between atoms: P5_5  and  S8_8 
ROOT
HETATM    1  C1  UNL     1     -33.676  17.726  -4.733  1.00 20.00     0.061 C 
HETATM    2  P5  UNL     1     -33.555  16.025  -4.073  1.00 20.00    -0.021 P 
ENDROOT
BRANCH   2   3
HETATM    3  P6  UNL     1     -34.928  14.936  -5.320  1.00 20.00    -0.027 P 
HETATM    4  C2  UNL     1     -34.381  15.018  -7.028  1.00 20.00     0.060 C 
HETATM    5  C3  UNL     1     -34.695  13.199  -4.913  1.00 20.00     0.060 C 
HETATM    6  S7  UNL     1     -36.742  15.576  -5.014  1.00 20.00    -0.092 SA
ENDBRANCH   2   3
BRANCH   2   7
HETATM    7  S8  UNL     1     -34.634  16.170  -2.268  1.00 20.00    -0.137 SA
HETATM    8  C4  UNL     1     -33.711  17.309  -1.214  1.00 20.00     0.095 C 
ENDBRANCH   2   7
TORSDOF 2
ENDMDL
MODEL 3
REMARK VINA RESULT:      -2.8      1.393      2.791
REMARK  2 active torsions:
REMARK  status: ('A' for Active; 'I' for Inactive)
REMARK    1  A    between atoms: P5_5  and  P6_6 
REMARK    2  A    between atoms: P5_5  and  S8_8 
ROOT
HETATM    1  C1  UNL     1     -34.248  13.732  -3.665  1.00 20.00     0.061 C 
HETATM    2  P5  UNL     1     -35.194  15.289  -3.496  1.00 20.00    -0.021 P 
ENDROOT
BRANCH   2   3
HETATM    3  P6  UNL     1     -35.005  16.170  -5.449  1.00 20.00    -0.027 P 
HETATM    4  C2  UNL     1     -36.352  17.325  -5.719  1.00 20.00     0.060 C 
HETATM    5  C3  UNL     1     -33.568  17.250  -5.368  1.00 20.00     0.060 C 
HETATM    6  S7  UNL     1     -34.854  14.766  -6.791  1.00 20.00    -0.092 SA
ENDBRANCH   2   3
BRANCH   2   7
HETATM    7  S8  UNL     1     -33.883  16.483  -2.356  1.00 20.00    -0.137 SA
HETATM    8  C4  UNL     1     -34.665  16.701  -0.744  1.00 20.00     0.095 C 
ENDBRANCH   2   7
TORSDOF 2
ENDMDL
MODEL 4
REMARK VINA RESULT:      -2.8      1.617      1.998
REMARK  2 active torsions:
REMARK  status: ('A' for Active; 'I' for Inactive)
REMARK    1  A    between atoms: P5_5  and  P6_6 
REMARK    2  A    between atoms: P5_5  and  S8_8 
ROOT
HETATM    1  C1  UNL     1     -33.553  17.934  -5.322  1.00 20.00     0.061 C 
HETATM    2  P5  UNL     1     -33.712  16.495  -4.204  1.00 20.00    -0.021 P 
ENDROOT
BRANCH   2   3
HETATM    3  P6  UNL     1     -34.916  15.135  -5.355  1.00 20.00    -0.027 P 
HETATM    4  C2  UNL     1     -36.588  15.775  -5.484  1.00 20.00     0.060 C 
HETATM    5  C3  UNL     1     -34.316  15.254  -7.048  1.00 20.00     0.060 C 
HETATM    6  S7  UNL     1     -34.785  13.343  -4.603  1.00 20.00    -0.092 SA
ENDBRANCH   2   3
BRANCH   2   7
HETATM    7  S8  UNL     1     -35.097  17.193  -2.776  1.00 20.00    -0.137 SA
HETATM    8  C4  UNL     1     -34.586  16.498  -1.190  1.00 20.00     0.095 C 
ENDBRANCH   2   7
TORSDOF 2
ENDMDL
MODEL 5
REMARK VINA RESULT:      -2.8      1.836      3.902
REMARK  2 active torsions:
REMARK  status: ('A' for Active; 'I' for Inactive)
REMARK    1  A    between atoms: P5_5  and  P6_6 
REMARK    2  A    between atoms: P5_5  and  S8_8 
ROOT
HETATM    1  C1  UNL     1     -33.562  17.332  -5.025  1.00 20.00     0.061 C 
HETATM    2  P5  UNL     1     -35.107  16.482  -5.512  1.00 20.00    -0.021 P 
ENDROOT
BRANCH   2   3
HETATM    3  P6  UNL     1     -35.514  15.232  -3.810  1.00 20.00    -0.027 P 
HETATM    4  C2  UNL     1     -37.275  14.894  -3.723  1.00 20.00     0.060 C 
HETATM    5  C3  UNL     1     -34.821  13.619  -4.204  1.00 20.00     0.060 C 
HETATM    6  S7  UNL     1     -34.759  16.039  -2.206  1.00 20.00    -0.092 SA
ENDBRANCH   2   3
BRANCH   2   7
HETATM    7  S8  UNL     1     -34.414  15.077  -6.923  1.00 20.00    -0.137 SA
HETATM    8  C4  UNL     1     -35.849  14.596  -7.908  1.00 20.00     0.095 C 
ENDBRANCH   2   7
TORSDOF 2
ENDMDL
MODEL 6
REMARK VINA RESULT:      -2.8      2.045      2.423
REMARK  2 active torsions:
REMARK  status: ('A' for Active; 'I' for Inactive)
REMARK    1  A    between atoms: P5_5  and  P6_6 
REMARK    2  A    between atoms: P5_5  and  S8_8 
ROOT
HETATM    1  C1  UNL     1     -34.240  13.725  -3.706  1.00 20.00     0.061 C 
HETATM    2  P5  UNL     1     -35.178  15.288  -3.555  1.00 20.00    -0.021 P 
ENDROOT
BRANCH   2   3
HETATM    3  P6  UNL     1     -34.960  16.159  -5.509  1.00 20.00    -0.027 P 
HETATM    4  C2  UNL     1     -34.526  14.880  -6.691  1.00 20.00     0.060 C 
HETATM    5  C3  UNL     1     -36.617  16.631  -6.028  1.00 20.00     0.060 C 
HETATM    6  S7  UNL     1     -33.710  17.651  -5.428  1.00 20.00    -0.092 SA
ENDBRANCH   2   3
BRANCH   2   7
HETATM    7  S8  UNL     1     -33.875  16.479  -2.404  1.00 20.00    -0.137 SA
HETATM    8  C4  UNL     1     -34.646  16.654  -0.781  1.00 20.00     0.095 C 
ENDBRANCH   2   7
TORSDOF 2
ENDMDL
MODEL 7
REMARK VINA RESULT:      -2.8      1.894      2.852
REMARK  2 active torsions:
REMARK  status: ('A' for Active; 'I' for Inactive)
REMARK    1  A    between atoms: P5_5  and  P6_6 
REMARK    2  A    between atoms: P5_5  and  S8_8 
ROOT
HETATM    1  C1  UNL     1     -37.152  14.820  -3.791  1.00 20.00     0.061 C 
HETATM    2  P5  UNL     1     -36.313  16.163  -4.707  1.00 20.00    -0.021 P 
ENDROOT
BRANCH   2   3
HETATM    3  P6  UNL     1     -34.517  15.206  -5.404  1.00 20.00    -0.027 P 
HETATM    4  C2  UNL     1     -34.554  15.094  -7.195  1.00 20.00     0.060 C 
HETATM    5  C3  UNL     1     -33.186  16.380  -5.109  1.00 20.00     0.060 C 
HETATM    6  S7  UNL     1     -34.280  13.505  -4.486  1.00 20.00    -0.092 SA
ENDBRANCH   2   3
BRANCH   2   7
HETATM    7  S8  UNL     1     -35.578  17.374  -3.146  1.00 20.00    -0.137 SA
HETATM    8  C4  UNL     1     -34.942  16.248  -1.886  1.00 20.00     0.095 C 
ENDBRANCH   2   7
TORSDOF 2
ENDMDL
MODEL 8
REMARK VINA RESULT:      -2.7      1.646      2.527
REMARK  2 active torsions:
REMARK  status: ('A' for Active; 'I' for Inactive)
REMARK    1  A    between atoms: P5_5  and  P6_6 
REMARK    2  A    between atoms: P5_5  and  S8_8 
ROOT
HETATM    1  C1  UNL     1     -34.704  16.290  -1.598  1.00 20.00     0.061 C 
HETATM    2  P5  UNL     1     -35.681  16.149  -3.137  1.00 20.00    -0.021 P 
ENDROOT
BRANCH   2   3
HETATM    3  P6  UNL     1     -34.382  15.009  -4.418  1.00 20.00    -0.027 P 
HETATM    4  C2  UNL     1     -32.763  14.867  -3.655  1.00 20.00     0.060 C 
HETATM    5  C3  UNL     1     -34.993  13.318  -4.364  1.00 20.00     0.060 C 
HETATM    6  S7  UNL     1     -34.375  15.784  -6.205  1.00 20.00    -0.092 SA
ENDBRANCH   2   3
BRANCH   2   7
HETATM    7  S8  UNL     1     -35.502  18.084  -3.955  1.00 20.00    -0.137 SA
HETATM    8  C4  UNL     1     -33.821  18.635  -3.595  1.00 20.00     0.095 C 
ENDBRANCH   2   7
TORSDOF 2
ENDMDL
MODEL 9
REMARK VINA RESULT:      -2.7      1.704      4.168
REMARK  2 active torsions:
REMARK  status: ('A' for Active; 'I' for Inactive)
REMARK    1  A    between atoms: P5_5  and  P6_6 
REMARK    2  A    between atoms: P5_5  and  S8_8 
ROOT
HETATM    1  C1  UNL     1     -34.154  13.925  -3.585  1.00 20.00     0.061 C 
HETATM    2  P5  UNL     1     -33.436  15.558  -3.989  1.00 20.00    -0.021 P 
ENDROOT
BRANCH   2   3
HETATM    3  P6  UNL     1     -34.678  16.909  -2.866  1.00 20.00    -0.027 P 
HETATM    4  C2  UNL     1     -34.589  16.496  -1.121  1.00 20.00     0.060 C 
HETATM    5  C3  UNL     1     -33.858  18.509  -2.936  1.00 20.00     0.060 C 
HETATM    6  S7  UNL     1     -36.479  16.918  -3.610  1.00 20.00    -0.092 SA
ENDBRANCH   2   3
BRANCH   2   7
HETATM    7  S8  UNL     1     -34.127  15.872  -5.956  1.00 20.00    -0.137 SA
HETATM    8  C4  UNL     1     -35.075  14.402  -6.402  1.00 20.00     0.095 C 
ENDBRANCH   2   7
TORSDOF 2
ENDMDL
