MODEL 1
REMARK VINA RESULT:      -4.0      0.000      0.000
REMARK  3 active torsions:
REMARK  status: ('A' for Active; 'I' for Inactive)
REMARK    1  A    between atoms: C7_7  and  C8_8 
REMARK    2  A    between atoms: C7_7  and  N9_9 
REMARK    3  A    between atoms: C8_8  and  N10_10 
ROOT
HETATM    1  C1  UNL     1     -34.927  13.627  -5.662  1.00 20.00     0.157 C 
HETATM    2  N9  UNL     1     -34.651  12.931  -4.757  1.00 20.00    -0.274 NA
HETATM    3  S11 UNL     1     -35.304  14.547  -6.907  1.00 20.00    -0.055 SA
ENDROOT
BRANCH   2   4
HETATM    4  C7  UNL     1     -34.311  13.635  -3.519  1.00 20.00     0.178 C 
BRANCH   4   5
HETATM    5  C8  UNL     1     -33.200  14.632  -3.785  1.00 20.00     0.256 C 
BRANCH   5   6
HETATM    6  N10 UNL     1     -33.484  15.914  -3.051  1.00 20.00    -0.070 N 
HETATM    7  C5  UNL     1     -33.672  17.072  -4.003  1.00 20.00     0.235 C 
HETATM    8  C3  UNL     1     -33.833  18.359  -3.207  1.00 20.00     0.028 C 
HETATM    9  C2  UNL     1     -34.977  18.262  -2.203  1.00 20.00     0.003 C 
HETATM   10  C4  UNL     1     -34.814  17.046  -1.297  1.00 20.00     0.028 C 
HETATM   11  C6  UNL     1     -34.648  15.763  -2.099  1.00 20.00     0.235 C 
HETATM   12  H26 UNL     1     -32.650  16.116  -2.484  1.00 20.00     0.279 HD
ENDBRANCH   5   6
ENDBRANCH   4   5
ENDBRANCH   2   4
TORSDOF 3
ENDMDL
MODEL 2
REMARK VINA RESULT:      -4.0      3.110      4.989
REMARK  3 active torsions:
REMARK  status: ('A' for Active; 'I' for Inactive)
REMARK    1  A    between atoms: C7_7  and  C8_8 
REMARK    2  A    between atoms: C7_7  and  N9_9 
REMARK    3  A    between atoms: C8_8  and  N10_10 
ROOT
HETATM    1  C1  UNL     1     -34.903  17.193   0.222  1.00 20.00     0.157 C 
HETATM    2  N9  UNL     1     -34.480  16.702  -0.757  1.00 20.00    -0.274 NA
HETATM    3  S11 UNL     1     -35.489  17.833   1.558  1.00 20.00    -0.055 SA
ENDROOT
BRANCH   2   4
HETATM    4  C7  UNL     1     -33.738  17.612  -1.632  1.00 20.00     0.178 C 
BRANCH   4   5
HETATM    5  C8  UNL     1     -34.076  17.318  -3.082  1.00 20.00     0.256 C 
BRANCH   5   6
HETATM    6  N10 UNL     1     -34.343  15.847  -3.251  1.00 20.00    -0.070 N 
HETATM    7  C5  UNL     1     -35.553  15.595  -4.117  1.00 20.00     0.235 C 
HETATM    8  C3  UNL     1     -35.848  14.103  -4.153  1.00 20.00     0.028 C 
HETATM    9  C2  UNL     1     -34.639  13.300  -4.623  1.00 20.00     0.003 C 
HETATM   10  C4  UNL     1     -33.405  13.620  -3.786  1.00 20.00     0.028 C 
HETATM   11  C6  UNL     1     -33.119  15.115  -3.750  1.00 20.00     0.235 C 
HETATM   12  H26 UNL     1     -34.556  15.481  -2.313  1.00 20.00     0.279 HD
ENDBRANCH   5   6
ENDBRANCH   4   5
ENDBRANCH   2   4
TORSDOF 3
ENDMDL
MODEL 3
REMARK VINA RESULT:      -3.9     11.062     12.496
REMARK  3 active torsions:
REMARK  status: ('A' for Active; 'I' for Inactive)
REMARK    1  A    between atoms: C7_7  and  C8_8 
REMARK    2  A    between atoms: C7_7  and  N9_9 
REMARK    3  A    between atoms: C8_8  and  N10_10 
ROOT
HETATM    1  C1  UNL     1     -32.114   8.560   1.750  1.00 20.00     0.157 C 
HETATM    2  N9  UNL     1     -31.822   8.120   2.799  1.00 20.00    -0.274 NA
HETATM    3  S11 UNL     1     -32.506   9.184   0.337  1.00 20.00    -0.055 SA
ENDROOT
BRANCH   2   4
HETATM    4  C7  UNL     1     -31.917   6.663   2.905  1.00 20.00     0.178 C 
BRANCH   4   5
HETATM    5  C8  UNL     1     -33.375   6.244   2.914  1.00 20.00     0.256 C 
BRANCH   5   6
HETATM    6  N10 UNL     1     -33.709   5.605   4.234  1.00 20.00    -0.070 N 
HETATM    7  C5  UNL     1     -33.933   6.638   5.313  1.00 20.00     0.235 C 
HETATM    8  C3  UNL     1     -34.144   5.938   6.647  1.00 20.00     0.028 C 
HETATM    9  C2  UNL     1     -35.289   4.932   6.582  1.00 20.00     0.003 C 
HETATM   10  C4  UNL     1     -35.087   3.940   5.441  1.00 20.00     0.028 C 
HETATM   11  C6  UNL     1     -34.871   4.648   4.110  1.00 20.00     0.235 C 
HETATM   12  H26 UNL     1     -32.885   5.052   4.506  1.00 20.00     0.279 HD
ENDBRANCH   5   6
ENDBRANCH   4   5
ENDBRANCH   2   4
TORSDOF 3
ENDMDL
MODEL 4
REMARK VINA RESULT:      -3.9     11.098     12.562
REMARK  3 active torsions:
REMARK  status: ('A' for Active; 'I' for Inactive)
REMARK    1  A    between atoms: C7_7  and  C8_8 
REMARK    2  A    between atoms: C7_7  and  N9_9 
REMARK    3  A    between atoms: C8_8  and  N10_10 
ROOT
HETATM    1  C1  UNL     1     -31.908   8.426   1.998  1.00 20.00     0.157 C 
HETATM    2  N9  UNL     1     -31.576   7.821   2.949  1.00 20.00    -0.274 NA
HETATM    3  S11 UNL     1     -32.342   9.268   0.718  1.00 20.00    -0.055 SA
ENDROOT
BRANCH   2   4
HETATM    4  C7  UNL     1     -32.172   6.489   3.072  1.00 20.00     0.178 C 
BRANCH   4   5
HETATM    5  C8  UNL     1     -33.675   6.581   2.891  1.00 20.00     0.256 C 
BRANCH   5   6
HETATM    6  N10 UNL     1     -34.366   6.050   4.116  1.00 20.00    -0.070 N 
HETATM    7  C5  UNL     1     -34.575   4.556   4.036  1.00 20.00     0.235 C 
HETATM    8  C3  UNL     1     -35.383   4.093   5.239  1.00 20.00     0.028 C 
HETATM    9  C2  UNL     1     -34.724   4.501   6.552  1.00 20.00     0.003 C 
HETATM   10  C4  UNL     1     -34.451   6.001   6.590  1.00 20.00     0.028 C 
HETATM   11  C6  UNL     1     -33.647   6.458   5.381  1.00 20.00     0.235 C 
HETATM   12  H26 UNL     1     -35.296   6.488   4.139  1.00 20.00     0.279 HD
ENDBRANCH   5   6
ENDBRANCH   4   5
ENDBRANCH   2   4
TORSDOF 3
ENDMDL
MODEL 5
REMARK VINA RESULT:      -3.8      2.933      4.679
REMARK  3 active torsions:
REMARK  status: ('A' for Active; 'I' for Inactive)
REMARK    1  A    between atoms: C7_7  and  C8_8 
REMARK    2  A    between atoms: C7_7  and  N9_9 
REMARK    3  A    between atoms: C8_8  and  N10_10 
ROOT
HETATM    1  C1  UNL     1     -34.695  16.580  -1.041  1.00 20.00     0.157 C 
HETATM    2  N9  UNL     1     -34.570  15.912  -2.000  1.00 20.00    -0.274 NA
HETATM    3  S11 UNL     1     -34.884  17.466   0.269  1.00 20.00    -0.055 SA
ENDROOT
BRANCH   2   4
HETATM    4  C7  UNL     1     -33.610  16.418  -2.982  1.00 20.00     0.178 C 
BRANCH   4   5
HETATM    5  C8  UNL     1     -33.101  15.273  -3.838  1.00 20.00     0.256 C 
BRANCH   5   6
HETATM    6  N10 UNL     1     -33.545  15.470  -5.261  1.00 20.00    -0.070 N 
HETATM    7  C5  UNL     1     -34.561  14.434  -5.677  1.00 20.00     0.235 C 
HETATM    8  C3  UNL     1     -34.881  14.604  -7.156  1.00 20.00     0.028 C 
HETATM    9  C2  UNL     1     -35.355  16.019  -7.471  1.00 20.00     0.003 C 
HETATM   10  C4  UNL     1     -34.353  17.059  -6.979  1.00 20.00     0.028 C 
HETATM   11  C6  UNL     1     -34.034  16.879  -5.501  1.00 20.00     0.235 C 
HETATM   12  H26 UNL     1     -32.710  15.333  -5.848  1.00 20.00     0.279 HD
ENDBRANCH   5   6
ENDBRANCH   4   5
ENDBRANCH   2   4
TORSDOF 3
ENDMDL
MODEL 6
REMARK VINA RESULT:      -3.8      2.941      4.983
REMARK  3 active torsions:
REMARK  status: ('A' for Active; 'I' for Inactive)
REMARK    1  A    between atoms: C7_7  and  C8_8 
REMARK    2  A    between atoms: C7_7  and  N9_9 
REMARK    3  A    between atoms: C8_8  and  N10_10 
ROOT
HETATM    1  C1  UNL     1     -34.064  17.475  -0.338  1.00 20.00     0.157 C 
HETATM    2  N9  UNL     1     -34.688  16.531  -0.652  1.00 20.00    -0.274 NA
HETATM    3  S11 UNL     1     -33.220  18.747   0.117  1.00 20.00    -0.055 SA
ENDROOT
BRANCH   2   4
HETATM    4  C7  UNL     1     -34.933  16.405  -2.091  1.00 20.00     0.178 C 
BRANCH   4   5
HETATM    5  C8  UNL     1     -33.611  16.283  -2.826  1.00 20.00     0.256 C 
BRANCH   5   6
HETATM    6  N10 UNL     1     -33.781  15.390  -4.025  1.00 20.00    -0.070 N 
HETATM    7  C5  UNL     1     -34.737  14.256  -3.744  1.00 20.00     0.235 C 
HETATM    8  C3  UNL     1     -34.775  13.319  -4.943  1.00 20.00     0.028 C 
HETATM    9  C2  UNL     1     -35.137  14.059  -6.227  1.00 20.00     0.003 C 
HETATM   10  C4  UNL     1     -34.209  15.247  -6.458  1.00 20.00     0.028 C 
HETATM   11  C6  UNL     1     -34.171  16.177  -5.254  1.00 20.00     0.235 C 
HETATM   12  H26 UNL     1     -32.858  14.973  -4.209  1.00 20.00     0.279 HD
ENDBRANCH   5   6
ENDBRANCH   4   5
ENDBRANCH   2   4
TORSDOF 3
ENDMDL
MODEL 7
REMARK VINA RESULT:      -3.8      1.544      2.023
REMARK  3 active torsions:
REMARK  status: ('A' for Active; 'I' for Inactive)
REMARK    1  A    between atoms: C7_7  and  C8_8 
REMARK    2  A    between atoms: C7_7  and  N9_9 
REMARK    3  A    between atoms: C8_8  and  N10_10 
ROOT
HETATM    1  C1  UNL     1     -34.831  13.974  -6.067  1.00 20.00     0.157 C 
HETATM    2  N9  UNL     1     -34.943  13.162  -5.225  1.00 20.00    -0.274 NA
HETATM    3  S11 UNL     1     -34.676  15.054  -7.228  1.00 20.00    -0.055 SA
ENDROOT
BRANCH   2   4
HETATM    4  C7  UNL     1     -35.115  13.696  -3.873  1.00 20.00     0.178 C 
BRANCH   4   5
HETATM    5  C8  UNL     1     -36.310  14.630  -3.838  1.00 20.00     0.256 C 
BRANCH   5   6
HETATM    6  N10 UNL     1     -36.134  15.636  -2.734  1.00 20.00    -0.070 N 
HETATM    7  C5  UNL     1     -34.705  15.687  -2.249  1.00 20.00     0.235 C 
HETATM    8  C3  UNL     1     -34.610  16.626  -1.055  1.00 20.00     0.028 C 
HETATM    9  C2  UNL     1     -35.145  18.016  -1.386  1.00 20.00     0.003 C 
HETATM   10  C4  UNL     1     -36.562  17.943  -1.945  1.00 20.00     0.028 C 
HETATM   11  C6  UNL     1     -36.651  16.998  -3.135  1.00 20.00     0.235 C 
HETATM   12  H26 UNL     1     -36.712  15.309  -1.948  1.00 20.00     0.279 HD
ENDBRANCH   5   6
ENDBRANCH   4   5
ENDBRANCH   2   4
TORSDOF 3
ENDMDL
MODEL 8
REMARK VINA RESULT:      -3.8      1.788      2.382
REMARK  3 active torsions:
REMARK  status: ('A' for Active; 'I' for Inactive)
REMARK    1  A    between atoms: C7_7  and  C8_8 
REMARK    2  A    between atoms: C7_7  and  N9_9 
REMARK    3  A    between atoms: C8_8  and  N10_10 
ROOT
HETATM    1  C1  UNL     1     -34.357  14.766  -5.420  1.00 20.00     0.157 C 
HETATM    2  N9  UNL     1     -34.017  15.727  -6.004  1.00 20.00    -0.274 NA
HETATM    3  S11 UNL     1     -34.830  13.453  -4.653  1.00 20.00    -0.055 SA
ENDROOT
BRANCH   2   4
HETATM    4  C7  UNL     1     -33.271  16.703  -5.206  1.00 20.00     0.178 C 
BRANCH   4   5
HETATM    5  C8  UNL     1     -34.238  17.571  -4.424  1.00 20.00     0.256 C 
BRANCH   5   6
HETATM    6  N10 UNL     1     -33.948  17.451  -2.953  1.00 20.00    -0.070 N 
HETATM    7  C5  UNL     1     -33.565  18.782  -2.349  1.00 20.00     0.235 C 
HETATM    8  C3  UNL     1     -33.164  18.581  -0.895  1.00 20.00     0.028 C 
HETATM    9  C2  UNL     1     -34.267  17.894  -0.096  1.00 20.00     0.003 C 
HETATM   10  C4  UNL     1     -34.695  16.588  -0.757  1.00 20.00     0.028 C 
HETATM   11  C6  UNL     1     -35.089  16.795  -2.212  1.00 20.00     0.235 C 
HETATM   12  H26 UNL     1     -33.131  16.831  -2.867  1.00 20.00     0.279 HD
ENDBRANCH   5   6
ENDBRANCH   4   5
ENDBRANCH   2   4
TORSDOF 3
ENDMDL
MODEL 9
REMARK VINA RESULT:      -3.8      2.527      3.695
REMARK  3 active torsions:
REMARK  status: ('A' for Active; 'I' for Inactive)
REMARK    1  A    between atoms: C7_7  and  C8_8 
REMARK    2  A    between atoms: C7_7  and  N9_9 
REMARK    3  A    between atoms: C8_8  and  N10_10 
ROOT
HETATM    1  C1  UNL     1     -37.866  15.139  -5.728  1.00 20.00     0.157 C 
HETATM    2  N9  UNL     1     -37.616  15.223  -6.873  1.00 20.00    -0.274 NA
HETATM    3  S11 UNL     1     -38.232  15.018  -4.183  1.00 20.00    -0.055 SA
ENDROOT
BRANCH   2   4
HETATM    4  C7  UNL     1     -36.235  15.605  -7.176  1.00 20.00     0.178 C 
BRANCH   4   5
HETATM    5  C8  UNL     1     -35.339  14.382  -7.111  1.00 20.00     0.256 C 
BRANCH   5   6
HETATM    6  N10 UNL     1     -34.320  14.561  -6.019  1.00 20.00    -0.070 N 
HETATM    7  C5  UNL     1     -34.236  15.999  -5.564  1.00 20.00     0.235 C 
HETATM    8  C3  UNL     1     -33.108  16.143  -4.552  1.00 20.00     0.028 C 
HETATM    9  C2  UNL     1     -33.280  15.187  -3.376  1.00 20.00     0.003 C 
HETATM   10  C4  UNL     1     -33.438  13.748  -3.854  1.00 20.00     0.028 C 
HETATM   11  C6  UNL     1     -34.564  13.611  -4.870  1.00 20.00     0.235 C 
HETATM   12  H26 UNL     1     -33.408  14.316  -6.430  1.00 20.00     0.279 HD
ENDBRANCH   5   6
ENDBRANCH   4   5
ENDBRANCH   2   4
TORSDOF 3
ENDMDL
