MODEL 1
REMARK VINA RESULT:      -5.5      0.000      0.000
REMARK  1 active torsions:
REMARK  status: ('A' for Active; 'I' for Inactive)
REMARK    1  A    between atoms: C4_4  and  C7_7 
ROOT
HETATM    1  C1  UNL     1     -33.736  15.893  -5.116  1.00 20.00     0.015 A 
HETATM    2  C2  UNL     1     -33.526  17.151  -4.552  1.00 20.00     0.008 A 
HETATM    3  C3  UNL     1     -34.493  15.066  -2.980  1.00 20.00     0.022 A 
HETATM    4  C4  UNL     1     -34.218  14.850  -4.329  1.00 20.00     0.002 A 
HETATM    5  C5  UNL     1     -33.789  17.378  -3.193  1.00 20.00    -0.052 A 
HETATM    6  C6  UNL     1     -34.295  16.329  -2.402  1.00 20.00    -0.051 A 
HETATM    7  C8  UNL     1     -33.579  18.761  -2.628  1.00 20.00     0.039 C 
HETATM    8  C9  UNL     1     -34.572  16.514  -0.932  1.00 20.00     0.039 C 
HETATM    9  C10 UNL     1     -33.532  18.788  -1.101  1.00 20.00     0.005 C 
HETATM   10  C11 UNL     1     -34.685  17.980  -0.518  1.00 20.00     0.005 C 
ENDROOT
BRANCH   4  11
HETATM   11  C7  UNL     1     -34.433  13.536  -4.914  1.00 20.00     0.269 C 
HETATM   12  O12 UNL     1     -35.070  12.642  -4.348  1.00 20.00    -0.301 OA
ENDBRANCH   4  11
TORSDOF 1
ENDMDL
MODEL 2
REMARK VINA RESULT:      -5.0      2.024      4.397
REMARK  1 active torsions:
REMARK  status: ('A' for Active; 'I' for Inactive)
REMARK    1  A    between atoms: C4_4  and  C7_7 
ROOT
HETATM    1  C1  UNL     1     -33.690  17.792  -3.016  1.00 20.00     0.015 A 
HETATM    2  C2  UNL     1     -33.706  17.348  -4.338  1.00 20.00     0.008 A 
HETATM    3  C3  UNL     1     -34.568  15.664  -2.295  1.00 20.00     0.022 A 
HETATM    4  C4  UNL     1     -34.123  16.950  -1.995  1.00 20.00     0.002 A 
HETATM    5  C5  UNL     1     -34.161  16.059  -4.654  1.00 20.00    -0.052 A 
HETATM    6  C6  UNL     1     -34.580  15.201  -3.620  1.00 20.00    -0.051 A 
HETATM    7  C8  UNL     1     -34.132  15.605  -6.092  1.00 20.00     0.039 C 
HETATM    8  C9  UNL     1     -35.100  13.815  -3.907  1.00 20.00     0.039 C 
HETATM    9  C10 UNL     1     -34.985  14.364  -6.350  1.00 20.00     0.005 C 
HETATM   10  C11 UNL     1     -34.713  13.301  -5.293  1.00 20.00     0.005 C 
ENDROOT
BRANCH   4  11
HETATM   11  C7  UNL     1     -34.113  17.413  -0.617  1.00 20.00     0.269 C 
HETATM   12  O12 UNL     1     -34.918  17.019   0.233  1.00 20.00    -0.301 OA
ENDBRANCH   4  11
TORSDOF 1
ENDMDL
MODEL 3
REMARK VINA RESULT:      -4.9      2.442      4.942
REMARK  1 active torsions:
REMARK  status: ('A' for Active; 'I' for Inactive)
REMARK    1  A    between atoms: C4_4  and  C7_7 
ROOT
HETATM    1  C1  UNL     1     -34.330  16.938  -1.535  1.00 20.00     0.015 A 
HETATM    2  C2  UNL     1     -34.777  15.696  -1.986  1.00 20.00     0.008 A 
HETATM    3  C3  UNL     1     -33.659  17.508  -3.781  1.00 20.00     0.022 A 
HETATM    4  C4  UNL     1     -33.769  17.842  -2.433  1.00 20.00     0.002 A 
HETATM    5  C5  UNL     1     -34.662  15.343  -3.340  1.00 20.00    -0.052 A 
HETATM    6  C6  UNL     1     -34.113  16.265  -4.249  1.00 20.00    -0.051 A 
HETATM    7  C8  UNL     1     -35.187  14.004  -3.793  1.00 20.00     0.039 C 
HETATM    8  C9  UNL     1     -33.946  15.927  -5.709  1.00 20.00     0.039 C 
HETATM    9  C10 UNL     1     -34.672  13.590  -5.171  1.00 20.00     0.005 C 
HETATM   10  C11 UNL     1     -34.801  14.744  -6.157  1.00 20.00     0.005 C 
ENDROOT
BRANCH   4  11
HETATM   11  C7  UNL     1     -33.297  19.135  -1.964  1.00 20.00     0.269 C 
HETATM   12  O12 UNL     1     -32.476  19.263  -1.050  1.00 20.00    -0.301 OA
ENDBRANCH   4  11
TORSDOF 1
ENDMDL
MODEL 4
REMARK VINA RESULT:      -4.8     11.492     12.802
REMARK  1 active torsions:
REMARK  status: ('A' for Active; 'I' for Inactive)
REMARK    1  A    between atoms: C4_4  and  C7_7 
ROOT
HETATM    1  C1  UNL     1     -33.022   6.144   2.040  1.00 20.00     0.015 A 
HETATM    2  C2  UNL     1     -33.806   5.159   2.641  1.00 20.00     0.008 A 
HETATM    3  C3  UNL     1     -32.800   7.258   4.168  1.00 20.00     0.022 A 
HETATM    4  C4  UNL     1     -32.520   7.194   2.805  1.00 20.00     0.002 A 
HETATM    5  C5  UNL     1     -34.103   5.218   4.011  1.00 20.00    -0.052 A 
HETATM    6  C6  UNL     1     -33.580   6.268   4.786  1.00 20.00    -0.051 A 
HETATM    7  C8  UNL     1     -34.928   4.116   4.628  1.00 20.00     0.039 C 
HETATM    8  C9  UNL     1     -33.888   6.391   6.257  1.00 20.00     0.039 C 
HETATM    9  C10 UNL     1     -35.491   4.481   6.001  1.00 20.00     0.005 C 
HETATM   10  C11 UNL     1     -34.404   5.093   6.876  1.00 20.00     0.005 C 
ENDROOT
BRANCH   4  11
HETATM   11  C7  UNL     1     -31.707   8.224   2.180  1.00 20.00     0.269 C 
HETATM   12  O12 UNL     1     -31.969   8.715   1.077  1.00 20.00    -0.301 OA
ENDBRANCH   4  11
TORSDOF 1
ENDMDL
MODEL 5
REMARK VINA RESULT:      -4.8      1.527      1.876
REMARK  1 active torsions:
REMARK  status: ('A' for Active; 'I' for Inactive)
REMARK    1  A    between atoms: C4_4  and  C7_7 
ROOT
HETATM    1  C1  UNL     1     -36.011  15.042  -4.229  1.00 20.00     0.015 A 
HETATM    2  C2  UNL     1     -36.612  16.149  -3.630  1.00 20.00     0.008 A 
HETATM    3  C3  UNL     1     -34.163  15.218  -2.687  1.00 20.00     0.022 A 
HETATM    4  C4  UNL     1     -34.785  14.578  -3.758  1.00 20.00     0.002 A 
HETATM    5  C5  UNL     1     -35.991  16.808  -2.558  1.00 20.00    -0.052 A 
HETATM    6  C6  UNL     1     -34.762  16.327  -2.071  1.00 20.00    -0.051 A 
HETATM    7  C8  UNL     1     -36.689  17.981  -1.918  1.00 20.00     0.039 C 
HETATM    8  C9  UNL     1     -34.042  17.012  -0.937  1.00 20.00     0.039 C 
HETATM    9  C10 UNL     1     -35.767  18.827  -1.042  1.00 20.00     0.005 C 
HETATM   10  C11 UNL     1     -34.943  17.937  -0.120  1.00 20.00     0.005 C 
ENDROOT
BRANCH   4  11
HETATM   11  C7  UNL     1     -34.154  13.428  -4.384  1.00 20.00     0.269 C 
HETATM   12  O12 UNL     1     -34.792  12.513  -4.913  1.00 20.00    -0.301 OA
ENDBRANCH   4  11
TORSDOF 1
ENDMDL
MODEL 6
REMARK VINA RESULT:      -4.7     11.075     12.405
REMARK  1 active torsions:
REMARK  status: ('A' for Active; 'I' for Inactive)
REMARK    1  A    between atoms: C4_4  and  C7_7 
ROOT
HETATM    1  C1  UNL     1     -31.797   8.077   3.887  1.00 20.00     0.015 A 
HETATM    2  C2  UNL     1     -32.330   7.516   5.047  1.00 20.00     0.008 A 
HETATM    3  C3  UNL     1     -33.201   6.640   2.552  1.00 20.00     0.022 A 
HETATM    4  C4  UNL     1     -32.232   7.637   2.639  1.00 20.00     0.002 A 
HETATM    5  C5  UNL     1     -33.300   6.504   4.972  1.00 20.00    -0.052 A 
HETATM    6  C6  UNL     1     -33.752   6.074   3.712  1.00 20.00    -0.051 A 
HETATM    7  C8  UNL     1     -33.874   5.946   6.250  1.00 20.00     0.039 C 
HETATM    8  C9  UNL     1     -34.775   4.974   3.575  1.00 20.00     0.039 C 
HETATM    9  C10 UNL     1     -34.614   4.624   6.052  1.00 20.00     0.005 C 
HETATM   10  C11 UNL     1     -35.559   4.716   4.860  1.00 20.00     0.005 C 
ENDROOT
BRANCH   4  11
HETATM   11  C7  UNL     1     -31.673   8.216   1.428  1.00 20.00     0.269 C 
HETATM   12  O12 UNL     1     -32.182   9.178   0.843  1.00 20.00    -0.301 OA
ENDBRANCH   4  11
TORSDOF 1
ENDMDL
MODEL 7
REMARK VINA RESULT:      -4.7     12.368     14.387
REMARK  1 active torsions:
REMARK  status: ('A' for Active; 'I' for Inactive)
REMARK    1  A    between atoms: C4_4  and  C7_7 
ROOT
HETATM    1  C1  UNL     1     -43.348   3.596  -3.675  1.00 20.00     0.015 A 
HETATM    2  C2  UNL     1     -43.369   4.887  -3.147  1.00 20.00     0.008 A 
HETATM    3  C3  UNL     1     -41.413   3.082  -2.329  1.00 20.00     0.022 A 
HETATM    4  C4  UNL     1     -42.369   2.695  -3.267  1.00 20.00     0.002 A 
HETATM    5  C5  UNL     1     -42.406   5.292  -2.210  1.00 20.00    -0.052 A 
HETATM    6  C6  UNL     1     -41.429   4.375  -1.783  1.00 20.00    -0.051 A 
HETATM    7  C8  UNL     1     -42.483   6.686  -1.639  1.00 20.00     0.039 C 
HETATM    8  C9  UNL     1     -40.358   4.766  -0.796  1.00 20.00     0.039 C 
HETATM    9  C10 UNL     1     -41.195   7.124  -0.942  1.00 20.00     0.005 C 
HETATM   10  C11 UNL     1     -40.697   6.029  -0.007  1.00 20.00     0.005 C 
ENDROOT
BRANCH   4  11
HETATM   11  C7  UNL     1     -42.342   1.350  -3.820  1.00 20.00     0.269 C 
HETATM   12  O12 UNL     1     -42.079   1.113  -5.003  1.00 20.00    -0.301 OA
ENDBRANCH   4  11
TORSDOF 1
ENDMDL
MODEL 8
REMARK VINA RESULT:      -4.7      2.228      4.837
REMARK  1 active torsions:
REMARK  status: ('A' for Active; 'I' for Inactive)
REMARK    1  A    between atoms: C4_4  and  C7_7 
ROOT
HETATM    1  C1  UNL     1     -34.645  15.005  -2.674  1.00 20.00     0.015 A 
HETATM    2  C2  UNL     1     -34.930  14.348  -3.871  1.00 20.00     0.008 A 
HETATM    3  C3  UNL     1     -34.067  16.995  -3.909  1.00 20.00     0.022 A 
HETATM    4  C4  UNL     1     -34.212  16.328  -2.694  1.00 20.00     0.002 A 
HETATM    5  C5  UNL     1     -34.777  15.006  -5.102  1.00 20.00    -0.052 A 
HETATM    6  C6  UNL     1     -34.359  16.348  -5.120  1.00 20.00    -0.051 A 
HETATM    7  C8  UNL     1     -35.126  14.270  -6.372  1.00 20.00     0.039 C 
HETATM    8  C9  UNL     1     -34.157  17.094  -6.415  1.00 20.00     0.039 C 
HETATM    9  C10 UNL     1     -34.570  14.939  -7.627  1.00 20.00     0.005 C 
HETATM   10  C11 UNL     1     -34.854  16.436  -7.604  1.00 20.00     0.005 C 
ENDROOT
BRANCH   4  11
HETATM   11  C7  UNL     1     -33.910  17.013  -1.448  1.00 20.00     0.269 C 
HETATM   12  O12 UNL     1     -34.489  16.767  -0.385  1.00 20.00    -0.301 OA
ENDBRANCH   4  11
TORSDOF 1
ENDMDL
MODEL 9
REMARK VINA RESULT:      -4.7      1.168      2.372
REMARK  1 active torsions:
REMARK  status: ('A' for Active; 'I' for Inactive)
REMARK    1  A    between atoms: C4_4  and  C7_7 
ROOT
HETATM    1  C1  UNL     1     -34.632  15.041  -4.247  1.00 20.00     0.015 A 
HETATM    2  C2  UNL     1     -34.768  15.231  -2.872  1.00 20.00     0.008 A 
HETATM    3  C3  UNL     1     -33.760  17.280  -4.465  1.00 20.00     0.022 A 
HETATM    4  C4  UNL     1     -34.129  16.067  -5.043  1.00 20.00     0.002 A 
HETATM    5  C5  UNL     1     -34.410  16.451  -2.279  1.00 20.00    -0.052 A 
HETATM    6  C6  UNL     1     -33.884  17.480  -3.081  1.00 20.00    -0.051 A 
HETATM    7  C8  UNL     1     -34.543  16.605  -0.785  1.00 20.00     0.039 C 
HETATM    8  C9  UNL     1     -33.505  18.818  -2.498  1.00 20.00     0.039 C 
HETATM    9  C10 UNL     1     -34.488  18.059  -0.321  1.00 20.00     0.005 C 
HETATM   10  C11 UNL     1     -33.323  18.786  -0.982  1.00 20.00     0.005 C 
ENDROOT
BRANCH   4  11
HETATM   11  C7  UNL     1     -33.991  15.874  -6.478  1.00 20.00     0.269 C 
HETATM   12  O12 UNL     1     -34.380  14.858  -7.062  1.00 20.00    -0.301 OA
ENDBRANCH   4  11
TORSDOF 1
ENDMDL
