MODEL 1
REMARK VINA RESULT:      -5.0      0.000      0.000
REMARK  2 active torsions:
REMARK  status: ('A' for Active; 'I' for Inactive)
REMARK    1  A    between atoms: C1_1  and  C3_3 
REMARK    2  A    between atoms: C2_2  and  C8_8 
ROOT
HETATM    1  C1  UNL     1     -32.977   6.403   3.427  1.00 20.00     0.052 C 
HETATM    2  C2  UNL     1     -33.646   6.148   4.569  1.00 20.00    -0.077 C 
HETATM    3  C4  UNL     1     -33.463   6.917   5.851  1.00 20.00     0.044 C 
ENDROOT
BRANCH   2   4
HETATM    4  C8  UNL     1     -34.670   5.013   4.587  1.00 20.00     0.006 C 
HETATM    5  C6  UNL     1     -35.016   4.570   6.010  1.00 20.00     0.014 C 
HETATM    6  C7  UNL     1     -35.937   5.376   3.807  1.00 20.00     0.014 C 
ENDBRANCH   2   4
BRANCH   1   7
HETATM    7  C3  UNL     1     -31.959   7.476   3.243  1.00 20.00     0.145 C 
HETATM    8  C5  UNL     1     -32.079   8.302   1.990  1.00 20.00     0.096 C 
HETATM    9  O9  UNL     1     -31.041   7.653   4.038  1.00 20.00    -0.294 OA
ENDBRANCH   1   7
TORSDOF 2
ENDMDL
MODEL 2
REMARK VINA RESULT:      -4.8      1.263      2.090
REMARK  2 active torsions:
REMARK  status: ('A' for Active; 'I' for Inactive)
REMARK    1  A    between atoms: C1_1  and  C3_3 
REMARK    2  A    between atoms: C2_2  and  C8_8 
ROOT
HETATM    1  C1  UNL     1     -32.961   6.519   4.180  1.00 20.00     0.052 C 
HETATM    2  C2  UNL     1     -34.180   5.992   4.409  1.00 20.00    -0.077 C 
HETATM    3  C4  UNL     1     -35.079   5.430   3.339  1.00 20.00     0.044 C 
ENDROOT
BRANCH   2   4
HETATM    4  C8  UNL     1     -34.703   5.941   5.845  1.00 20.00     0.006 C 
HETATM    5  C6  UNL     1     -34.834   4.506   6.361  1.00 20.00     0.014 C 
HETATM    6  C7  UNL     1     -33.848   6.784   6.795  1.00 20.00     0.014 C 
ENDBRANCH   2   4
BRANCH   1   7
HETATM    7  C3  UNL     1     -32.306   6.631   2.846  1.00 20.00     0.145 C 
HETATM    8  C5  UNL     1     -32.146   8.023   2.295  1.00 20.00     0.096 C 
HETATM    9  O9  UNL     1     -31.956   5.647   2.201  1.00 20.00    -0.294 OA
ENDBRANCH   1   7
TORSDOF 2
ENDMDL
MODEL 3
REMARK VINA RESULT:      -4.6     11.555     12.238
REMARK  2 active torsions:
REMARK  status: ('A' for Active; 'I' for Inactive)
REMARK    1  A    between atoms: C1_1  and  C3_3 
REMARK    2  A    between atoms: C2_2  and  C8_8 
ROOT
HETATM    1  C1  UNL     1     -34.014  14.719  -3.856  1.00 20.00     0.052 C 
HETATM    2  C2  UNL     1     -34.721  15.549  -3.063  1.00 20.00    -0.077 C 
HETATM    3  C4  UNL     1     -36.225  15.613  -3.026  1.00 20.00     0.044 C 
ENDROOT
BRANCH   2   4
HETATM    4  C8  UNL     1     -33.968  16.490  -2.123  1.00 20.00     0.006 C 
HETATM    5  C6  UNL     1     -33.726  17.864  -2.753  1.00 20.00     0.014 C 
HETATM    6  C7  UNL     1     -34.671  16.629  -0.770  1.00 20.00     0.014 C 
ENDBRANCH   2   4
BRANCH   1   7
HETATM    7  C3  UNL     1     -34.594  13.738  -4.815  1.00 20.00     0.145 C 
HETATM    8  C5  UNL     1     -34.853  14.240  -6.211  1.00 20.00     0.096 C 
HETATM    9  O9  UNL     1     -34.895  12.595  -4.484  1.00 20.00    -0.294 OA
ENDBRANCH   1   7
TORSDOF 2
ENDMDL
MODEL 4
REMARK VINA RESULT:      -4.4     11.029     12.237
REMARK  2 active torsions:
REMARK  status: ('A' for Active; 'I' for Inactive)
REMARK    1  A    between atoms: C1_1  and  C3_3 
REMARK    2  A    between atoms: C2_2  and  C8_8 
ROOT
HETATM    1  C1  UNL     1     -34.312  14.826  -3.040  1.00 20.00     0.052 C 
HETATM    2  C2  UNL     1     -34.045  16.124  -3.286  1.00 20.00    -0.077 C 
HETATM    3  C4  UNL     1     -33.307  16.625  -4.499  1.00 20.00     0.044 C 
ENDROOT
BRANCH   2   4
HETATM    4  C8  UNL     1     -34.522  17.177  -2.286  1.00 20.00     0.006 C 
HETATM    5  C6  UNL     1     -34.597  16.628  -0.860  1.00 20.00     0.014 C 
HETATM    6  C7  UNL     1     -33.661  18.443  -2.336  1.00 20.00     0.014 C 
ENDBRANCH   2   4
BRANCH   1   7
HETATM    7  C3  UNL     1     -33.928  13.684  -3.917  1.00 20.00     0.145 C 
HETATM    8  C5  UNL     1     -34.903  13.319  -5.005  1.00 20.00     0.096 C 
HETATM    9  O9  UNL     1     -32.900  13.037  -3.740  1.00 20.00    -0.294 OA
ENDBRANCH   1   7
TORSDOF 2
ENDMDL
MODEL 5
REMARK VINA RESULT:      -4.4      1.956      4.483
REMARK  2 active torsions:
REMARK  status: ('A' for Active; 'I' for Inactive)
REMARK    1  A    between atoms: C1_1  and  C3_3 
REMARK    2  A    between atoms: C2_2  and  C8_8 
ROOT
HETATM    1  C1  UNL     1     -33.685   6.222   4.430  1.00 20.00     0.052 C 
HETATM    2  C2  UNL     1     -33.065   6.184   3.234  1.00 20.00    -0.077 C 
HETATM    3  C4  UNL     1     -33.436   5.249   2.113  1.00 20.00     0.044 C 
ENDROOT
BRANCH   2   4
HETATM    4  C8  UNL     1     -31.911   7.151   2.971  1.00 20.00     0.006 C 
HETATM    5  C6  UNL     1     -32.292   8.246   1.972  1.00 20.00     0.014 C 
HETATM    6  C7  UNL     1     -31.369   7.761   4.266  1.00 20.00     0.014 C 
ENDBRANCH   2   4
BRANCH   1   7
HETATM    7  C3  UNL     1     -34.828   5.358   4.838  1.00 20.00     0.145 C 
HETATM    8  C5  UNL     1     -34.646   4.561   6.103  1.00 20.00     0.096 C 
HETATM    9  O9  UNL     1     -35.848   5.256   4.163  1.00 20.00    -0.294 OA
ENDBRANCH   1   7
TORSDOF 2
ENDMDL
MODEL 6
REMARK VINA RESULT:      -4.3     11.304     12.563
REMARK  2 active torsions:
REMARK  status: ('A' for Active; 'I' for Inactive)
REMARK    1  A    between atoms: C1_1  and  C3_3 
REMARK    2  A    between atoms: C2_2  and  C8_8 
ROOT
HETATM    1  C1  UNL     1     -36.184  15.755  -3.333  1.00 20.00     0.052 C 
HETATM    2  C2  UNL     1     -34.922  15.389  -3.032  1.00 20.00    -0.077 C 
HETATM    3  C4  UNL     1     -34.278  14.105  -3.485  1.00 20.00     0.044 C 
ENDROOT
BRANCH   2   4
HETATM    4  C8  UNL     1     -34.065  16.327  -2.183  1.00 20.00     0.006 C 
HETATM    5  C6  UNL     1     -33.782  17.652  -2.894  1.00 20.00     0.014 C 
HETATM    6  C7  UNL     1     -34.680  16.571  -0.803  1.00 20.00     0.014 C 
ENDBRANCH   2   4
BRANCH   1   7
HETATM    7  C3  UNL     1     -37.140  14.961  -4.156  1.00 20.00     0.145 C 
HETATM    8  C5  UNL     1     -37.132  15.232  -5.637  1.00 20.00     0.096 C 
HETATM    9  O9  UNL     1     -37.930  14.163  -3.659  1.00 20.00    -0.294 OA
ENDBRANCH   1   7
TORSDOF 2
ENDMDL
MODEL 7
REMARK VINA RESULT:      -4.1      1.981      4.373
REMARK  2 active torsions:
REMARK  status: ('A' for Active; 'I' for Inactive)
REMARK    1  A    between atoms: C1_1  and  C3_3 
REMARK    2  A    between atoms: C2_2  and  C8_8 
ROOT
HETATM    1  C1  UNL     1     -33.947   6.439   4.535  1.00 20.00     0.052 C 
HETATM    2  C2  UNL     1     -33.123   6.528   3.472  1.00 20.00    -0.077 C 
HETATM    3  C4  UNL     1     -32.975   5.461   2.419  1.00 20.00     0.044 C 
ENDROOT
BRANCH   2   4
HETATM    4  C8  UNL     1     -32.280   7.790   3.295  1.00 20.00     0.006 C 
HETATM    5  C6  UNL     1     -30.968   7.722   4.080  1.00 20.00     0.014 C 
HETATM    6  C7  UNL     1     -32.015   8.099   1.819  1.00 20.00     0.014 C 
ENDBRANCH   2   4
BRANCH   1   7
HETATM    7  C3  UNL     1     -34.840   5.286   4.842  1.00 20.00     0.145 C 
HETATM    8  C5  UNL     1     -34.445   4.429   6.015  1.00 20.00     0.096 C 
HETATM    9  O9  UNL     1     -35.818   5.011   4.154  1.00 20.00    -0.294 OA
ENDBRANCH   1   7
TORSDOF 2
ENDMDL
MODEL 8
REMARK VINA RESULT:      -4.1     11.481     11.940
REMARK  2 active torsions:
REMARK  status: ('A' for Active; 'I' for Inactive)
REMARK    1  A    between atoms: C1_1  and  C3_3 
REMARK    2  A    between atoms: C2_2  and  C8_8 
ROOT
HETATM    1  C1  UNL     1     -34.972  15.935  -2.415  1.00 20.00     0.052 C 
HETATM    2  C2  UNL     1     -34.381  15.024  -3.214  1.00 20.00    -0.077 C 
HETATM    3  C4  UNL     1     -32.914  15.015  -3.553  1.00 20.00     0.044 C 
ENDROOT
BRANCH   2   4
HETATM    4  C8  UNL     1     -35.235  13.911  -3.821  1.00 20.00     0.006 C 
HETATM    5  C6  UNL     1     -36.652  14.385  -4.150  1.00 20.00     0.014 C 
HETATM    6  C7  UNL     1     -34.571  13.288  -5.052  1.00 20.00     0.014 C 
ENDBRANCH   2   4
BRANCH   1   7
HETATM    7  C3  UNL     1     -34.280  17.070  -1.740  1.00 20.00     0.145 C 
HETATM    8  C5  UNL     1     -34.454  17.166  -0.248  1.00 20.00     0.096 C 
HETATM    9  O9  UNL     1     -33.642  17.914  -2.363  1.00 20.00    -0.294 OA
ENDBRANCH   1   7
TORSDOF 2
ENDMDL
MODEL 9
REMARK VINA RESULT:      -4.1     11.223     12.078
REMARK  2 active torsions:
REMARK  status: ('A' for Active; 'I' for Inactive)
REMARK    1  A    between atoms: C1_1  and  C3_3 
REMARK    2  A    between atoms: C2_2  and  C8_8 
ROOT
HETATM    1  C1  UNL     1     -34.097  15.895  -2.289  1.00 20.00     0.052 C 
HETATM    2  C2  UNL     1     -35.055  15.362  -3.071  1.00 20.00    -0.077 C 
HETATM    3  C4  UNL     1     -36.406  15.987  -3.307  1.00 20.00     0.044 C 
ENDROOT
BRANCH   2   4
HETATM    4  C8  UNL     1     -34.774  14.040  -3.785  1.00 20.00     0.006 C 
HETATM    5  C6  UNL     1     -35.273  14.048  -5.232  1.00 20.00     0.014 C 
HETATM    6  C7  UNL     1     -33.292  13.661  -3.723  1.00 20.00     0.014 C 
ENDBRANCH   2   4
BRANCH   1   7
HETATM    7  C3  UNL     1     -34.209  17.177  -1.537  1.00 20.00     0.145 C 
HETATM    8  C5  UNL     1     -34.782  17.089  -0.147  1.00 20.00     0.096 C 
HETATM    9  O9  UNL     1     -33.900  18.258  -2.031  1.00 20.00    -0.294 OA
ENDBRANCH   1   7
TORSDOF 2
ENDMDL
