MODEL 1
REMARK VINA RESULT:      -4.8      0.000      0.000
REMARK  1 active torsions:
REMARK  status: ('A' for Active; 'I' for Inactive)
REMARK    1  A    between atoms: C5_5  and  C6_6 
ROOT
HETATM    1  C1  UNL     1     -32.205   7.751   2.482  1.00 20.00     0.061 C 
HETATM    2  C6  UNL     1     -32.201   6.572   3.343  1.00 20.00     0.155 C 
HETATM    3  N7  UNL     1     -32.185   8.684   1.793  1.00 20.00    -0.197 NA
ENDROOT
BRANCH   2   4
HETATM    4  C5  UNL     1     -33.619   6.478   3.869  1.00 20.00     0.134 C 
HETATM    5  C3  UNL     1     -34.379   5.267   3.352  1.00 20.00     0.035 C 
HETATM    6  C2  UNL     1     -35.391   5.057   4.449  1.00 20.00     0.029 C 
HETATM    7  C4  UNL     1     -34.585   5.385   5.688  1.00 20.00     0.168 C 
HETATM    8  O8  UNL     1     -33.602   6.357   5.301  1.00 20.00    -0.385 OA
ENDBRANCH   2   4
TORSDOF 1
ENDMDL
MODEL 2
REMARK VINA RESULT:      -4.6      1.004      1.356
REMARK  1 active torsions:
REMARK  status: ('A' for Active; 'I' for Inactive)
REMARK    1  A    between atoms: C5_5  and  C6_6 
ROOT
HETATM    1  C1  UNL     1     -32.606   6.761   3.010  1.00 20.00     0.061 C 
HETATM    2  C6  UNL     1     -33.505   5.614   2.932  1.00 20.00     0.155 C 
HETATM    3  N7  UNL     1     -31.879   7.665   3.052  1.00 20.00    -0.197 NA
ENDROOT
BRANCH   2   4
HETATM    4  C5  UNL     1     -34.446   5.785   4.109  1.00 20.00     0.134 C 
HETATM    5  C3  UNL     1     -34.932   4.469   4.693  1.00 20.00     0.035 C 
HETATM    6  C2  UNL     1     -35.246   4.868   6.112  1.00 20.00     0.029 C 
HETATM    7  C4  UNL     1     -34.130   5.845   6.417  1.00 20.00     0.168 C 
HETATM    8  O8  UNL     1     -33.771   6.471   5.177  1.00 20.00    -0.385 OA
ENDBRANCH   2   4
TORSDOF 1
ENDMDL
MODEL 3
REMARK VINA RESULT:      -3.8     11.369     12.133
REMARK  1 active torsions:
REMARK  status: ('A' for Active; 'I' for Inactive)
REMARK    1  A    between atoms: C5_5  and  C6_6 
ROOT
HETATM    1  C1  UNL     1     -35.587  13.652  -4.210  1.00 20.00     0.061 C 
HETATM    2  C6  UNL     1     -36.559  14.694  -3.895  1.00 20.00     0.155 C 
HETATM    3  N7  UNL     1     -34.831  12.809  -4.464  1.00 20.00    -0.197 NA
ENDROOT
BRANCH   2   4
HETATM    4  C5  UNL     1     -35.721  15.894  -3.503  1.00 20.00     0.134 C 
HETATM    5  C3  UNL     1     -34.885  15.668  -2.255  1.00 20.00     0.035 C 
HETATM    6  C2  UNL     1     -33.755  16.642  -2.469  1.00 20.00     0.029 C 
HETATM    7  C4  UNL     1     -33.528  16.536  -3.962  1.00 20.00     0.168 C 
HETATM    8  O8  UNL     1     -34.792  16.205  -4.555  1.00 20.00    -0.385 OA
ENDBRANCH   2   4
TORSDOF 1
ENDMDL
MODEL 4
REMARK VINA RESULT:      -3.7     11.200     12.071
REMARK  1 active torsions:
REMARK  status: ('A' for Active; 'I' for Inactive)
REMARK    1  A    between atoms: C5_5  and  C6_6 
ROOT
HETATM    1  C1  UNL     1     -34.223  13.698  -4.043  1.00 20.00     0.061 C 
HETATM    2  C6  UNL     1     -33.308  14.777  -3.684  1.00 20.00     0.155 C 
HETATM    3  N7  UNL     1     -34.931  12.826  -4.334  1.00 20.00    -0.197 NA
ENDROOT
BRANCH   2   4
HETATM    4  C5  UNL     1     -34.210  15.947  -3.343  1.00 20.00     0.134 C 
HETATM    5  C3  UNL     1     -34.608  15.999  -1.878  1.00 20.00     0.035 C 
HETATM    6  C2  UNL     1     -34.888  17.469  -1.695  1.00 20.00     0.029 C 
HETATM    7  C4  UNL     1     -33.811  18.102  -2.550  1.00 20.00     0.168 C 
HETATM    8  O8  UNL     1     -33.531  17.183  -3.617  1.00 20.00    -0.385 OA
ENDBRANCH   2   4
TORSDOF 1
ENDMDL
MODEL 5
REMARK VINA RESULT:      -3.7      2.170      3.291
REMARK  1 active torsions:
REMARK  status: ('A' for Active; 'I' for Inactive)
REMARK    1  A    between atoms: C5_5  and  C6_6 
ROOT
HETATM    1  C1  UNL     1     -33.994   6.549   6.611  1.00 20.00     0.061 C 
HETATM    2  C6  UNL     1     -34.763   5.355   6.273  1.00 20.00     0.155 C 
HETATM    3  N7  UNL     1     -33.394   7.499   6.900  1.00 20.00    -0.197 NA
ENDROOT
BRANCH   2   4
HETATM    4  C5  UNL     1     -34.307   4.988   4.875  1.00 20.00     0.134 C 
HETATM    5  C3  UNL     1     -35.314   5.346   3.795  1.00 20.00     0.035 C 
HETATM    6  C2  UNL     1     -34.421   5.504   2.591  1.00 20.00     0.029 C 
HETATM    7  C4  UNL     1     -33.196   6.160   3.193  1.00 20.00     0.168 C 
HETATM    8  O8  UNL     1     -33.103   5.704   4.551  1.00 20.00    -0.385 OA
ENDBRANCH   2   4
TORSDOF 1
ENDMDL
MODEL 6
REMARK VINA RESULT:      -3.6     11.046     11.880
REMARK  1 active torsions:
REMARK  status: ('A' for Active; 'I' for Inactive)
REMARK    1  A    between atoms: C5_5  and  C6_6 
ROOT
HETATM    1  C1  UNL     1     -37.498  14.985  -3.831  1.00 20.00     0.061 C 
HETATM    2  C6  UNL     1     -36.344  15.876  -3.913  1.00 20.00     0.155 C 
HETATM    3  N7  UNL     1     -38.429  14.295  -3.776  1.00 20.00    -0.197 NA
ENDROOT
BRANCH   2   4
HETATM    4  C5  UNL     1     -35.201  15.076  -3.319  1.00 20.00     0.134 C 
HETATM    5  C3  UNL     1     -34.855  13.830  -4.117  1.00 20.00     0.035 C 
HETATM    6  C2  UNL     1     -33.407  13.630  -3.748  1.00 20.00     0.029 C 
HETATM    7  C4  UNL     1     -32.900  15.055  -3.686  1.00 20.00     0.168 C 
HETATM    8  O8  UNL     1     -34.009  15.877  -3.291  1.00 20.00    -0.385 OA
ENDBRANCH   2   4
TORSDOF 1
ENDMDL
MODEL 7
REMARK VINA RESULT:      -3.6     11.332     11.974
REMARK  1 active torsions:
REMARK  status: ('A' for Active; 'I' for Inactive)
REMARK    1  A    between atoms: C5_5  and  C6_6 
ROOT
HETATM    1  C1  UNL     1     -34.578  13.771  -4.837  1.00 20.00     0.061 C 
HETATM    2  C6  UNL     1     -34.298  15.193  -5.011  1.00 20.00     0.155 C 
HETATM    3  N7  UNL     1     -34.809  12.639  -4.722  1.00 20.00    -0.197 NA
ENDROOT
BRANCH   2   4
HETATM    4  C5  UNL     1     -33.751  15.641  -3.670  1.00 20.00     0.134 C 
HETATM    5  C3  UNL     1     -33.668  17.152  -3.524  1.00 20.00     0.035 C 
HETATM    6  C2  UNL     1     -33.752  17.314  -2.027  1.00 20.00     0.029 C 
HETATM    7  C4  UNL     1     -34.751  16.240  -1.651  1.00 20.00     0.168 C 
HETATM    8  O8  UNL     1     -34.613  15.184  -2.614  1.00 20.00    -0.385 OA
ENDBRANCH   2   4
TORSDOF 1
ENDMDL
MODEL 8
REMARK VINA RESULT:      -3.5     11.181     11.856
REMARK  1 active torsions:
REMARK  status: ('A' for Active; 'I' for Inactive)
REMARK    1  A    between atoms: C5_5  and  C6_6 
ROOT
HETATM    1  C1  UNL     1     -34.768  14.172  -5.847  1.00 20.00     0.061 C 
HETATM    2  C6  UNL     1     -34.522  13.212  -4.776  1.00 20.00     0.155 C 
HETATM    3  N7  UNL     1     -34.965  14.917  -6.715  1.00 20.00    -0.197 NA
ENDROOT
BRANCH   2   4
HETATM    4  C5  UNL     1     -34.407  14.058  -3.523  1.00 20.00     0.134 C 
HETATM    5  C3  UNL     1     -33.300  15.097  -3.592  1.00 20.00     0.035 C 
HETATM    6  C2  UNL     1     -33.805  16.139  -2.626  1.00 20.00     0.029 C 
HETATM    7  C4  UNL     1     -35.295  16.120  -2.896  1.00 20.00     0.168 C 
HETATM    8  O8  UNL     1     -35.628  14.788  -3.314  1.00 20.00    -0.385 OA
ENDBRANCH   2   4
TORSDOF 1
ENDMDL
MODEL 9
REMARK VINA RESULT:      -3.5     11.128     12.701
REMARK  1 active torsions:
REMARK  status: ('A' for Active; 'I' for Inactive)
REMARK    1  A    between atoms: C5_5  and  C6_6 
ROOT
HETATM    1  C1  UNL     1     -34.152  13.637  -4.121  1.00 20.00     0.061 C 
HETATM    2  C6  UNL     1     -33.157  14.638  -3.748  1.00 20.00     0.155 C 
HETATM    3  N7  UNL     1     -34.929  12.824  -4.407  1.00 20.00    -0.197 NA
ENDROOT
BRANCH   2   4
HETATM    4  C5  UNL     1     -33.689  15.937  -4.321  1.00 20.00     0.134 C 
HETATM    5  C3  UNL     1     -33.826  15.921  -5.834  1.00 20.00     0.035 C 
HETATM    6  C2  UNL     1     -34.907  16.949  -6.049  1.00 20.00     0.029 C 
HETATM    7  C4  UNL     1     -35.825  16.690  -4.873  1.00 20.00     0.168 C 
HETATM    8  O8  UNL     1     -35.004  16.196  -3.803  1.00 20.00    -0.385 OA
ENDBRANCH   2   4
TORSDOF 1
ENDMDL
