MODEL 1
REMARK VINA RESULT:      -4.4      0.000      0.000
REMARK  0 active torsions:
REMARK  status: ('A' for Active; 'I' for Inactive)
ROOT
HETATM    1  C1  UNL     1     -36.072  15.476  -3.615  1.00 20.00     0.056 C 
HETATM    2  C2  UNL     1     -35.066  13.604  -4.215  1.00 20.00     0.264 C 
HETATM    3  C3  UNL     1     -37.126  16.270  -3.384  1.00 20.00     0.047 C 
HETATM    4  C4  UNL     1     -34.139  14.260  -3.238  1.00 20.00     0.127 C 
HETATM    5  C5  UNL     1     -34.668  15.681  -3.132  1.00 20.00     0.010 C 
HETATM    6  C6  UNL     1     -34.556  16.194  -1.692  1.00 20.00     0.022 C 
HETATM    7  C7  UNL     1     -33.909  16.621  -4.083  1.00 20.00     0.022 C 
HETATM    8  O8  UNL     1     -34.840  12.540  -4.774  1.00 20.00    -0.265 OA
HETATM    9  O9  UNL     1     -36.228  14.307  -4.360  1.00 20.00    -0.283 OA
ENDROOT
TORSDOF 0
ENDMDL
MODEL 2
REMARK VINA RESULT:      -4.4      1.672      2.415
REMARK  0 active torsions:
REMARK  status: ('A' for Active; 'I' for Inactive)
ROOT
HETATM    1  C1  UNL     1     -34.877  15.520  -2.990  1.00 20.00     0.056 C 
HETATM    2  C2  UNL     1     -36.697  14.496  -3.709  1.00 20.00     0.264 C 
HETATM    3  C3  UNL     1     -34.156  16.267  -2.144  1.00 20.00     0.047 C 
HETATM    4  C4  UNL     1     -35.550  13.705  -4.260  1.00 20.00     0.127 C 
HETATM    5  C5  UNL     1     -34.351  14.620  -4.068  1.00 20.00     0.010 C 
HETATM    6  C6  UNL     1     -33.110  13.809  -3.674  1.00 20.00     0.022 C 
HETATM    7  C7  UNL     1     -34.066  15.426  -5.344  1.00 20.00     0.022 C 
HETATM    8  O8  UNL     1     -37.875  14.234  -3.906  1.00 20.00    -0.265 OA
HETATM    9  O9  UNL     1     -36.269  15.515  -2.906  1.00 20.00    -0.283 OA
ENDROOT
TORSDOF 0
ENDMDL
MODEL 3
REMARK VINA RESULT:      -4.3      1.558      2.620
REMARK  0 active torsions:
REMARK  status: ('A' for Active; 'I' for Inactive)
ROOT
HETATM    1  C1  UNL     1     -34.917  14.875  -5.516  1.00 20.00     0.056 C 
HETATM    2  C2  UNL     1     -36.610  14.532  -4.139  1.00 20.00     0.264 C 
HETATM    3  C3  UNL     1     -34.346  15.142  -6.697  1.00 20.00     0.047 C 
HETATM    4  C4  UNL     1     -35.509  15.085  -3.287  1.00 20.00     0.127 C 
HETATM    5  C5  UNL     1     -34.273  14.963  -4.164  1.00 20.00     0.010 C 
HETATM    6  C6  UNL     1     -33.352  16.174  -3.973  1.00 20.00     0.022 C 
HETATM    7  C7  UNL     1     -33.506  13.668  -3.855  1.00 20.00     0.022 C 
HETATM    8  O8  UNL     1     -37.712  14.208  -3.719  1.00 20.00    -0.265 OA
HETATM    9  O9  UNL     1     -36.256  14.489  -5.457  1.00 20.00    -0.283 OA
ENDROOT
TORSDOF 0
ENDMDL
MODEL 4
REMARK VINA RESULT:      -4.3      1.324      2.315
REMARK  0 active torsions:
REMARK  status: ('A' for Active; 'I' for Inactive)
ROOT
HETATM    1  C1  UNL     1     -34.218  15.595  -3.346  1.00 20.00     0.056 C 
HETATM    2  C2  UNL     1     -34.612  13.713  -4.433  1.00 20.00     0.264 C 
HETATM    3  C3  UNL     1     -33.798  16.337  -2.314  1.00 20.00     0.047 C 
HETATM    4  C4  UNL     1     -34.377  14.743  -5.494  1.00 20.00     0.127 C 
HETATM    5  C5  UNL     1     -34.477  16.064  -4.746  1.00 20.00     0.010 C 
HETATM    6  C6  UNL     1     -33.451  17.069  -5.284  1.00 20.00     0.022 C 
HETATM    7  C7  UNL     1     -35.893  16.652  -4.858  1.00 20.00     0.022 C 
HETATM    8  O8  UNL     1     -34.873  12.538  -4.656  1.00 20.00    -0.265 OA
HETATM    9  O9  UNL     1     -34.439  14.227  -3.180  1.00 20.00    -0.283 OA
ENDROOT
TORSDOF 0
ENDMDL
MODEL 5
REMARK VINA RESULT:      -4.2      0.897      2.626
REMARK  0 active torsions:
REMARK  status: ('A' for Active; 'I' for Inactive)
ROOT
HETATM    1  C1  UNL     1     -34.459  14.413  -3.620  1.00 20.00     0.056 C 
HETATM    2  C2  UNL     1     -36.654  14.568  -3.807  1.00 20.00     0.264 C 
HETATM    3  C3  UNL     1     -33.263  13.831  -3.778  1.00 20.00     0.047 C 
HETATM    4  C4  UNL     1     -36.155  15.980  -3.781  1.00 20.00     0.127 C 
HETATM    5  C5  UNL     1     -34.722  15.851  -3.289  1.00 20.00     0.010 C 
HETATM    6  C6  UNL     1     -33.811  16.851  -4.012  1.00 20.00     0.022 C 
HETATM    7  C7  UNL     1     -34.642  16.072  -1.771  1.00 20.00     0.022 C 
HETATM    8  O8  UNL     1     -37.833  14.252  -3.894  1.00 20.00    -0.265 OA
HETATM    9  O9  UNL     1     -35.626  13.668  -3.785  1.00 20.00    -0.283 OA
ENDROOT
TORSDOF 0
ENDMDL
MODEL 6
REMARK VINA RESULT:      -4.2      1.075      2.214
REMARK  0 active torsions:
REMARK  status: ('A' for Active; 'I' for Inactive)
ROOT
HETATM    1  C1  UNL     1     -34.079  15.833  -4.420  1.00 20.00     0.056 C 
HETATM    2  C2  UNL     1     -34.955  13.812  -4.254  1.00 20.00     0.264 C 
HETATM    3  C3  UNL     1     -33.329  16.791  -4.980  1.00 20.00     0.047 C 
HETATM    4  C4  UNL     1     -35.939  14.729  -3.594  1.00 20.00     0.127 C 
HETATM    5  C5  UNL     1     -35.159  16.019  -3.397  1.00 20.00     0.010 C 
HETATM    6  C6  UNL     1     -36.060  17.237  -3.633  1.00 20.00     0.022 C 
HETATM    7  C7  UNL     1     -34.552  16.083  -1.987  1.00 20.00     0.022 C 
HETATM    8  O8  UNL     1     -35.095  12.601  -4.349  1.00 20.00    -0.265 OA
HETATM    9  O9  UNL     1     -33.906  14.501  -4.795  1.00 20.00    -0.283 OA
ENDROOT
TORSDOF 0
ENDMDL
MODEL 7
REMARK VINA RESULT:      -3.9      2.597      3.433
REMARK  0 active torsions:
REMARK  status: ('A' for Active; 'I' for Inactive)
ROOT
HETATM    1  C1  UNL     1     -34.105  16.300  -2.883  1.00 20.00     0.056 C 
HETATM    2  C2  UNL     1     -33.631  17.309  -4.789  1.00 20.00     0.264 C 
HETATM    3  C3  UNL     1     -34.568  16.227  -1.628  1.00 20.00     0.047 C 
HETATM    4  C4  UNL     1     -33.877  15.876  -5.147  1.00 20.00     0.127 C 
HETATM    5  C5  UNL     1     -33.834  15.154  -3.810  1.00 20.00     0.010 C 
HETATM    6  C6  UNL     1     -34.880  14.034  -3.766  1.00 20.00     0.022 C 
HETATM    7  C7  UNL     1     -32.435  14.574  -3.545  1.00 20.00     0.022 C 
HETATM    8  O8  UNL     1     -33.329  18.181  -5.593  1.00 20.00    -0.265 OA
HETATM    9  O9  UNL     1     -33.845  17.543  -3.460  1.00 20.00    -0.283 OA
ENDROOT
TORSDOF 0
ENDMDL
MODEL 8
REMARK VINA RESULT:      -3.9      2.133      3.277
REMARK  0 active torsions:
REMARK  status: ('A' for Active; 'I' for Inactive)
ROOT
HETATM    1  C1  UNL     1     -34.111  15.843  -5.223  1.00 20.00     0.056 C 
HETATM    2  C2  UNL     1     -34.691  13.714  -5.126  1.00 20.00     0.264 C 
HETATM    3  C3  UNL     1     -33.341  16.906  -4.959  1.00 20.00     0.047 C 
HETATM    4  C4  UNL     1     -35.242  14.218  -6.424  1.00 20.00     0.127 C 
HETATM    5  C5  UNL     1     -35.155  15.731  -6.293  1.00 20.00     0.010 C 
HETATM    6  C6  UNL     1     -34.768  16.368  -7.633  1.00 20.00     0.022 C 
HETATM    7  C7  UNL     1     -36.488  16.316  -5.800  1.00 20.00     0.022 C 
HETATM    8  O8  UNL     1     -34.822  12.568  -4.718  1.00 20.00    -0.265 OA
HETATM    9  O9  UNL     1     -33.967  14.673  -4.476  1.00 20.00    -0.283 OA
ENDROOT
TORSDOF 0
ENDMDL
MODEL 9
REMARK VINA RESULT:      -3.9      2.135      3.140
REMARK  0 active torsions:
REMARK  status: ('A' for Active; 'I' for Inactive)
ROOT
HETATM    1  C1  UNL     1     -35.509  15.114  -3.465  1.00 20.00     0.056 C 
HETATM    2  C2  UNL     1     -34.084  16.353  -2.319  1.00 20.00     0.264 C 
HETATM    3  C3  UNL     1     -36.721  14.676  -3.827  1.00 20.00     0.047 C 
HETATM    4  C4  UNL     1     -33.400  16.059  -3.618  1.00 20.00     0.127 C 
HETATM    5  C5  UNL     1     -34.224  14.929  -4.215  1.00 20.00     0.010 C 
HETATM    6  C6  UNL     1     -34.342  15.090  -5.736  1.00 20.00     0.022 C 
HETATM    7  C7  UNL     1     -33.604  13.563  -3.881  1.00 20.00     0.022 C 
HETATM    8  O8  UNL     1     -33.594  17.014  -1.414  1.00 20.00    -0.265 OA
HETATM    9  O9  UNL     1     -35.352  15.846  -2.288  1.00 20.00    -0.283 OA
ENDROOT
TORSDOF 0
ENDMDL
