MODEL 1
REMARK VINA RESULT:      -4.3      0.000      0.000
REMARK  1 active torsions:
REMARK  status: ('A' for Active; 'I' for Inactive)
REMARK    1  A    between atoms: C1_1  and  C3_3 
ROOT
HETATM    1  C2  UNL     1     -34.393  16.214  -4.435  1.00 20.00     0.065 A 
HETATM    2  C3  UNL     1     -34.046  14.772  -4.123  1.00 20.00     0.070 A 
HETATM    3  C4  UNL     1     -35.051  15.540  -3.263  1.00 20.00     0.130 A 
HETATM    4  C5  UNL     1     -32.657  14.505  -3.591  1.00 20.00     0.028 C 
HETATM    5 CL8  UNL     1     -36.779  15.188  -3.398  1.00 20.00    -0.100 Cl
HETATM    6 CL9  UNL     1     -34.607  16.083  -1.644  1.00 20.00    -0.100 Cl
ENDROOT
BRANCH   2   7
HETATM    7  C1  UNL     1     -34.577  13.741  -5.050  1.00 20.00     0.230 C 
HETATM    8  O6  UNL     1     -34.782  12.587  -4.682  1.00 20.00    -0.279 OA
HETATM    9 CL7  UNL     1     -34.849  14.372  -6.645  1.00 20.00    -0.043 Cl
ENDBRANCH   2   7
TORSDOF 1
ENDMDL
MODEL 2
REMARK VINA RESULT:      -4.3      1.467      2.525
REMARK  1 active torsions:
REMARK  status: ('A' for Active; 'I' for Inactive)
REMARK    1  A    between atoms: C1_1  and  C3_3 
ROOT
HETATM    1  C2  UNL     1     -32.942  14.964  -3.827  1.00 20.00     0.065 A 
HETATM    2  C3  UNL     1     -34.422  15.096  -3.526  1.00 20.00     0.070 A 
HETATM    3  C4  UNL     1     -33.775  15.911  -4.647  1.00 20.00     0.130 A 
HETATM    4  C5  UNL     1     -34.796  15.774  -2.228  1.00 20.00     0.028 C 
HETATM    5 CL8  UNL     1     -34.066  15.476  -6.336  1.00 20.00    -0.100 Cl
HETATM    6 CL9  UNL     1     -33.496  17.641  -4.443  1.00 20.00    -0.100 Cl
ENDROOT
BRANCH   2   7
HETATM    7  C1  UNL     1     -35.288  13.954  -3.915  1.00 20.00     0.230 C 
HETATM    8  O6  UNL     1     -34.827  12.833  -4.113  1.00 20.00    -0.279 OA
HETATM    9 CL7  UNL     1     -36.958  14.413  -4.044  1.00 20.00    -0.043 Cl
ENDBRANCH   2   7
TORSDOF 1
ENDMDL
MODEL 3
REMARK VINA RESULT:      -3.9      1.914      3.190
REMARK  1 active torsions:
REMARK  status: ('A' for Active; 'I' for Inactive)
REMARK    1  A    between atoms: C1_1  and  C3_3 
ROOT
HETATM    1  C2  UNL     1     -34.932  16.175  -4.739  1.00 20.00     0.065 A 
HETATM    2  C3  UNL     1     -35.567  14.808  -4.585  1.00 20.00     0.070 A 
HETATM    3  C4  UNL     1     -35.503  15.492  -5.951  1.00 20.00     0.130 A 
HETATM    4  C5  UNL     1     -36.881  14.747  -3.840  1.00 20.00     0.028 C 
HETATM    5 CL8  UNL     1     -34.359  14.920  -7.171  1.00 20.00    -0.100 Cl
HETATM    6 CL9  UNL     1     -36.959  16.178  -6.673  1.00 20.00    -0.100 Cl
ENDROOT
BRANCH   2   7
HETATM    7  C1  UNL     1     -34.649  13.667  -4.340  1.00 20.00     0.230 C 
HETATM    8  O6  UNL     1     -34.982  12.509  -4.576  1.00 20.00    -0.279 OA
HETATM    9 CL7  UNL     1     -33.118  14.185  -3.703  1.00 20.00    -0.043 Cl
ENDBRANCH   2   7
TORSDOF 1
ENDMDL
MODEL 4
REMARK VINA RESULT:      -3.9      1.920      3.041
REMARK  1 active torsions:
REMARK  status: ('A' for Active; 'I' for Inactive)
REMARK    1  A    between atoms: C1_1  and  C3_3 
ROOT
HETATM    1  C2  UNL     1     -34.588  13.912  -3.692  1.00 20.00     0.065 A 
HETATM    2  C3  UNL     1     -35.359  15.168  -3.336  1.00 20.00     0.070 A 
HETATM    3  C4  UNL     1     -34.447  15.129  -4.563  1.00 20.00     0.130 A 
HETATM    4  C5  UNL     1     -34.914  15.912  -2.098  1.00 20.00     0.028 C 
HETATM    5 CL8  UNL     1     -35.150  15.050  -6.184  1.00 20.00    -0.100 Cl
HETATM    6 CL9  UNL     1     -32.898  15.975  -4.551  1.00 20.00    -0.100 Cl
ENDROOT
BRANCH   2   7
HETATM    7  C1  UNL     1     -36.825  15.141  -3.565  1.00 20.00     0.230 C 
HETATM    8  O6  UNL     1     -37.434  14.087  -3.725  1.00 20.00    -0.279 OA
HETATM    9 CL7  UNL     1     -37.515  16.735  -3.577  1.00 20.00    -0.043 Cl
ENDBRANCH   2   7
TORSDOF 1
ENDMDL
MODEL 5
REMARK VINA RESULT:      -3.9      2.024      2.385
REMARK  1 active torsions:
REMARK  status: ('A' for Active; 'I' for Inactive)
REMARK    1  A    between atoms: C1_1  and  C3_3 
ROOT
HETATM    1  C2  UNL     1     -36.475  15.039  -5.168  1.00 20.00     0.065 A 
HETATM    2  C3  UNL     1     -34.983  14.776  -5.216  1.00 20.00     0.070 A 
HETATM    3  C4  UNL     1     -35.546  15.950  -4.414  1.00 20.00     0.130 A 
HETATM    4  C5  UNL     1     -34.287  15.036  -6.533  1.00 20.00     0.028 C 
HETATM    5 CL8  UNL     1     -35.594  15.870  -2.648  1.00 20.00    -0.100 Cl
HETATM    6 CL9  UNL     1     -35.358  17.603  -5.001  1.00 20.00    -0.100 Cl
ENDROOT
BRANCH   2   7
HETATM    7  C1  UNL     1     -34.486  13.599  -4.461  1.00 20.00     0.230 C 
HETATM    8  O6  UNL     1     -35.132  12.558  -4.390  1.00 20.00    -0.279 OA
HETATM    9 CL7  UNL     1     -32.939  13.897  -3.728  1.00 20.00    -0.043 Cl
ENDBRANCH   2   7
TORSDOF 1
ENDMDL
MODEL 6
REMARK VINA RESULT:      -3.8      1.825      3.518
REMARK  1 active torsions:
REMARK  status: ('A' for Active; 'I' for Inactive)
REMARK    1  A    between atoms: C1_1  and  C3_3 
ROOT
HETATM    1  C2  UNL     1     -35.569  15.528  -4.867  1.00 20.00     0.065 A 
HETATM    2  C3  UNL     1     -34.343  14.666  -4.637  1.00 20.00     0.070 A 
HETATM    3  C4  UNL     1     -34.420  15.616  -5.833  1.00 20.00     0.130 A 
HETATM    4  C5  UNL     1     -34.506  13.179  -4.851  1.00 20.00     0.028 C 
HETATM    5 CL8  UNL     1     -33.478  17.112  -5.834  1.00 20.00    -0.100 Cl
HETATM    6 CL9  UNL     1     -34.663  14.981  -7.461  1.00 20.00    -0.100 Cl
ENDROOT
BRANCH   2   7
HETATM    7  C1  UNL     1     -33.459  15.049  -3.508  1.00 20.00     0.230 C 
HETATM    8  O6  UNL     1     -32.265  14.764  -3.497  1.00 20.00    -0.279 OA
HETATM    9 CL7  UNL     1     -34.317  15.913  -2.268  1.00 20.00    -0.043 Cl
ENDBRANCH   2   7
TORSDOF 1
ENDMDL
MODEL 7
REMARK VINA RESULT:      -3.8      1.977      2.802
REMARK  1 active torsions:
REMARK  status: ('A' for Active; 'I' for Inactive)
REMARK    1  A    between atoms: C1_1  and  C3_3 
ROOT
HETATM    1  C2  UNL     1     -34.436  13.639  -3.770  1.00 20.00     0.065 A 
HETATM    2  C3  UNL     1     -34.352  14.807  -4.732  1.00 20.00     0.070 A 
HETATM    3  C4  UNL     1     -35.377  14.799  -3.597  1.00 20.00     0.130 A 
HETATM    4  C5  UNL     1     -34.806  14.555  -6.152  1.00 20.00     0.028 C 
HETATM    5 CL8  UNL     1     -35.135  15.832  -2.182  1.00 20.00    -0.100 Cl
HETATM    6 CL9  UNL     1     -37.086  14.532  -3.942  1.00 20.00    -0.100 Cl
ENDROOT
BRANCH   2   7
HETATM    7  C1  UNL     1     -33.177  15.703  -4.594  1.00 20.00     0.230 C 
HETATM    8  O6  UNL     1     -32.179  15.367  -3.963  1.00 20.00    -0.279 OA
HETATM    9 CL7  UNL     1     -33.410  17.219  -5.411  1.00 20.00    -0.043 Cl
ENDBRANCH   2   7
TORSDOF 1
ENDMDL
MODEL 8
REMARK VINA RESULT:      -3.8      1.655      2.345
REMARK  1 active torsions:
REMARK  status: ('A' for Active; 'I' for Inactive)
REMARK    1  A    between atoms: C1_1  and  C3_3 
ROOT
HETATM    1  C2  UNL     1     -34.430  15.267  -2.841  1.00 20.00     0.065 A 
HETATM    2  C3  UNL     1     -35.287  14.874  -4.028  1.00 20.00     0.070 A 
HETATM    3  C4  UNL     1     -34.579  16.229  -3.987  1.00 20.00     0.130 A 
HETATM    4  C5  UNL     1     -36.779  14.803  -3.798  1.00 20.00     0.028 C 
HETATM    5 CL8  UNL     1     -33.154  16.512  -4.996  1.00 20.00    -0.100 Cl
HETATM    6 CL9  UNL     1     -35.500  17.708  -3.707  1.00 20.00    -0.100 Cl
ENDROOT
BRANCH   2   7
HETATM    7  C1  UNL     1     -34.737  13.836  -4.936  1.00 20.00     0.230 C 
HETATM    8  O6  UNL     1     -34.013  12.934  -4.521  1.00 20.00    -0.279 OA
HETATM    9 CL7  UNL     1     -35.238  14.073  -6.582  1.00 20.00    -0.043 Cl
ENDBRANCH   2   7
TORSDOF 1
ENDMDL
MODEL 9
REMARK VINA RESULT:      -3.7      2.458      3.947
REMARK  1 active torsions:
REMARK  status: ('A' for Active; 'I' for Inactive)
REMARK    1  A    between atoms: C1_1  and  C3_3 
ROOT
HETATM    1  C2  UNL     1     -34.414  15.862  -4.948  1.00 20.00     0.065 A 
HETATM    2  C3  UNL     1     -34.929  15.874  -3.522  1.00 20.00     0.070 A 
HETATM    3  C4  UNL     1     -34.084  14.709  -4.040  1.00 20.00     0.130 A 
HETATM    4  C5  UNL     1     -36.418  15.692  -3.334  1.00 20.00     0.028 C 
HETATM    5 CL8  UNL     1     -32.401  14.541  -3.525  1.00 20.00    -0.100 Cl
HETATM    6 CL9  UNL     1     -34.833  13.149  -4.385  1.00 20.00    -0.100 Cl
ENDROOT
BRANCH   2   7
HETATM    7  C1  UNL     1     -34.286  16.830  -2.587  1.00 20.00     0.230 C 
HETATM    8  O6  UNL     1     -33.613  17.775  -2.991  1.00 20.00    -0.279 OA
HETATM    9 CL7  UNL     1     -34.605  16.435  -0.925  1.00 20.00    -0.043 Cl
ENDBRANCH   2   7
TORSDOF 1
ENDMDL
