MODEL 1
REMARK VINA RESULT:      -4.8      0.000      0.000
REMARK  1 active torsions:
REMARK  status: ('A' for Active; 'I' for Inactive)
REMARK    1  A    between atoms: C3_3  and  C6_6 
ROOT
HETATM    1  C1  UNL     1     -35.179  13.623  -4.049  1.00 20.00     0.272 C 
HETATM    2  C2  UNL     1     -35.524  15.513  -2.668  1.00 20.00     0.055 C 
HETATM    3  C3  UNL     1     -34.428  14.604  -3.191  1.00 20.00     0.195 C 
HETATM    4  C4  UNL     1     -36.690  15.306  -3.613  1.00 20.00     0.129 C 
HETATM    5  C5  UNL     1     -36.802  16.365  -4.699  1.00 20.00     0.040 C 
HETATM    6  O7  UNL     1     -34.705  12.611  -4.543  1.00 20.00    -0.265 OA
HETATM    7  O8  UNL     1     -36.473  14.026  -4.217  1.00 20.00    -0.316 OA
ENDROOT
BRANCH   3   8
HETATM    8  C6  UNL     1     -33.361  15.329  -3.994  1.00 20.00     0.400 C 
HETATM    9  F9  UNL     1     -33.644  15.276  -5.308  1.00 20.00    -0.170 F 
HETATM   10  F10 UNL     1     -33.292  16.620  -3.625  1.00 20.00    -0.170 F 
HETATM   11  F11 UNL     1     -32.157  14.764  -3.793  1.00 20.00    -0.170 F 
ENDBRANCH   3   8
TORSDOF 1
ENDMDL
MODEL 2
REMARK VINA RESULT:      -4.7     11.889     12.769
REMARK  1 active torsions:
REMARK  status: ('A' for Active; 'I' for Inactive)
REMARK    1  A    between atoms: C3_3  and  C6_6 
ROOT
HETATM    1  C1  UNL     1     -33.852   6.498   5.685  1.00 20.00     0.272 C 
HETATM    2  C2  UNL     1     -35.435   5.547   4.205  1.00 20.00     0.055 C 
HETATM    3  C3  UNL     1     -34.304   6.557   4.251  1.00 20.00     0.195 C 
HETATM    4  C4  UNL     1     -35.227   4.669   5.422  1.00 20.00     0.129 C 
HETATM    5  C5  UNL     1     -34.506   3.362   5.126  1.00 20.00     0.040 C 
HETATM    6  O7  UNL     1     -33.060   7.267   6.207  1.00 20.00    -0.265 OA
HETATM    7  O8  UNL     1     -34.442   5.449   6.330  1.00 20.00    -0.316 OA
ENDROOT
BRANCH   3   8
HETATM    8  C6  UNL     1     -33.160   6.239   3.304  1.00 20.00     0.400 C 
HETATM    9  F9  UNL     1     -32.141   5.670   3.971  1.00 20.00    -0.170 F 
HETATM   10  F10 UNL     1     -33.567   5.389   2.344  1.00 20.00    -0.170 F 
HETATM   11  F11 UNL     1     -32.711   7.362   2.715  1.00 20.00    -0.170 F 
ENDBRANCH   3   8
TORSDOF 1
ENDMDL
MODEL 3
REMARK VINA RESULT:      -4.7      1.465      1.996
REMARK  1 active torsions:
REMARK  status: ('A' for Active; 'I' for Inactive)
REMARK    1  A    between atoms: C3_3  and  C6_6 
ROOT
HETATM    1  C1  UNL     1     -33.652  13.358  -3.835  1.00 20.00     0.272 C 
HETATM    2  C2  UNL     1     -35.769  14.402  -4.005  1.00 20.00     0.055 C 
HETATM    3  C3  UNL     1     -34.451  14.496  -3.259  1.00 20.00     0.195 C 
HETATM    4  C4  UNL     1     -35.464  13.580  -5.240  1.00 20.00     0.129 C 
HETATM    5  C5  UNL     1     -35.209  14.411  -6.488  1.00 20.00     0.040 C 
HETATM    6  O7  UNL     1     -32.578  12.964  -3.407  1.00 20.00    -0.265 OA
HETATM    7  O8  UNL     1     -34.287  12.828  -4.921  1.00 20.00    -0.316 OA
ENDROOT
BRANCH   3   8
HETATM    8  C6  UNL     1     -33.732  15.820  -3.449  1.00 20.00     0.400 C 
HETATM    9  F9  UNL     1     -34.575  16.747  -3.939  1.00 20.00    -0.170 F 
HETATM   10  F10 UNL     1     -33.247  16.264  -2.276  1.00 20.00    -0.170 F 
HETATM   11  F11 UNL     1     -32.706  15.679  -4.308  1.00 20.00    -0.170 F 
ENDBRANCH   3   8
TORSDOF 1
ENDMDL
MODEL 4
REMARK VINA RESULT:      -4.6      2.285      3.141
REMARK  1 active torsions:
REMARK  status: ('A' for Active; 'I' for Inactive)
REMARK    1  A    between atoms: C3_3  and  C6_6 
ROOT
HETATM    1  C1  UNL     1     -34.282  13.650  -4.673  1.00 20.00     0.272 C 
HETATM    2  C2  UNL     1     -33.544  15.871  -5.023  1.00 20.00     0.055 C 
HETATM    3  C3  UNL     1     -34.519  14.841  -5.562  1.00 20.00     0.195 C 
HETATM    4  C4  UNL     1     -33.200  15.394  -3.627  1.00 20.00     0.129 C 
HETATM    5  C5  UNL     1     -33.998  16.076  -2.526  1.00 20.00     0.040 C 
HETATM    6  O7  UNL     1     -34.745  12.534  -4.852  1.00 20.00    -0.265 OA
HETATM    7  O8  UNL     1     -33.483  13.990  -3.619  1.00 20.00    -0.316 OA
ENDROOT
BRANCH   3   8
HETATM    8  C6  UNL     1     -35.971  15.284  -5.508  1.00 20.00     0.400 C 
HETATM    9  F9  UNL     1     -36.543  14.879  -4.360  1.00 20.00    -0.170 F 
HETATM   10  F10 UNL     1     -36.056  16.624  -5.577  1.00 20.00    -0.170 F 
HETATM   11  F11 UNL     1     -36.661  14.759  -6.537  1.00 20.00    -0.170 F 
ENDBRANCH   3   8
TORSDOF 1
ENDMDL
MODEL 5
REMARK VINA RESULT:      -4.5      2.173      2.873
REMARK  1 active torsions:
REMARK  status: ('A' for Active; 'I' for Inactive)
REMARK    1  A    between atoms: C3_3  and  C6_6 
ROOT
HETATM    1  C1  UNL     1     -33.501  15.960  -4.724  1.00 20.00     0.272 C 
HETATM    2  C2  UNL     1     -33.978  14.063  -3.393  1.00 20.00     0.055 C 
HETATM    3  C3  UNL     1     -33.386  15.457  -3.311  1.00 20.00     0.195 C 
HETATM    4  C4  UNL     1     -34.801  14.060  -4.665  1.00 20.00     0.129 C 
HETATM    5  C5  UNL     1     -36.286  14.306  -4.442  1.00 20.00     0.040 C 
HETATM    6  O7  UNL     1     -32.998  16.989  -5.150  1.00 20.00    -0.265 OA
HETATM    7  O8  UNL     1     -34.262  15.111  -5.475  1.00 20.00    -0.316 OA
ENDROOT
BRANCH   3   8
HETATM    8  C6  UNL     1     -34.113  16.375  -2.343  1.00 20.00     0.400 C 
HETATM    9  F9  UNL     1     -34.974  17.169  -3.005  1.00 20.00    -0.170 F 
HETATM   10  F10 UNL     1     -34.804  15.655  -1.442  1.00 20.00    -0.170 F 
HETATM   11  F11 UNL     1     -33.235  17.153  -1.684  1.00 20.00    -0.170 F 
ENDBRANCH   3   8
TORSDOF 1
ENDMDL
MODEL 6
REMARK VINA RESULT:      -4.5      2.342      2.841
REMARK  1 active torsions:
REMARK  status: ('A' for Active; 'I' for Inactive)
REMARK    1  A    between atoms: C3_3  and  C6_6 
ROOT
HETATM    1  C1  UNL     1     -33.893  16.007  -5.144  1.00 20.00     0.272 C 
HETATM    2  C2  UNL     1     -35.650  14.615  -5.901  1.00 20.00     0.055 C 
HETATM    3  C3  UNL     1     -34.252  14.555  -5.315  1.00 20.00     0.195 C 
HETATM    4  C4  UNL     1     -36.156  16.004  -5.571  1.00 20.00     0.129 C 
HETATM    5  C5  UNL     1     -37.042  16.062  -4.336  1.00 20.00     0.040 C 
HETATM    6  O7  UNL     1     -32.786  16.428  -4.846  1.00 20.00    -0.265 OA
HETATM    7  O8  UNL     1     -34.985  16.799  -5.354  1.00 20.00    -0.316 OA
ENDROOT
BRANCH   3   8
HETATM    8  C6  UNL     1     -34.174  13.813  -3.992  1.00 20.00     0.400 C 
HETATM    9  F9  UNL     1     -34.391  14.654  -2.966  1.00 20.00    -0.170 F 
HETATM   10  F10 UNL     1     -35.098  12.837  -3.946  1.00 20.00    -0.170 F 
HETATM   11  F11 UNL     1     -32.959  13.256  -3.838  1.00 20.00    -0.170 F 
ENDBRANCH   3   8
TORSDOF 1
ENDMDL
MODEL 7
REMARK VINA RESULT:      -4.4      1.851      2.716
REMARK  1 active torsions:
REMARK  status: ('A' for Active; 'I' for Inactive)
REMARK    1  A    between atoms: C3_3  and  C6_6 
ROOT
HETATM    1  C1  UNL     1     -35.801  15.646  -3.561  1.00 20.00     0.272 C 
HETATM    2  C2  UNL     1     -33.548  15.963  -2.912  1.00 20.00     0.055 C 
HETATM    3  C3  UNL     1     -34.596  14.880  -3.085  1.00 20.00     0.195 C 
HETATM    4  C4  UNL     1     -34.049  17.131  -3.737  1.00 20.00     0.129 C 
HETATM    5  C5  UNL     1     -33.424  17.224  -5.121  1.00 20.00     0.040 C 
HETATM    6  O7  UNL     1     -36.928  15.188  -3.675  1.00 20.00    -0.265 OA
HETATM    7  O8  UNL     1     -35.461  16.933  -3.866  1.00 20.00    -0.316 OA
ENDROOT
BRANCH   3   8
HETATM    8  C6  UNL     1     -34.205  13.802  -4.080  1.00 20.00     0.400 C 
HETATM    9  F9  UNL     1     -34.258  14.279  -5.336  1.00 20.00    -0.170 F 
HETATM   10  F10 UNL     1     -32.954  13.372  -3.840  1.00 20.00    -0.170 F 
HETATM   11  F11 UNL     1     -35.041  12.751  -3.987  1.00 20.00    -0.170 F 
ENDBRANCH   3   8
TORSDOF 1
ENDMDL
MODEL 8
REMARK VINA RESULT:      -4.4      2.363      3.004
REMARK  1 active torsions:
REMARK  status: ('A' for Active; 'I' for Inactive)
REMARK    1  A    between atoms: C3_3  and  C6_6 
ROOT
HETATM    1  C1  UNL     1     -33.790  16.516  -4.404  1.00 20.00     0.272 C 
HETATM    2  C2  UNL     1     -35.744  15.665  -3.376  1.00 20.00     0.055 C 
HETATM    3  C3  UNL     1     -34.663  15.291  -4.373  1.00 20.00     0.195 C 
HETATM    4  C4  UNL     1     -35.162  16.814  -2.579  1.00 20.00     0.129 C 
HETATM    5  C5  UNL     1     -34.556  16.397  -1.247  1.00 20.00     0.040 C 
HETATM    6  O7  UNL     1     -32.882  16.714  -5.197  1.00 20.00    -0.265 OA
HETATM    7  O8  UNL     1     -34.142  17.381  -3.408  1.00 20.00    -0.316 OA
ENDROOT
BRANCH   3   8
HETATM    8  C6  UNL     1     -33.865  14.060  -3.979  1.00 20.00     0.400 C 
HETATM    9  F9  UNL     1     -34.439  13.442  -2.932  1.00 20.00    -0.170 F 
HETATM   10  F10 UNL     1     -33.802  13.192  -5.004  1.00 20.00    -0.170 F 
HETATM   11  F11 UNL     1     -32.610  14.404  -3.636  1.00 20.00    -0.170 F 
ENDBRANCH   3   8
TORSDOF 1
ENDMDL
MODEL 9
REMARK VINA RESULT:      -4.4      1.824      3.027
REMARK  1 active torsions:
REMARK  status: ('A' for Active; 'I' for Inactive)
REMARK    1  A    between atoms: C3_3  and  C6_6 
ROOT
HETATM    1  C1  UNL     1     -36.518  14.141  -4.314  1.00 20.00     0.272 C 
HETATM    2  C2  UNL     1     -34.686  14.509  -5.766  1.00 20.00     0.055 C 
HETATM    3  C3  UNL     1     -35.910  15.200  -5.194  1.00 20.00     0.195 C 
HETATM    4  C4  UNL     1     -34.421  13.344  -4.834  1.00 20.00     0.129 C 
HETATM    5  C5  UNL     1     -33.352  13.621  -3.788  1.00 20.00     0.040 C 
HETATM    6  O7  UNL     1     -37.614  14.214  -3.778  1.00 20.00    -0.265 OA
HETATM    7  O8  UNL     1     -35.668  13.081  -4.182  1.00 20.00    -0.316 OA
ENDROOT
BRANCH   3   8
HETATM    8  C6  UNL     1     -35.590  16.454  -4.399  1.00 20.00     0.400 C 
HETATM    9  F9  UNL     1     -36.620  17.317  -4.447  1.00 20.00    -0.170 F 
HETATM   10  F10 UNL     1     -35.353  16.146  -3.111  1.00 20.00    -0.170 F 
HETATM   11  F11 UNL     1     -34.499  17.062  -4.899  1.00 20.00    -0.170 F 
ENDBRANCH   3   8
TORSDOF 1
ENDMDL
