MODEL 1
REMARK VINA RESULT:      -4.8      0.000      0.000
REMARK  0 active torsions:
REMARK  status: ('A' for Active; 'I' for Inactive)
ROOT
HETATM    1  C1  UNL     1     -34.762  16.111  -2.006  1.00 20.00    -0.024 C 
HETATM    2  C2  UNL     1     -33.608  16.162  -2.684  1.00 20.00    -0.024 C 
HETATM    3  C3  UNL     1     -35.162  14.008  -4.171  1.00 20.00     0.164 C 
HETATM    4  C4  UNL     1     -35.264  16.918  -4.126  1.00 20.00     0.021 C 
HETATM    5  C5  UNL     1     -35.920  16.155  -2.973  1.00 20.00     0.034 C 
HETATM    6  C6  UNL     1     -33.891  16.243  -4.163  1.00 20.00     0.034 C 
HETATM    7  C7  UNL     1     -36.283  14.728  -3.409  1.00 20.00     0.161 C 
HETATM    8  C8  UNL     1     -34.001  14.828  -4.748  1.00 20.00     0.161 C 
HETATM    9  O9  UNL     1     -35.227  12.791  -4.371  1.00 20.00    -0.295 OA
HETATM   10 CL10 UNL     1     -37.706  14.732  -4.485  1.00 20.00    -0.116 Cl
HETATM   11 CL11 UNL     1     -34.250  14.884  -6.513  1.00 20.00    -0.116 Cl
ENDROOT
TORSDOF 0
ENDMDL
MODEL 2
REMARK VINA RESULT:      -4.8      2.532      3.371
REMARK  0 active torsions:
REMARK  status: ('A' for Active; 'I' for Inactive)
ROOT
HETATM    1  C1  UNL     1     -34.948  13.685  -5.606  1.00 20.00    -0.024 C 
HETATM    2  C2  UNL     1     -34.156  13.347  -4.579  1.00 20.00    -0.024 C 
HETATM    3  C3  UNL     1     -33.794  16.365  -4.736  1.00 20.00     0.164 C 
HETATM    4  C4  UNL     1     -35.884  14.623  -3.698  1.00 20.00     0.021 C 
HETATM    5  C5  UNL     1     -35.819  14.851  -5.210  1.00 20.00     0.034 C 
HETATM    6  C6  UNL     1     -34.427  14.256  -3.408  1.00 20.00     0.034 C 
HETATM    7  C7  UNL     1     -35.095  16.168  -5.526  1.00 20.00     0.161 C 
HETATM    8  C8  UNL     1     -33.529  15.498  -3.498  1.00 20.00     0.161 C 
HETATM    9  O9  UNL     1     -32.999  17.253  -5.058  1.00 20.00    -0.295 OA
HETATM   10 CL10 UNL     1     -36.132  17.572  -5.152  1.00 20.00    -0.116 Cl
HETATM   11 CL11 UNL     1     -33.760  16.557  -2.081  1.00 20.00    -0.116 Cl
ENDROOT
TORSDOF 0
ENDMDL
MODEL 3
REMARK VINA RESULT:      -4.7      2.053      2.594
REMARK  0 active torsions:
REMARK  status: ('A' for Active; 'I' for Inactive)
ROOT
HETATM    1  C1  UNL     1     -34.068  13.371  -3.826  1.00 20.00    -0.024 C 
HETATM    2  C2  UNL     1     -32.952  14.072  -3.584  1.00 20.00    -0.024 C 
HETATM    3  C3  UNL     1     -34.258  15.652  -5.833  1.00 20.00     0.164 C 
HETATM    4  C4  UNL     1     -34.737  15.423  -2.970  1.00 20.00     0.021 C 
HETATM    5  C5  UNL     1     -35.251  14.305  -3.880  1.00 20.00     0.034 C 
HETATM    6  C6  UNL     1     -33.290  15.535  -3.454  1.00 20.00     0.034 C 
HETATM    7  C7  UNL     1     -35.438  14.820  -5.315  1.00 20.00     0.161 C 
HETATM    8  C8  UNL     1     -33.232  16.204  -4.835  1.00 20.00     0.161 C 
HETATM    9  O9  UNL     1     -34.169  15.925  -7.034  1.00 20.00    -0.295 OA
HETATM   10 CL10 UNL     1     -36.883  15.860  -5.435  1.00 20.00    -0.116 Cl
HETATM   11 CL11 UNL     1     -33.542  17.956  -4.709  1.00 20.00    -0.116 Cl
ENDROOT
TORSDOF 0
ENDMDL
MODEL 4
REMARK VINA RESULT:      -4.6      1.625      2.457
REMARK  0 active torsions:
REMARK  status: ('A' for Active; 'I' for Inactive)
ROOT
HETATM    1  C1  UNL     1     -37.037  15.753  -4.226  1.00 20.00    -0.024 C 
HETATM    2  C2  UNL     1     -36.439  15.632  -3.033  1.00 20.00    -0.024 C 
HETATM    3  C3  UNL     1     -34.858  13.699  -4.774  1.00 20.00     0.164 C 
HETATM    4  C4  UNL     1     -34.886  16.595  -4.465  1.00 20.00     0.021 C 
HETATM    5  C5  UNL     1     -35.994  15.947  -5.298  1.00 20.00     0.034 C 
HETATM    6  C6  UNL     1     -34.944  15.732  -3.202  1.00 20.00     0.034 C 
HETATM    7  C7  UNL     1     -35.539  14.580  -5.830  1.00 20.00     0.161 C 
HETATM    8  C8  UNL     1     -34.358  14.339  -3.472  1.00 20.00     0.161 C 
HETATM    9  O9  UNL     1     -34.658  12.501  -4.997  1.00 20.00    -0.295 OA
HETATM   10 CL10 UNL     1     -34.368  14.771  -7.163  1.00 20.00    -0.116 Cl
HETATM   11 CL11 UNL     1     -32.580  14.406  -3.592  1.00 20.00    -0.116 Cl
ENDROOT
TORSDOF 0
ENDMDL
MODEL 5
REMARK VINA RESULT:      -4.6      2.485      3.197
REMARK  0 active torsions:
REMARK  status: ('A' for Active; 'I' for Inactive)
ROOT
HETATM    1  C1  UNL     1     -35.164  13.622  -4.479  1.00 20.00    -0.024 C 
HETATM    2  C2  UNL     1     -34.773  14.203  -5.621  1.00 20.00    -0.024 C 
HETATM    3  C3  UNL     1     -35.569  16.583  -3.898  1.00 20.00     0.164 C 
HETATM    4  C4  UNL     1     -33.243  14.834  -3.994  1.00 20.00     0.021 C 
HETATM    5  C5  UNL     1     -34.509  14.315  -3.309  1.00 20.00     0.034 C 
HETATM    6  C6  UNL     1     -33.825  15.335  -5.317  1.00 20.00     0.034 C 
HETATM    7  C7  UNL     1     -35.388  15.484  -2.843  1.00 20.00     0.161 C 
HETATM    8  C8  UNL     1     -34.619  16.632  -5.102  1.00 20.00     0.161 C 
HETATM    9  O9  UNL     1     -36.431  17.455  -3.749  1.00 20.00    -0.295 OA
HETATM   10 CL10 UNL     1     -34.689  16.274  -1.404  1.00 20.00    -0.116 Cl
HETATM   11 CL11 UNL     1     -33.523  18.012  -4.825  1.00 20.00    -0.116 Cl
ENDROOT
TORSDOF 0
ENDMDL
MODEL 6
REMARK VINA RESULT:      -4.6      1.478      1.751
REMARK  0 active torsions:
REMARK  status: ('A' for Active; 'I' for Inactive)
ROOT
HETATM    1  C1  UNL     1     -35.069  17.231  -2.357  1.00 20.00    -0.024 C 
HETATM    2  C2  UNL     1     -34.283  16.227  -1.945  1.00 20.00    -0.024 C 
HETATM    3  C3  UNL     1     -36.238  14.825  -3.810  1.00 20.00     0.164 C 
HETATM    4  C4  UNL     1     -33.889  16.497  -4.217  1.00 20.00     0.021 C 
HETATM    5  C5  UNL     1     -35.209  17.182  -3.858  1.00 20.00     0.034 C 
HETATM    6  C6  UNL     1     -33.829  15.418  -3.133  1.00 20.00     0.034 C 
HETATM    7  C7  UNL     1     -36.400  16.289  -4.237  1.00 20.00     0.161 C 
HETATM    8  C8  UNL     1     -34.847  14.305  -3.422  1.00 20.00     0.161 C 
HETATM    9  O9  UNL     1     -37.204  14.057  -3.838  1.00 20.00    -0.295 OA
HETATM   10 CL10 UNL     1     -36.651  16.277  -6.004  1.00 20.00    -0.116 Cl
HETATM   11 CL11 UNL     1     -34.299  13.273  -4.770  1.00 20.00    -0.116 Cl
ENDROOT
TORSDOF 0
ENDMDL
MODEL 7
REMARK VINA RESULT:      -4.5      1.823      2.826
REMARK  0 active torsions:
REMARK  status: ('A' for Active; 'I' for Inactive)
ROOT
HETATM    1  C1  UNL     1     -33.330  16.694  -5.513  1.00 20.00    -0.024 C 
HETATM    2  C2  UNL     1     -34.239  16.136  -6.324  1.00 20.00    -0.024 C 
HETATM    3  C3  UNL     1     -34.520  14.497  -3.774  1.00 20.00     0.164 C 
HETATM    4  C4  UNL     1     -35.416  17.144  -4.594  1.00 20.00     0.021 C 
HETATM    5  C5  UNL     1     -33.955  16.975  -4.169  1.00 20.00     0.034 C 
HETATM    6  C6  UNL     1     -35.551  15.993  -5.594  1.00 20.00     0.034 C 
HETATM    7  C7  UNL     1     -33.797  15.748  -3.259  1.00 20.00     0.161 C 
HETATM    8  C8  UNL     1     -35.592  14.644  -4.862  1.00 20.00     0.161 C 
HETATM    9  O9  UNL     1     -34.286  13.392  -3.275  1.00 20.00    -0.295 OA
HETATM   10 CL10 UNL     1     -34.448  16.074  -1.629  1.00 20.00    -0.116 Cl
HETATM   11 CL11 UNL     1     -37.166  14.402  -4.058  1.00 20.00    -0.116 Cl
ENDROOT
TORSDOF 0
ENDMDL
MODEL 8
REMARK VINA RESULT:      -4.5      1.427      2.159
REMARK  0 active torsions:
REMARK  status: ('A' for Active; 'I' for Inactive)
ROOT
HETATM    1  C1  UNL     1     -36.023  16.828  -3.572  1.00 20.00    -0.024 C 
HETATM    2  C2  UNL     1     -35.364  16.426  -2.477  1.00 20.00    -0.024 C 
HETATM    3  C3  UNL     1     -35.177  13.996  -4.301  1.00 20.00     0.164 C 
HETATM    4  C4  UNL     1     -33.799  16.559  -4.187  1.00 20.00     0.021 C 
HETATM    5  C5  UNL     1     -35.201  16.520  -4.799  1.00 20.00     0.034 C 
HETATM    6  C6  UNL     1     -34.046  15.812  -2.874  1.00 20.00     0.034 C 
HETATM    7  C7  UNL     1     -35.531  15.106  -5.300  1.00 20.00     0.161 C 
HETATM    8  C8  UNL     1     -34.231  14.310  -3.134  1.00 20.00     0.161 C 
HETATM    9  O9  UNL     1     -35.599  12.848  -4.470  1.00 20.00    -0.295 OA
HETATM   10 CL10 UNL     1     -34.642  14.738  -6.803  1.00 20.00    -0.116 Cl
HETATM   11 CL11 UNL     1     -32.673  13.533  -3.524  1.00 20.00    -0.116 Cl
ENDROOT
TORSDOF 0
ENDMDL
MODEL 9
REMARK VINA RESULT:      -4.5      1.753      2.573
REMARK  0 active torsions:
REMARK  status: ('A' for Active; 'I' for Inactive)
ROOT
HETATM    1  C1  UNL     1     -34.266  17.150  -2.785  1.00 20.00    -0.024 C 
HETATM    2  C2  UNL     1     -34.493  15.994  -2.148  1.00 20.00    -0.024 C 
HETATM    3  C3  UNL     1     -35.762  15.516  -4.873  1.00 20.00     0.164 C 
HETATM    4  C4  UNL     1     -33.024  15.523  -3.883  1.00 20.00     0.021 C 
HETATM    5  C5  UNL     1     -33.697  16.870  -4.154  1.00 20.00     0.034 C 
HETATM    6  C6  UNL     1     -34.098  14.840  -3.033  1.00 20.00     0.034 C 
HETATM    7  C7  UNL     1     -34.840  16.708  -5.166  1.00 20.00     0.161 C 
HETATM    8  C8  UNL     1     -35.292  14.423  -3.905  1.00 20.00     0.161 C 
HETATM    9  O9  UNL     1     -36.844  15.408  -5.458  1.00 20.00    -0.295 OA
HETATM   10 CL10 UNL     1     -34.203  16.462  -6.815  1.00 20.00    -0.116 Cl
HETATM   11 CL11 UNL     1     -34.887  13.002  -4.905  1.00 20.00    -0.116 Cl
ENDROOT
TORSDOF 0
ENDMDL
