MODEL 1
REMARK VINA RESULT:      -3.2      0.000      0.000
REMARK  0 active torsions:
REMARK  status: ('A' for Active; 'I' for Inactive)
ROOT
HETATM    1  C1  UNL     1     -34.767   4.788   4.836  1.00 20.00     0.086 C 
HETATM    2  C2  UNL     1     -34.275   6.155   4.695  1.00 20.00     0.235 C 
HETATM    3  N3  UNL     1     -35.162   3.702   4.947  1.00 20.00    -0.195 NA
HETATM    4 BR4  UNL     1     -32.837   6.230   3.383  1.00 20.00    -0.063 Br
HETATM    5 BR5  UNL     1     -33.713   6.858   6.423  1.00 20.00    -0.063 Br
ENDROOT
TORSDOF 0
ENDMDL
MODEL 2
REMARK VINA RESULT:      -3.1      2.435      2.874
REMARK  0 active torsions:
REMARK  status: ('A' for Active; 'I' for Inactive)
ROOT
HETATM    1  C1  UNL     1     -33.333   6.087   3.956  1.00 20.00     0.086 C 
HETATM    2  C2  UNL     1     -34.329   6.072   5.024  1.00 20.00     0.235 C 
HETATM    3  N3  UNL     1     -32.544   6.101   3.104  1.00 20.00    -0.195 NA
HETATM    4 BR4  UNL     1     -33.661   7.017   6.591  1.00 20.00    -0.063 Br
HETATM    5 BR5  UNL     1     -34.843   4.242   5.449  1.00 20.00    -0.063 Br
ENDROOT
TORSDOF 0
ENDMDL
MODEL 3
REMARK VINA RESULT:      -3.0      2.681      2.856
REMARK  0 active torsions:
REMARK  status: ('A' for Active; 'I' for Inactive)
ROOT
HETATM    1  C1  UNL     1     -32.870   6.547   3.707  1.00 20.00     0.086 C 
HETATM    2  C2  UNL     1     -33.680   5.745   4.620  1.00 20.00     0.235 C 
HETATM    3  N3  UNL     1     -32.224   7.182   2.981  1.00 20.00    -0.195 NA
HETATM    4 BR4  UNL     1     -35.418   5.359   3.829  1.00 20.00    -0.063 Br
HETATM    5 BR5  UNL     1     -33.853   6.639   6.342  1.00 20.00    -0.063 Br
ENDROOT
TORSDOF 0
ENDMDL
MODEL 4
REMARK VINA RESULT:      -3.0     12.277     12.864
REMARK  0 active torsions:
REMARK  status: ('A' for Active; 'I' for Inactive)
ROOT
HETATM    1  C1  UNL     1     -34.307  13.907  -3.893  1.00 20.00     0.086 C 
HETATM    2  C2  UNL     1     -33.655  15.153  -3.497  1.00 20.00     0.235 C 
HETATM    3  N3  UNL     1     -34.822  12.915  -4.206  1.00 20.00    -0.195 NA
HETATM    4 BR4  UNL     1     -34.679  16.044  -2.100  1.00 20.00    -0.063 Br
HETATM    5 BR5  UNL     1     -33.390  16.304  -5.045  1.00 20.00    -0.063 Br
ENDROOT
TORSDOF 0
ENDMDL
MODEL 5
REMARK VINA RESULT:      -2.9      2.566      3.169
REMARK  0 active torsions:
REMARK  status: ('A' for Active; 'I' for Inactive)
ROOT
HETATM    1  C1  UNL     1     -33.810   6.732   6.111  1.00 20.00     0.086 C 
HETATM    2  C2  UNL     1     -34.441   5.979   5.031  1.00 20.00     0.235 C 
HETATM    3  N3  UNL     1     -33.312   7.332   6.970  1.00 20.00    -0.195 NA
HETATM    4 BR4  UNL     1     -34.840   4.162   5.609  1.00 20.00    -0.063 Br
HETATM    5 BR5  UNL     1     -33.317   6.000   3.440  1.00 20.00    -0.063 Br
ENDROOT
TORSDOF 0
ENDMDL
MODEL 6
REMARK VINA RESULT:      -2.9     12.525     12.584
REMARK  0 active torsions:
REMARK  status: ('A' for Active; 'I' for Inactive)
ROOT
HETATM    1  C1  UNL     1     -36.483  14.727  -3.708  1.00 20.00     0.086 C 
HETATM    2  C2  UNL     1     -35.111  15.226  -3.662  1.00 20.00     0.235 C 
HETATM    3  N3  UNL     1     -37.575  14.333  -3.748  1.00 20.00    -0.195 NA
HETATM    4 BR4  UNL     1     -33.848  13.768  -3.929  1.00 20.00    -0.063 Br
HETATM    5 BR5  UNL     1     -34.785  16.166  -1.988  1.00 20.00    -0.063 Br
ENDROOT
TORSDOF 0
ENDMDL
MODEL 7
REMARK VINA RESULT:      -2.8     13.138     13.641
REMARK  0 active torsions:
REMARK  status: ('A' for Active; 'I' for Inactive)
ROOT
HETATM    1  C1  UNL     1     -34.855  13.810  -4.825  1.00 20.00     0.086 C 
HETATM    2  C2  UNL     1     -34.781  15.154  -5.391  1.00 20.00     0.235 C 
HETATM    3  N3  UNL     1     -34.917  12.742  -4.374  1.00 20.00    -0.195 NA
HETATM    4 BR4  UNL     1     -34.632  15.070  -7.331  1.00 20.00    -0.063 Br
HETATM    5 BR5  UNL     1     -33.307  16.148  -4.595  1.00 20.00    -0.063 Br
ENDROOT
TORSDOF 0
ENDMDL
MODEL 8
REMARK VINA RESULT:      -2.8      2.488      2.606
REMARK  0 active torsions:
REMARK  status: ('A' for Active; 'I' for Inactive)
ROOT
HETATM    1  C1  UNL     1     -33.758   6.462   5.754  1.00 20.00     0.086 C 
HETATM    2  C2  UNL     1     -33.660   5.734   4.492  1.00 20.00     0.235 C 
HETATM    3  N3  UNL     1     -33.834   7.039   6.759  1.00 20.00    -0.195 NA
HETATM    4 BR4  UNL     1     -32.531   6.701   3.233  1.00 20.00    -0.063 Br
HETATM    5 BR5  UNL     1     -35.434   5.397   3.762  1.00 20.00    -0.063 Br
ENDROOT
TORSDOF 0
ENDMDL
MODEL 9
REMARK VINA RESULT:      -2.8     12.488     12.917
REMARK  0 active torsions:
REMARK  status: ('A' for Active; 'I' for Inactive)
ROOT
HETATM    1  C1  UNL     1     -34.968  13.992  -4.214  1.00 20.00     0.086 C 
HETATM    2  C2  UNL     1     -34.967  15.447  -4.089  1.00 20.00     0.235 C 
HETATM    3  N3  UNL     1     -34.972  12.835  -4.315  1.00 20.00    -0.195 NA
HETATM    4 BR4  UNL     1     -33.626  16.231  -5.265  1.00 20.00    -0.063 Br
HETATM    5 BR5  UNL     1     -34.696  15.971  -2.233  1.00 20.00    -0.063 Br
ENDROOT
TORSDOF 0
ENDMDL
