MODEL 1
REMARK VINA RESULT:      -5.0      0.000      0.000
REMARK  1 active torsions:
REMARK  status: ('A' for Active; 'I' for Inactive)
REMARK    1  A    between atoms: C7_7  and  C11_11 
ROOT
HETATM    1  C1  UNL     1     -33.639  17.910  -2.876  1.00 20.00    -0.018 C 
HETATM    2  C2  UNL     1     -33.567  16.909  -3.992  1.00 20.00     0.159 C 
HETATM    3  C3  UNL     1     -33.690  19.208  -3.203  1.00 20.00     0.023 C 
HETATM    4  C4  UNL     1     -34.814  16.310  -1.344  1.00 20.00     0.010 C 
HETATM    5  C5  UNL     1     -35.203  15.588  -2.642  1.00 20.00     0.013 C 
HETATM    6  C6  UNL     1     -33.643  17.300  -1.495  1.00 20.00     0.017 C 
HETATM    7  C7  UNL     1     -34.051  15.502  -3.649  1.00 20.00     0.063 C 
HETATM    8  C8  UNL     1     -33.640  18.293  -0.328  1.00 20.00     0.015 C 
HETATM    9  O12 UNL     1     -33.105  17.202  -5.092  1.00 20.00    -0.292 OA
ENDROOT
BRANCH   7  10
HETATM   10  C11 UNL     1     -34.497  14.757  -4.905  1.00 20.00    -0.011 C 
HETATM   11  C9  UNL     1     -34.400  13.246  -4.696  1.00 20.00     0.010 C 
HETATM   12  C10 UNL     1     -35.920  15.156  -5.289  1.00 20.00     0.010 C 
ENDBRANCH   7  10
TORSDOF 1
ENDMDL
MODEL 2
REMARK VINA RESULT:      -4.8      1.785      4.525
REMARK  1 active torsions:
REMARK  status: ('A' for Active; 'I' for Inactive)
REMARK    1  A    between atoms: C7_7  and  C11_11 
ROOT
HETATM    1  C1  UNL     1     -35.872  15.352  -4.017  1.00 20.00    -0.018 C 
HETATM    2  C2  UNL     1     -36.003  16.261  -2.829  1.00 20.00     0.159 C 
HETATM    3  C3  UNL     1     -36.606  15.631  -5.102  1.00 20.00     0.023 C 
HETATM    4  C4  UNL     1     -33.504  14.747  -3.454  1.00 20.00     0.010 C 
HETATM    5  C5  UNL     1     -33.519  16.056  -2.652  1.00 20.00     0.013 C 
HETATM    6  C6  UNL     1     -34.901  14.212  -3.821  1.00 20.00     0.017 C 
HETATM    7  C7  UNL     1     -34.817  16.265  -1.866  1.00 20.00     0.063 C 
HETATM    8  C8  UNL     1     -34.796  13.220  -4.983  1.00 20.00     0.015 C 
HETATM    9  O12 UNL     1     -37.021  16.919  -2.631  1.00 20.00    -0.292 OA
ENDROOT
BRANCH   7  10
HETATM   10  C11 UNL     1     -34.759  17.571  -1.078  1.00 20.00    -0.011 C 
HETATM   11  C9  UNL     1     -35.004  17.312   0.408  1.00 20.00     0.010 C 
HETATM   12  C10 UNL     1     -33.415  18.265  -1.288  1.00 20.00     0.010 C 
ENDBRANCH   7  10
TORSDOF 1
ENDMDL
MODEL 3
REMARK VINA RESULT:      -4.6      2.058      3.480
REMARK  1 active torsions:
REMARK  status: ('A' for Active; 'I' for Inactive)
REMARK    1  A    between atoms: C7_7  and  C11_11 
ROOT
HETATM    1  C1  UNL     1     -34.185  14.572  -3.710  1.00 20.00    -0.018 C 
HETATM    2  C2  UNL     1     -34.915  14.009  -4.895  1.00 20.00     0.159 C 
HETATM    3  C3  UNL     1     -33.023  14.003  -3.363  1.00 20.00     0.023 C 
HETATM    4  C4  UNL     1     -35.119  16.872  -4.065  1.00 20.00     0.010 C 
HETATM    5  C5  UNL     1     -35.349  16.393  -5.506  1.00 20.00     0.013 C 
HETATM    6  C6  UNL     1     -34.881  15.739  -3.050  1.00 20.00     0.017 C 
HETATM    7  C7  UNL     1     -35.890  14.962  -5.583  1.00 20.00     0.063 C 
HETATM    8  C8  UNL     1     -34.204  16.293  -1.792  1.00 20.00     0.015 C 
HETATM    9  O12 UNL     1     -34.764  12.843  -5.250  1.00 20.00    -0.292 OA
ENDROOT
BRANCH   7  10
HETATM   10  C11 UNL     1     -36.114  14.555  -7.038  1.00 20.00    -0.011 C 
HETATM   11  C9  UNL     1     -37.453  15.090  -7.544  1.00 20.00     0.010 C 
HETATM   12  C10 UNL     1     -34.969  15.053  -7.917  1.00 20.00     0.010 C 
ENDBRANCH   7  10
TORSDOF 1
ENDMDL
MODEL 4
REMARK VINA RESULT:      -4.6      1.285      4.519
REMARK  1 active torsions:
REMARK  status: ('A' for Active; 'I' for Inactive)
REMARK    1  A    between atoms: C7_7  and  C11_11 
ROOT
HETATM    1  C1  UNL     1     -34.474  14.550  -4.932  1.00 20.00    -0.018 C 
HETATM    2  C2  UNL     1     -33.664  15.264  -3.889  1.00 20.00     0.159 C 
HETATM    3  C3  UNL     1     -34.414  13.211  -4.961  1.00 20.00     0.023 C 
HETATM    4  C4  UNL     1     -36.212  16.355  -5.004  1.00 20.00     0.010 C 
HETATM    5  C5  UNL     1     -35.678  16.718  -3.611  1.00 20.00     0.013 C 
HETATM    6  C6  UNL     1     -35.269  15.463  -5.834  1.00 20.00     0.017 C 
HETATM    7  C7  UNL     1     -34.149  16.666  -3.522  1.00 20.00     0.063 C 
HETATM    8  C8  UNL     1     -36.049  14.775  -6.958  1.00 20.00     0.015 C 
HETATM    9  O12 UNL     1     -32.653  14.764  -3.403  1.00 20.00    -0.292 OA
ENDROOT
BRANCH   7  10
HETATM   10  C11 UNL     1     -33.683  17.054  -2.122  1.00 20.00    -0.011 C 
HETATM   11  C9  UNL     1     -33.552  18.572  -2.002  1.00 20.00     0.010 C 
HETATM   12  C10 UNL     1     -34.646  16.514  -1.066  1.00 20.00     0.010 C 
ENDBRANCH   7  10
TORSDOF 1
ENDMDL
MODEL 5
REMARK VINA RESULT:      -4.4      2.167      3.098
REMARK  1 active torsions:
REMARK  status: ('A' for Active; 'I' for Inactive)
REMARK    1  A    between atoms: C7_7  and  C11_11 
ROOT
HETATM    1  C1  UNL     1     -34.407  15.377  -3.026  1.00 20.00    -0.018 C 
HETATM    2  C2  UNL     1     -35.528  14.595  -3.647  1.00 20.00     0.159 C 
HETATM    3  C3  UNL     1     -33.168  15.169  -3.490  1.00 20.00     0.023 C 
HETATM    4  C4  UNL     1     -35.900  17.309  -2.455  1.00 20.00     0.010 C 
HETATM    5  C5  UNL     1     -36.806  16.741  -3.556  1.00 20.00     0.013 C 
HETATM    6  C6  UNL     1     -34.841  16.320  -1.930  1.00 20.00     0.017 C 
HETATM    7  C7  UNL     1     -36.918  15.213  -3.512  1.00 20.00     0.063 C 
HETATM    8  C8  UNL     1     -33.717  17.081  -1.221  1.00 20.00     0.015 C 
HETATM    9  O12 UNL     1     -35.335  13.508  -4.186  1.00 20.00    -0.292 OA
ENDROOT
BRANCH   7  10
HETATM   10  C11 UNL     1     -37.846  14.716  -4.618  1.00 20.00    -0.011 C 
HETATM   11  C9  UNL     1     -39.299  14.728  -4.146  1.00 20.00     0.010 C 
HETATM   12  C10 UNL     1     -37.683  15.564  -5.878  1.00 20.00     0.010 C 
ENDBRANCH   7  10
TORSDOF 1
ENDMDL
MODEL 6
REMARK VINA RESULT:      -4.3      1.726      2.807
REMARK  1 active torsions:
REMARK  status: ('A' for Active; 'I' for Inactive)
REMARK    1  A    between atoms: C7_7  and  C11_11 
ROOT
HETATM    1  C1  UNL     1     -34.842  16.715  -2.772  1.00 20.00    -0.018 C 
HETATM    2  C2  UNL     1     -35.583  15.720  -3.617  1.00 20.00     0.159 C 
HETATM    3  C3  UNL     1     -34.735  16.465  -1.460  1.00 20.00     0.023 C 
HETATM    4  C4  UNL     1     -33.374  17.429  -4.675  1.00 20.00     0.010 C 
HETATM    5  C5  UNL     1     -33.752  16.070  -5.280  1.00 20.00     0.013 C 
HETATM    6  C6  UNL     1     -34.302  17.899  -3.538  1.00 20.00     0.017 C 
HETATM    7  C7  UNL     1     -35.234  15.725  -5.104  1.00 20.00     0.063 C 
HETATM    8  C8  UNL     1     -33.604  18.974  -2.700  1.00 20.00     0.015 C 
HETATM    9  O12 UNL     1     -36.446  14.986  -3.140  1.00 20.00    -0.292 OA
ENDROOT
BRANCH   7  10
HETATM   10  C11 UNL     1     -35.547  14.374  -5.742  1.00 20.00    -0.011 C 
HETATM   11  C9  UNL     1     -35.417  14.456  -7.262  1.00 20.00     0.010 C 
HETATM   12  C10 UNL     1     -34.629  13.290  -5.182  1.00 20.00     0.010 C 
ENDBRANCH   7  10
TORSDOF 1
ENDMDL
MODEL 7
REMARK VINA RESULT:      -4.3      1.792      4.327
REMARK  1 active torsions:
REMARK  status: ('A' for Active; 'I' for Inactive)
REMARK    1  A    between atoms: C7_7  and  C11_11 
ROOT
HETATM    1  C1  UNL     1     -34.096  15.929  -5.604  1.00 20.00    -0.018 C 
HETATM    2  C2  UNL     1     -33.524  15.906  -4.217  1.00 20.00     0.159 C 
HETATM    3  C3  UNL     1     -34.404  14.756  -6.173  1.00 20.00     0.023 C 
HETATM    4  C4  UNL     1     -35.134  18.188  -5.276  1.00 20.00     0.010 C 
HETATM    5  C5  UNL     1     -35.025  17.856  -3.782  1.00 20.00     0.013 C 
HETATM    6  C6  UNL     1     -34.253  17.313  -6.188  1.00 20.00     0.017 C 
HETATM    7  C7  UNL     1     -33.695  17.191  -3.410  1.00 20.00     0.063 C 
HETATM    8  C8  UNL     1     -34.764  17.374  -7.630  1.00 20.00     0.015 C 
HETATM    9  O12 UNL     1     -32.918  14.928  -3.786  1.00 20.00    -0.292 OA
ENDROOT
BRANCH   7  10
HETATM   10  C11 UNL     1     -33.643  16.905  -1.911  1.00 20.00    -0.011 C 
HETATM   11  C9  UNL     1     -33.350  18.186  -1.130  1.00 20.00     0.010 C 
HETATM   12  C10 UNL     1     -34.952  16.276  -1.439  1.00 20.00     0.010 C 
ENDBRANCH   7  10
TORSDOF 1
ENDMDL
MODEL 8
REMARK VINA RESULT:      -4.3      2.566      4.267
REMARK  1 active torsions:
REMARK  status: ('A' for Active; 'I' for Inactive)
REMARK    1  A    between atoms: C7_7  and  C11_11 
ROOT
HETATM    1  C1  UNL     1     -35.063  14.327  -3.974  1.00 20.00    -0.018 C 
HETATM    2  C2  UNL     1     -36.440  14.841  -3.672  1.00 20.00     0.159 C 
HETATM    3  C3  UNL     1     -34.955  13.270  -4.790  1.00 20.00     0.023 C 
HETATM    4  C4  UNL     1     -34.015  16.585  -3.677  1.00 20.00     0.010 C 
HETATM    5  C5  UNL     1     -35.432  17.112  -3.940  1.00 20.00     0.013 C 
HETATM    6  C6  UNL     1     -33.952  15.093  -3.297  1.00 20.00     0.017 C 
HETATM    7  C7  UNL     1     -36.517  16.300  -3.226  1.00 20.00     0.063 C 
HETATM    8  C8  UNL     1     -32.537  14.552  -3.521  1.00 20.00     0.015 C 
HETATM    9  O12 UNL     1     -37.429  14.115  -3.739  1.00 20.00    -0.292 OA
ENDROOT
BRANCH   7  10
HETATM   10  C11 UNL     1     -37.897  16.886  -3.514  1.00 20.00    -0.011 C 
HETATM   11  C9  UNL     1     -38.255  17.951  -2.478  1.00 20.00     0.010 C 
HETATM   12  C10 UNL     1     -37.950  17.469  -4.924  1.00 20.00     0.010 C 
ENDBRANCH   7  10
TORSDOF 1
ENDMDL
MODEL 9
REMARK VINA RESULT:      -4.2      1.988      3.487
REMARK  1 active torsions:
REMARK  status: ('A' for Active; 'I' for Inactive)
REMARK    1  A    between atoms: C7_7  and  C11_11 
ROOT
HETATM    1  C1  UNL     1     -34.534  15.931  -3.072  1.00 20.00    -0.018 C 
HETATM    2  C2  UNL     1     -35.837  16.404  -3.650  1.00 20.00     0.159 C 
HETATM    3  C3  UNL     1     -34.172  16.407  -1.874  1.00 20.00     0.023 C 
HETATM    4  C4  UNL     1     -34.663  13.724  -4.256  1.00 20.00     0.010 C 
HETATM    5  C5  UNL     1     -36.167  14.023  -4.332  1.00 20.00     0.013 C 
HETATM    6  C6  UNL     1     -33.787  14.953  -3.947  1.00 20.00     0.017 C 
HETATM    7  C7  UNL     1     -36.473  15.482  -4.688  1.00 20.00     0.063 C 
HETATM    8  C8  UNL     1     -32.418  14.505  -3.426  1.00 20.00     0.015 C 
HETATM    9  O12 UNL     1     -36.327  17.485  -3.334  1.00 20.00    -0.292 OA
ENDROOT
BRANCH   7  10
HETATM   10  C11 UNL     1     -37.981  15.706  -4.766  1.00 20.00    -0.011 C 
HETATM   11  C9  UNL     1     -38.503  15.361  -6.159  1.00 20.00     0.010 C 
HETATM   12  C10 UNL     1     -38.703  14.881  -3.702  1.00 20.00     0.010 C 
ENDBRANCH   7  10
TORSDOF 1
ENDMDL
