MODEL 1
REMARK VINA RESULT:      -4.4      0.000      0.000
REMARK  1 active torsions:
REMARK  status: ('A' for Active; 'I' for Inactive)
REMARK    1  A    between atoms: C8_8  and  O9_9 
ROOT
HETATM    1  C1  UNL     1     -36.156  13.984  -4.134  1.00 20.00     0.010 C 
HETATM    2  C2  UNL     1     -33.851  13.553  -3.779  1.00 20.00     0.012 C 
HETATM    3  C3  UNL     1     -34.709  14.383  -5.971  1.00 20.00     0.012 C 
HETATM    4  C4  UNL     1     -34.950  13.367  -4.840  1.00 20.00    -0.013 C 
HETATM    5  C5  UNL     1     -35.505  15.334  -3.878  1.00 20.00    -0.001 C 
HETATM    6  C6  UNL     1     -34.067  15.017  -3.351  1.00 20.00     0.019 C 
HETATM    7  C7  UNL     1     -34.798  15.724  -5.217  1.00 20.00     0.019 C 
HETATM    8  C8  UNL     1     -33.568  16.102  -4.346  1.00 20.00     0.127 C 
ENDROOT
BRANCH   8   9
HETATM    9  O9  UNL     1     -32.268  15.902  -4.926  1.00 20.00    -0.395 OA
HETATM   10  H21 UNL     1     -32.423  15.708  -5.859  1.00 20.00     0.210 HD
ENDBRANCH   8   9
TORSDOF 1
ENDMDL
MODEL 2
REMARK VINA RESULT:      -4.3     11.211     12.436
REMARK  1 active torsions:
REMARK  status: ('A' for Active; 'I' for Inactive)
REMARK    1  A    between atoms: C8_8  and  O9_9 
ROOT
HETATM    1  C1  UNL     1     -42.628   4.249   0.295  1.00 20.00     0.010 C 
HETATM    2  C2  UNL     1     -40.848   4.499  -1.253  1.00 20.00     0.012 C 
HETATM    3  C3  UNL     1     -43.154   5.306  -1.762  1.00 20.00     0.012 C 
HETATM    4  C4  UNL     1     -42.341   4.127  -1.201  1.00 20.00    -0.013 C 
HETATM    5  C5  UNL     1     -42.153   5.687   0.422  1.00 20.00    -0.001 C 
HETATM    6  C6  UNL     1     -40.804   5.758  -0.366  1.00 20.00     0.019 C 
HETATM    7  C7  UNL     1     -42.768   6.446  -0.800  1.00 20.00     0.019 C 
HETATM    8  C8  UNL     1     -41.356   7.064  -1.003  1.00 20.00     0.127 C 
ENDROOT
BRANCH   8   9
HETATM    9  O9  UNL     1     -40.955   7.347  -2.354  1.00 20.00    -0.395 OA
HETATM   10  H21 UNL     1     -41.772   7.501  -2.846  1.00 20.00     0.210 HD
ENDBRANCH   8   9
TORSDOF 1
ENDMDL
MODEL 3
REMARK VINA RESULT:      -4.3      1.796      2.662
REMARK  1 active torsions:
REMARK  status: ('A' for Active; 'I' for Inactive)
REMARK    1  A    between atoms: C8_8  and  O9_9 
ROOT
HETATM    1  C1  UNL     1     -34.401  16.827  -4.588  1.00 20.00     0.010 C 
HETATM    2  C2  UNL     1     -35.564  15.404  -3.090  1.00 20.00     0.012 C 
HETATM    3  C3  UNL     1     -35.846  15.219  -5.563  1.00 20.00     0.012 C 
HETATM    4  C4  UNL     1     -35.782  16.207  -4.385  1.00 20.00    -0.013 C 
HETATM    5  C5  UNL     1     -33.642  15.510  -4.577  1.00 20.00    -0.001 C 
HETATM    6  C6  UNL     1     -34.227  14.695  -3.377  1.00 20.00     0.019 C 
HETATM    7  C7  UNL     1     -34.467  14.538  -5.483  1.00 20.00     0.019 C 
HETATM    8  C8  UNL     1     -34.288  13.486  -4.353  1.00 20.00     0.127 C 
ENDROOT
BRANCH   8   9
HETATM    9  O9  UNL     1     -35.358  12.548  -4.156  1.00 20.00    -0.395 OA
HETATM   10  H21 UNL     1     -35.391  12.379  -3.206  1.00 20.00     0.210 HD
ENDBRANCH   8   9
TORSDOF 1
ENDMDL
MODEL 4
REMARK VINA RESULT:      -4.2      1.599      2.876
REMARK  1 active torsions:
REMARK  status: ('A' for Active; 'I' for Inactive)
REMARK    1  A    between atoms: C8_8  and  O9_9 
ROOT
HETATM    1  C1  UNL     1     -34.200  16.887  -3.833  1.00 20.00     0.010 C 
HETATM    2  C2  UNL     1     -34.187  15.512  -5.764  1.00 20.00     0.012 C 
HETATM    3  C3  UNL     1     -32.983  14.857  -3.679  1.00 20.00     0.012 C 
HETATM    4  C4  UNL     1     -33.249  16.017  -4.654  1.00 20.00    -0.013 C 
HETATM    5  C5  UNL     1     -35.226  15.794  -3.583  1.00 20.00    -0.001 C 
HETATM    6  C6  UNL     1     -35.429  15.082  -4.961  1.00 20.00     0.019 C 
HETATM    7  C7  UNL     1     -34.403  14.525  -3.184  1.00 20.00     0.019 C 
HETATM    8  C8  UNL     1     -35.309  13.744  -4.178  1.00 20.00     0.127 C 
ENDROOT
BRANCH   8   9
HETATM    9  O9  UNL     1     -34.713  12.637  -4.874  1.00 20.00    -0.395 OA
HETATM   10  H21 UNL     1     -35.418  12.250  -5.408  1.00 20.00     0.210 HD
ENDBRANCH   8   9
TORSDOF 1
ENDMDL
MODEL 5
REMARK VINA RESULT:      -4.2      1.766      2.895
REMARK  1 active torsions:
REMARK  status: ('A' for Active; 'I' for Inactive)
REMARK    1  A    between atoms: C8_8  and  O9_9 
ROOT
HETATM    1  C1  UNL     1     -34.076  16.878  -3.983  1.00 20.00     0.010 C 
HETATM    2  C2  UNL     1     -33.115  14.721  -3.768  1.00 20.00     0.012 C 
HETATM    3  C3  UNL     1     -35.205  15.353  -2.561  1.00 20.00     0.012 C 
HETATM    4  C4  UNL     1     -33.784  15.818  -2.922  1.00 20.00    -0.013 C 
HETATM    5  C5  UNL     1     -34.878  15.963  -4.893  1.00 20.00    -0.001 C 
HETATM    6  C6  UNL     1     -34.063  14.631  -4.979  1.00 20.00     0.019 C 
HETATM    7  C7  UNL     1     -35.843  15.170  -3.951  1.00 20.00     0.019 C 
HETATM    8  C8  UNL     1     -35.413  13.901  -4.739  1.00 20.00     0.127 C 
ENDROOT
BRANCH   8   9
HETATM    9  O9  UNL     1     -35.361  12.664  -4.009  1.00 20.00    -0.395 OA
HETATM   10  H21 UNL     1     -36.248  12.285  -4.067  1.00 20.00     0.210 HD
ENDBRANCH   8   9
TORSDOF 1
ENDMDL
MODEL 6
REMARK VINA RESULT:      -4.2     11.835     13.171
REMARK  1 active torsions:
REMARK  status: ('A' for Active; 'I' for Inactive)
REMARK    1  A    between atoms: C8_8  and  O9_9 
ROOT
HETATM    1  C1  UNL     1     -41.214   6.827  -1.259  1.00 20.00     0.010 C 
HETATM    2  C2  UNL     1     -40.602   4.552  -0.992  1.00 20.00     0.012 C 
HETATM    3  C3  UNL     1     -42.339   5.621   0.445  1.00 20.00     0.012 C 
HETATM    4  C4  UNL     1     -40.937   5.803  -0.160  1.00 20.00    -0.013 C 
HETATM    5  C5  UNL     1     -42.292   6.012  -1.955  1.00 20.00    -0.001 C 
HETATM    6  C6  UNL     1     -41.733   4.554  -2.039  1.00 20.00     0.019 C 
HETATM    7  C7  UNL     1     -43.212   5.465  -0.815  1.00 20.00     0.019 C 
HETATM    8  C8  UNL     1     -43.130   4.092  -1.538  1.00 20.00     0.127 C 
ENDROOT
BRANCH   8   9
HETATM    9  O9  UNL     1     -43.167   2.915  -0.715  1.00 20.00    -0.395 OA
HETATM   10  H21 UNL     1     -44.100   2.675  -0.639  1.00 20.00     0.210 HD
ENDBRANCH   8   9
TORSDOF 1
ENDMDL
MODEL 7
REMARK VINA RESULT:      -4.2     11.033     12.303
REMARK  1 active torsions:
REMARK  status: ('A' for Active; 'I' for Inactive)
REMARK    1  A    between atoms: C8_8  and  O9_9 
ROOT
HETATM    1  C1  UNL     1     -43.144   7.395  -0.753  1.00 20.00     0.010 C 
HETATM    2  C2  UNL     1     -42.245   6.087  -2.514  1.00 20.00     0.012 C 
HETATM    3  C3  UNL     1     -40.790   7.108  -0.763  1.00 20.00     0.012 C 
HETATM    4  C4  UNL     1     -41.963   7.376  -1.722  1.00 20.00    -0.013 C 
HETATM    5  C5  UNL     1     -42.881   6.017  -0.167  1.00 20.00    -0.001 C 
HETATM    6  C6  UNL     1     -42.580   5.089  -1.390  1.00 20.00     0.019 C 
HETATM    7  C7  UNL     1     -41.341   5.959   0.102  1.00 20.00     0.019 C 
HETATM    8  C8  UNL     1     -41.375   4.556  -0.566  1.00 20.00     0.127 C 
ENDROOT
BRANCH   8   9
HETATM    9  O9  UNL     1     -40.210   4.155  -1.306  1.00 20.00    -0.395 OA
HETATM   10  H21 UNL     1     -40.336   4.493  -2.201  1.00 20.00     0.210 HD
ENDBRANCH   8   9
TORSDOF 1
ENDMDL
MODEL 8
REMARK VINA RESULT:      -4.2      1.521      2.138
REMARK  1 active torsions:
REMARK  status: ('A' for Active; 'I' for Inactive)
REMARK    1  A    between atoms: C8_8  and  O9_9 
ROOT
HETATM    1  C1  UNL     1     -34.796  16.035  -1.897  1.00 20.00     0.010 C 
HETATM    2  C2  UNL     1     -34.353  14.319  -3.473  1.00 20.00     0.012 C 
HETATM    3  C3  UNL     1     -35.678  16.346  -4.077  1.00 20.00     0.012 C 
HETATM    4  C4  UNL     1     -35.487  15.252  -3.012  1.00 20.00    -0.013 C 
HETATM    5  C5  UNL     1     -33.644  16.533  -2.755  1.00 20.00    -0.001 C 
HETATM    6  C6  UNL     1     -33.164  15.293  -3.579  1.00 20.00     0.019 C 
HETATM    7  C7  UNL     1     -34.292  17.019  -4.093  1.00 20.00     0.019 C 
HETATM    8  C8  UNL     1     -33.159  16.236  -4.814  1.00 20.00     0.127 C 
ENDROOT
BRANCH   8   9
HETATM    9  O9  UNL     1     -33.480  15.644  -6.084  1.00 20.00    -0.395 OA
HETATM   10  H21 UNL     1     -34.237  16.138  -6.423  1.00 20.00     0.210 HD
ENDBRANCH   8   9
TORSDOF 1
ENDMDL
MODEL 9
REMARK VINA RESULT:      -4.1     11.543     12.854
REMARK  1 active torsions:
REMARK  status: ('A' for Active; 'I' for Inactive)
REMARK    1  A    between atoms: C8_8  and  O9_9 
ROOT
HETATM    1  C1  UNL     1     -41.179   7.252  -1.132  1.00 20.00     0.010 C 
HETATM    2  C2  UNL     1     -43.274   6.359  -0.470  1.00 20.00     0.012 C 
HETATM    3  C3  UNL     1     -41.846   5.230  -2.177  1.00 20.00     0.012 C 
HETATM    4  C4  UNL     1     -42.418   6.586  -1.729  1.00 20.00    -0.013 C 
HETATM    5  C5  UNL     1     -40.874   6.140  -0.141  1.00 20.00    -0.001 C 
HETATM    6  C6  UNL     1     -42.246   5.767   0.511  1.00 20.00     0.019 C 
HETATM    7  C7  UNL     1     -41.029   4.805  -0.942  1.00 20.00     0.019 C 
HETATM    8  C8  UNL     1     -41.847   4.284   0.273  1.00 20.00     0.127 C 
ENDROOT
BRANCH   8   9
HETATM    9  O9  UNL     1     -42.913   3.361  -0.004  1.00 20.00    -0.395 OA
HETATM   10  H21 UNL     1     -43.451   3.331   0.797  1.00 20.00     0.210 HD
ENDBRANCH   8   9
TORSDOF 1
ENDMDL
