MODEL 1
REMARK VINA RESULT:      -4.7      0.000      0.000
REMARK  0 active torsions:
REMARK  status: ('A' for Active; 'I' for Inactive)
ROOT
HETATM    1  C1  UNL     1     -33.971  16.015  -4.991  1.00 20.00     0.142 C 
HETATM    2  C2  UNL     1     -35.255  13.417  -4.210  1.00 20.00     0.002 C 
HETATM    3  C3  UNL     1     -34.926  14.512  -3.198  1.00 20.00     0.016 C 
HETATM    4  C4  UNL     1     -34.875  13.750  -5.651  1.00 20.00     0.016 C 
HETATM    5  C5  UNL     1     -33.751  15.422  -3.589  1.00 20.00     0.014 C 
HETATM    6  C6  UNL     1     -34.861  15.250  -5.984  1.00 20.00     0.014 C 
HETATM    7  C7  UNL     1     -33.677  16.575  -2.569  1.00 20.00     0.023 C 
HETATM    8  C8  UNL     1     -32.416  14.665  -3.568  1.00 20.00     0.023 C 
HETATM    9  C9  UNL     1     -34.283  15.422  -7.402  1.00 20.00     0.023 C 
HETATM   10  C10 UNL     1     -36.274  15.850  -5.958  1.00 20.00     0.023 C 
HETATM   11  O11 UNL     1     -33.444  17.083  -5.311  1.00 20.00    -0.296 OA
ENDROOT
TORSDOF 0
ENDMDL
MODEL 2
REMARK VINA RESULT:      -4.7      0.160      3.322
REMARK  0 active torsions:
REMARK  status: ('A' for Active; 'I' for Inactive)
ROOT
HETATM    1  C1  UNL     1     -34.059  15.978  -4.985  1.00 20.00     0.142 C 
HETATM    2  C2  UNL     1     -35.080  13.277  -4.168  1.00 20.00     0.002 C 
HETATM    3  C3  UNL     1     -34.793  13.645  -5.622  1.00 20.00     0.016 C 
HETATM    4  C4  UNL     1     -34.808  14.395  -3.165  1.00 20.00     0.016 C 
HETATM    5  C5  UNL     1     -34.921  15.142  -5.946  1.00 20.00     0.014 C 
HETATM    6  C6  UNL     1     -33.732  15.403  -3.597  1.00 20.00     0.014 C 
HETATM    7  C7  UNL     1     -34.417  15.366  -7.386  1.00 20.00     0.023 C 
HETATM    8  C8  UNL     1     -36.377  15.619  -5.859  1.00 20.00     0.023 C 
HETATM    9  C9  UNL     1     -33.713  16.556  -2.575  1.00 20.00     0.023 C 
HETATM   10  C10 UNL     1     -32.337  14.763  -3.636  1.00 20.00     0.023 C 
HETATM   11  O11 UNL     1     -33.639  17.088  -5.322  1.00 20.00    -0.296 OA
ENDROOT
TORSDOF 0
ENDMDL
MODEL 3
REMARK VINA RESULT:      -4.6      1.625      3.743
REMARK  0 active torsions:
REMARK  status: ('A' for Active; 'I' for Inactive)
ROOT
HETATM    1  C1  UNL     1     -34.880  14.354  -4.988  1.00 20.00     0.142 C 
HETATM    2  C2  UNL     1     -33.801  17.145  -5.208  1.00 20.00     0.002 C 
HETATM    3  C3  UNL     1     -35.177  16.748  -5.738  1.00 20.00     0.016 C 
HETATM    4  C4  UNL     1     -33.018  16.006  -4.559  1.00 20.00     0.016 C 
HETATM    5  C5  UNL     1     -35.312  15.272  -6.143  1.00 20.00     0.014 C 
HETATM    6  C6  UNL     1     -33.884  14.894  -3.948  1.00 20.00     0.014 C 
HETATM    7  C7  UNL     1     -36.793  14.996  -6.468  1.00 20.00     0.023 C 
HETATM    8  C8  UNL     1     -34.471  14.945  -7.385  1.00 20.00     0.023 C 
HETATM    9  C9  UNL     1     -32.954  13.746  -3.510  1.00 20.00     0.023 C 
HETATM   10  C10 UNL     1     -34.661  15.389  -2.720  1.00 20.00     0.023 C 
HETATM   11  O11 UNL     1     -35.324  13.206  -4.898  1.00 20.00    -0.296 OA
ENDROOT
TORSDOF 0
ENDMDL
MODEL 4
REMARK VINA RESULT:      -4.6      1.625      2.795
REMARK  0 active torsions:
REMARK  status: ('A' for Active; 'I' for Inactive)
ROOT
HETATM    1  C1  UNL     1     -34.881  14.353  -4.989  1.00 20.00     0.142 C 
HETATM    2  C2  UNL     1     -33.801  17.144  -5.211  1.00 20.00     0.002 C 
HETATM    3  C3  UNL     1     -33.019  16.006  -4.559  1.00 20.00     0.016 C 
HETATM    4  C4  UNL     1     -35.177  16.747  -5.739  1.00 20.00     0.016 C 
HETATM    5  C5  UNL     1     -33.886  14.893  -3.949  1.00 20.00     0.014 C 
HETATM    6  C6  UNL     1     -35.312  15.271  -6.145  1.00 20.00     0.014 C 
HETATM    7  C7  UNL     1     -32.955  13.746  -3.510  1.00 20.00     0.023 C 
HETATM    8  C8  UNL     1     -34.663  15.388  -2.721  1.00 20.00     0.023 C 
HETATM    9  C9  UNL     1     -36.792  14.995  -6.472  1.00 20.00     0.023 C 
HETATM   10  C10 UNL     1     -34.469  14.944  -7.386  1.00 20.00     0.023 C 
HETATM   11  O11 UNL     1     -35.324  13.205  -4.898  1.00 20.00    -0.296 OA
ENDROOT
TORSDOF 0
ENDMDL
MODEL 5
REMARK VINA RESULT:      -4.5      1.582      3.027
REMARK  0 active torsions:
REMARK  status: ('A' for Active; 'I' for Inactive)
ROOT
HETATM    1  C1  UNL     1     -35.382  16.408  -4.651  1.00 20.00     0.142 C 
HETATM    2  C2  UNL     1     -33.264  14.447  -3.833  1.00 20.00     0.002 C 
HETATM    3  C3  UNL     1     -32.937  15.810  -4.439  1.00 20.00     0.016 C 
HETATM    4  C4  UNL     1     -34.756  14.163  -3.679  1.00 20.00     0.016 C 
HETATM    5  C5  UNL     1     -34.021  16.381  -5.366  1.00 20.00     0.014 C 
HETATM    6  C6  UNL     1     -35.636  15.410  -3.509  1.00 20.00     0.014 C 
HETATM    7  C7  UNL     1     -33.626  17.824  -5.735  1.00 20.00     0.023 C 
HETATM    8  C8  UNL     1     -34.150  15.565  -6.660  1.00 20.00     0.023 C 
HETATM    9  C9  UNL     1     -37.112  14.968  -3.556  1.00 20.00     0.023 C 
HETATM   10  C10 UNL     1     -35.379  16.109  -2.166  1.00 20.00     0.023 C 
HETATM   11  O11 UNL     1     -36.253  17.215  -4.988  1.00 20.00    -0.296 OA
ENDROOT
TORSDOF 0
ENDMDL
MODEL 6
REMARK VINA RESULT:      -4.5      1.583      2.586
REMARK  0 active torsions:
REMARK  status: ('A' for Active; 'I' for Inactive)
ROOT
HETATM    1  C1  UNL     1     -35.384  16.409  -4.657  1.00 20.00     0.142 C 
HETATM    2  C2  UNL     1     -33.264  14.451  -3.833  1.00 20.00     0.002 C 
HETATM    3  C3  UNL     1     -34.756  14.166  -3.678  1.00 20.00     0.016 C 
HETATM    4  C4  UNL     1     -32.938  15.814  -4.439  1.00 20.00     0.016 C 
HETATM    5  C5  UNL     1     -35.638  15.413  -3.513  1.00 20.00     0.014 C 
HETATM    6  C6  UNL     1     -34.021  16.382  -5.369  1.00 20.00     0.014 C 
HETATM    7  C7  UNL     1     -37.113  14.967  -3.563  1.00 20.00     0.023 C 
HETATM    8  C8  UNL     1     -35.386  16.114  -2.172  1.00 20.00     0.023 C 
HETATM    9  C9  UNL     1     -33.628  17.824  -5.742  1.00 20.00     0.023 C 
HETATM   10  C10 UNL     1     -34.147  15.562  -6.661  1.00 20.00     0.023 C 
HETATM   11  O11 UNL     1     -36.256  17.213  -4.996  1.00 20.00    -0.296 OA
ENDROOT
TORSDOF 0
ENDMDL
MODEL 7
REMARK VINA RESULT:      -4.4      1.611      2.402
REMARK  0 active torsions:
REMARK  status: ('A' for Active; 'I' for Inactive)
ROOT
HETATM    1  C1  UNL     1     -34.014  15.590  -3.829  1.00 20.00     0.142 C 
HETATM    2  C2  UNL     1     -36.997  15.845  -3.629  1.00 20.00     0.002 C 
HETATM    3  C3  UNL     1     -36.057  17.040  -3.498  1.00 20.00     0.016 C 
HETATM    4  C4  UNL     1     -36.297  14.510  -3.869  1.00 20.00     0.016 C 
HETATM    5  C5  UNL     1     -34.651  16.701  -2.978  1.00 20.00     0.014 C 
HETATM    6  C6  UNL     1     -34.937  14.612  -4.576  1.00 20.00     0.014 C 
HETATM    7  C7  UNL     1     -33.780  17.969  -3.086  1.00 20.00     0.023 C 
HETATM    8  C8  UNL     1     -34.680  16.254  -1.510  1.00 20.00     0.023 C 
HETATM    9  C9  UNL     1     -34.285  13.215  -4.572  1.00 20.00     0.023 C 
HETATM   10  C10 UNL     1     -35.086  15.076  -6.032  1.00 20.00     0.023 C 
HETATM   11  O11 UNL     1     -32.787  15.486  -3.912  1.00 20.00    -0.296 OA
ENDROOT
TORSDOF 0
ENDMDL
MODEL 8
REMARK VINA RESULT:      -4.4      1.608      3.377
REMARK  0 active torsions:
REMARK  status: ('A' for Active; 'I' for Inactive)
ROOT
HETATM    1  C1  UNL     1     -33.992  15.589  -3.822  1.00 20.00     0.142 C 
HETATM    2  C2  UNL     1     -36.978  15.829  -3.641  1.00 20.00     0.002 C 
HETATM    3  C3  UNL     1     -36.270  14.497  -3.876  1.00 20.00     0.016 C 
HETATM    4  C4  UNL     1     -36.043  17.029  -3.508  1.00 20.00     0.016 C 
HETATM    5  C5  UNL     1     -34.905  14.605  -4.573  1.00 20.00     0.014 C 
HETATM    6  C6  UNL     1     -34.640  16.699  -2.977  1.00 20.00     0.014 C 
HETATM    7  C7  UNL     1     -34.247  13.211  -4.560  1.00 20.00     0.023 C 
HETATM    8  C8  UNL     1     -35.046  15.064  -6.031  1.00 20.00     0.023 C 
HETATM    9  C9  UNL     1     -33.775  17.970  -3.080  1.00 20.00     0.023 C 
HETATM   10  C10 UNL     1     -34.678  16.253  -1.509  1.00 20.00     0.023 C 
HETATM   11  O11 UNL     1     -32.764  15.490  -3.896  1.00 20.00    -0.296 OA
ENDROOT
TORSDOF 0
ENDMDL
MODEL 9
REMARK VINA RESULT:      -4.3      1.763      2.840
REMARK  0 active torsions:
REMARK  status: ('A' for Active; 'I' for Inactive)
ROOT
HETATM    1  C1  UNL     1     -35.734  15.555  -3.778  1.00 20.00     0.142 C 
HETATM    2  C2  UNL     1     -33.166  16.342  -5.116  1.00 20.00     0.002 C 
HETATM    3  C3  UNL     1     -33.314  16.256  -3.598  1.00 20.00     0.016 C 
HETATM    4  C4  UNL     1     -34.432  15.997  -5.897  1.00 20.00     0.016 C 
HETATM    5  C5  UNL     1     -34.739  16.492  -3.074  1.00 20.00     0.014 C 
HETATM    6  C6  UNL     1     -35.388  15.030  -5.181  1.00 20.00     0.014 C 
HETATM    7  C7  UNL     1     -34.752  16.184  -1.564  1.00 20.00     0.023 C 
HETATM    8  C8  UNL     1     -35.187  17.945  -3.279  1.00 20.00     0.023 C 
HETATM    9  C9  UNL     1     -36.684  14.935  -6.009  1.00 20.00     0.023 C 
HETATM   10  C10 UNL     1     -34.785  13.624  -5.056  1.00 20.00     0.023 C 
HETATM   11  O11 UNL     1     -36.790  15.231  -3.228  1.00 20.00    -0.296 OA
ENDROOT
TORSDOF 0
ENDMDL
