MODEL 1
REMARK VINA RESULT:      -3.3      0.000      0.000
REMARK  1 active torsions:
REMARK  status: ('A' for Active; 'I' for Inactive)
REMARK    1  A    between atoms: C2_2  and  O3_3 
ROOT
HETATM    1  C2  UNL     1     -33.923   5.723   4.841  1.00 20.00     0.314 C 
HETATM    2 CL4  UNL     1     -34.001   6.585   6.396  1.00 20.00    -0.078 Cl
HETATM    3 CL5  UNL     1     -35.461   4.890   4.540  1.00 20.00    -0.078 Cl
ENDROOT
BRANCH   1   4
HETATM    4  O3  UNL     1     -33.675   6.675   3.813  1.00 20.00    -0.362 OA
HETATM    5  C1  UNL     1     -32.372   6.554   3.258  1.00 20.00     0.204 C 
ENDBRANCH   1   4
TORSDOF 1
ENDMDL
MODEL 2
REMARK VINA RESULT:      -3.2      1.101      2.005
REMARK  1 active torsions:
REMARK  status: ('A' for Active; 'I' for Inactive)
REMARK    1  A    between atoms: C2_2  and  O3_3 
ROOT
HETATM    1  C2  UNL     1     -34.859   5.533   5.115  1.00 20.00     0.314 C 
HETATM    2 CL4  UNL     1     -34.862   3.840   5.660  1.00 20.00    -0.078 Cl
HETATM    3 CL5  UNL     1     -33.957   6.534   6.270  1.00 20.00    -0.078 Cl
ENDROOT
BRANCH   1   4
HETATM    4  O3  UNL     1     -34.241   5.591   3.834  1.00 20.00    -0.362 OA
HETATM    5  C1  UNL     1     -33.080   6.411   3.825  1.00 20.00     0.204 C 
ENDBRANCH   1   4
TORSDOF 1
ENDMDL
MODEL 3
REMARK VINA RESULT:      -3.2      1.970      2.587
REMARK  1 active torsions:
REMARK  status: ('A' for Active; 'I' for Inactive)
REMARK    1  A    between atoms: C2_2  and  O3_3 
ROOT
HETATM    1  C2  UNL     1     -34.261   6.119   4.479  1.00 20.00     0.314 C 
HETATM    2 CL4  UNL     1     -33.948   6.477   6.193  1.00 20.00    -0.078 Cl
HETATM    3 CL5  UNL     1     -32.738   6.164   3.569  1.00 20.00    -0.078 Cl
ENDROOT
BRANCH   1   4
HETATM    4  O3  UNL     1     -34.843   4.823   4.391  1.00 20.00    -0.362 OA
HETATM    5  C1  UNL     1     -34.918   4.170   5.651  1.00 20.00     0.204 C 
ENDBRANCH   1   4
TORSDOF 1
ENDMDL
MODEL 4
REMARK VINA RESULT:      -3.1      1.983      2.526
REMARK  1 active torsions:
REMARK  status: ('A' for Active; 'I' for Inactive)
REMARK    1  A    between atoms: C2_2  and  O3_3 
ROOT
HETATM    1  C2  UNL     1     -33.952   6.494   4.135  1.00 20.00     0.314 C 
HETATM    2 CL4  UNL     1     -32.421   6.109   3.316  1.00 20.00    -0.078 Cl
HETATM    3 CL5  UNL     1     -35.203   5.334   3.643  1.00 20.00    -0.078 Cl
ENDROOT
BRANCH   1   4
HETATM    4  O3  UNL     1     -33.742   6.416   5.541  1.00 20.00    -0.362 OA
HETATM    5  C1  UNL     1     -34.561   5.435   6.162  1.00 20.00     0.204 C 
ENDBRANCH   1   4
TORSDOF 1
ENDMDL
MODEL 5
REMARK VINA RESULT:      -3.1      1.890      2.146
REMARK  1 active torsions:
REMARK  status: ('A' for Active; 'I' for Inactive)
REMARK    1  A    between atoms: C2_2  and  O3_3 
ROOT
HETATM    1  C2  UNL     1     -34.365   5.193   4.598  1.00 20.00     0.314 C 
HETATM    2 CL4  UNL     1     -34.961   4.273   5.999  1.00 20.00    -0.078 Cl
HETATM    3 CL5  UNL     1     -35.724   5.615   3.537  1.00 20.00    -0.078 Cl
ENDROOT
BRANCH   1   4
HETATM    4  O3  UNL     1     -33.733   6.376   5.074  1.00 20.00    -0.362 OA
HETATM    5  C1  UNL     1     -33.965   6.600   6.458  1.00 20.00     0.204 C 
ENDBRANCH   1   4
TORSDOF 1
ENDMDL
MODEL 6
REMARK VINA RESULT:      -3.1      2.001      2.935
REMARK  1 active torsions:
REMARK  status: ('A' for Active; 'I' for Inactive)
REMARK    1  A    between atoms: C2_2  and  O3_3 
ROOT
HETATM    1  C2  UNL     1     -33.617   5.861   4.192  1.00 20.00     0.314 C 
HETATM    2 CL4  UNL     1     -35.226   5.503   3.525  1.00 20.00    -0.078 Cl
HETATM    3 CL5  UNL     1     -32.750   6.966   3.107  1.00 20.00    -0.078 Cl
ENDROOT
BRANCH   1   4
HETATM    4  O3  UNL     1     -33.784   6.465   5.470  1.00 20.00    -0.362 OA
HETATM    5  C1  UNL     1     -34.520   5.646   6.369  1.00 20.00     0.204 C 
ENDBRANCH   1   4
TORSDOF 1
ENDMDL
MODEL 7
REMARK VINA RESULT:      -2.9      1.963      2.912
REMARK  1 active torsions:
REMARK  status: ('A' for Active; 'I' for Inactive)
REMARK    1  A    between atoms: C2_2  and  O3_3 
ROOT
HETATM    1  C2  UNL     1     -33.685   5.750   4.910  1.00 20.00     0.314 C 
HETATM    2 CL4  UNL     1     -33.317   6.792   3.517  1.00 20.00    -0.078 Cl
HETATM    3 CL5  UNL     1     -33.891   6.745   6.366  1.00 20.00    -0.078 Cl
ENDROOT
BRANCH   1   4
HETATM    4  O3  UNL     1     -34.886   5.038   4.633  1.00 20.00    -0.362 OA
HETATM    5  C1  UNL     1     -35.129   3.993   5.565  1.00 20.00     0.204 C 
ENDBRANCH   1   4
TORSDOF 1
ENDMDL
MODEL 8
REMARK VINA RESULT:      -2.6     11.957     12.364
REMARK  1 active torsions:
REMARK  status: ('A' for Active; 'I' for Inactive)
REMARK    1  A    between atoms: C2_2  and  O3_3 
ROOT
HETATM    1  C2  UNL     1     -34.467  13.204  -4.941  1.00 20.00     0.314 C 
HETATM    2 CL4  UNL     1     -34.603  14.450  -6.203  1.00 20.00    -0.078 Cl
HETATM    3 CL5  UNL     1     -33.256  13.696  -3.740  1.00 20.00    -0.078 Cl
ENDROOT
BRANCH   1   4
HETATM    4  O3  UNL     1     -35.738  13.056  -4.317  1.00 20.00    -0.362 OA
HETATM    5  C1  UNL     1     -36.366  14.304  -4.054  1.00 20.00     0.204 C 
ENDBRANCH   1   4
TORSDOF 1
ENDMDL
MODEL 9
REMARK VINA RESULT:      -2.5      8.970      9.341
REMARK  1 active torsions:
REMARK  status: ('A' for Active; 'I' for Inactive)
REMARK    1  A    between atoms: C2_2  and  O3_3 
ROOT
HETATM    1  C2  UNL     1     -40.877   5.792  -0.197  1.00 20.00     0.314 C 
HETATM    2 CL4  UNL     1     -41.105   7.416  -0.886  1.00 20.00    -0.078 Cl
HETATM    3 CL5  UNL     1     -42.367   5.269   0.613  1.00 20.00    -0.078 Cl
ENDROOT
BRANCH   1   4
HETATM    4  O3  UNL     1     -40.559   4.896  -1.256  1.00 20.00    -0.362 OA
HETATM    5  C1  UNL     1     -41.711   4.449  -1.958  1.00 20.00     0.204 C 
ENDBRANCH   1   4
TORSDOF 1
ENDMDL
