MODEL 1
REMARK VINA RESULT:      -4.1      0.000      0.000
REMARK  3 active torsions:
REMARK  status: ('A' for Active; 'I' for Inactive)
REMARK    1  A    between atoms: C4_4  and  C5_5 
REMARK    2  A    between atoms: C5_5  and  C6_6 
REMARK    3  A    between atoms: C6_6  and  N7_7 
ROOT
HETATM    1  C1  UNL     1     -32.199   7.088   2.841  1.00 20.00     0.158 C 
HETATM    2  N7  UNL     1     -32.154   6.088   3.452  1.00 20.00    -0.271 NA
HETATM    3  S8  UNL     1     -32.227   8.446   2.008  1.00 20.00    -0.055 SA
ENDROOT
BRANCH   2   4
HETATM    4  C6  UNL     1     -33.454   5.594   3.921  1.00 20.00     0.105 C 
HETATM    5  C3  UNL     1     -34.406   5.582   2.731  1.00 20.00     0.034 C 
BRANCH   4   6
HETATM    6  C5  UNL     1     -33.971   6.510   5.035  1.00 20.00     0.026 C 
BRANCH   6   7
HETATM    7  C4  UNL     1     -34.374   5.730   6.290  1.00 20.00    -0.002 C 
HETATM    8  C2  UNL     1     -34.904   4.348   5.939  1.00 20.00     0.005 C 
ENDBRANCH   6   7
ENDBRANCH   4   6
ENDBRANCH   2   4
TORSDOF 3
ENDMDL
MODEL 2
REMARK VINA RESULT:      -4.0      0.899      1.610
REMARK  3 active torsions:
REMARK  status: ('A' for Active; 'I' for Inactive)
REMARK    1  A    between atoms: C4_4  and  C5_5 
REMARK    2  A    between atoms: C5_5  and  C6_6 
REMARK    3  A    between atoms: C6_6  and  N7_7 
ROOT
HETATM    1  C1  UNL     1     -32.204   7.567   2.551  1.00 20.00     0.158 C 
HETATM    2  N7  UNL     1     -32.348   6.717   3.347  1.00 20.00    -0.271 NA
HETATM    3  S8  UNL     1     -31.976   8.711   1.467  1.00 20.00    -0.055 SA
ENDROOT
BRANCH   2   4
HETATM    4  C6  UNL     1     -33.681   6.667   3.958  1.00 20.00     0.105 C 
HETATM    5  C3  UNL     1     -33.509   6.795   5.467  1.00 20.00     0.034 C 
BRANCH   4   6
HETATM    6  C5  UNL     1     -34.359   5.344   3.588  1.00 20.00     0.026 C 
BRANCH   6   7
HETATM    7  C4  UNL     1     -35.426   4.931   4.607  1.00 20.00    -0.002 C 
HETATM    8  C2  UNL     1     -34.913   3.843   5.538  1.00 20.00     0.005 C 
ENDBRANCH   6   7
ENDBRANCH   4   6
ENDBRANCH   2   4
TORSDOF 3
ENDMDL
MODEL 3
REMARK VINA RESULT:      -3.7      2.648      4.106
REMARK  3 active torsions:
REMARK  status: ('A' for Active; 'I' for Inactive)
REMARK    1  A    between atoms: C4_4  and  C5_5 
REMARK    2  A    between atoms: C5_5  and  C6_6 
REMARK    3  A    between atoms: C6_6  and  N7_7 
ROOT
HETATM    1  C1  UNL     1     -34.362   5.521   5.661  1.00 20.00     0.158 C 
HETATM    2  N7  UNL     1     -33.824   6.456   5.200  1.00 20.00    -0.271 NA
HETATM    3  S8  UNL     1     -35.086   4.262   6.317  1.00 20.00    -0.055 SA
ENDROOT
BRANCH   2   4
HETATM    4  C6  UNL     1     -33.787   6.483   3.733  1.00 20.00     0.105 C 
HETATM    5  C3  UNL     1     -34.702   5.377   3.221  1.00 20.00     0.034 C 
BRANCH   4   6
HETATM    6  C5  UNL     1     -32.345   6.274   3.259  1.00 20.00     0.026 C 
BRANCH   6   7
HETATM    7  C4  UNL     1     -31.590   7.596   3.090  1.00 20.00    -0.002 C 
HETATM    8  C2  UNL     1     -32.038   8.336   1.839  1.00 20.00     0.005 C 
ENDBRANCH   6   7
ENDBRANCH   4   6
ENDBRANCH   2   4
TORSDOF 3
ENDMDL
MODEL 4
REMARK VINA RESULT:      -3.6     11.911     12.593
REMARK  3 active torsions:
REMARK  status: ('A' for Active; 'I' for Inactive)
REMARK    1  A    between atoms: C4_4  and  C5_5 
REMARK    2  A    between atoms: C5_5  and  C6_6 
REMARK    3  A    between atoms: C6_6  and  N7_7 
ROOT
HETATM    1  C1  UNL     1     -33.623  16.134  -5.453  1.00 20.00     0.158 C 
HETATM    2  N7  UNL     1     -32.903  16.200  -4.529  1.00 20.00    -0.271 NA
HETATM    3  S8  UNL     1     -34.581  16.064  -6.724  1.00 20.00    -0.055 SA
ENDROOT
BRANCH   2   4
HETATM    4  C6  UNL     1     -33.321  15.409  -3.366  1.00 20.00     0.105 C 
HETATM    5  C3  UNL     1     -33.398  13.949  -3.795  1.00 20.00     0.034 C 
BRANCH   4   6
HETATM    6  C5  UNL     1     -34.681  15.914  -2.872  1.00 20.00     0.026 C 
BRANCH   6   7
HETATM    7  C4  UNL     1     -34.649  16.330  -1.398  1.00 20.00    -0.002 C 
HETATM    8  C2  UNL     1     -33.646  17.449  -1.159  1.00 20.00     0.005 C 
ENDBRANCH   6   7
ENDBRANCH   4   6
ENDBRANCH   2   4
TORSDOF 3
ENDMDL
MODEL 5
REMARK VINA RESULT:      -3.6      2.588      4.382
REMARK  3 active torsions:
REMARK  status: ('A' for Active; 'I' for Inactive)
REMARK    1  A    between atoms: C4_4  and  C5_5 
REMARK    2  A    between atoms: C5_5  and  C6_6 
REMARK    3  A    between atoms: C6_6  and  N7_7 
ROOT
HETATM    1  C1  UNL     1     -34.039   5.802   4.862  1.00 20.00     0.158 C 
HETATM    2  N7  UNL     1     -33.311   6.680   4.587  1.00 20.00    -0.271 NA
HETATM    3  S8  UNL     1     -35.026   4.620   5.266  1.00 20.00    -0.055 SA
ENDROOT
BRANCH   2   4
HETATM    4  C6  UNL     1     -32.926   6.740   3.172  1.00 20.00     0.105 C 
HETATM    5  C3  UNL     1     -32.326   5.391   2.793  1.00 20.00     0.034 C 
BRANCH   4   6
HETATM    6  C5  UNL     1     -31.914   7.873   2.970  1.00 20.00     0.026 C 
BRANCH   6   7
HETATM    7  C4  UNL     1     -31.912   8.403   1.533  1.00 20.00    -0.002 C 
HETATM    8  C2  UNL     1     -32.496   9.806   1.457  1.00 20.00     0.005 C 
ENDBRANCH   6   7
ENDBRANCH   4   6
ENDBRANCH   2   4
TORSDOF 3
ENDMDL
MODEL 6
REMARK VINA RESULT:      -3.5     11.230     12.117
REMARK  3 active torsions:
REMARK  status: ('A' for Active; 'I' for Inactive)
REMARK    1  A    between atoms: C4_4  and  C5_5 
REMARK    2  A    between atoms: C5_5  and  C6_6 
REMARK    3  A    between atoms: C6_6  and  N7_7 
ROOT
HETATM    1  C1  UNL     1     -34.698  16.474  -1.279  1.00 20.00     0.158 C 
HETATM    2  N7  UNL     1     -34.670  15.802  -2.240  1.00 20.00    -0.271 NA
HETATM    3  S8  UNL     1     -34.765  17.375   0.033  1.00 20.00    -0.055 SA
ENDROOT
BRANCH   2   4
HETATM    4  C6  UNL     1     -33.458  15.943  -3.055  1.00 20.00     0.105 C 
HETATM    5  C3  UNL     1     -33.731  16.995  -4.123  1.00 20.00     0.034 C 
BRANCH   4   6
HETATM    6  C5  UNL     1     -33.111  14.590  -3.685  1.00 20.00     0.026 C 
BRANCH   6   7
HETATM    7  C4  UNL     1     -34.299  13.624  -3.681  1.00 20.00    -0.002 C 
HETATM    8  C2  UNL     1     -34.804  13.356  -5.090  1.00 20.00     0.005 C 
ENDBRANCH   6   7
ENDBRANCH   4   6
ENDBRANCH   2   4
TORSDOF 3
ENDMDL
MODEL 7
REMARK VINA RESULT:      -3.5     11.417     12.405
REMARK  3 active torsions:
REMARK  status: ('A' for Active; 'I' for Inactive)
REMARK    1  A    between atoms: C4_4  and  C5_5 
REMARK    2  A    between atoms: C5_5  and  C6_6 
REMARK    3  A    between atoms: C6_6  and  N7_7 
ROOT
HETATM    1  C1  UNL     1     -34.897  15.834  -2.251  1.00 20.00     0.158 C 
HETATM    2  N7  UNL     1     -35.141  15.179  -3.193  1.00 20.00    -0.271 NA
HETATM    3  S8  UNL     1     -34.593  16.740  -0.976  1.00 20.00    -0.055 SA
ENDROOT
BRANCH   2   4
HETATM    4  C6  UNL     1     -34.122  14.177  -3.526  1.00 20.00     0.105 C 
HETATM    5  C3  UNL     1     -32.787  14.897  -3.674  1.00 20.00     0.034 C 
BRANCH   4   6
HETATM    6  C5  UNL     1     -34.515  13.467  -4.826  1.00 20.00     0.026 C 
BRANCH   6   7
HETATM    7  C4  UNL     1     -35.348  14.362  -5.749  1.00 20.00    -0.002 C 
HETATM    8  C2  UNL     1     -34.548  14.805  -6.964  1.00 20.00     0.005 C 
ENDBRANCH   6   7
ENDBRANCH   4   6
ENDBRANCH   2   4
TORSDOF 3
ENDMDL
MODEL 8
REMARK VINA RESULT:      -3.4     11.667     12.404
REMARK  3 active torsions:
REMARK  status: ('A' for Active; 'I' for Inactive)
REMARK    1  A    between atoms: C4_4  and  C5_5 
REMARK    2  A    between atoms: C5_5  and  C6_6 
REMARK    3  A    between atoms: C6_6  and  N7_7 
ROOT
HETATM    1  C1  UNL     1     -35.195  14.793  -5.891  1.00 20.00     0.158 C 
HETATM    2  N7  UNL     1     -35.112  14.943  -4.731  1.00 20.00    -0.271 NA
HETATM    3  S8  UNL     1     -35.342  14.588  -7.465  1.00 20.00    -0.055 SA
ENDROOT
BRANCH   2   4
HETATM    4  C6  UNL     1     -33.740  15.067  -4.224  1.00 20.00     0.105 C 
HETATM    5  C3  UNL     1     -33.301  13.697  -3.722  1.00 20.00     0.034 C 
BRANCH   4   6
HETATM    6  C5  UNL     1     -33.708  16.107  -3.099  1.00 20.00     0.026 C 
BRANCH   6   7
HETATM    7  C4  UNL     1     -34.855  15.920  -2.101  1.00 20.00    -0.002 C 
HETATM    8  C2  UNL     1     -34.588  16.665  -0.802  1.00 20.00     0.005 C 
ENDBRANCH   6   7
ENDBRANCH   4   6
ENDBRANCH   2   4
TORSDOF 3
ENDMDL
MODEL 9
REMARK VINA RESULT:      -3.4     12.039     12.817
REMARK  3 active torsions:
REMARK  status: ('A' for Active; 'I' for Inactive)
REMARK    1  A    between atoms: C4_4  and  C5_5 
REMARK    2  A    between atoms: C5_5  and  C6_6 
REMARK    3  A    between atoms: C6_6  and  N7_7 
ROOT
HETATM    1  C1  UNL     1     -33.384  17.208  -5.237  1.00 20.00     0.158 C 
HETATM    2  N7  UNL     1     -32.985  16.287  -4.630  1.00 20.00    -0.271 NA
HETATM    3  S8  UNL     1     -33.896  18.462  -6.076  1.00 20.00    -0.055 SA
ENDROOT
BRANCH   2   4
HETATM    4  C6  UNL     1     -33.967  15.674  -3.727  1.00 20.00     0.105 C 
HETATM    5  C3  UNL     1     -33.796  16.308  -2.352  1.00 20.00     0.034 C 
BRANCH   4   6
HETATM    6  C5  UNL     1     -33.731  14.161  -3.673  1.00 20.00     0.026 C 
BRANCH   6   7
HETATM    7  C4  UNL     1     -34.915  13.367  -4.231  1.00 20.00    -0.002 C 
HETATM    8  C2  UNL     1     -36.196  14.186  -4.203  1.00 20.00     0.005 C 
ENDBRANCH   6   7
ENDBRANCH   4   6
ENDBRANCH   2   4
TORSDOF 3
ENDMDL
