MODEL 1
REMARK VINA RESULT:      -5.0      0.000      0.000
REMARK  0 active torsions:
REMARK  status: ('A' for Active; 'I' for Inactive)
ROOT
HETATM    1  C1  UNL     1     -36.567  16.871  -3.762  1.00 20.00     0.009 A 
HETATM    2  C2  UNL     1     -36.159  17.374  -2.527  1.00 20.00     0.019 A 
HETATM    3  C3  UNL     1     -34.541  15.592  -2.331  1.00 20.00     0.034 A 
HETATM    4  C4  UNL     1     -34.950  15.085  -3.571  1.00 20.00     0.017 A 
HETATM    5  C5  UNL     1     -35.959  15.729  -4.304  1.00 20.00    -0.044 A 
HETATM    6  C6  UNL     1     -35.146  16.737  -1.814  1.00 20.00     0.011 A 
HETATM    7  C7  UNL     1     -34.314  13.852  -4.101  1.00 20.00     0.160 C 
HETATM    8  C8  UNL     1     -36.432  15.195  -5.628  1.00 20.00     0.040 C 
HETATM    9  C9  UNL     1     -34.796  13.312  -5.429  1.00 20.00     0.084 C 
HETATM   10  C10 UNL     1     -35.328  14.414  -6.330  1.00 20.00     0.012 C 
HETATM   11  O11 UNL     1     -33.457  13.263  -3.447  1.00 20.00    -0.292 OA
HETATM   12 BR12 UNL     1     -34.598  17.421  -0.139  1.00 20.00    -0.051 Br
ENDROOT
TORSDOF 0
ENDMDL
MODEL 2
REMARK VINA RESULT:      -4.9     11.741     12.914
REMARK  0 active torsions:
REMARK  status: ('A' for Active; 'I' for Inactive)
ROOT
HETATM    1  C1  UNL     1     -34.184   5.203   2.617  1.00 20.00     0.009 A 
HETATM    2  C2  UNL     1     -33.373   6.140   1.978  1.00 20.00     0.019 A 
HETATM    3  C3  UNL     1     -32.938   7.214   4.097  1.00 20.00     0.034 A 
HETATM    4  C4  UNL     1     -33.753   6.275   4.739  1.00 20.00     0.017 A 
HETATM    5  C5  UNL     1     -34.374   5.252   4.006  1.00 20.00    -0.044 A 
HETATM    6  C6  UNL     1     -32.749   7.142   2.717  1.00 20.00     0.011 A 
HETATM    7  C7  UNL     1     -33.967   6.376   6.206  1.00 20.00     0.160 C 
HETATM    8  C8  UNL     1     -35.272   4.242   4.668  1.00 20.00     0.040 C 
HETATM    9  C9  UNL     1     -34.875   5.364   6.869  1.00 20.00     0.084 C 
HETATM   10  C10 UNL     1     -34.884   4.038   6.127  1.00 20.00     0.012 C 
HETATM   11  O11 UNL     1     -33.457   7.291   6.848  1.00 20.00    -0.292 OA
HETATM   12 BR12 UNL     1     -31.651   8.411   1.846  1.00 20.00    -0.051 Br
ENDROOT
TORSDOF 0
ENDMDL
MODEL 3
REMARK VINA RESULT:      -4.9      3.245      4.090
REMARK  0 active torsions:
REMARK  status: ('A' for Active; 'I' for Inactive)
ROOT
HETATM    1  C1  UNL     1     -34.715  16.969  -6.245  1.00 20.00     0.009 A 
HETATM    2  C2  UNL     1     -35.885  16.812  -6.988  1.00 20.00     0.019 A 
HETATM    3  C3  UNL     1     -36.162  14.588  -6.087  1.00 20.00     0.034 A 
HETATM    4  C4  UNL     1     -34.988  14.744  -5.342  1.00 20.00     0.017 A 
HETATM    5  C5  UNL     1     -34.261  15.942  -5.404  1.00 20.00    -0.044 A 
HETATM    6  C6  UNL     1     -36.609  15.624  -6.907  1.00 20.00     0.011 A 
HETATM    7  C7  UNL     1     -34.510  13.625  -4.490  1.00 20.00     0.160 C 
HETATM    8  C8  UNL     1     -32.984  16.130  -4.630  1.00 20.00     0.040 C 
HETATM    9  C9  UNL     1     -33.222  13.812  -3.717  1.00 20.00     0.084 C 
HETATM   10  C10 UNL     1     -32.975  15.271  -3.371  1.00 20.00     0.012 C 
HETATM   11  O11 UNL     1     -35.121  12.560  -4.460  1.00 20.00    -0.292 OA
HETATM   12 BR12 UNL     1     -38.193  15.414  -7.917  1.00 20.00    -0.051 Br
ENDROOT
TORSDOF 0
ENDMDL
MODEL 4
REMARK VINA RESULT:      -4.9      1.355      1.358
REMARK  0 active torsions:
REMARK  status: ('A' for Active; 'I' for Inactive)
ROOT
HETATM    1  C1  UNL     1     -34.688  17.880  -4.573  1.00 20.00     0.009 A 
HETATM    2  C2  UNL     1     -34.324  18.289  -3.290  1.00 20.00     0.019 A 
HETATM    3  C3  UNL     1     -34.012  15.984  -2.640  1.00 20.00     0.034 A 
HETATM    4  C4  UNL     1     -34.378  15.572  -3.927  1.00 20.00     0.017 A 
HETATM    5  C5  UNL     1     -34.706  16.519  -4.909  1.00 20.00    -0.044 A 
HETATM    6  C6  UNL     1     -33.984  17.342  -2.326  1.00 20.00     0.011 A 
HETATM    7  C7  UNL     1     -34.426  14.121  -4.243  1.00 20.00     0.160 C 
HETATM    8  C8  UNL     1     -35.123  16.104  -6.295  1.00 20.00     0.040 C 
HETATM    9  C9  UNL     1     -34.852  13.705  -5.634  1.00 20.00     0.084 C 
HETATM   10  C10 UNL     1     -34.509  14.761  -6.672  1.00 20.00     0.012 C 
HETATM   11  O11 UNL     1     -34.176  13.287  -3.377  1.00 20.00    -0.292 OA
HETATM   12 BR12 UNL     1     -33.494  17.901  -0.588  1.00 20.00    -0.051 Br
ENDROOT
TORSDOF 0
ENDMDL
MODEL 5
REMARK VINA RESULT:      -4.9      1.761      1.926
REMARK  0 active torsions:
REMARK  status: ('A' for Active; 'I' for Inactive)
ROOT
HETATM    1  C1  UNL     1     -33.737  17.685  -4.414  1.00 20.00     0.009 A 
HETATM    2  C2  UNL     1     -33.827  17.820  -3.029  1.00 20.00     0.019 A 
HETATM    3  C3  UNL     1     -35.056  15.745  -2.903  1.00 20.00     0.034 A 
HETATM    4  C4  UNL     1     -34.967  15.608  -4.293  1.00 20.00     0.017 A 
HETATM    5  C5  UNL     1     -34.294  16.571  -5.060  1.00 20.00    -0.044 A 
HETATM    6  C6  UNL     1     -34.484  16.851  -2.275  1.00 20.00     0.011 A 
HETATM    7  C7  UNL     1     -35.601  14.438  -4.954  1.00 20.00     0.160 C 
HETATM    8  C8  UNL     1     -34.201  16.461  -6.558  1.00 20.00     0.040 C 
HETATM    9  C9  UNL     1     -35.512  14.331  -6.460  1.00 20.00     0.084 C 
HETATM   10  C10 UNL     1     -34.263  15.005  -7.004  1.00 20.00     0.012 C 
HETATM   11  O11 UNL     1     -36.223  13.611  -4.292  1.00 20.00    -0.292 OA
HETATM   12 BR12 UNL     1     -34.607  17.039  -0.398  1.00 20.00    -0.051 Br
ENDROOT
TORSDOF 0
ENDMDL
MODEL 6
REMARK VINA RESULT:      -4.8      1.869      2.562
REMARK  0 active torsions:
REMARK  status: ('A' for Active; 'I' for Inactive)
ROOT
HETATM    1  C1  UNL     1     -33.724  17.170  -2.620  1.00 20.00     0.009 A 
HETATM    2  C2  UNL     1     -34.698  18.026  -2.107  1.00 20.00     0.019 A 
HETATM    3  C3  UNL     1     -36.417  16.449  -2.734  1.00 20.00     0.034 A 
HETATM    4  C4  UNL     1     -35.440  15.589  -3.249  1.00 20.00     0.017 A 
HETATM    5  C5  UNL     1     -34.082  15.937  -3.184  1.00 20.00    -0.044 A 
HETATM    6  C6  UNL     1     -36.043  17.665  -2.162  1.00 20.00     0.011 A 
HETATM    7  C7  UNL     1     -35.853  14.307  -3.876  1.00 20.00     0.160 C 
HETATM    8  C8  UNL     1     -33.012  15.042  -3.749  1.00 20.00     0.040 C 
HETATM    9  C9  UNL     1     -34.777  13.411  -4.449  1.00 20.00     0.084 C 
HETATM   10  C10 UNL     1     -33.451  13.583  -3.726  1.00 20.00     0.012 C 
HETATM   11  O11 UNL     1     -37.042  14.014  -3.969  1.00 20.00    -0.292 OA
HETATM   12 BR12 UNL     1     -37.361  18.829  -1.469  1.00 20.00    -0.051 Br
ENDROOT
TORSDOF 0
ENDMDL
MODEL 7
REMARK VINA RESULT:      -4.8      3.228      4.809
REMARK  0 active torsions:
REMARK  status: ('A' for Active; 'I' for Inactive)
ROOT
HETATM    1  C1  UNL     1     -34.998  14.808  -3.321  1.00 20.00     0.009 A 
HETATM    2  C2  UNL     1     -34.963  14.511  -4.683  1.00 20.00     0.019 A 
HETATM    3  C3  UNL     1     -34.114  16.724  -5.146  1.00 20.00     0.034 A 
HETATM    4  C4  UNL     1     -34.149  17.023  -3.779  1.00 20.00     0.017 A 
HETATM    5  C5  UNL     1     -34.580  16.062  -2.853  1.00 20.00    -0.044 A 
HETATM    6  C6  UNL     1     -34.519  15.467  -5.594  1.00 20.00     0.011 A 
HETATM    7  C7  UNL     1     -33.737  18.374  -3.317  1.00 20.00     0.160 C 
HETATM    8  C8  UNL     1     -34.649  16.363  -1.380  1.00 20.00     0.040 C 
HETATM    9  C9  UNL     1     -33.813  18.677  -1.836  1.00 20.00     0.084 C 
HETATM   10  C10 UNL     1     -33.631  17.428  -0.991  1.00 20.00     0.012 C 
HETATM   11  O11 UNL     1     -33.395  19.232  -4.126  1.00 20.00    -0.292 OA
HETATM   12 BR12 UNL     1     -34.474  15.062  -7.440  1.00 20.00    -0.051 Br
ENDROOT
TORSDOF 0
ENDMDL
MODEL 8
REMARK VINA RESULT:      -4.7      2.350      2.879
REMARK  0 active torsions:
REMARK  status: ('A' for Active; 'I' for Inactive)
ROOT
HETATM    1  C1  UNL     1     -34.173  15.227  -2.918  1.00 20.00     0.009 A 
HETATM    2  C2  UNL     1     -33.937  16.419  -2.233  1.00 20.00     0.019 A 
HETATM    3  C3  UNL     1     -33.916  17.623  -4.326  1.00 20.00     0.034 A 
HETATM    4  C4  UNL     1     -34.152  16.427  -5.016  1.00 20.00     0.017 A 
HETATM    5  C5  UNL     1     -34.297  15.220  -4.315  1.00 20.00    -0.044 A 
HETATM    6  C6  UNL     1     -33.811  17.615  -2.936  1.00 20.00     0.011 A 
HETATM    7  C7  UNL     1     -34.239  16.445  -6.499  1.00 20.00     0.160 C 
HETATM    8  C8  UNL     1     -34.530  13.917  -5.032  1.00 20.00     0.040 C 
HETATM    9  C9  UNL     1     -34.468  15.134  -7.218  1.00 20.00     0.084 C 
HETATM   10  C10 UNL     1     -35.239  14.144  -6.362  1.00 20.00     0.012 C 
HETATM   11  O11 UNL     1     -34.077  17.492  -7.119  1.00 20.00    -0.292 OA
HETATM   12 BR12 UNL     1     -33.488  19.227  -2.003  1.00 20.00    -0.051 Br
ENDROOT
TORSDOF 0
ENDMDL
MODEL 9
REMARK VINA RESULT:      -4.6      5.294      7.146
REMARK  0 active torsions:
REMARK  status: ('A' for Active; 'I' for Inactive)
ROOT
HETATM    1  C1  UNL     1     -31.464  19.186   2.091  1.00 20.00     0.009 A 
HETATM    2  C2  UNL     1     -31.489  19.236   3.485  1.00 20.00     0.019 A 
HETATM    3  C3  UNL     1     -33.770  18.443   3.476  1.00 20.00     0.034 A 
HETATM    4  C4  UNL     1     -33.747  18.393   2.077  1.00 20.00     0.017 A 
HETATM    5  C5  UNL     1     -32.587  18.752   1.373  1.00 20.00    -0.044 A 
HETATM    6  C6  UNL     1     -32.640  18.863   4.176  1.00 20.00     0.011 A 
HETATM    7  C7  UNL     1     -34.965  17.967   1.341  1.00 20.00     0.160 C 
HETATM    8  C8  UNL     1     -32.541  18.728  -0.131  1.00 20.00     0.040 C 
HETATM    9  C9  UNL     1     -34.919  17.950  -0.171  1.00 20.00     0.084 C 
HETATM   10  C10 UNL     1     -33.514  17.699  -0.693  1.00 20.00     0.012 C 
HETATM   11  O11 UNL     1     -35.994  17.688   1.950  1.00 20.00    -0.292 OA
HETATM   12 BR12 UNL     1     -32.670  18.935   6.065  1.00 20.00    -0.051 Br
ENDROOT
TORSDOF 0
ENDMDL
