MODEL 1
REMARK VINA RESULT:      -3.4      0.000      0.000
REMARK  1 active torsions:
REMARK  status: ('A' for Active; 'I' for Inactive)
REMARK    1  A    between atoms: C2_2  and  C4_4 
ROOT
HETATM    1  C1  UNL     1     -32.321   6.134   3.338  1.00 20.00     0.207 A 
HETATM    2  C2  UNL     1     -33.671   6.113   4.016  1.00 20.00     0.091 A 
HETATM    3  C3  UNL     1     -34.798   5.357   3.392  1.00 20.00     0.049 C 
HETATM    4  O5  UNL     1     -33.231   7.240   3.245  1.00 20.00    -0.374 OA
ENDROOT
BRANCH   2   5
HETATM    5  C4  UNL     1     -33.761   6.386   5.483  1.00 20.00     0.154 C 
HETATM    6 CL6  UNL     1     -34.780   5.172   6.301  1.00 20.00    -0.127 Cl
ENDBRANCH   2   5
TORSDOF 1
ENDMDL
MODEL 2
REMARK VINA RESULT:      -3.4      2.538      3.208
REMARK  1 active torsions:
REMARK  status: ('A' for Active; 'I' for Inactive)
REMARK    1  A    between atoms: C2_2  and  C4_4 
ROOT
HETATM    1  C1  UNL     1     -34.311   4.146   5.801  1.00 20.00     0.207 A 
HETATM    2  C2  UNL     1     -34.278   5.594   5.371  1.00 20.00     0.091 A 
HETATM    3  C3  UNL     1     -33.847   6.642   6.344  1.00 20.00     0.049 C 
HETATM    4  O5  UNL     1     -35.504   4.940   5.729  1.00 20.00    -0.374 OA
ENDROOT
BRANCH   2   5
HETATM    5  C4  UNL     1     -34.176   5.927   3.918  1.00 20.00     0.154 C 
HETATM    6 CL6  UNL     1     -32.493   6.302   3.461  1.00 20.00    -0.127 Cl
ENDBRANCH   2   5
TORSDOF 1
ENDMDL
MODEL 3
REMARK VINA RESULT:      -3.2      2.467      2.887
REMARK  1 active torsions:
REMARK  status: ('A' for Active; 'I' for Inactive)
REMARK    1  A    between atoms: C2_2  and  C4_4 
ROOT
HETATM    1  C1  UNL     1     -34.807   5.384   6.333  1.00 20.00     0.207 A 
HETATM    2  C2  UNL     1     -34.382   5.596   4.899  1.00 20.00     0.091 A 
HETATM    3  C3  UNL     1     -35.373   5.390   3.800  1.00 20.00     0.049 C 
HETATM    4  O5  UNL     1     -34.054   4.396   5.614  1.00 20.00    -0.374 OA
ENDROOT
BRANCH   2   5
HETATM    5  C4  UNL     1     -33.201   6.461   4.601  1.00 20.00     0.154 C 
HETATM    6 CL6  UNL     1     -32.477   6.041   3.026  1.00 20.00    -0.127 Cl
ENDBRANCH   2   5
TORSDOF 1
ENDMDL
MODEL 4
REMARK VINA RESULT:      -3.2     11.383     11.704
REMARK  1 active torsions:
REMARK  status: ('A' for Active; 'I' for Inactive)
REMARK    1  A    between atoms: C2_2  and  C4_4 
ROOT
HETATM    1  C1  UNL     1     -34.874  13.535  -5.444  1.00 20.00     0.207 A 
HETATM    2  C2  UNL     1     -34.523  14.020  -4.057  1.00 20.00     0.091 A 
HETATM    3  C3  UNL     1     -33.098  14.001  -3.609  1.00 20.00     0.049 C 
HETATM    4  O5  UNL     1     -35.077  12.717  -4.282  1.00 20.00    -0.374 OA
ENDROOT
BRANCH   2   5
HETATM    5  C4  UNL     1     -35.449  14.954  -3.348  1.00 20.00     0.154 C 
HETATM    6 CL6  UNL     1     -34.596  15.856  -2.067  1.00 20.00    -0.127 Cl
ENDBRANCH   2   5
TORSDOF 1
ENDMDL
MODEL 5
REMARK VINA RESULT:      -3.2      1.914      2.466
REMARK  1 active torsions:
REMARK  status: ('A' for Active; 'I' for Inactive)
REMARK    1  A    between atoms: C2_2  and  C4_4 
ROOT
HETATM    1  C1  UNL     1     -35.710   5.387   3.962  1.00 20.00     0.207 A 
HETATM    2  C2  UNL     1     -34.412   5.579   4.709  1.00 20.00     0.091 A 
HETATM    3  C3  UNL     1     -33.224   6.133   3.992  1.00 20.00     0.049 C 
HETATM    4  O5  UNL     1     -34.825   4.291   4.234  1.00 20.00    -0.374 OA
ENDROOT
BRANCH   2   5
HETATM    5  C4  UNL     1     -34.432   5.707   6.198  1.00 20.00     0.154 C 
HETATM    6 CL6  UNL     1     -33.544   7.160   6.730  1.00 20.00    -0.127 Cl
ENDBRANCH   2   5
TORSDOF 1
ENDMDL
MODEL 6
REMARK VINA RESULT:      -3.2      1.767      2.030
REMARK  1 active torsions:
REMARK  status: ('A' for Active; 'I' for Inactive)
REMARK    1  A    between atoms: C2_2  and  C4_4 
ROOT
HETATM    1  C1  UNL     1     -34.510   5.036   3.017  1.00 20.00     0.207 A 
HETATM    2  C2  UNL     1     -34.506   5.342   4.496  1.00 20.00     0.091 A 
HETATM    3  C3  UNL     1     -34.868   4.269   5.471  1.00 20.00     0.049 C 
HETATM    4  O5  UNL     1     -35.590   5.742   3.646  1.00 20.00    -0.374 OA
ENDROOT
BRANCH   2   5
HETATM    5  C4  UNL     1     -33.691   6.485   5.009  1.00 20.00     0.154 C 
HETATM    6 CL6  UNL     1     -34.031   6.794   6.733  1.00 20.00    -0.127 Cl
ENDBRANCH   2   5
TORSDOF 1
ENDMDL
MODEL 7
REMARK VINA RESULT:      -3.2      1.186      1.870
REMARK  1 active torsions:
REMARK  status: ('A' for Active; 'I' for Inactive)
REMARK    1  A    between atoms: C2_2  and  C4_4 
ROOT
HETATM    1  C1  UNL     1     -33.453   6.925   3.395  1.00 20.00     0.207 A 
HETATM    2  C2  UNL     1     -33.951   6.071   4.537  1.00 20.00     0.091 A 
HETATM    3  C3  UNL     1     -33.817   6.567   5.940  1.00 20.00     0.049 C 
HETATM    4  O5  UNL     1     -32.696   5.811   3.893  1.00 20.00    -0.374 OA
ENDROOT
BRANCH   2   5
HETATM    5  C4  UNL     1     -34.989   5.027   4.278  1.00 20.00     0.154 C 
HETATM    6 CL6  UNL     1     -35.082   3.865   5.628  1.00 20.00    -0.127 Cl
ENDBRANCH   2   5
TORSDOF 1
ENDMDL
MODEL 8
REMARK VINA RESULT:      -2.9      2.400      2.851
REMARK  1 active torsions:
REMARK  status: ('A' for Active; 'I' for Inactive)
REMARK    1  A    between atoms: C2_2  and  C4_4 
ROOT
HETATM    1  C1  UNL     1     -34.233   6.457   6.051  1.00 20.00     0.207 A 
HETATM    2  C2  UNL     1     -34.645   5.270   5.211  1.00 20.00     0.091 A 
HETATM    3  C3  UNL     1     -34.821   3.935   5.858  1.00 20.00     0.049 C 
HETATM    4  O5  UNL     1     -33.293   5.748   5.231  1.00 20.00    -0.374 OA
ENDROOT
BRANCH   2   5
HETATM    5  C4  UNL     1     -35.345   5.497   3.911  1.00 20.00     0.154 C 
HETATM    6 CL6  UNL     1     -34.216   5.344   2.538  1.00 20.00    -0.127 Cl
ENDBRANCH   2   5
TORSDOF 1
ENDMDL
MODEL 9
REMARK VINA RESULT:      -2.9     12.424     12.707
REMARK  1 active torsions:
REMARK  status: ('A' for Active; 'I' for Inactive)
REMARK    1  A    between atoms: C2_2  and  C4_4 
ROOT
HETATM    1  C1  UNL     1     -33.981  13.576  -3.982  1.00 20.00     0.207 A 
HETATM    2  C2  UNL     1     -35.197  13.987  -4.779  1.00 20.00     0.091 A 
HETATM    3  C3  UNL     1     -36.338  14.660  -4.089  1.00 20.00     0.049 C 
HETATM    4  O5  UNL     1     -34.990  12.629  -4.366  1.00 20.00    -0.374 OA
ENDROOT
BRANCH   2   5
HETATM    5  C4  UNL     1     -35.075  14.192  -6.255  1.00 20.00     0.154 C 
HETATM    6 CL6  UNL     1     -34.374  15.790  -6.625  1.00 20.00    -0.127 Cl
ENDBRANCH   2   5
TORSDOF 1
ENDMDL
