MODEL 1
REMARK VINA RESULT:      -4.5      0.000      0.000
REMARK  1 active torsions:
REMARK  status: ('A' for Active; 'I' for Inactive)
REMARK    1  A    between atoms: C1_1  and  C2_2 
ROOT
HETATM    1  C2  UNL     1     -34.508   5.188   5.813  1.00 20.00     0.391 C 
HETATM    2  F4  UNL     1     -35.702   4.824   6.351  1.00 20.00    -0.178 F 
HETATM    3  F5  UNL     1     -33.648   4.167   6.062  1.00 20.00    -0.178 F 
HETATM    4 CL6  UNL     1     -33.931   6.658   6.612  1.00 20.00    -0.039 Cl
ENDROOT
BRANCH   1   5
HETATM    5  C1  UNL     1     -34.638   5.483   4.353  1.00 20.00     0.282 C 
HETATM    6  O3  UNL     1     -35.674   5.360   3.714  1.00 20.00    -0.277 OA
HETATM    7 BR7  UNL     1     -33.129   6.152   3.400  1.00 20.00    -0.001 Br
ENDBRANCH   1   5
TORSDOF 1
ENDMDL
MODEL 2
REMARK VINA RESULT:      -4.4      2.562      2.603
REMARK  1 active torsions:
REMARK  status: ('A' for Active; 'I' for Inactive)
REMARK    1  A    between atoms: C1_1  and  C2_2 
ROOT
HETATM    1  C2  UNL     1     -34.833   5.269   3.843  1.00 20.00     0.391 C 
HETATM    2  F4  UNL     1     -36.017   5.898   3.625  1.00 20.00    -0.178 F 
HETATM    3  F5  UNL     1     -34.429   4.783   2.641  1.00 20.00    -0.178 F 
HETATM    4 CL6  UNL     1     -35.082   3.928   4.972  1.00 20.00    -0.039 Cl
ENDROOT
BRANCH   1   5
HETATM    5  C1  UNL     1     -33.830   6.197   4.451  1.00 20.00     0.282 C 
HETATM    6  O3  UNL     1     -33.856   6.574   5.614  1.00 20.00    -0.277 OA
HETATM    7 BR7  UNL     1     -32.367   6.810   3.394  1.00 20.00    -0.001 Br
ENDBRANCH   1   5
TORSDOF 1
ENDMDL
MODEL 3
REMARK VINA RESULT:      -4.3      2.707      3.035
REMARK  1 active torsions:
REMARK  status: ('A' for Active; 'I' for Inactive)
REMARK    1  A    between atoms: C1_1  and  C2_2 
ROOT
HETATM    1  C2  UNL     1     -34.872   5.462   3.561  1.00 20.00     0.391 C 
HETATM    2  F4  UNL     1     -34.390   4.699   2.545  1.00 20.00    -0.178 F 
HETATM    3  F5  UNL     1     -36.106   5.879   3.177  1.00 20.00    -0.178 F 
HETATM    4 CL6  UNL     1     -33.817   6.865   3.790  1.00 20.00    -0.039 Cl
ENDROOT
BRANCH   1   5
HETATM    5  C1  UNL     1     -34.900   4.699   4.847  1.00 20.00     0.282 C 
HETATM    6  O3  UNL     1     -35.154   3.505   4.934  1.00 20.00    -0.277 OA
HETATM    7 BR7  UNL     1     -34.463   5.593   6.472  1.00 20.00    -0.001 Br
ENDBRANCH   1   5
TORSDOF 1
ENDMDL
MODEL 4
REMARK VINA RESULT:      -4.3      3.088      3.239
REMARK  1 active torsions:
REMARK  status: ('A' for Active; 'I' for Inactive)
REMARK    1  A    between atoms: C1_1  and  C2_2 
ROOT
HETATM    1  C2  UNL     1     -33.977   6.209   3.839  1.00 20.00     0.391 C 
HETATM    2  F4  UNL     1     -34.652   5.330   3.053  1.00 20.00    -0.178 F 
HETATM    3  F5  UNL     1     -34.465   7.442   3.544  1.00 20.00    -0.178 F 
HETATM    4 CL6  UNL     1     -32.253   6.143   3.444  1.00 20.00    -0.039 Cl
ENDROOT
BRANCH   1   5
HETATM    5  C1  UNL     1     -34.126   5.866   5.287  1.00 20.00     0.282 C 
HETATM    6  O3  UNL     1     -33.818   6.612   6.208  1.00 20.00    -0.277 OA
HETATM    7 BR7  UNL     1     -34.895   4.192   5.774  1.00 20.00    -0.001 Br
ENDBRANCH   1   5
TORSDOF 1
ENDMDL
MODEL 5
REMARK VINA RESULT:      -4.2      2.066      2.362
REMARK  1 active torsions:
REMARK  status: ('A' for Active; 'I' for Inactive)
REMARK    1  A    between atoms: C1_1  and  C2_2 
ROOT
HETATM    1  C2  UNL     1     -34.699   5.064   5.706  1.00 20.00     0.391 C 
HETATM    2  F4  UNL     1     -34.013   3.909   5.913  1.00 20.00    -0.178 F 
HETATM    3  F5  UNL     1     -35.539   5.207   6.764  1.00 20.00    -0.178 F 
HETATM    4 CL6  UNL     1     -35.641   4.926   4.214  1.00 20.00    -0.039 Cl
ENDROOT
BRANCH   1   5
HETATM    5  C1  UNL     1     -33.770   6.227   5.553  1.00 20.00     0.282 C 
HETATM    6  O3  UNL     1     -33.444   6.974   6.466  1.00 20.00    -0.277 OA
HETATM    7 BR7  UNL     1     -32.975   6.566   3.855  1.00 20.00    -0.001 Br
ENDBRANCH   1   5
TORSDOF 1
ENDMDL
MODEL 6
REMARK VINA RESULT:      -4.0      1.606      1.671
REMARK  1 active torsions:
REMARK  status: ('A' for Active; 'I' for Inactive)
REMARK    1  A    between atoms: C1_1  and  C2_2 
ROOT
HETATM    1  C2  UNL     1     -35.010   5.006   4.447  1.00 20.00     0.391 C 
HETATM    2  F4  UNL     1     -36.292   5.380   4.197  1.00 20.00    -0.178 F 
HETATM    3  F5  UNL     1     -35.031   3.661   4.632  1.00 20.00    -0.178 F 
HETATM    4 CL6  UNL     1     -34.447   5.800   5.925  1.00 20.00    -0.039 Cl
ENDROOT
BRANCH   1   5
HETATM    5  C1  UNL     1     -34.099   5.417   3.333  1.00 20.00     0.282 C 
HETATM    6  O3  UNL     1     -34.229   5.061   2.170  1.00 20.00    -0.277 OA
HETATM    7 BR7  UNL     1     -32.665   6.618   3.698  1.00 20.00    -0.001 Br
ENDBRANCH   1   5
TORSDOF 1
ENDMDL
MODEL 7
REMARK VINA RESULT:      -3.9      2.853      3.091
REMARK  1 active torsions:
REMARK  status: ('A' for Active; 'I' for Inactive)
REMARK    1  A    between atoms: C1_1  and  C2_2 
ROOT
HETATM    1  C2  UNL     1     -34.870   5.227   3.764  1.00 20.00     0.391 C 
HETATM    2  F4  UNL     1     -35.085   4.030   4.369  1.00 20.00    -0.178 F 
HETATM    3  F5  UNL     1     -36.085   5.824   3.651  1.00 20.00    -0.178 F 
HETATM    4 CL6  UNL     1     -34.190   4.955   2.153  1.00 20.00    -0.039 Cl
ENDROOT
BRANCH   1   5
HETATM    5  C1  UNL     1     -33.895   6.058   4.537  1.00 20.00     0.282 C 
HETATM    6  O3  UNL     1     -32.937   6.636   4.041  1.00 20.00    -0.277 OA
HETATM    7 BR7  UNL     1     -34.158   6.304   6.408  1.00 20.00    -0.001 Br
ENDBRANCH   1   5
TORSDOF 1
ENDMDL
MODEL 8
REMARK VINA RESULT:      -3.9      2.544      2.812
REMARK  1 active torsions:
REMARK  status: ('A' for Active; 'I' for Inactive)
REMARK    1  A    between atoms: C1_1  and  C2_2 
ROOT
HETATM    1  C2  UNL     1     -34.901   5.228   3.822  1.00 20.00     0.391 C 
HETATM    2  F4  UNL     1     -35.049   4.047   4.479  1.00 20.00    -0.178 F 
HETATM    3  F5  UNL     1     -36.139   5.780   3.743  1.00 20.00    -0.178 F 
HETATM    4 CL6  UNL     1     -34.284   4.917   2.193  1.00 20.00    -0.039 Cl
ENDROOT
BRANCH   1   5
HETATM    5  C1  UNL     1     -33.921   6.118   4.519  1.00 20.00     0.282 C 
HETATM    6  O3  UNL     1     -33.987   6.421   5.703  1.00 20.00    -0.277 OA
HETATM    7 BR7  UNL     1     -32.428   6.797   3.551  1.00 20.00    -0.001 Br
ENDBRANCH   1   5
TORSDOF 1
ENDMDL
MODEL 9
REMARK VINA RESULT:      -3.9     13.082     13.115
REMARK  1 active torsions:
REMARK  status: ('A' for Active; 'I' for Inactive)
REMARK    1  A    between atoms: C1_1  and  C2_2 
ROOT
HETATM    1  C2  UNL     1     -33.567  14.353  -3.882  1.00 20.00     0.391 C 
HETATM    2  F4  UNL     1     -34.281  14.567  -2.745  1.00 20.00    -0.178 F 
HETATM    3  F5  UNL     1     -32.493  13.603  -3.524  1.00 20.00    -0.178 F 
HETATM    4 CL6  UNL     1     -33.018  15.906  -4.529  1.00 20.00    -0.039 Cl
ENDROOT
BRANCH   1   5
HETATM    5  C1  UNL     1     -34.403  13.691  -4.931  1.00 20.00     0.282 C 
HETATM    6  O3  UNL     1     -34.871  12.565  -4.830  1.00 20.00    -0.277 OA
HETATM    7 BR7  UNL     1     -34.839  14.652  -6.518  1.00 20.00    -0.001 Br
ENDBRANCH   1   5
TORSDOF 1
ENDMDL
