MODEL 1
REMARK VINA RESULT:      -4.6      0.000      0.000
REMARK  1 active torsions:
REMARK  status: ('A' for Active; 'I' for Inactive)
REMARK    1  A    between atoms: C1_1  and  C2_2 
ROOT
HETATM    1  C2  UNL     1     -34.907   5.455   3.760  1.00 20.00     0.395 C 
HETATM    2  F4  UNL     1     -36.155   5.820   3.362  1.00 20.00    -0.178 F 
HETATM    3  F5  UNL     1     -34.392   4.700   2.753  1.00 20.00    -0.178 F 
HETATM    4 CL7  UNL     1     -33.905   6.900   3.974  1.00 20.00    -0.038 Cl
ENDROOT
BRANCH   1   5
HETATM    5  C1  UNL     1     -34.905   4.696   5.061  1.00 20.00     0.307 C 
HETATM    6  O3  UNL     1     -35.125   3.488   5.093  1.00 20.00    -0.272 OA
HETATM    7 CL6  UNL     1     -34.525   5.693   6.435  1.00 20.00    -0.036 Cl
ENDBRANCH   1   5
TORSDOF 1
ENDMDL
MODEL 2
REMARK VINA RESULT:      -4.5      1.920      2.455
REMARK  1 active torsions:
REMARK  status: ('A' for Active; 'I' for Inactive)
REMARK    1  A    between atoms: C1_1  and  C2_2 
ROOT
HETATM    1  C2  UNL     1     -34.794   5.255   3.872  1.00 20.00     0.395 C 
HETATM    2  F4  UNL     1     -34.365   4.799   2.665  1.00 20.00    -0.178 F 
HETATM    3  F5  UNL     1     -35.980   5.878   3.644  1.00 20.00    -0.178 F 
HETATM    4 CL7  UNL     1     -35.057   3.887   4.965  1.00 20.00    -0.038 Cl
ENDROOT
BRANCH   1   5
HETATM    5  C1  UNL     1     -33.810   6.188   4.529  1.00 20.00     0.307 C 
HETATM    6  O3  UNL     1     -32.914   6.726   3.884  1.00 20.00    -0.272 OA
HETATM    7 CL6  UNL     1     -34.121   6.428   6.224  1.00 20.00    -0.036 Cl
ENDBRANCH   1   5
TORSDOF 1
ENDMDL
MODEL 3
REMARK VINA RESULT:      -4.4      1.742      2.645
REMARK  1 active torsions:
REMARK  status: ('A' for Active; 'I' for Inactive)
REMARK    1  A    between atoms: C1_1  and  C2_2 
ROOT
HETATM    1  C2  UNL     1     -34.794   5.281   3.871  1.00 20.00     0.395 C 
HETATM    2  F4  UNL     1     -34.336   4.843   2.669  1.00 20.00    -0.178 F 
HETATM    3  F5  UNL     1     -35.983   5.893   3.626  1.00 20.00    -0.178 F 
HETATM    4 CL7  UNL     1     -35.063   3.899   4.946  1.00 20.00    -0.038 Cl
ENDROOT
BRANCH   1   5
HETATM    5  C1  UNL     1     -33.835   6.218   4.557  1.00 20.00     0.307 C 
HETATM    6  O3  UNL     1     -33.970   6.513   5.743  1.00 20.00    -0.272 OA
HETATM    7 CL6  UNL     1     -32.551   6.765   3.519  1.00 20.00    -0.036 Cl
ENDBRANCH   1   5
TORSDOF 1
ENDMDL
MODEL 4
REMARK VINA RESULT:      -4.4      2.123      2.902
REMARK  1 active torsions:
REMARK  status: ('A' for Active; 'I' for Inactive)
REMARK    1  A    between atoms: C1_1  and  C2_2 
ROOT
HETATM    1  C2  UNL     1     -34.527   5.166   5.817  1.00 20.00     0.395 C 
HETATM    2  F4  UNL     1     -33.684   4.128   6.059  1.00 20.00    -0.178 F 
HETATM    3  F5  UNL     1     -35.710   4.840   6.402  1.00 20.00    -0.178 F 
HETATM    4 CL7  UNL     1     -33.892   6.637   6.571  1.00 20.00    -0.038 Cl
ENDROOT
BRANCH   1   5
HETATM    5  C1  UNL     1     -34.708   5.442   4.347  1.00 20.00     0.307 C 
HETATM    6  O3  UNL     1     -35.798   5.294   3.801  1.00 20.00    -0.272 OA
HETATM    7 CL6  UNL     1     -33.258   6.014   3.574  1.00 20.00    -0.036 Cl
ENDBRANCH   1   5
TORSDOF 1
ENDMDL
MODEL 5
REMARK VINA RESULT:      -4.3      2.706      2.973
REMARK  1 active torsions:
REMARK  status: ('A' for Active; 'I' for Inactive)
REMARK    1  A    between atoms: C1_1  and  C2_2 
ROOT
HETATM    1  C2  UNL     1     -34.705   5.049   5.684  1.00 20.00     0.395 C 
HETATM    2  F4  UNL     1     -35.580   5.076   6.723  1.00 20.00    -0.178 F 
HETATM    3  F5  UNL     1     -33.976   3.910   5.829  1.00 20.00    -0.178 F 
HETATM    4 CL7  UNL     1     -35.598   4.975   4.156  1.00 20.00    -0.038 Cl
ENDROOT
BRANCH   1   5
HETATM    5  C1  UNL     1     -33.811   6.260   5.637  1.00 20.00     0.307 C 
HETATM    6  O3  UNL     1     -33.625   6.953   6.635  1.00 20.00    -0.272 OA
HETATM    7 CL6  UNL     1     -33.078   6.511   4.080  1.00 20.00    -0.036 Cl
ENDBRANCH   1   5
TORSDOF 1
ENDMDL
MODEL 6
REMARK VINA RESULT:      -4.2      1.897      1.897
REMARK  1 active torsions:
REMARK  status: ('A' for Active; 'I' for Inactive)
REMARK    1  A    between atoms: C1_1  and  C2_2 
ROOT
HETATM    1  C2  UNL     1     -34.144   6.041   3.987  1.00 20.00     0.395 C 
HETATM    2  F4  UNL     1     -34.733   7.233   3.704  1.00 20.00    -0.178 F 
HETATM    3  F5  UNL     1     -34.757   5.117   3.199  1.00 20.00    -0.178 F 
HETATM    4 CL7  UNL     1     -32.425   6.111   3.568  1.00 20.00    -0.038 Cl
ENDROOT
BRANCH   1   5
HETATM    5  C1  UNL     1     -34.249   5.666   5.442  1.00 20.00     0.307 C 
HETATM    6  O3  UNL     1     -33.948   6.463   6.328  1.00 20.00    -0.272 OA
HETATM    7 CL6  UNL     1     -34.866   4.059   5.693  1.00 20.00    -0.036 Cl
ENDBRANCH   1   5
TORSDOF 1
ENDMDL
MODEL 7
REMARK VINA RESULT:      -4.1      1.933      2.065
REMARK  1 active torsions:
REMARK  status: ('A' for Active; 'I' for Inactive)
REMARK    1  A    between atoms: C1_1  and  C2_2 
ROOT
HETATM    1  C2  UNL     1     -33.944   6.214   4.622  1.00 20.00     0.395 C 
HETATM    2  F4  UNL     1     -34.191   7.313   3.863  1.00 20.00    -0.178 F 
HETATM    3  F5  UNL     1     -32.776   5.689   4.164  1.00 20.00    -0.178 F 
HETATM    4 CL7  UNL     1     -33.741   6.693   6.315  1.00 20.00    -0.038 Cl
ENDROOT
BRANCH   1   5
HETATM    5  C1  UNL     1     -35.054   5.198   4.561  1.00 20.00     0.307 C 
HETATM    6  O3  UNL     1     -35.960   5.293   3.736  1.00 20.00    -0.272 OA
HETATM    7 CL6  UNL     1     -34.872   3.914   5.720  1.00 20.00    -0.036 Cl
ENDBRANCH   1   5
TORSDOF 1
ENDMDL
MODEL 8
REMARK VINA RESULT:      -4.1      1.685      2.532
REMARK  1 active torsions:
REMARK  status: ('A' for Active; 'I' for Inactive)
REMARK    1  A    between atoms: C1_1  and  C2_2 
ROOT
HETATM    1  C2  UNL     1     -35.046   4.972   4.538  1.00 20.00     0.395 C 
HETATM    2  F4  UNL     1     -35.043   3.615   4.603  1.00 20.00    -0.178 F 
HETATM    3  F5  UNL     1     -36.314   5.336   4.211  1.00 20.00    -0.178 F 
HETATM    4 CL7  UNL     1     -34.641   5.644   6.126  1.00 20.00    -0.038 Cl
ENDROOT
BRANCH   1   5
HETATM    5  C1  UNL     1     -34.054   5.513   3.542  1.00 20.00     0.307 C 
HETATM    6  O3  UNL     1     -34.107   5.199   2.355  1.00 20.00    -0.272 OA
HETATM    7 CL6  UNL     1     -32.911   6.619   4.245  1.00 20.00    -0.036 Cl
ENDBRANCH   1   5
TORSDOF 1
ENDMDL
MODEL 9
REMARK VINA RESULT:      -4.1      2.359      2.615
REMARK  1 active torsions:
REMARK  status: ('A' for Active; 'I' for Inactive)
REMARK    1  A    between atoms: C1_1  and  C2_2 
ROOT
HETATM    1  C2  UNL     1     -33.896   6.190   4.266  1.00 20.00     0.395 C 
HETATM    2  F4  UNL     1     -32.595   5.995   3.925  1.00 20.00    -0.178 F 
HETATM    3  F5  UNL     1     -34.194   7.468   3.911  1.00 20.00    -0.178 F 
HETATM    4 CL7  UNL     1     -34.925   5.078   3.349  1.00 20.00    -0.038 Cl
ENDROOT
BRANCH   1   5
HETATM    5  C1  UNL     1     -34.159   5.960   5.731  1.00 20.00     0.307 C 
HETATM    6  O3  UNL     1     -33.816   6.783   6.577  1.00 20.00    -0.272 OA
HETATM    7 CL6  UNL     1     -35.010   4.476   6.049  1.00 20.00    -0.036 Cl
ENDBRANCH   1   5
TORSDOF 1
ENDMDL
