MODEL 1
REMARK VINA RESULT:      -4.7      0.000      0.000
REMARK  1 active torsions:
REMARK  status: ('A' for Active; 'I' for Inactive)
REMARK    1  A    between atoms: C1_1  and  C6_6 
ROOT
HETATM    1  C2  UNL     1     -35.128   4.461   4.670  1.00 20.00     0.005 C 
HETATM    2  C3  UNL     1     -34.215   5.060   5.752  1.00 20.00     0.006 C 
HETATM    3  C4  UNL     1     -33.697   5.466   2.870  1.00 20.00     0.017 C 
HETATM    4  C5  UNL     1     -34.985   6.813   4.350  1.00 20.00     0.010 C 
HETATM    5  C6  UNL     1     -32.758   6.008   3.961  1.00 20.00     0.059 C 
HETATM    6  C7  UNL     1     -35.079   5.516   3.551  1.00 20.00    -0.013 C 
HETATM    7  C8  UNL     1     -33.729   6.368   5.104  1.00 20.00    -0.003 C 
ENDROOT
BRANCH   5   8
HETATM    8  C1  UNL     1     -31.993   7.204   3.483  1.00 20.00     0.127 C 
HETATM    9  C9  UNL     1     -32.290   7.685   2.089  1.00 20.00     0.091 C 
HETATM   10  O10 UNL     1     -31.164   7.767   4.198  1.00 20.00    -0.298 OA
ENDBRANCH   5   8
TORSDOF 1
ENDMDL
MODEL 2
REMARK VINA RESULT:      -4.6     11.404     12.537
REMARK  1 active torsions:
REMARK  status: ('A' for Active; 'I' for Inactive)
REMARK    1  A    between atoms: C1_1  and  C6_6 
ROOT
HETATM    1  C2  UNL     1     -34.137  17.355  -2.723  1.00 20.00     0.005 C 
HETATM    2  C3  UNL     1     -34.457  16.056  -1.967  1.00 20.00     0.006 C 
HETATM    3  C4  UNL     1     -34.832  16.298  -4.890  1.00 20.00     0.017 C 
HETATM    4  C5  UNL     1     -32.906  15.569  -3.697  1.00 20.00     0.010 C 
HETATM    5  C6  UNL     1     -35.205  15.024  -4.114  1.00 20.00     0.059 C 
HETATM    6  C7  UNL     1     -33.637  16.851  -4.088  1.00 20.00    -0.013 C 
HETATM    7  C8  UNL     1     -34.133  14.968  -3.006  1.00 20.00    -0.003 C 
ENDROOT
BRANCH   5   8
HETATM    8  C1  UNL     1     -35.161  13.811  -4.992  1.00 20.00     0.127 C 
HETATM    9  C9  UNL     1     -35.164  14.052  -6.478  1.00 20.00     0.091 C 
HETATM   10  O10 UNL     1     -35.123  12.675  -4.522  1.00 20.00    -0.298 OA
ENDBRANCH   5   8
TORSDOF 1
ENDMDL
MODEL 3
REMARK VINA RESULT:      -4.5     11.334     12.398
REMARK  1 active torsions:
REMARK  status: ('A' for Active; 'I' for Inactive)
REMARK    1  A    between atoms: C1_1  and  C6_6 
ROOT
HETATM    1  C2  UNL     1     -34.439  13.998  -5.342  1.00 20.00     0.005 C 
HETATM    2  C3  UNL     1     -34.998  13.659  -3.951  1.00 20.00     0.006 C 
HETATM    3  C4  UNL     1     -33.333  16.056  -4.426  1.00 20.00     0.017 C 
HETATM    4  C5  UNL     1     -35.701  15.848  -4.542  1.00 20.00     0.010 C 
HETATM    5  C6  UNL     1     -33.847  15.673  -3.028  1.00 20.00     0.059 C 
HETATM    6  C7  UNL     1     -34.448  15.537  -5.356  1.00 20.00    -0.013 C 
HETATM    7  C8  UNL     1     -35.225  15.047  -3.327  1.00 20.00    -0.003 C 
ENDROOT
BRANCH   5   8
HETATM    8  C1  UNL     1     -33.962  16.871  -2.136  1.00 20.00     0.127 C 
HETATM    9  C9  UNL     1     -34.587  16.653  -0.785  1.00 20.00     0.091 C 
HETATM   10  O10 UNL     1     -33.561  17.979  -2.491  1.00 20.00    -0.298 OA
ENDBRANCH   5   8
TORSDOF 1
ENDMDL
MODEL 4
REMARK VINA RESULT:      -4.4     11.099     12.147
REMARK  1 active torsions:
REMARK  status: ('A' for Active; 'I' for Inactive)
REMARK    1  A    between atoms: C1_1  and  C6_6 
ROOT
HETATM    1  C2  UNL     1     -35.471  17.421  -2.052  1.00 20.00     0.005 C 
HETATM    2  C3  UNL     1     -34.276  16.664  -1.452  1.00 20.00     0.006 C 
HETATM    3  C4  UNL     1     -35.877  15.550  -3.674  1.00 20.00     0.017 C 
HETATM    4  C5  UNL     1     -33.927  16.909  -3.787  1.00 20.00     0.010 C 
HETATM    5  C6  UNL     1     -34.718  14.776  -3.025  1.00 20.00     0.059 C 
HETATM    6  C7  UNL     1     -35.429  17.018  -3.537  1.00 20.00    -0.013 C 
HETATM    7  C8  UNL     1     -33.718  15.893  -2.662  1.00 20.00    -0.003 C 
ENDROOT
BRANCH   5   8
HETATM    8  C1  UNL     1     -34.121  13.781  -3.973  1.00 20.00     0.127 C 
HETATM    9  C9  UNL     1     -34.851  13.560  -5.270  1.00 20.00     0.091 C 
HETATM   10  O10 UNL     1     -33.084  13.177  -3.704  1.00 20.00    -0.298 OA
ENDBRANCH   5   8
TORSDOF 1
ENDMDL
MODEL 5
REMARK VINA RESULT:      -4.4     11.358     12.434
REMARK  1 active torsions:
REMARK  status: ('A' for Active; 'I' for Inactive)
REMARK    1  A    between atoms: C1_1  and  C6_6 
ROOT
HETATM    1  C2  UNL     1     -34.621  13.999  -5.266  1.00 20.00     0.005 C 
HETATM    2  C3  UNL     1     -33.990  15.331  -5.700  1.00 20.00     0.006 C 
HETATM    3  C4  UNL     1     -35.193  14.967  -3.024  1.00 20.00     0.017 C 
HETATM    4  C5  UNL     1     -32.939  14.606  -3.699  1.00 20.00     0.010 C 
HETATM    5  C6  UNL     1     -34.614  16.314  -3.491  1.00 20.00     0.059 C 
HETATM    6  C7  UNL     1     -34.311  13.940  -3.760  1.00 20.00    -0.013 C 
HETATM    7  C8  UNL     1     -33.427  15.888  -4.380  1.00 20.00    -0.003 C 
ENDROOT
BRANCH   5   8
HETATM    8  C1  UNL     1     -34.168  17.153  -2.333  1.00 20.00     0.127 C 
HETATM    9  C9  UNL     1     -34.532  16.658  -0.959  1.00 20.00     0.091 C 
HETATM   10  O10 UNL     1     -33.534  18.194  -2.497  1.00 20.00    -0.298 OA
ENDBRANCH   5   8
TORSDOF 1
ENDMDL
MODEL 6
REMARK VINA RESULT:      -4.4     11.149     12.589
REMARK  1 active torsions:
REMARK  status: ('A' for Active; 'I' for Inactive)
REMARK    1  A    between atoms: C1_1  and  C6_6 
ROOT
HETATM    1  C2  UNL     1     -33.802  17.000  -2.538  1.00 20.00     0.005 C 
HETATM    2  C3  UNL     1     -33.876  17.329  -4.038  1.00 20.00     0.006 C 
HETATM    3  C4  UNL     1     -34.002  14.550  -3.039  1.00 20.00     0.017 C 
HETATM    4  C5  UNL     1     -35.793  16.065  -3.440  1.00 20.00     0.010 C 
HETATM    5  C6  UNL     1     -34.014  14.887  -4.539  1.00 20.00     0.059 C 
HETATM    6  C7  UNL     1     -34.710  15.765  -2.408  1.00 20.00    -0.013 C 
HETATM    7  C8  UNL     1     -34.790  16.220  -4.587  1.00 20.00    -0.003 C 
ENDROOT
BRANCH   5   8
HETATM    8  C1  UNL     1     -34.693  13.819  -5.339  1.00 20.00     0.127 C 
HETATM    9  C9  UNL     1     -35.233  14.221  -6.685  1.00 20.00     0.091 C 
HETATM   10  O10 UNL     1     -34.802  12.668  -4.917  1.00 20.00    -0.298 OA
ENDBRANCH   5   8
TORSDOF 1
ENDMDL
MODEL 7
REMARK VINA RESULT:      -4.3     11.077     12.489
REMARK  1 active torsions:
REMARK  status: ('A' for Active; 'I' for Inactive)
REMARK    1  A    between atoms: C1_1  and  C6_6 
ROOT
HETATM    1  C2  UNL     1     -32.689  14.924  -3.717  1.00 20.00     0.005 C 
HETATM    2  C3  UNL     1     -33.481  13.607  -3.729  1.00 20.00     0.006 C 
HETATM    3  C4  UNL     1     -34.807  16.226  -3.381  1.00 20.00     0.017 C 
HETATM    4  C5  UNL     1     -34.366  15.043  -5.398  1.00 20.00     0.010 C 
HETATM    5  C6  UNL     1     -35.581  14.898  -3.333  1.00 20.00     0.059 C 
HETATM    6  C7  UNL     1     -33.663  15.922  -4.367  1.00 20.00    -0.013 C 
HETATM    7  C8  UNL     1     -34.825  14.022  -4.354  1.00 20.00    -0.003 C 
ENDROOT
BRANCH   5   8
HETATM    8  C1  UNL     1     -37.017  15.083  -3.716  1.00 20.00     0.127 C 
HETATM    9  C9  UNL     1     -37.473  16.495  -3.972  1.00 20.00     0.091 C 
HETATM   10  O10 UNL     1     -37.786  14.128  -3.819  1.00 20.00    -0.298 OA
ENDBRANCH   5   8
TORSDOF 1
ENDMDL
MODEL 8
REMARK VINA RESULT:      -4.3     11.323     13.499
REMARK  1 active torsions:
REMARK  status: ('A' for Active; 'I' for Inactive)
REMARK    1  A    between atoms: C1_1  and  C6_6 
ROOT
HETATM    1  C2  UNL     1     -36.053  16.563  -7.259  1.00 20.00     0.005 C 
HETATM    2  C3  UNL     1     -34.540  16.546  -6.987  1.00 20.00     0.006 C 
HETATM    3  C4  UNL     1     -36.433  14.922  -5.400  1.00 20.00     0.017 C 
HETATM    4  C5  UNL     1     -35.268  14.322  -7.386  1.00 20.00     0.010 C 
HETATM    5  C6  UNL     1     -34.926  14.960  -5.098  1.00 20.00     0.059 C 
HETATM    6  C7  UNL     1     -36.483  15.123  -6.927  1.00 20.00    -0.013 C 
HETATM    7  C8  UNL     1     -34.297  15.107  -6.499  1.00 20.00    -0.003 C 
ENDROOT
BRANCH   5   8
HETATM    8  C1  UNL     1     -34.470  13.709  -4.412  1.00 20.00     0.127 C 
HETATM    9  C9  UNL     1     -33.143  13.770  -3.704  1.00 20.00     0.091 C 
HETATM   10  O10 UNL     1     -35.148  12.683  -4.424  1.00 20.00    -0.298 OA
ENDBRANCH   5   8
TORSDOF 1
ENDMDL
MODEL 9
REMARK VINA RESULT:      -4.2     11.553     12.922
REMARK  1 active torsions:
REMARK  status: ('A' for Active; 'I' for Inactive)
REMARK    1  A    between atoms: C1_1  and  C6_6 
ROOT
HETATM    1  C2  UNL     1     -33.751  16.234  -2.372  1.00 20.00     0.005 C 
HETATM    2  C3  UNL     1     -35.270  16.015  -2.452  1.00 20.00     0.006 C 
HETATM    3  C4  UNL     1     -33.572  16.102  -4.871  1.00 20.00     0.017 C 
HETATM    4  C5  UNL     1     -34.181  14.216  -3.553  1.00 20.00     0.010 C 
HETATM    5  C6  UNL     1     -35.100  15.944  -4.942  1.00 20.00     0.059 C 
HETATM    6  C7  UNL     1     -33.215  15.398  -3.547  1.00 20.00    -0.013 C 
HETATM    7  C8  UNL     1     -35.419  15.107  -3.686  1.00 20.00    -0.003 C 
ENDROOT
BRANCH   5   8
HETATM    8  C1  UNL     1     -35.523  15.246  -6.198  1.00 20.00     0.127 C 
HETATM    9  C9  UNL     1     -34.449  14.973  -7.216  1.00 20.00     0.091 C 
HETATM   10  O10 UNL     1     -36.692  14.909  -6.386  1.00 20.00    -0.298 OA
ENDBRANCH   5   8
TORSDOF 1
ENDMDL
