MODEL 1
REMARK VINA RESULT:      -4.6      0.000      0.000
REMARK  1 active torsions:
REMARK  status: ('A' for Active; 'I' for Inactive)
REMARK    1  A    between atoms: C5_5  and  C8_8 
ROOT
HETATM    1  C1  UNL     1     -34.796   5.513   3.656  1.00 20.00     0.010 C 
HETATM    2  C2  UNL     1     -35.231   4.275   4.439  1.00 20.00     0.035 C 
HETATM    3  C3  UNL     1     -33.746   6.628   5.661  1.00 20.00     0.041 C 
HETATM    4  C5  UNL     1     -33.505   6.120   4.229  1.00 20.00     0.019 C 
HETATM    5  C6  UNL     1     -35.235   4.507   5.916  1.00 20.00     0.151 A 
HETATM    6  C7  UNL     1     -34.470   5.649   6.527  1.00 20.00     0.151 A 
HETATM    7  O10 UNL     1     -33.945   4.321   6.530  1.00 20.00    -0.375 OA
ENDROOT
BRANCH   4   8
HETATM    8  C8  UNL     1     -32.993   7.229   3.347  1.00 20.00     0.149 A 
HETATM    9  C4  UNL     1     -31.894   6.972   2.373  1.00 20.00     0.200 A 
HETATM   10  O9  UNL     1     -31.655   7.615   3.636  1.00 20.00    -0.381 OA
ENDBRANCH   4   8
TORSDOF 1
ENDMDL
MODEL 2
REMARK VINA RESULT:      -4.3     11.777     12.557
REMARK  1 active torsions:
REMARK  status: ('A' for Active; 'I' for Inactive)
REMARK    1  A    between atoms: C5_5  and  C8_8 
ROOT
HETATM    1  C1  UNL     1     -33.246  14.964  -3.382  1.00 20.00     0.010 C 
HETATM    2  C2  UNL     1     -33.351  13.558  -3.972  1.00 20.00     0.035 C 
HETATM    3  C3  UNL     1     -35.654  15.539  -3.873  1.00 20.00     0.041 C 
HETATM    4  C5  UNL     1     -34.582  15.423  -2.775  1.00 20.00     0.019 C 
HETATM    5  C6  UNL     1     -34.544  13.399  -4.860  1.00 20.00     0.151 A 
HETATM    6  C7  UNL     1     -35.702  14.357  -4.787  1.00 20.00     0.151 A 
HETATM    7  O10 UNL     1     -35.753  13.082  -4.145  1.00 20.00    -0.375 OA
ENDROOT
BRANCH   4   8
HETATM    8  C8  UNL     1     -34.422  16.731  -2.046  1.00 20.00     0.149 A 
HETATM    9  C4  UNL     1     -34.645  16.806  -0.573  1.00 20.00     0.200 A 
HETATM   10  O9  UNL     1     -35.639  17.241  -1.516  1.00 20.00    -0.381 OA
ENDBRANCH   4   8
TORSDOF 1
ENDMDL
MODEL 3
REMARK VINA RESULT:      -4.1     11.864     12.845
REMARK  1 active torsions:
REMARK  status: ('A' for Active; 'I' for Inactive)
REMARK    1  A    between atoms: C5_5  and  C8_8 
ROOT
HETATM    1  C1  UNL     1     -35.332  15.934  -3.663  1.00 20.00     0.010 C 
HETATM    2  C2  UNL     1     -33.980  15.544  -3.069  1.00 20.00     0.035 C 
HETATM    3  C3  UNL     1     -35.650  13.725  -4.841  1.00 20.00     0.041 C 
HETATM    4  C5  UNL     1     -36.252  14.712  -3.827  1.00 20.00     0.019 C 
HETATM    5  C6  UNL     1     -33.367  14.372  -3.767  1.00 20.00     0.151 A 
HETATM    6  C7  UNL     1     -34.199  13.448  -4.615  1.00 20.00     0.151 A 
HETATM    7  O10 UNL     1     -33.837  13.102  -3.277  1.00 20.00    -0.375 OA
ENDROOT
BRANCH   4   8
HETATM    8  C8  UNL     1     -37.636  15.132  -4.247  1.00 20.00     0.149 A 
HETATM    9  C4  UNL     1     -38.702  15.345  -3.227  1.00 20.00     0.200 A 
HETATM   10  O9  UNL     1     -38.629  14.141  -4.009  1.00 20.00    -0.381 OA
ENDBRANCH   4   8
TORSDOF 1
ENDMDL
MODEL 4
REMARK VINA RESULT:      -4.0     11.966     13.677
REMARK  1 active torsions:
REMARK  status: ('A' for Active; 'I' for Inactive)
REMARK    1  A    between atoms: C5_5  and  C8_8 
ROOT
HETATM    1  C1  UNL     1     -33.195  16.524  -4.992  1.00 20.00     0.010 C 
HETATM    2  C2  UNL     1     -33.654  17.979  -4.904  1.00 20.00     0.035 C 
HETATM    3  C3  UNL     1     -33.835  15.994  -2.609  1.00 20.00     0.041 C 
HETATM    4  C5  UNL     1     -34.035  15.610  -4.086  1.00 20.00     0.019 C 
HETATM    5  C6  UNL     1     -33.806  18.444  -3.491  1.00 20.00     0.151 A 
HETATM    6  C7  UNL     1     -33.933  17.463  -2.357  1.00 20.00     0.151 A 
HETATM    7  O10 UNL     1     -35.080  18.110  -2.909  1.00 20.00    -0.375 OA
ENDROOT
BRANCH   4   8
HETATM    8  C8  UNL     1     -33.690  14.161  -4.312  1.00 20.00     0.149 A 
HETATM    9  C4  UNL     1     -34.724  13.207  -4.805  1.00 20.00     0.200 A 
HETATM   10  O9  UNL     1     -34.349  13.271  -3.419  1.00 20.00    -0.381 OA
ENDBRANCH   4   8
TORSDOF 1
ENDMDL
MODEL 5
REMARK VINA RESULT:      -4.0     12.020     12.605
REMARK  1 active torsions:
REMARK  status: ('A' for Active; 'I' for Inactive)
REMARK    1  A    between atoms: C5_5  and  C8_8 
ROOT
HETATM    1  C1  UNL     1     -33.476  16.376  -3.414  1.00 20.00     0.010 C 
HETATM    2  C2  UNL     1     -32.949  15.160  -4.174  1.00 20.00     0.035 C 
HETATM    3  C3  UNL     1     -35.680  15.286  -2.846  1.00 20.00     0.041 C 
HETATM    4  C5  UNL     1     -34.423  15.963  -2.274  1.00 20.00     0.019 C 
HETATM    5  C6  UNL     1     -34.040  14.213  -4.562  1.00 20.00     0.151 A 
HETATM    6  C7  UNL     1     -35.381  14.249  -3.880  1.00 20.00     0.151 A 
HETATM    7  O10 UNL     1     -34.391  13.284  -3.518  1.00 20.00    -0.375 OA
ENDROOT
BRANCH   4   8
HETATM    8  C8  UNL     1     -34.795  17.151  -1.426  1.00 20.00     0.149 A 
HETATM    9  C4  UNL     1     -33.843  17.680  -0.408  1.00 20.00     0.200 A 
HETATM   10  O9  UNL     1     -34.952  16.840  -0.047  1.00 20.00    -0.381 OA
ENDBRANCH   4   8
TORSDOF 1
ENDMDL
MODEL 6
REMARK VINA RESULT:      -4.0     12.111     13.239
REMARK  1 active torsions:
REMARK  status: ('A' for Active; 'I' for Inactive)
REMARK    1  A    between atoms: C5_5  and  C8_8 
ROOT
HETATM    1  C1  UNL     1     -34.131  14.043  -3.468  1.00 20.00     0.010 C 
HETATM    2  C2  UNL     1     -34.935  13.276  -4.518  1.00 20.00     0.035 C 
HETATM    3  C3  UNL     1     -34.136  16.196  -4.784  1.00 20.00     0.041 C 
HETATM    4  C5  UNL     1     -34.508  15.534  -3.447  1.00 20.00     0.019 C 
HETATM    5  C6  UNL     1     -34.929  13.956  -5.850  1.00 20.00     0.151 A 
HETATM    6  C7  UNL     1     -34.570  15.411  -5.980  1.00 20.00     0.151 A 
HETATM    7  O10 UNL     1     -35.933  14.982  -5.975  1.00 20.00    -0.375 OA
ENDROOT
BRANCH   4   8
HETATM    8  C8  UNL     1     -33.841  16.242  -2.297  1.00 20.00     0.149 A 
HETATM    9  C4  UNL     1     -34.619  16.596  -1.075  1.00 20.00     0.200 A 
HETATM   10  O9  UNL     1     -34.316  17.567  -2.090  1.00 20.00    -0.381 OA
ENDBRANCH   4   8
TORSDOF 1
ENDMDL
MODEL 7
REMARK VINA RESULT:      -3.9     12.587     13.430
REMARK  1 active torsions:
REMARK  status: ('A' for Active; 'I' for Inactive)
REMARK    1  A    between atoms: C5_5  and  C8_8 
ROOT
HETATM    1  C1  UNL     1     -34.814  16.435  -1.278  1.00 20.00     0.010 C 
HETATM    2  C2  UNL     1     -34.649  17.240   0.010  1.00 20.00     0.035 C 
HETATM    3  C3  UNL     1     -33.745  18.202  -2.729  1.00 20.00     0.041 C 
HETATM    4  C5  UNL     1     -33.685  16.731  -2.280  1.00 20.00     0.019 C 
HETATM    5  C6  UNL     1     -34.393  18.690  -0.254  1.00 20.00     0.151 A 
HETATM    6  C7  UNL     1     -33.910  19.164  -1.597  1.00 20.00     0.151 A 
HETATM    7  O10 UNL     1     -33.007  18.993  -0.504  1.00 20.00    -0.375 OA
ENDROOT
BRANCH   4   8
HETATM    8  C8  UNL     1     -33.760  15.807  -3.467  1.00 20.00     0.149 A 
HETATM    9  C4  UNL     1     -32.671  14.824  -3.728  1.00 20.00     0.200 A 
HETATM   10  O9  UNL     1     -32.766  16.062  -4.451  1.00 20.00    -0.381 OA
ENDBRANCH   4   8
TORSDOF 1
ENDMDL
MODEL 8
REMARK VINA RESULT:      -3.8     11.562     13.382
REMARK  1 active torsions:
REMARK  status: ('A' for Active; 'I' for Inactive)
REMARK    1  A    between atoms: C5_5  and  C8_8 
ROOT
HETATM    1  C1  UNL     1     -35.187  15.600  -5.622  1.00 20.00     0.010 C 
HETATM    2  C2  UNL     1     -34.830  14.173  -6.037  1.00 20.00     0.035 C 
HETATM    3  C3  UNL     1     -34.580  15.234  -3.200  1.00 20.00     0.041 C 
HETATM    4  C5  UNL     1     -34.312  16.084  -4.454  1.00 20.00     0.019 C 
HETATM    5  C6  UNL     1     -34.751  13.242  -4.869  1.00 20.00     0.151 A 
HETATM    6  C7  UNL     1     -34.590  13.764  -3.467  1.00 20.00     0.151 A 
HETATM    7  O10 UNL     1     -33.474  13.263  -4.204  1.00 20.00    -0.375 OA
ENDROOT
BRANCH   4   8
HETATM    8  C8  UNL     1     -34.551  17.544  -4.171  1.00 20.00     0.149 A 
HETATM    9  C4  UNL     1     -33.554  18.568  -4.596  1.00 20.00     0.200 A 
HETATM   10  O9  UNL     1     -33.633  18.102  -3.239  1.00 20.00    -0.381 OA
ENDBRANCH   4   8
TORSDOF 1
ENDMDL
MODEL 9
REMARK VINA RESULT:      -3.8     10.069     11.316
REMARK  1 active torsions:
REMARK  status: ('A' for Active; 'I' for Inactive)
REMARK    1  A    between atoms: C5_5  and  C8_8 
ROOT
HETATM    1  C1  UNL     1     -41.437   4.426  -0.865  1.00 20.00     0.010 C 
HETATM    2  C2  UNL     1     -40.768   5.772  -0.591  1.00 20.00     0.035 C 
HETATM    3  C3  UNL     1     -42.880   5.324  -2.731  1.00 20.00     0.041 C 
HETATM    4  C5  UNL     1     -41.821   4.276  -2.347  1.00 20.00     0.019 C 
HETATM    5  C6  UNL     1     -41.533   6.918  -1.171  1.00 20.00     0.151 A 
HETATM    6  C7  UNL     1     -42.553   6.703  -2.257  1.00 20.00     0.151 A 
HETATM    7  O10 UNL     1     -41.235   7.164  -2.559  1.00 20.00    -0.375 OA
ENDROOT
BRANCH   4   8
HETATM    8  C8  UNL     1     -42.317   2.884  -2.638  1.00 20.00     0.149 A 
HETATM    9  C4  UNL     1     -41.597   2.015  -3.612  1.00 20.00     0.200 A 
HETATM   10  O9  UNL     1     -42.801   2.717  -3.965  1.00 20.00    -0.381 OA
ENDBRANCH   4   8
TORSDOF 1
ENDMDL
