MODEL 1
REMARK VINA RESULT:      -5.1      0.000      0.000
REMARK  2 active torsions:
REMARK  status: ('A' for Active; 'I' for Inactive)
REMARK    1  A    between atoms: C6_6  and  C8_8 
REMARK    2  A    between atoms: C8_8  and  O9_9 
ROOT
HETATM    1  C1  UNL     1     -35.243   4.138   5.756  1.00 20.00    -0.030 C 
HETATM    2  C2  UNL     1     -35.259   4.163   4.418  1.00 20.00    -0.030 C 
HETATM    3  C3  UNL     1     -34.554   5.179   6.585  1.00 20.00     0.031 C 
HETATM    4  C4  UNL     1     -34.565   5.217   3.610  1.00 20.00     0.034 C 
HETATM    5  C5  UNL     1     -34.169   6.447   5.791  1.00 20.00    -0.009 C 
HETATM    6  C6  UNL     1     -33.557   6.057   4.424  1.00 20.00     0.016 C 
HETATM    7  C7  UNL     1     -33.243   7.319   6.641  1.00 20.00     0.011 C 
ENDROOT
BRANCH   6   8
HETATM    8  C8  UNL     1     -33.113   7.263   3.595  1.00 20.00     0.169 C 
BRANCH   8   9
HETATM    9  O9  UNL     1     -31.713   7.184   3.409  1.00 20.00    -0.400 OA
HETATM   10  H23 UNL     1     -31.472   7.864   2.755  1.00 20.00     0.209 HD
ENDBRANCH   8   9
ENDBRANCH   6   8
TORSDOF 2
ENDMDL
MODEL 2
REMARK VINA RESULT:      -4.6      0.847      2.506
REMARK  2 active torsions:
REMARK  status: ('A' for Active; 'I' for Inactive)
REMARK    1  A    between atoms: C6_6  and  C8_8 
REMARK    2  A    between atoms: C8_8  and  O9_9 
ROOT
HETATM    1  C1  UNL     1     -35.045   5.145   6.005  1.00 20.00    -0.030 C 
HETATM    2  C2  UNL     1     -34.156   6.062   6.407  1.00 20.00    -0.030 C 
HETATM    3  C3  UNL     1     -35.212   4.742   4.572  1.00 20.00     0.031 C 
HETATM    4  C4  UNL     1     -33.257   6.800   5.461  1.00 20.00     0.034 C 
HETATM    5  C5  UNL     1     -34.056   5.207   3.660  1.00 20.00    -0.009 C 
HETATM    6  C6  UNL     1     -33.677   6.672   3.982  1.00 20.00     0.016 C 
HETATM    7  C7  UNL     1     -34.444   4.991   2.195  1.00 20.00     0.011 C 
ENDROOT
BRANCH   6   8
HETATM    8  C8  UNL     1     -32.562   7.218   3.087  1.00 20.00     0.169 C 
BRANCH   8   9
HETATM    9  O9  UNL     1     -31.456   7.549   3.904  1.00 20.00    -0.400 OA
HETATM   10  H23 UNL     1     -30.656   7.433   3.364  1.00 20.00     0.209 HD
ENDBRANCH   8   9
ENDBRANCH   6   8
TORSDOF 2
ENDMDL
MODEL 3
REMARK VINA RESULT:      -4.5      1.553      2.715
REMARK  2 active torsions:
REMARK  status: ('A' for Active; 'I' for Inactive)
REMARK    1  A    between atoms: C6_6  and  C8_8 
REMARK    2  A    between atoms: C8_8  and  O9_9 
ROOT
HETATM    1  C1  UNL     1     -35.311   4.265   4.292  1.00 20.00    -0.030 C 
HETATM    2  C2  UNL     1     -35.300   4.279   5.631  1.00 20.00    -0.030 C 
HETATM    3  C3  UNL     1     -34.525   5.230   3.458  1.00 20.00     0.031 C 
HETATM    4  C4  UNL     1     -34.525   5.280   6.433  1.00 20.00     0.034 C 
HETATM    5  C5  UNL     1     -33.450   6.002   4.254  1.00 20.00    -0.009 C 
HETATM    6  C6  UNL     1     -34.029   6.485   5.606  1.00 20.00     0.016 C 
HETATM    7  C7  UNL     1     -32.897   7.140   3.393  1.00 20.00     0.011 C 
ENDROOT
BRANCH   6   8
HETATM    8  C8  UNL     1     -33.031   7.296   6.435  1.00 20.00     0.169 C 
BRANCH   8   9
HETATM    9  O9  UNL     1     -33.735   7.923   7.490  1.00 20.00    -0.400 OA
HETATM   10  H23 UNL     1     -34.489   7.349   7.712  1.00 20.00     0.209 HD
ENDBRANCH   8   9
ENDBRANCH   6   8
TORSDOF 2
ENDMDL
MODEL 4
REMARK VINA RESULT:      -4.4     12.064     13.655
REMARK  2 active torsions:
REMARK  status: ('A' for Active; 'I' for Inactive)
REMARK    1  A    between atoms: C6_6  and  C8_8 
REMARK    2  A    between atoms: C8_8  and  O9_9 
ROOT
HETATM    1  C1  UNL     1     -33.684  17.066  -3.194  1.00 20.00    -0.030 C 
HETATM    2  C2  UNL     1     -34.111  16.025  -2.468  1.00 20.00    -0.030 C 
HETATM    3  C3  UNL     1     -33.631  17.051  -4.691  1.00 20.00     0.031 C 
HETATM    4  C4  UNL     1     -34.551  14.728  -3.076  1.00 20.00     0.034 C 
HETATM    5  C5  UNL     1     -34.422  15.887  -5.327  1.00 20.00    -0.009 C 
HETATM    6  C6  UNL     1     -34.148  14.572  -4.558  1.00 20.00     0.016 C 
HETATM    7  C7  UNL     1     -34.086  15.796  -6.817  1.00 20.00     0.011 C 
ENDROOT
BRANCH   6   8
HETATM    8  C8  UNL     1     -34.868  13.361  -5.156  1.00 20.00     0.169 C 
BRANCH   8   9
HETATM    9  O9  UNL     1     -35.329  12.548  -4.095  1.00 20.00    -0.400 OA
HETATM   10  H23 UNL     1     -34.923  11.672  -4.209  1.00 20.00     0.209 HD
ENDBRANCH   8   9
ENDBRANCH   6   8
TORSDOF 2
ENDMDL
MODEL 5
REMARK VINA RESULT:      -4.3      2.033      3.212
REMARK  2 active torsions:
REMARK  status: ('A' for Active; 'I' for Inactive)
REMARK    1  A    between atoms: C6_6  and  C8_8 
REMARK    2  A    between atoms: C8_8  and  O9_9 
ROOT
HETATM    1  C1  UNL     1     -32.553   6.853   2.974  1.00 20.00    -0.030 C 
HETATM    2  C2  UNL     1     -33.249   5.794   2.543  1.00 20.00    -0.030 C 
HETATM    3  C3  UNL     1     -32.631   7.365   4.380  1.00 20.00     0.031 C 
HETATM    4  C4  UNL     1     -34.199   5.029   3.414  1.00 20.00     0.034 C 
HETATM    5  C5  UNL     1     -33.299   6.377   5.362  1.00 20.00    -0.009 C 
HETATM    6  C6  UNL     1     -34.566   5.761   4.722  1.00 20.00     0.016 C 
HETATM    7  C7  UNL     1     -33.576   7.086   6.689  1.00 20.00     0.011 C 
ENDROOT
BRANCH   6   8
HETATM    8  C8  UNL     1     -35.307   4.800   5.653  1.00 20.00     0.169 C 
BRANCH   8   9
HETATM    9  O9  UNL     1     -35.361   3.530   5.032  1.00 20.00    -0.400 OA
HETATM   10  H23 UNL     1     -35.296   3.678   4.072  1.00 20.00     0.209 HD
ENDBRANCH   8   9
ENDBRANCH   6   8
TORSDOF 2
ENDMDL
MODEL 6
REMARK VINA RESULT:      -4.2     11.911     13.925
REMARK  2 active torsions:
REMARK  status: ('A' for Active; 'I' for Inactive)
REMARK    1  A    between atoms: C6_6  and  C8_8 
REMARK    2  A    between atoms: C8_8  and  O9_9 
ROOT
HETATM    1  C1  UNL     1     -34.190  17.032  -6.352  1.00 20.00    -0.030 C 
HETATM    2  C2  UNL     1     -34.431  15.822  -6.873  1.00 20.00    -0.030 C 
HETATM    3  C3  UNL     1     -33.928  17.255  -4.894  1.00 20.00     0.031 C 
HETATM    4  C4  UNL     1     -34.493  14.573  -6.049  1.00 20.00     0.034 C 
HETATM    5  C5  UNL     1     -33.619  15.958  -4.115  1.00 20.00    -0.009 C 
HETATM    6  C6  UNL     1     -34.601  14.838  -4.532  1.00 20.00     0.016 C 
HETATM    7  C7  UNL     1     -33.638  16.250  -2.613  1.00 20.00     0.011 C 
ENDROOT
BRANCH   6   8
HETATM    8  C8  UNL     1     -34.383  13.529  -3.770  1.00 20.00     0.169 C 
BRANCH   8   9
HETATM    9  O9  UNL     1     -35.373  12.605  -4.178  1.00 20.00    -0.400 OA
HETATM   10  H23 UNL     1     -35.292  12.506  -5.143  1.00 20.00     0.209 HD
ENDBRANCH   8   9
ENDBRANCH   6   8
TORSDOF 2
ENDMDL
MODEL 7
REMARK VINA RESULT:      -4.1      1.629      3.486
REMARK  2 active torsions:
REMARK  status: ('A' for Active; 'I' for Inactive)
REMARK    1  A    between atoms: C6_6  and  C8_8 
REMARK    2  A    between atoms: C8_8  and  O9_9 
ROOT
HETATM    1  C1  UNL     1     -32.752   6.117   2.340  1.00 20.00    -0.030 C 
HETATM    2  C2  UNL     1     -32.152   7.043   3.099  1.00 20.00    -0.030 C 
HETATM    3  C3  UNL     1     -33.878   5.261   2.833  1.00 20.00     0.031 C 
HETATM    4  C4  UNL     1     -32.524   7.296   4.528  1.00 20.00     0.034 C 
HETATM    5  C5  UNL     1     -34.508   5.765   4.149  1.00 20.00    -0.009 C 
HETATM    6  C6  UNL     1     -33.401   6.186   5.145  1.00 20.00     0.016 C 
HETATM    7  C7  UNL     1     -35.448   4.694   4.707  1.00 20.00     0.011 C 
ENDROOT
BRANCH   6   8
HETATM    8  C8  UNL     1     -33.950   6.660   6.493  1.00 20.00     0.169 C 
BRANCH   8   9
HETATM    9  O9  UNL     1     -33.010   7.546   7.069  1.00 20.00    -0.400 OA
HETATM   10  H23 UNL     1     -32.480   7.914   6.342  1.00 20.00     0.209 HD
ENDBRANCH   8   9
ENDBRANCH   6   8
TORSDOF 2
ENDMDL
MODEL 8
REMARK VINA RESULT:      -4.1     12.207     12.737
REMARK  2 active torsions:
REMARK  status: ('A' for Active; 'I' for Inactive)
REMARK    1  A    between atoms: C6_6  and  C8_8 
REMARK    2  A    between atoms: C8_8  and  O9_9 
ROOT
HETATM    1  C1  UNL     1     -33.562  13.818  -3.923  1.00 20.00    -0.030 C 
HETATM    2  C2  UNL     1     -34.692  13.331  -4.453  1.00 20.00    -0.030 C 
HETATM    3  C3  UNL     1     -33.517  15.077  -3.112  1.00 20.00     0.031 C 
HETATM    4  C4  UNL     1     -36.020  14.010  -4.314  1.00 20.00     0.034 C 
HETATM    5  C5  UNL     1     -34.907  15.567  -2.652  1.00 20.00    -0.009 C 
HETATM    6  C6  UNL     1     -35.921  15.468  -3.817  1.00 20.00     0.016 C 
HETATM    7  C7  UNL     1     -34.784  16.979  -2.076  1.00 20.00     0.011 C 
ENDROOT
BRANCH   6   8
HETATM    8  C8  UNL     1     -37.316  15.977  -3.448  1.00 20.00     0.169 C 
BRANCH   8   9
HETATM    9  O9  UNL     1     -38.051  14.902  -2.896  1.00 20.00    -0.400 OA
HETATM   10  H23 UNL     1     -37.998  14.164  -3.527  1.00 20.00     0.209 HD
ENDBRANCH   8   9
ENDBRANCH   6   8
TORSDOF 2
ENDMDL
MODEL 9
REMARK VINA RESULT:      -4.0     12.498     12.969
REMARK  2 active torsions:
REMARK  status: ('A' for Active; 'I' for Inactive)
REMARK    1  A    between atoms: C6_6  and  C8_8 
REMARK    2  A    between atoms: C8_8  and  O9_9 
ROOT
HETATM    1  C1  UNL     1     -34.776  16.812  -2.211  1.00 20.00    -0.030 C 
HETATM    2  C2  UNL     1     -33.659  16.158  -2.556  1.00 20.00    -0.030 C 
HETATM    3  C3  UNL     1     -36.130  16.454  -2.744  1.00 20.00     0.031 C 
HETATM    4  C4  UNL     1     -33.645  15.020  -3.532  1.00 20.00     0.034 C 
HETATM    5  C5  UNL     1     -36.177  15.075  -3.437  1.00 20.00    -0.009 C 
HETATM    6  C6  UNL     1     -34.944  14.895  -4.355  1.00 20.00     0.016 C 
HETATM    7  C7  UNL     1     -37.508  14.922  -4.177  1.00 20.00     0.011 C 
ENDROOT
BRANCH   6   8
HETATM    8  C8  UNL     1     -34.942  13.565  -5.111  1.00 20.00     0.169 C 
BRANCH   8   9
HETATM    9  O9  UNL     1     -35.077  12.518  -4.170  1.00 20.00    -0.400 OA
HETATM   10  H23 UNL     1     -36.028  12.400  -4.007  1.00 20.00     0.209 HD
ENDBRANCH   8   9
ENDBRANCH   6   8
TORSDOF 2
ENDMDL
