MODEL 1
REMARK VINA RESULT:      -4.6      0.000      0.000
REMARK  1 active torsions:
REMARK  status: ('A' for Active; 'I' for Inactive)
REMARK    1  A    between atoms: C3_3  and  C7_7 
ROOT
HETATM    1  C1  UNL     1     -33.387  17.203  -4.953  1.00 20.00    -0.019 C 
HETATM    2  C2  UNL     1     -33.951  17.465  -6.144  1.00 20.00    -0.087 C 
HETATM    3  C4  UNL     1     -34.677  16.407  -6.933  1.00 20.00     0.034 C 
HETATM    4  C5  UNL     1     -34.380  14.987  -6.449  1.00 20.00     0.016 C 
HETATM    5  C6  UNL     1     -33.449  15.862  -4.260  1.00 20.00     0.015 C 
HETATM    6  C7  UNL     1     -34.454  14.897  -4.924  1.00 20.00     0.054 C 
HETATM    7  C8  UNL     1     -33.892  18.828  -6.767  1.00 20.00     0.043 C 
HETATM    8  C9  UNL     1     -33.795  16.060  -2.779  1.00 20.00     0.015 C 
ENDROOT
BRANCH   6   9
HETATM    9  C3  UNL     1     -34.165  13.485  -4.509  1.00 20.00     0.236 C 
HETATM   10  O10 UNL     1     -35.020  12.609  -4.453  1.00 20.00    -0.306 OA
ENDBRANCH   6   9
TORSDOF 1
ENDMDL
MODEL 2
REMARK VINA RESULT:      -4.5     11.738     13.733
REMARK  1 active torsions:
REMARK  status: ('A' for Active; 'I' for Inactive)
REMARK    1  A    between atoms: C3_3  and  C7_7 
ROOT
HETATM    1  C1  UNL     1     -32.577   7.064   4.452  1.00 20.00    -0.019 C 
HETATM    2  C2  UNL     1     -32.801   7.046   3.127  1.00 20.00    -0.087 C 
HETATM    3  C4  UNL     1     -33.867   6.179   2.510  1.00 20.00     0.034 C 
HETATM    4  C5  UNL     1     -34.375   5.087   3.453  1.00 20.00     0.016 C 
HETATM    5  C6  UNL     1     -33.376   6.271   5.460  1.00 20.00     0.015 C 
HETATM    6  C7  UNL     1     -34.649   5.648   4.849  1.00 20.00     0.054 C 
HETATM    7  C8  UNL     1     -32.001   7.885   2.176  1.00 20.00     0.043 C 
HETATM    8  C9  UNL     1     -33.735   7.164   6.654  1.00 20.00     0.015 C 
ENDROOT
BRANCH   6   9
HETATM    9  C3  UNL     1     -35.152   4.539   5.726  1.00 20.00     0.236 C 
HETATM   10  O10 UNL     1     -35.100   3.355   5.414  1.00 20.00    -0.306 OA
ENDBRANCH   6   9
TORSDOF 1
ENDMDL
MODEL 3
REMARK VINA RESULT:      -4.5      2.301      3.410
REMARK  1 active torsions:
REMARK  status: ('A' for Active; 'I' for Inactive)
REMARK    1  A    between atoms: C3_3  and  C7_7 
ROOT
HETATM    1  C1  UNL     1     -35.525  15.852  -2.328  1.00 20.00    -0.019 C 
HETATM    2  C2  UNL     1     -34.306  16.365  -2.089  1.00 20.00    -0.087 C 
HETATM    3  C4  UNL     1     -33.111  16.013  -2.936  1.00 20.00     0.034 C 
HETATM    4  C5  UNL     1     -33.335  14.774  -3.805  1.00 20.00     0.016 C 
HETATM    5  C6  UNL     1     -35.844  14.920  -3.473  1.00 20.00     0.015 C 
HETATM    6  C7  UNL     1     -34.697  14.827  -4.500  1.00 20.00     0.054 C 
HETATM    7  C8  UNL     1     -34.055  17.319  -0.959  1.00 20.00     0.043 C 
HETATM    8  C9  UNL     1     -37.142  15.366  -4.158  1.00 20.00     0.015 C 
ENDROOT
BRANCH   6   9
HETATM    9  C3  UNL     1     -34.857  13.597  -5.344  1.00 20.00     0.236 C 
HETATM   10  O10 UNL     1     -34.860  12.460  -4.887  1.00 20.00    -0.306 OA
ENDBRANCH   6   9
TORSDOF 1
ENDMDL
MODEL 4
REMARK VINA RESULT:      -4.3      1.683      3.216
REMARK  1 active torsions:
REMARK  status: ('A' for Active; 'I' for Inactive)
REMARK    1  A    between atoms: C3_3  and  C7_7 
ROOT
HETATM    1  C1  UNL     1     -33.961  15.103  -3.104  1.00 20.00    -0.019 C 
HETATM    2  C2  UNL     1     -33.904  16.427  -2.881  1.00 20.00    -0.087 C 
HETATM    3  C4  UNL     1     -33.961  17.429  -4.004  1.00 20.00     0.034 C 
HETATM    4  C5  UNL     1     -33.708  16.807  -5.378  1.00 20.00     0.016 C 
HETATM    5  C6  UNL     1     -34.130  14.478  -4.470  1.00 20.00     0.015 C 
HETATM    6  C7  UNL     1     -34.504  15.513  -5.552  1.00 20.00     0.054 C 
HETATM    7  C8  UNL     1     -33.775  16.993  -1.498  1.00 20.00     0.043 C 
HETATM    8  C9  UNL     1     -35.185  13.367  -4.403  1.00 20.00     0.015 C 
ENDROOT
BRANCH   6   9
HETATM    9  C3  UNL     1     -34.225  14.954  -6.917  1.00 20.00     0.236 C 
HETATM   10  O10 UNL     1     -35.103  14.586  -7.689  1.00 20.00    -0.306 OA
ENDBRANCH   6   9
TORSDOF 1
ENDMDL
MODEL 5
REMARK VINA RESULT:      -4.3      1.434      2.897
REMARK  1 active torsions:
REMARK  status: ('A' for Active; 'I' for Inactive)
REMARK    1  A    between atoms: C3_3  and  C7_7 
ROOT
HETATM    1  C1  UNL     1     -34.313  17.518  -4.444  1.00 20.00    -0.019 C 
HETATM    2  C2  UNL     1     -33.932  17.780  -3.183  1.00 20.00    -0.087 C 
HETATM    3  C4  UNL     1     -33.975  16.731  -2.102  1.00 20.00     0.034 C 
HETATM    4  C5  UNL     1     -34.822  15.515  -2.478  1.00 20.00     0.016 C 
HETATM    5  C6  UNL     1     -34.776  16.164  -4.928  1.00 20.00     0.015 C 
HETATM    6  C7  UNL     1     -34.511  15.044  -3.900  1.00 20.00     0.054 C 
HETATM    7  C8  UNL     1     -33.443  19.136  -2.767  1.00 20.00     0.043 C 
HETATM    8  C9  UNL     1     -34.102  15.834  -6.266  1.00 20.00     0.015 C 
ENDROOT
BRANCH   6   9
HETATM    9  C3  UNL     1     -35.361  13.847  -4.209  1.00 20.00     0.236 C 
HETATM   10  O10 UNL     1     -34.917  12.709  -4.301  1.00 20.00    -0.306 OA
ENDBRANCH   6   9
TORSDOF 1
ENDMDL
MODEL 6
REMARK VINA RESULT:      -4.1      2.679      4.770
REMARK  1 active torsions:
REMARK  status: ('A' for Active; 'I' for Inactive)
REMARK    1  A    between atoms: C3_3  and  C7_7 
ROOT
HETATM    1  C1  UNL     1     -34.690  16.295  -1.134  1.00 20.00    -0.019 C 
HETATM    2  C2  UNL     1     -34.648  17.487  -0.515  1.00 20.00    -0.087 C 
HETATM    3  C4  UNL     1     -34.274  18.752  -1.243  1.00 20.00     0.034 C 
HETATM    4  C5  UNL     1     -33.601  18.493  -2.591  1.00 20.00     0.016 C 
HETATM    5  C6  UNL     1     -34.417  16.093  -2.606  1.00 20.00     0.015 C 
HETATM    6  C7  UNL     1     -34.352  17.423  -3.386  1.00 20.00     0.054 C 
HETATM    7  C8  UNL     1     -34.967  17.635   0.943  1.00 20.00     0.043 C 
HETATM    8  C9  UNL     1     -35.484  15.170  -3.208  1.00 20.00     0.015 C 
ENDROOT
BRANCH   6   9
HETATM    9  C3  UNL     1     -33.655  17.218  -4.699  1.00 20.00     0.236 C 
HETATM   10  O10 UNL     1     -32.742  16.416  -4.861  1.00 20.00    -0.306 OA
ENDBRANCH   6   9
TORSDOF 1
ENDMDL
MODEL 7
REMARK VINA RESULT:      -4.1      0.767      2.379
REMARK  1 active torsions:
REMARK  status: ('A' for Active; 'I' for Inactive)
REMARK    1  A    between atoms: C3_3  and  C7_7 
ROOT
HETATM    1  C1  UNL     1     -34.968  16.804  -6.858  1.00 20.00    -0.019 C 
HETATM    2  C2  UNL     1     -34.066  17.566  -6.217  1.00 20.00    -0.087 C 
HETATM    3  C4  UNL     1     -33.383  17.104  -4.956  1.00 20.00     0.034 C 
HETATM    4  C5  UNL     1     -34.076  15.908  -4.301  1.00 20.00     0.016 C 
HETATM    5  C6  UNL     1     -35.362  15.410  -6.428  1.00 20.00     0.015 C 
HETATM    6  C7  UNL     1     -34.431  14.841  -5.337  1.00 20.00     0.054 C 
HETATM    7  C8  UNL     1     -33.683  18.929  -6.712  1.00 20.00     0.043 C 
HETATM    8  C9  UNL     1     -35.391  14.480  -7.647  1.00 20.00     0.015 C 
ENDROOT
BRANCH   6   9
HETATM    9  C3  UNL     1     -35.096  13.692  -4.639  1.00 20.00     0.236 C 
HETATM   10  O10 UNL     1     -34.763  12.522  -4.793  1.00 20.00    -0.306 OA
ENDBRANCH   6   9
TORSDOF 1
ENDMDL
MODEL 8
REMARK VINA RESULT:      -4.1     12.037     14.261
REMARK  1 active torsions:
REMARK  status: ('A' for Active; 'I' for Inactive)
REMARK    1  A    between atoms: C3_3  and  C7_7 
ROOT
HETATM    1  C1  UNL     1     -34.516   4.684   4.570  1.00 20.00    -0.019 C 
HETATM    2  C2  UNL     1     -34.663   5.187   5.807  1.00 20.00    -0.087 C 
HETATM    3  C4  UNL     1     -34.015   6.482   6.224  1.00 20.00     0.034 C 
HETATM    4  C5  UNL     1     -32.912   6.937   5.268  1.00 20.00     0.016 C 
HETATM    5  C6  UNL     1     -33.740   5.360   3.464  1.00 20.00     0.015 C 
HETATM    6  C7  UNL     1     -33.360   6.815   3.811  1.00 20.00     0.054 C 
HETATM    7  C8  UNL     1     -35.479   4.490   6.855  1.00 20.00     0.043 C 
HETATM    8  C9  UNL     1     -34.548   5.313   2.161  1.00 20.00     0.015 C 
ENDROOT
BRANCH   6   9
HETATM    9  C3  UNL     1     -32.246   7.283   2.921  1.00 20.00     0.236 C 
HETATM   10  O10 UNL     1     -32.328   8.268   2.196  1.00 20.00    -0.306 OA
ENDBRANCH   6   9
TORSDOF 1
ENDMDL
MODEL 9
REMARK VINA RESULT:      -4.1      1.428      2.697
REMARK  1 active torsions:
REMARK  status: ('A' for Active; 'I' for Inactive)
REMARK    1  A    between atoms: C3_3  and  C7_7 
ROOT
HETATM    1  C1  UNL     1     -35.354  16.849  -5.137  1.00 20.00    -0.019 C 
HETATM    2  C2  UNL     1     -35.087  17.458  -3.969  1.00 20.00    -0.087 C 
HETATM    3  C4  UNL     1     -34.423  16.736  -2.826  1.00 20.00     0.034 C 
HETATM    4  C5  UNL     1     -34.441  15.215  -2.985  1.00 20.00     0.016 C 
HETATM    5  C6  UNL     1     -34.989  15.417  -5.451  1.00 20.00     0.015 C 
HETATM    6  C7  UNL     1     -34.039  14.804  -4.402  1.00 20.00     0.054 C 
HETATM    7  C8  UNL     1     -35.437  18.897  -3.726  1.00 20.00     0.043 C 
HETATM    8  C9  UNL     1     -34.366  15.337  -6.851  1.00 20.00     0.015 C 
ENDROOT
BRANCH   6   9
HETATM    9  C3  UNL     1     -34.064  13.306  -4.496  1.00 20.00     0.236 C 
HETATM   10  O10 UNL     1     -35.081  12.638  -4.355  1.00 20.00    -0.306 OA
ENDBRANCH   6   9
TORSDOF 1
ENDMDL
