MODEL 1
REMARK VINA RESULT:      -3.9      0.000      0.000
REMARK  0 active torsions:
REMARK  status: ('A' for Active; 'I' for Inactive)
ROOT
HETATM    1  C1  UNL     1     -33.988  14.065  -3.803  1.00 20.00     0.025 C 
HETATM    2  C2  UNL     1     -34.988  15.179  -3.764  1.00 20.00     0.081 C 
HETATM    3  C3  UNL     1     -36.162  14.490  -4.456  1.00 20.00     0.029 C 
HETATM    4  C4  UNL     1     -32.554  14.303  -3.470  1.00 20.00     0.067 C 
HETATM    5  C5  UNL     1     -37.487  14.759  -3.748  1.00 20.00     0.034 C 
HETATM    6  C6  UNL     1     -36.251  14.872  -5.937  1.00 20.00     0.034 C 
HETATM    7  N7  UNL     1     -34.458  12.904  -4.129  1.00 20.00    -0.210 NA
HETATM    8  N8  UNL     1     -35.788  13.078  -4.309  1.00 20.00    -0.208 NA
HETATM    9  H20 UNL     1     -36.285  12.640  -3.533  1.00 20.00     0.149 HD
ENDROOT
TORSDOF 0
ENDMDL
MODEL 2
REMARK VINA RESULT:      -3.9      1.493      3.169
REMARK  0 active torsions:
REMARK  status: ('A' for Active; 'I' for Inactive)
ROOT
HETATM    1  C1  UNL     1     -34.892  14.140  -5.924  1.00 20.00     0.025 C 
HETATM    2  C2  UNL     1     -34.028  15.209  -5.330  1.00 20.00     0.081 C 
HETATM    3  C3  UNL     1     -33.799  14.608  -3.945  1.00 20.00     0.029 C 
HETATM    4  C4  UNL     1     -35.614  14.358  -7.211  1.00 20.00     0.067 C 
HETATM    5  C5  UNL     1     -32.345  14.729  -3.497  1.00 20.00     0.034 C 
HETATM    6  C6  UNL     1     -34.741  15.215  -2.901  1.00 20.00     0.034 C 
HETATM    7  N7  UNL     1     -34.951  13.033  -5.256  1.00 20.00    -0.210 NA
HETATM    8  N8  UNL     1     -34.137  13.200  -4.188  1.00 20.00    -0.208 NA
HETATM    9  H20 UNL     1     -33.300  12.633  -4.321  1.00 20.00     0.149 HD
ENDROOT
TORSDOF 0
ENDMDL
MODEL 3
REMARK VINA RESULT:      -3.9      2.119      2.983
REMARK  0 active torsions:
REMARK  status: ('A' for Active; 'I' for Inactive)
ROOT
HETATM    1  C1  UNL     1     -35.169  14.362  -3.797  1.00 20.00     0.025 C 
HETATM    2  C2  UNL     1     -34.109  15.086  -3.026  1.00 20.00     0.081 C 
HETATM    3  C3  UNL     1     -34.935  16.258  -2.501  1.00 20.00     0.029 C 
HETATM    4  C4  UNL     1     -34.822  13.252  -4.731  1.00 20.00     0.067 C 
HETATM    5  C5  UNL     1     -34.647  16.555  -1.032  1.00 20.00     0.034 C 
HETATM    6  C6  UNL     1     -34.742  17.515  -3.356  1.00 20.00     0.034 C 
HETATM    7  N7  UNL     1     -36.383  14.757  -3.585  1.00 20.00    -0.210 NA
HETATM    8  N8  UNL     1     -36.298  15.736  -2.654  1.00 20.00    -0.208 NA
HETATM    9  H20 UNL     1     -36.662  15.381  -1.769  1.00 20.00     0.149 HD
ENDROOT
TORSDOF 0
ENDMDL
MODEL 4
REMARK VINA RESULT:      -3.8      2.018      2.646
REMARK  0 active torsions:
REMARK  status: ('A' for Active; 'I' for Inactive)
ROOT
HETATM    1  C1  UNL     1     -34.299  15.721  -2.621  1.00 20.00     0.025 C 
HETATM    2  C2  UNL     1     -35.314  14.882  -3.334  1.00 20.00     0.081 C 
HETATM    3  C3  UNL     1     -34.552  14.609  -4.629  1.00 20.00     0.029 C 
HETATM    4  C4  UNL     1     -34.652  16.473  -1.382  1.00 20.00     0.067 C 
HETATM    5  C5  UNL     1     -34.667  13.152  -5.070  1.00 20.00     0.034 C 
HETATM    6  C6  UNL     1     -34.990  15.552  -5.754  1.00 20.00     0.034 C 
HETATM    7  N7  UNL     1     -33.116  15.732  -3.145  1.00 20.00    -0.210 NA
HETATM    8  N8  UNL     1     -33.175  14.905  -4.215  1.00 20.00    -0.208 NA
HETATM    9  H20 UNL     1     -32.659  14.052  -4.001  1.00 20.00     0.149 HD
ENDROOT
TORSDOF 0
ENDMDL
MODEL 5
REMARK VINA RESULT:      -3.8     10.759     11.784
REMARK  0 active torsions:
REMARK  status: ('A' for Active; 'I' for Inactive)
ROOT
HETATM    1  C1  UNL     1     -41.556   4.007  -2.167  1.00 20.00     0.025 C 
HETATM    2  C2  UNL     1     -42.437   5.211  -2.051  1.00 20.00     0.081 C 
HETATM    3  C3  UNL     1     -41.732   5.930  -0.903  1.00 20.00     0.029 C 
HETATM    4  C4  UNL     1     -41.958   2.834  -2.996  1.00 20.00     0.067 C 
HETATM    5  C5  UNL     1     -41.592   7.428  -1.159  1.00 20.00     0.034 C 
HETATM    6  C6  UNL     1     -42.425   5.672   0.439  1.00 20.00     0.034 C 
HETATM    7  N7  UNL     1     -40.438   4.066  -1.517  1.00 20.00    -0.210 NA
HETATM    8  N8  UNL     1     -40.413   5.287  -0.933  1.00 20.00    -0.208 NA
HETATM    9  H20 UNL     1     -39.726   5.868  -1.415  1.00 20.00     0.149 HD
ENDROOT
TORSDOF 0
ENDMDL
MODEL 6
REMARK VINA RESULT:      -3.7      9.654     10.798
REMARK  0 active torsions:
REMARK  status: ('A' for Active; 'I' for Inactive)
ROOT
HETATM    1  C1  UNL     1     -41.939   5.255  -2.189  1.00 20.00     0.025 C 
HETATM    2  C2  UNL     1     -42.894   5.987  -3.081  1.00 20.00     0.081 C 
HETATM    3  C3  UNL     1     -42.481   7.424  -2.769  1.00 20.00     0.029 C 
HETATM    4  C4  UNL     1     -42.094   3.796  -1.924  1.00 20.00     0.067 C 
HETATM    5  C5  UNL     1     -42.379   8.281  -4.027  1.00 20.00     0.034 C 
HETATM    6  C6  UNL     1     -43.417   8.073  -1.745  1.00 20.00     0.034 C 
HETATM    7  N7  UNL     1     -40.983   5.969  -1.689  1.00 20.00    -0.210 NA
HETATM    8  N8  UNL     1     -41.148   7.216  -2.190  1.00 20.00    -0.208 NA
HETATM    9  H20 UNL     1     -40.413   7.396  -2.873  1.00 20.00     0.149 HD
ENDROOT
TORSDOF 0
ENDMDL
MODEL 7
REMARK VINA RESULT:      -3.6      2.193      3.078
REMARK  0 active torsions:
REMARK  status: ('A' for Active; 'I' for Inactive)
ROOT
HETATM    1  C1  UNL     1     -34.772  16.107  -2.250  1.00 20.00     0.025 C 
HETATM    2  C2  UNL     1     -33.604  15.983  -3.179  1.00 20.00     0.081 C 
HETATM    3  C3  UNL     1     -34.254  15.166  -4.294  1.00 20.00     0.029 C 
HETATM    4  C4  UNL     1     -34.600  16.615  -0.858  1.00 20.00     0.067 C 
HETATM    5  C5  UNL     1     -33.887  15.688  -5.680  1.00 20.00     0.034 C 
HETATM    6  C6  UNL     1     -33.925  13.675  -4.171  1.00 20.00     0.034 C 
HETATM    7  N7  UNL     1     -35.917  15.759  -2.741  1.00 20.00    -0.210 NA
HETATM    8  N8  UNL     1     -35.678  15.404  -4.025  1.00 20.00    -0.208 NA
HETATM    9  H20 UNL     1     -36.058  16.122  -4.642  1.00 20.00     0.149 HD
ENDROOT
TORSDOF 0
ENDMDL
MODEL 8
REMARK VINA RESULT:      -3.6      2.679      3.385
REMARK  0 active torsions:
REMARK  status: ('A' for Active; 'I' for Inactive)
ROOT
HETATM    1  C1  UNL     1     -34.158  16.004  -3.295  1.00 20.00     0.025 C 
HETATM    2  C2  UNL     1     -35.000  16.250  -4.509  1.00 20.00     0.081 C 
HETATM    3  C3  UNL     1     -33.897  16.441  -5.547  1.00 20.00     0.029 C 
HETATM    4  C4  UNL     1     -34.756  16.004  -1.928  1.00 20.00     0.067 C 
HETATM    5  C5  UNL     1     -34.196  15.705  -6.850  1.00 20.00     0.034 C 
HETATM    6  C6  UNL     1     -33.621  17.924  -5.814  1.00 20.00     0.034 C 
HETATM    7  N7  UNL     1     -32.903  15.785  -3.520  1.00 20.00    -0.210 NA
HETATM    8  N8  UNL     1     -32.755  15.819  -4.865  1.00 20.00    -0.208 NA
HETATM    9  H20 UNL     1     -32.592  14.871  -5.203  1.00 20.00     0.149 HD
ENDROOT
TORSDOF 0
ENDMDL
MODEL 9
REMARK VINA RESULT:      -3.6      2.566      3.365
REMARK  0 active torsions:
REMARK  status: ('A' for Active; 'I' for Inactive)
ROOT
HETATM    1  C1  UNL     1     -33.663  17.182  -3.712  1.00 20.00     0.025 C 
HETATM    2  C2  UNL     1     -34.101  15.932  -3.016  1.00 20.00     0.081 C 
HETATM    3  C3  UNL     1     -33.993  14.945  -4.176  1.00 20.00     0.029 C 
HETATM    4  C4  UNL     1     -33.830  18.520  -3.074  1.00 20.00     0.067 C 
HETATM    5  C5  UNL     1     -33.342  13.630  -3.757  1.00 20.00     0.034 C 
HETATM    6  C6  UNL     1     -35.354  14.691  -4.833  1.00 20.00     0.034 C 
HETATM    7  N7  UNL     1     -33.128  17.015  -4.879  1.00 20.00    -0.210 NA
HETATM    8  N8  UNL     1     -33.108  15.678  -5.090  1.00 20.00    -0.208 NA
HETATM    9  H20 UNL     1     -32.146  15.348  -5.021  1.00 20.00     0.149 HD
ENDROOT
TORSDOF 0
ENDMDL
