MODEL 1
REMARK VINA RESULT:      -4.1      0.000      0.000
REMARK  2 active torsions:
REMARK  status: ('A' for Active; 'I' for Inactive)
REMARK    1  A    between atoms: C1_1  and  O5_5 
REMARK    2  A    between atoms: C3_3  and  O5_5 
ROOT
HETATM    1  O5  UNL     1     -33.755   6.752   3.854  1.00 20.00    -0.288 OA
ENDROOT
BRANCH   1   2
HETATM    2  C1  UNL     1     -32.606   6.677   3.109  1.00 20.00     0.359 C 
HETATM    3  O4  UNL     1     -31.908   5.670   3.043  1.00 20.00    -0.245 OA
HETATM    4 CL6  UNL     1     -32.259   8.169   2.276  1.00 20.00    -0.012 Cl
ENDBRANCH   1   2
BRANCH   1   5
HETATM    5  C3  UNL     1     -33.982   5.731   4.840  1.00 20.00     0.224 C 
HETATM    6  C2  UNL     1     -35.282   5.000   4.547  1.00 20.00     0.057 C 
HETATM    7 CL7  UNL     1     -34.091   6.528   6.433  1.00 20.00    -0.095 Cl
ENDBRANCH   1   5
TORSDOF 2
ENDMDL
MODEL 2
REMARK VINA RESULT:      -3.9      2.136      3.742
REMARK  2 active torsions:
REMARK  status: ('A' for Active; 'I' for Inactive)
REMARK    1  A    between atoms: C1_1  and  O5_5 
REMARK    2  A    between atoms: C3_3  and  O5_5 
ROOT
HETATM    1  O5  UNL     1     -34.114   6.670   4.565  1.00 20.00    -0.288 OA
ENDROOT
BRANCH   1   2
HETATM    2  C1  UNL     1     -34.116   6.273   5.877  1.00 20.00     0.359 C 
HETATM    3  O4  UNL     1     -33.608   6.927   6.783  1.00 20.00    -0.245 OA
HETATM    4 CL6  UNL     1     -34.919   4.741   6.104  1.00 20.00    -0.012 Cl
ENDBRANCH   1   2
BRANCH   1   5
HETATM    5  C3  UNL     1     -33.199   6.018   3.669  1.00 20.00     0.224 C 
HETATM    6  C2  UNL     1     -32.312   7.047   2.988  1.00 20.00     0.057 C 
HETATM    7 CL7  UNL     1     -34.161   5.151   2.442  1.00 20.00    -0.095 Cl
ENDBRANCH   1   5
TORSDOF 2
ENDMDL
MODEL 3
REMARK VINA RESULT:      -3.9      1.467      1.467
REMARK  2 active torsions:
REMARK  status: ('A' for Active; 'I' for Inactive)
REMARK    1  A    between atoms: C1_1  and  O5_5 
REMARK    2  A    between atoms: C3_3  and  O5_5 
ROOT
HETATM    1  O5  UNL     1     -34.503   6.057   4.249  1.00 20.00    -0.288 OA
ENDROOT
BRANCH   1   2
HETATM    2  C1  UNL     1     -33.726   5.827   3.143  1.00 20.00     0.359 C 
HETATM    3  O4  UNL     1     -34.071   5.106   2.212  1.00 20.00    -0.245 OA
HETATM    4 CL6  UNL     1     -32.204   6.675   3.217  1.00 20.00    -0.012 Cl
ENDBRANCH   1   2
BRANCH   1   5
HETATM    5  C3  UNL     1     -34.068   5.500   5.501  1.00 20.00     0.224 C 
HETATM    6  C2  UNL     1     -35.066   4.464   5.988  1.00 20.00     0.057 C 
HETATM    7 CL7  UNL     1     -33.964   6.833   6.684  1.00 20.00    -0.095 Cl
ENDBRANCH   1   5
TORSDOF 2
ENDMDL
MODEL 4
REMARK VINA RESULT:      -3.8      1.617      1.873
REMARK  2 active torsions:
REMARK  status: ('A' for Active; 'I' for Inactive)
REMARK    1  A    between atoms: C1_1  and  O5_5 
REMARK    2  A    between atoms: C3_3  and  O5_5 
ROOT
HETATM    1  O5  UNL     1     -33.196   5.740   4.536  1.00 20.00    -0.288 OA
ENDROOT
BRANCH   1   2
HETATM    2  C1  UNL     1     -33.359   5.989   3.197  1.00 20.00     0.359 C 
HETATM    3  O4  UNL     1     -34.141   5.368   2.484  1.00 20.00    -0.245 OA
HETATM    4 CL6  UNL     1     -32.330   7.281   2.635  1.00 20.00    -0.012 Cl
ENDBRANCH   1   2
BRANCH   1   5
HETATM    5  C3  UNL     1     -34.343   5.890   5.389  1.00 20.00     0.224 C 
HETATM    6  C2  UNL     1     -33.980   6.711   6.615  1.00 20.00     0.057 C 
HETATM    7 CL7  UNL     1     -34.863   4.260   5.895  1.00 20.00    -0.095 Cl
ENDBRANCH   1   5
TORSDOF 2
ENDMDL
MODEL 5
REMARK VINA RESULT:      -3.7      1.905      3.656
REMARK  2 active torsions:
REMARK  status: ('A' for Active; 'I' for Inactive)
REMARK    1  A    between atoms: C1_1  and  O5_5 
REMARK    2  A    between atoms: C3_3  and  O5_5 
ROOT
HETATM    1  O5  UNL     1     -33.340   5.699   4.891  1.00 20.00    -0.288 OA
ENDROOT
BRANCH   1   2
HETATM    2  C1  UNL     1     -34.164   5.825   5.980  1.00 20.00     0.359 C 
HETATM    3  O4  UNL     1     -34.166   6.806   6.716  1.00 20.00    -0.245 OA
HETATM    4 CL6  UNL     1     -35.200   4.438   6.190  1.00 20.00    -0.012 Cl
ENDBRANCH   1   2
BRANCH   1   5
HETATM    5  C3  UNL     1     -33.718   6.377   3.682  1.00 20.00     0.224 C 
HETATM    6  C2  UNL     1     -34.382   5.403   2.722  1.00 20.00     0.057 C 
HETATM    7 CL7  UNL     1     -32.235   7.032   2.937  1.00 20.00    -0.095 Cl
ENDBRANCH   1   5
TORSDOF 2
ENDMDL
MODEL 6
REMARK VINA RESULT:      -3.6      2.097      3.555
REMARK  2 active torsions:
REMARK  status: ('A' for Active; 'I' for Inactive)
REMARK    1  A    between atoms: C1_1  and  O5_5 
REMARK    2  A    between atoms: C3_3  and  O5_5 
ROOT
HETATM    1  O5  UNL     1     -34.118   6.681   4.671  1.00 20.00    -0.288 OA
ENDROOT
BRANCH   1   2
HETATM    2  C1  UNL     1     -34.134   6.288   5.985  1.00 20.00     0.359 C 
HETATM    3  O4  UNL     1     -34.681   5.262   6.377  1.00 20.00    -0.245 OA
HETATM    4 CL6  UNL     1     -33.292   7.410   7.021  1.00 20.00    -0.012 Cl
ENDBRANCH   1   2
BRANCH   1   5
HETATM    5  C3  UNL     1     -33.227   5.993   3.777  1.00 20.00     0.224 C 
HETATM    6  C2  UNL     1     -32.281   6.982   3.117  1.00 20.00     0.057 C 
HETATM    7 CL7  UNL     1     -34.219   5.190   2.530  1.00 20.00    -0.095 Cl
ENDBRANCH   1   5
TORSDOF 2
ENDMDL
MODEL 7
REMARK VINA RESULT:      -3.5     10.790     11.548
REMARK  2 active torsions:
REMARK  status: ('A' for Active; 'I' for Inactive)
REMARK    1  A    between atoms: C1_1  and  O5_5 
REMARK    2  A    between atoms: C3_3  and  O5_5 
ROOT
HETATM    1  O5  UNL     1     -34.977  14.841  -3.214  1.00 20.00    -0.288 OA
ENDROOT
BRANCH   1   2
HETATM    2  C1  UNL     1     -34.450  13.684  -3.730  1.00 20.00     0.359 C 
HETATM    3  O4  UNL     1     -35.128  12.811  -4.263  1.00 20.00    -0.245 OA
HETATM    4 CL6  UNL     1     -32.718  13.604  -3.539  1.00 20.00    -0.012 Cl
ENDBRANCH   1   2
BRANCH   1   5
HETATM    5  C3  UNL     1     -34.068  15.787  -2.627  1.00 20.00     0.224 C 
HETATM    6  C2  UNL     1     -34.686  16.402  -1.382  1.00 20.00     0.057 C 
HETATM    7 CL7  UNL     1     -33.757  17.065  -3.833  1.00 20.00    -0.095 Cl
ENDBRANCH   1   5
TORSDOF 2
ENDMDL
MODEL 8
REMARK VINA RESULT:      -3.5      1.912      3.508
REMARK  2 active torsions:
REMARK  status: ('A' for Active; 'I' for Inactive)
REMARK    1  A    between atoms: C1_1  and  O5_5 
REMARK    2  A    between atoms: C3_3  and  O5_5 
ROOT
HETATM    1  O5  UNL     1     -33.863   5.381   3.807  1.00 20.00    -0.288 OA
ENDROOT
BRANCH   1   2
HETATM    2  C1  UNL     1     -35.096   5.006   4.275  1.00 20.00     0.359 C 
HETATM    3  O4  UNL     1     -36.152   5.431   3.815  1.00 20.00    -0.245 OA
HETATM    4 CL6  UNL     1     -34.986   3.864   5.589  1.00 20.00    -0.012 Cl
ENDBRANCH   1   2
BRANCH   1   5
HETATM    5  C3  UNL     1     -33.417   6.717   4.092  1.00 20.00     0.224 C 
HETATM    6  C2  UNL     1     -32.034   6.943   3.502  1.00 20.00     0.057 C 
HETATM    7 CL7  UNL     1     -33.349   6.904   5.865  1.00 20.00    -0.095 Cl
ENDBRANCH   1   5
TORSDOF 2
ENDMDL
MODEL 9
REMARK VINA RESULT:      -3.4     11.305     11.742
REMARK  2 active torsions:
REMARK  status: ('A' for Active; 'I' for Inactive)
REMARK    1  A    between atoms: C1_1  and  O5_5 
REMARK    2  A    between atoms: C3_3  and  O5_5 
ROOT
HETATM    1  O5  UNL     1     -35.266  14.415  -3.410  1.00 20.00    -0.288 OA
ENDROOT
BRANCH   1   2
HETATM    2  C1  UNL     1     -35.226  13.710  -4.586  1.00 20.00     0.359 C 
HETATM    3  O4  UNL     1     -34.878  12.536  -4.659  1.00 20.00    -0.245 OA
HETATM    4 CL6  UNL     1     -35.723  14.674  -5.952  1.00 20.00    -0.012 Cl
ENDBRANCH   1   2
BRANCH   1   5
HETATM    5  C3  UNL     1     -34.438  15.584  -3.301  1.00 20.00     0.224 C 
HETATM    6  C2  UNL     1     -32.992  15.231  -3.609  1.00 20.00     0.057 C 
HETATM    7 CL7  UNL     1     -34.562  16.186  -1.626  1.00 20.00    -0.095 Cl
ENDBRANCH   1   5
TORSDOF 2
ENDMDL
