MODEL 1
REMARK VINA RESULT:      -4.8      0.000      0.000
REMARK  1 active torsions:
REMARK  status: ('A' for Active; 'I' for Inactive)
REMARK    1  A    between atoms: C1_1  and  C5_5 
ROOT
HETATM    1  C2  UNL     1     -35.061  13.334  -4.559  1.00 20.00     0.006 C 
HETATM    2  C3  UNL     1     -33.789  13.776  -3.823  1.00 20.00     0.006 C 
HETATM    3  C4  UNL     1     -34.041  15.121  -5.737  1.00 20.00     0.011 C 
HETATM    4  C5  UNL     1     -35.992  15.726  -4.542  1.00 20.00     0.067 C 
HETATM    5  C6  UNL     1     -35.430  14.571  -5.403  1.00 20.00    -0.002 C 
HETATM    6  C7  UNL     1     -33.636  15.244  -4.259  1.00 20.00    -0.006 C 
HETATM    7  C8  UNL     1     -34.771  16.145  -3.664  1.00 20.00    -0.033 C 
HETATM    8  C10 UNL     1     -34.439  17.635  -3.895  1.00 20.00     0.016 C 
HETATM    9  C11 UNL     1     -34.959  15.952  -2.150  1.00 20.00     0.016 C 
ENDROOT
BRANCH   4  10
HETATM   10  C1  UNL     1     -37.251  15.355  -3.818  1.00 20.00     0.128 C 
HETATM   11  C9  UNL     1     -38.121  16.490  -3.350  1.00 20.00     0.091 C 
HETATM   12  O12 UNL     1     -37.557  14.181  -3.617  1.00 20.00    -0.298 OA
ENDBRANCH   4  10
TORSDOF 1
ENDMDL
MODEL 2
REMARK VINA RESULT:      -4.8      2.010      3.536
REMARK  1 active torsions:
REMARK  status: ('A' for Active; 'I' for Inactive)
REMARK    1  A    between atoms: C1_1  and  C5_5 
ROOT
HETATM    1  C2  UNL     1     -34.115  14.289  -3.450  1.00 20.00     0.006 C 
HETATM    2  C3  UNL     1     -34.814  13.301  -4.393  1.00 20.00     0.006 C 
HETATM    3  C4  UNL     1     -36.423  14.815  -3.584  1.00 20.00     0.011 C 
HETATM    4  C5  UNL     1     -35.012  16.298  -4.771  1.00 20.00     0.067 C 
HETATM    5  C6  UNL     1     -35.063  15.505  -3.445  1.00 20.00    -0.002 C 
HETATM    6  C7  UNL     1     -36.028  14.105  -4.889  1.00 20.00    -0.006 C 
HETATM    7  C8  UNL     1     -35.595  15.294  -5.813  1.00 20.00    -0.033 C 
HETATM    8  C10 UNL     1     -36.834  15.906  -6.502  1.00 20.00     0.016 C 
HETATM    9  C11 UNL     1     -34.622  14.868  -6.924  1.00 20.00     0.016 C 
ENDROOT
BRANCH   4  10
HETATM   10  C1  UNL     1     -33.653  16.862  -5.061  1.00 20.00     0.128 C 
HETATM   11  C9  UNL     1     -33.608  18.184  -5.777  1.00 20.00     0.091 C 
HETATM   12  O12 UNL     1     -32.626  16.271  -4.730  1.00 20.00    -0.298 OA
ENDBRANCH   4  10
TORSDOF 1
ENDMDL
MODEL 3
REMARK VINA RESULT:      -4.7      1.866      3.169
REMARK  1 active torsions:
REMARK  status: ('A' for Active; 'I' for Inactive)
REMARK    1  A    between atoms: C1_1  and  C5_5 
ROOT
HETATM    1  C2  UNL     1     -32.934  15.886  -4.794  1.00 20.00     0.006 C 
HETATM    2  C3  UNL     1     -34.036  15.930  -5.859  1.00 20.00     0.006 C 
HETATM    3  C4  UNL     1     -34.232  13.906  -4.676  1.00 20.00     0.011 C 
HETATM    4  C5  UNL     1     -34.647  15.451  -2.932  1.00 20.00     0.067 C 
HETATM    5  C6  UNL     1     -33.477  14.875  -3.763  1.00 20.00    -0.002 C 
HETATM    6  C7  UNL     1     -35.121  15.014  -5.265  1.00 20.00    -0.006 C 
HETATM    7  C8  UNL     1     -35.777  15.645  -3.991  1.00 20.00    -0.033 C 
HETATM    8  C10 UNL     1     -37.028  14.837  -3.584  1.00 20.00     0.016 C 
HETATM    9  C11 UNL     1     -36.227  17.100  -4.205  1.00 20.00     0.016 C 
ENDROOT
BRANCH   4  10
HETATM   10  C1  UNL     1     -34.255  16.656  -2.131  1.00 20.00     0.128 C 
HETATM   11  C9  UNL     1     -34.701  16.686  -0.694  1.00 20.00     0.091 C 
HETATM   12  O12 UNL     1     -33.601  17.574  -2.624  1.00 20.00    -0.298 OA
ENDBRANCH   4  10
TORSDOF 1
ENDMDL
MODEL 4
REMARK VINA RESULT:      -4.6      2.024      3.763
REMARK  1 active torsions:
REMARK  status: ('A' for Active; 'I' for Inactive)
REMARK    1  A    between atoms: C1_1  and  C5_5 
ROOT
HETATM    1  C2  UNL     1     -33.789  17.547  -2.810  1.00 20.00     0.006 C 
HETATM    2  C3  UNL     1     -34.170  16.492  -1.764  1.00 20.00     0.006 C 
HETATM    3  C4  UNL     1     -36.146  17.306  -2.747  1.00 20.00     0.011 C 
HETATM    4  C5  UNL     1     -35.114  16.325  -4.636  1.00 20.00     0.067 C 
HETATM    5  C6  UNL     1     -35.016  17.582  -3.742  1.00 20.00    -0.002 C 
HETATM    6  C7  UNL     1     -35.528  15.979  -2.277  1.00 20.00    -0.006 C 
HETATM    7  C8  UNL     1     -35.375  15.176  -3.613  1.00 20.00    -0.033 C 
HETATM    8  C10 UNL     1     -36.699  14.457  -3.951  1.00 20.00     0.016 C 
HETATM    9  C11 UNL     1     -34.279  14.100  -3.545  1.00 20.00     0.016 C 
ENDROOT
BRANCH   4  10
HETATM   10  C1  UNL     1     -33.934  16.164  -5.547  1.00 20.00     0.128 C 
HETATM   11  C9  UNL     1     -34.197  15.542  -6.892  1.00 20.00     0.091 C 
HETATM   12  O12 UNL     1     -32.806  16.523  -5.212  1.00 20.00    -0.298 OA
ENDBRANCH   4  10
TORSDOF 1
ENDMDL
MODEL 5
REMARK VINA RESULT:      -4.6      1.671      2.791
REMARK  1 active torsions:
REMARK  status: ('A' for Active; 'I' for Inactive)
REMARK    1  A    between atoms: C1_1  and  C5_5 
ROOT
HETATM    1  C2  UNL     1     -34.640  15.280  -2.921  1.00 20.00     0.006 C 
HETATM    2  C3  UNL     1     -33.456  14.756  -3.743  1.00 20.00     0.006 C 
HETATM    3  C4  UNL     1     -35.323  13.392  -4.181  1.00 20.00     0.011 C 
HETATM    4  C5  UNL     1     -36.112  15.461  -5.015  1.00 20.00     0.067 C 
HETATM    5  C6  UNL     1     -35.867  14.731  -3.675  1.00 20.00    -0.002 C 
HETATM    6  C7  UNL     1     -34.148  14.049  -4.923  1.00 20.00    -0.006 C 
HETATM    7  C8  UNL     1     -34.864  15.072  -5.868  1.00 20.00    -0.033 C 
HETATM    8  C10 UNL     1     -35.311  14.368  -7.168  1.00 20.00     0.016 C 
HETATM    9  C11 UNL     1     -33.961  16.247  -6.277  1.00 20.00     0.016 C 
ENDROOT
BRANCH   4  10
HETATM   10  C1  UNL     1     -36.382  16.925  -4.840  1.00 20.00     0.128 C 
HETATM   11  C9  UNL     1     -37.260  17.579  -5.873  1.00 20.00     0.091 C 
HETATM   12  O12 UNL     1     -35.910  17.561  -3.899  1.00 20.00    -0.298 OA
ENDBRANCH   4  10
TORSDOF 1
ENDMDL
MODEL 6
REMARK VINA RESULT:      -4.5      1.710      2.813
REMARK  1 active torsions:
REMARK  status: ('A' for Active; 'I' for Inactive)
REMARK    1  A    between atoms: C1_1  and  C5_5 
ROOT
HETATM    1  C2  UNL     1     -36.682  15.116  -5.141  1.00 20.00     0.006 C 
HETATM    2  C3  UNL     1     -36.462  14.231  -3.908  1.00 20.00     0.006 C 
HETATM    3  C4  UNL     1     -34.831  13.682  -5.512  1.00 20.00     0.011 C 
HETATM    4  C5  UNL     1     -34.251  15.935  -5.080  1.00 20.00     0.067 C 
HETATM    5  C6  UNL     1     -35.308  15.100  -5.839  1.00 20.00    -0.002 C 
HETATM    6  C7  UNL     1     -34.963  13.892  -3.995  1.00 20.00    -0.006 C 
HETATM    7  C8  UNL     1     -34.070  15.153  -3.741  1.00 20.00    -0.033 C 
HETATM    8  C10 UNL     1     -32.595  14.731  -3.570  1.00 20.00     0.016 C 
HETATM    9  C11 UNL     1     -34.470  15.927  -2.474  1.00 20.00     0.016 C 
ENDROOT
BRANCH   4  10
HETATM   10  C1  UNL     1     -34.620  17.384  -4.973  1.00 20.00     0.128 C 
HETATM   11  C9  UNL     1     -33.484  18.369  -4.917  1.00 20.00     0.091 C 
HETATM   12  O12 UNL     1     -35.794  17.750  -4.934  1.00 20.00    -0.298 OA
ENDBRANCH   4  10
TORSDOF 1
ENDMDL
MODEL 7
REMARK VINA RESULT:      -4.5      1.529      2.359
REMARK  1 active torsions:
REMARK  status: ('A' for Active; 'I' for Inactive)
REMARK    1  A    between atoms: C1_1  and  C5_5 
ROOT
HETATM    1  C2  UNL     1     -34.341  14.592  -5.714  1.00 20.00     0.006 C 
HETATM    2  C3  UNL     1     -34.768  13.632  -4.596  1.00 20.00     0.006 C 
HETATM    3  C4  UNL     1     -32.934  14.890  -3.829  1.00 20.00     0.011 C 
HETATM    4  C5  UNL     1     -34.522  16.616  -4.147  1.00 20.00     0.067 C 
HETATM    5  C6  UNL     1     -33.579  15.699  -4.959  1.00 20.00    -0.002 C 
HETATM    6  C7  UNL     1     -34.283  14.352  -3.325  1.00 20.00    -0.006 C 
HETATM    7  C8  UNL     1     -35.099  15.662  -3.056  1.00 20.00    -0.033 C 
HETATM    8  C10 UNL     1     -34.774  16.208  -1.649  1.00 20.00     0.016 C 
HETATM    9  C11 UNL     1     -36.620  15.445  -3.117  1.00 20.00     0.016 C 
ENDROOT
BRANCH   4  10
HETATM   10  C1  UNL     1     -35.514  17.340  -5.007  1.00 20.00     0.128 C 
HETATM   11  C9  UNL     1     -35.994  18.676  -4.508  1.00 20.00     0.091 C 
HETATM   12  O12 UNL     1     -35.915  16.865  -6.068  1.00 20.00    -0.298 OA
ENDBRANCH   4  10
TORSDOF 1
ENDMDL
MODEL 8
REMARK VINA RESULT:      -4.5      1.793      3.391
REMARK  1 active torsions:
REMARK  status: ('A' for Active; 'I' for Inactive)
REMARK    1  A    between atoms: C1_1  and  C5_5 
ROOT
HETATM    1  C2  UNL     1     -35.630  16.980  -6.535  1.00 20.00     0.006 C 
HETATM    2  C3  UNL     1     -36.541  15.766  -6.756  1.00 20.00     0.006 C 
HETATM    3  C4  UNL     1     -34.316  15.101  -7.136  1.00 20.00     0.011 C 
HETATM    4  C5  UNL     1     -34.192  15.689  -4.847  1.00 20.00     0.067 C 
HETATM    5  C6  UNL     1     -34.255  16.345  -6.245  1.00 20.00    -0.002 C 
HETATM    6  C7  UNL     1     -35.601  14.580  -6.472  1.00 20.00    -0.006 C 
HETATM    7  C8  UNL     1     -35.204  14.507  -4.959  1.00 20.00    -0.033 C 
HETATM    8  C10 UNL     1     -34.491  13.170  -4.663  1.00 20.00     0.016 C 
HETATM    9  C11 UNL     1     -36.415  14.593  -4.015  1.00 20.00     0.016 C 
ENDROOT
BRANCH   4  10
HETATM   10  C1  UNL     1     -34.414  16.668  -3.733  1.00 20.00     0.128 C 
HETATM   11  C9  UNL     1     -33.798  16.330  -2.403  1.00 20.00     0.091 C 
HETATM   12  O12 UNL     1     -35.068  17.696  -3.899  1.00 20.00    -0.298 OA
ENDBRANCH   4  10
TORSDOF 1
ENDMDL
MODEL 9
REMARK VINA RESULT:      -4.4      1.571      2.941
REMARK  1 active torsions:
REMARK  status: ('A' for Active; 'I' for Inactive)
REMARK    1  A    between atoms: C1_1  and  C5_5 
ROOT
HETATM    1  C2  UNL     1     -34.633  16.607  -6.297  1.00 20.00     0.006 C 
HETATM    2  C3  UNL     1     -33.550  17.314  -5.472  1.00 20.00     0.006 C 
HETATM    3  C4  UNL     1     -35.615  17.600  -4.382  1.00 20.00     0.011 C 
HETATM    4  C5  UNL     1     -35.402  15.246  -4.262  1.00 20.00     0.067 C 
HETATM    5  C6  UNL     1     -35.757  16.362  -5.271  1.00 20.00    -0.002 C 
HETATM    6  C7  UNL     1     -34.143  17.303  -4.052  1.00 20.00    -0.006 C 
HETATM    7  C8  UNL     1     -34.207  15.853  -3.463  1.00 20.00    -0.033 C 
HETATM    8  C10 UNL     1     -34.549  15.907  -1.958  1.00 20.00     0.016 C 
HETATM    9  C11 UNL     1     -32.878  15.091  -3.598  1.00 20.00     0.016 C 
ENDROOT
BRANCH   4  10
HETATM   10  C1  UNL     1     -35.174  13.918  -4.918  1.00 20.00     0.128 C 
HETATM   11  C9  UNL     1     -35.041  13.918  -6.417  1.00 20.00     0.091 C 
HETATM   12  O12 UNL     1     -35.098  12.879  -4.264  1.00 20.00    -0.298 OA
ENDBRANCH   4  10
TORSDOF 1
ENDMDL
