MODEL 1
REMARK VINA RESULT:      -4.4      0.000      0.000
REMARK  1 active torsions:
REMARK  status: ('A' for Active; 'I' for Inactive)
REMARK    1  A    between atoms: C3_3  and  C7_7 
ROOT
HETATM    1  C1  UNL     1     -33.524  17.190  -4.395  1.00 20.00    -0.019 C 
HETATM    2  C2  UNL     1     -33.862  17.283  -3.097  1.00 20.00    -0.087 C 
HETATM    3  C4  UNL     1     -34.536  16.152  -2.364  1.00 20.00     0.034 C 
HETATM    4  C5  UNL     1     -34.451  14.819  -3.107  1.00 20.00     0.016 C 
HETATM    5  C6  UNL     1     -33.814  15.988  -5.263  1.00 20.00     0.015 C 
HETATM    6  C7  UNL     1     -34.780  14.990  -4.590  1.00 20.00     0.054 C 
HETATM    7  C8  UNL     1     -33.584  18.518  -2.293  1.00 20.00     0.043 C 
HETATM    8  C9  UNL     1     -34.375  16.446  -6.614  1.00 20.00     0.015 C 
ENDROOT
BRANCH   6   9
HETATM    9  C3  UNL     1     -34.698  13.646  -5.252  1.00 20.00     0.236 C 
HETATM   10  O10 UNL     1     -34.860  12.588  -4.654  1.00 20.00    -0.306 OA
ENDBRANCH   6   9
TORSDOF 1
ENDMDL
MODEL 2
REMARK VINA RESULT:      -4.4      1.362      2.158
REMARK  1 active torsions:
REMARK  status: ('A' for Active; 'I' for Inactive)
REMARK    1  A    between atoms: C3_3  and  C7_7 
ROOT
HETATM    1  C1  UNL     1     -34.132  16.581  -6.744  1.00 20.00    -0.019 C 
HETATM    2  C2  UNL     1     -33.797  17.501  -5.822  1.00 20.00    -0.087 C 
HETATM    3  C4  UNL     1     -33.562  17.136  -4.379  1.00 20.00     0.034 C 
HETATM    4  C5  UNL     1     -33.374  15.634  -4.161  1.00 20.00     0.016 C 
HETATM    5  C6  UNL     1     -34.350  15.117  -6.443  1.00 20.00     0.015 C 
HETATM    6  C7  UNL     1     -34.423  14.829  -4.928  1.00 20.00     0.054 C 
HETATM    7  C8  UNL     1     -33.632  18.951  -6.171  1.00 20.00     0.043 C 
HETATM    8  C9  UNL     1     -35.622  14.627  -7.143  1.00 20.00     0.015 C 
ENDROOT
BRANCH   6   9
HETATM    9  C3  UNL     1     -34.195  13.372  -4.655  1.00 20.00     0.236 C 
HETATM   10  O10 UNL     1     -35.087  12.598  -4.326  1.00 20.00    -0.306 OA
ENDBRANCH   6   9
TORSDOF 1
ENDMDL
MODEL 3
REMARK VINA RESULT:      -4.4      1.045      1.298
REMARK  1 active torsions:
REMARK  status: ('A' for Active; 'I' for Inactive)
REMARK    1  A    between atoms: C3_3  and  C7_7 
ROOT
HETATM    1  C1  UNL     1     -33.707  17.058  -5.718  1.00 20.00    -0.019 C 
HETATM    2  C2  UNL     1     -33.664  17.747  -4.565  1.00 20.00    -0.087 C 
HETATM    3  C4  UNL     1     -33.783  17.070  -3.225  1.00 20.00     0.034 C 
HETATM    4  C5  UNL     1     -33.581  15.556  -3.296  1.00 20.00     0.016 C 
HETATM    5  C6  UNL     1     -33.920  15.566  -5.808  1.00 20.00     0.015 C 
HETATM    6  C7  UNL     1     -34.360  14.949  -4.463  1.00 20.00     0.054 C 
HETATM    7  C8  UNL     1     -33.489  19.237  -4.538  1.00 20.00     0.043 C 
HETATM    8  C9  UNL     1     -34.947  15.252  -6.901  1.00 20.00     0.015 C 
ENDROOT
BRANCH   6   9
HETATM    9  C3  UNL     1     -34.135  13.466  -4.462  1.00 20.00     0.236 C 
HETATM   10  O10 UNL     1     -35.044  12.644  -4.413  1.00 20.00    -0.306 OA
ENDBRANCH   6   9
TORSDOF 1
ENDMDL
MODEL 4
REMARK VINA RESULT:      -4.4      1.715      2.942
REMARK  1 active torsions:
REMARK  status: ('A' for Active; 'I' for Inactive)
REMARK    1  A    between atoms: C3_3  and  C7_7 
ROOT
HETATM    1  C1  UNL     1     -34.850  15.807  -1.970  1.00 20.00    -0.019 C 
HETATM    2  C2  UNL     1     -34.496  16.940  -1.339  1.00 20.00    -0.087 C 
HETATM    3  C4  UNL     1     -33.748  18.044  -2.040  1.00 20.00     0.034 C 
HETATM    4  C5  UNL     1     -33.772  17.914  -3.563  1.00 20.00     0.016 C 
HETATM    5  C6  UNL     1     -34.510  15.495  -3.408  1.00 20.00     0.015 C 
HETATM    6  C7  UNL     1     -33.479  16.479  -4.000  1.00 20.00     0.054 C 
HETATM    7  C8  UNL     1     -34.827  17.180   0.104  1.00 20.00     0.043 C 
HETATM    8  C9  UNL     1     -33.998  14.054  -3.520  1.00 20.00     0.015 C 
ENDROOT
BRANCH   6   9
HETATM    9  C3  UNL     1     -33.497  16.427  -5.499  1.00 20.00     0.236 C 
HETATM   10  O10 UNL     1     -34.528  16.368  -6.161  1.00 20.00    -0.306 OA
ENDBRANCH   6   9
TORSDOF 1
ENDMDL
MODEL 5
REMARK VINA RESULT:      -4.3      1.651      2.137
REMARK  1 active torsions:
REMARK  status: ('A' for Active; 'I' for Inactive)
REMARK    1  A    between atoms: C3_3  and  C7_7 
ROOT
HETATM    1  C1  UNL     1     -34.255  15.984  -2.105  1.00 20.00    -0.019 C 
HETATM    2  C2  UNL     1     -35.352  16.760  -2.048  1.00 20.00    -0.087 C 
HETATM    3  C4  UNL     1     -36.505  16.584  -3.000  1.00 20.00     0.034 C 
HETATM    4  C5  UNL     1     -36.469  15.252  -3.750  1.00 20.00     0.016 C 
HETATM    5  C6  UNL     1     -34.036  14.900  -3.134  1.00 20.00     0.015 C 
HETATM    6  C7  UNL     1     -35.067  14.955  -4.281  1.00 20.00     0.054 C 
HETATM    7  C8  UNL     1     -35.499  17.850  -1.027  1.00 20.00     0.043 C 
HETATM    8  C9  UNL     1     -32.611  14.994  -3.691  1.00 20.00     0.015 C 
ENDROOT
BRANCH   6   9
HETATM    9  C3  UNL     1     -35.107  13.650  -5.020  1.00 20.00     0.236 C 
HETATM   10  O10 UNL     1     -35.047  12.558  -4.466  1.00 20.00    -0.306 OA
ENDBRANCH   6   9
TORSDOF 1
ENDMDL
MODEL 6
REMARK VINA RESULT:      -4.3      1.221      2.852
REMARK  1 active torsions:
REMARK  status: ('A' for Active; 'I' for Inactive)
REMARK    1  A    between atoms: C3_3  and  C7_7 
ROOT
HETATM    1  C1  UNL     1     -34.459  17.279  -4.716  1.00 20.00    -0.019 C 
HETATM    2  C2  UNL     1     -34.226  17.235  -6.039  1.00 20.00    -0.087 C 
HETATM    3  C4  UNL     1     -34.069  15.932  -6.780  1.00 20.00     0.034 C 
HETATM    4  C5  UNL     1     -34.560  14.724  -5.982  1.00 20.00     0.016 C 
HETATM    5  C6  UNL     1     -34.544  16.060  -3.828  1.00 20.00     0.015 C 
HETATM    6  C7  UNL     1     -34.063  14.776  -4.537  1.00 20.00     0.054 C 
HETATM    7  C8  UNL     1     -34.112  18.482  -6.866  1.00 20.00     0.043 C 
HETATM    8  C9  UNL     1     -33.740  16.295  -2.545  1.00 20.00     0.015 C 
ENDROOT
BRANCH   6   9
HETATM    9  C3  UNL     1     -34.562  13.557  -3.820  1.00 20.00     0.236 C 
HETATM   10  O10 UNL     1     -35.074  12.600  -4.390  1.00 20.00    -0.306 OA
ENDBRANCH   6   9
TORSDOF 1
ENDMDL
MODEL 7
REMARK VINA RESULT:      -4.3      1.804      2.285
REMARK  1 active torsions:
REMARK  status: ('A' for Active; 'I' for Inactive)
REMARK    1  A    between atoms: C3_3  and  C7_7 
ROOT
HETATM    1  C1  UNL     1     -36.406  16.749  -2.945  1.00 20.00    -0.019 C 
HETATM    2  C2  UNL     1     -35.525  17.131  -2.004  1.00 20.00    -0.087 C 
HETATM    3  C4  UNL     1     -34.215  16.417  -1.800  1.00 20.00     0.034 C 
HETATM    4  C5  UNL     1     -33.840  15.502  -2.966  1.00 20.00     0.016 C 
HETATM    5  C6  UNL     1     -36.212  15.560  -3.856  1.00 20.00     0.015 C 
HETATM    6  C7  UNL     1     -35.036  14.663  -3.417  1.00 20.00     0.054 C 
HETATM    7  C8  UNL     1     -35.789  18.299  -1.099  1.00 20.00     0.043 C 
HETATM    8  C9  UNL     1     -37.508  14.744  -3.929  1.00 20.00     0.015 C 
ENDROOT
BRANCH   6   9
HETATM    9  C3  UNL     1     -34.595  13.778  -4.545  1.00 20.00     0.236 C 
HETATM   10  O10 UNL     1     -34.864  12.584  -4.612  1.00 20.00    -0.306 OA
ENDBRANCH   6   9
TORSDOF 1
ENDMDL
MODEL 8
REMARK VINA RESULT:      -4.2     11.770     13.370
REMARK  1 active torsions:
REMARK  status: ('A' for Active; 'I' for Inactive)
REMARK    1  A    between atoms: C3_3  and  C7_7 
ROOT
HETATM    1  C1  UNL     1     -35.096   4.978   4.418  1.00 20.00    -0.019 C 
HETATM    2  C2  UNL     1     -34.788   5.095   5.722  1.00 20.00    -0.087 C 
HETATM    3  C4  UNL     1     -33.706   6.023   6.207  1.00 20.00     0.034 C 
HETATM    4  C5  UNL     1     -33.280   7.051   5.158  1.00 20.00     0.016 C 
HETATM    5  C6  UNL     1     -34.380   5.713   3.309  1.00 20.00     0.015 C 
HETATM    6  C7  UNL     1     -33.083   6.396   3.791  1.00 20.00     0.054 C 
HETATM    7  C8  UNL     1     -35.507   4.310   6.779  1.00 20.00     0.043 C 
HETATM    8  C9  UNL     1     -34.080   4.748   2.156  1.00 20.00     0.015 C 
ENDROOT
BRANCH   6   9
HETATM    9  C3  UNL     1     -32.648   7.452   2.818  1.00 20.00     0.236 C 
HETATM   10  O10 UNL     1     -31.557   8.009   2.869  1.00 20.00    -0.306 OA
ENDBRANCH   6   9
TORSDOF 1
ENDMDL
MODEL 9
REMARK VINA RESULT:      -4.2     11.676     13.483
REMARK  1 active torsions:
REMARK  status: ('A' for Active; 'I' for Inactive)
REMARK    1  A    between atoms: C3_3  and  C7_7 
ROOT
HETATM    1  C1  UNL     1     -42.798   4.761  -2.999  1.00 20.00    -0.019 C 
HETATM    2  C2  UNL     1     -41.908   3.857  -2.557  1.00 20.00    -0.087 C 
HETATM    3  C4  UNL     1     -40.865   4.200  -1.526  1.00 20.00     0.034 C 
HETATM    4  C5  UNL     1     -41.155   5.509  -0.790  1.00 20.00     0.016 C 
HETATM    5  C6  UNL     1     -42.830   6.206  -2.560  1.00 20.00     0.015 C 
HETATM    6  C7  UNL     1     -41.570   6.611  -1.765  1.00 20.00     0.054 C 
HETATM    7  C8  UNL     1     -41.899   2.442  -3.059  1.00 20.00     0.043 C 
HETATM    8  C9  UNL     1     -43.007   7.117  -3.780  1.00 20.00     0.015 C 
ENDROOT
BRANCH   6   9
HETATM    9  C3  UNL     1     -41.818   7.867  -0.983  1.00 20.00     0.236 C 
HETATM   10  O10 UNL     1     -42.923   8.195  -0.565  1.00 20.00    -0.306 OA
ENDBRANCH   6   9
TORSDOF 1
ENDMDL
