MODEL 1
REMARK VINA RESULT:      -4.8      0.000      0.000
REMARK  1 active torsions:
REMARK  status: ('A' for Active; 'I' for Inactive)
REMARK    1  A    between atoms: C2_2  and  C5_5 
ROOT
HETATM    1  C3  UNL     1     -33.677  16.747  -4.358  1.00 20.00     0.039 C 
HETATM    2  C4  UNL     1     -33.986  15.556  -5.233  1.00 20.00     0.040 C 
HETATM    3  C5  UNL     1     -33.618  16.112  -2.978  1.00 20.00     0.151 C 
HETATM    4  C6  UNL     1     -34.926  14.732  -4.353  1.00 20.00     0.054 C 
HETATM    5  C9  UNL     1     -34.774  13.235  -4.605  1.00 20.00     0.045 C 
HETATM    6  C10 UNL     1     -36.388  15.151  -4.524  1.00 20.00     0.045 C 
HETATM    7  O11 UNL     1     -34.543  15.011  -2.992  1.00 20.00    -0.371 OA
ENDROOT
BRANCH   3   8
HETATM    8  C2  UNL     1     -33.971  17.043  -1.872  1.00 20.00    -0.059 C 
HETATM    9  C1  UNL     1     -34.605  16.605  -0.767  1.00 20.00    -0.026 C 
HETATM   10  C7  UNL     1     -35.020  17.394   0.408  1.00 20.00     0.036 C 
HETATM   11  C8  UNL     1     -33.567  18.473  -2.092  1.00 20.00     0.046 C 
ENDBRANCH   3   8
TORSDOF 1
ENDMDL
MODEL 2
REMARK VINA RESULT:      -4.7     12.473     14.590
REMARK  1 active torsions:
REMARK  status: ('A' for Active; 'I' for Inactive)
REMARK    1  A    between atoms: C2_2  and  C5_5 
ROOT
HETATM    1  C3  UNL     1     -40.655   4.656  -1.029  1.00 20.00     0.039 C 
HETATM    2  C4  UNL     1     -40.914   6.011  -0.413  1.00 20.00     0.040 C 
HETATM    3  C5  UNL     1     -41.718   4.599  -2.113  1.00 20.00     0.151 C 
HETATM    4  C6  UNL     1     -42.438   6.117  -0.476  1.00 20.00     0.054 C 
HETATM    5  C9  UNL     1     -42.900   7.559  -0.665  1.00 20.00     0.045 C 
HETATM    6  C10 UNL     1     -43.108   5.504   0.756  1.00 20.00     0.045 C 
HETATM    7  O11 UNL     1     -42.843   5.349  -1.627  1.00 20.00    -0.371 OA
ENDROOT
BRANCH   3   8
HETATM    8  C2  UNL     1     -42.154   3.217  -2.455  1.00 20.00    -0.059 C 
HETATM    9  C1  UNL     1     -41.447   2.456  -3.313  1.00 20.00    -0.026 C 
HETATM   10  C7  UNL     1     -41.743   1.078  -3.751  1.00 20.00     0.036 C 
HETATM   11  C8  UNL     1     -43.414   2.761  -1.776  1.00 20.00     0.046 C 
ENDBRANCH   3   8
TORSDOF 1
ENDMDL
MODEL 3
REMARK VINA RESULT:      -4.6     11.225     12.417
REMARK  1 active torsions:
REMARK  status: ('A' for Active; 'I' for Inactive)
REMARK    1  A    between atoms: C2_2  and  C5_5 
ROOT
HETATM    1  C3  UNL     1     -34.827   6.336   3.231  1.00 20.00     0.039 C 
HETATM    2  C4  UNL     1     -35.397   5.343   4.215  1.00 20.00     0.040 C 
HETATM    3  C5  UNL     1     -33.353   5.968   3.237  1.00 20.00     0.151 C 
HETATM    4  C6  UNL     1     -34.287   5.237   5.261  1.00 20.00     0.054 C 
HETATM    5  C9  UNL     1     -34.222   3.845   5.881  1.00 20.00     0.045 C 
HETATM    6  C10 UNL     1     -34.425   6.297   6.355  1.00 20.00     0.045 C 
HETATM    7  O11 UNL     1     -33.054   5.486   4.558  1.00 20.00    -0.371 OA
ENDROOT
BRANCH   3   8
HETATM    8  C2  UNL     1     -32.448   7.103   2.906  1.00 20.00    -0.059 C 
HETATM    9  C1  UNL     1     -32.541   7.747   1.727  1.00 20.00    -0.026 C 
HETATM   10  C7  UNL     1     -31.726   8.882   1.252  1.00 20.00     0.036 C 
HETATM   11  C8  UNL     1     -31.453   7.455   3.975  1.00 20.00     0.046 C 
ENDBRANCH   3   8
TORSDOF 1
ENDMDL
MODEL 4
REMARK VINA RESULT:      -4.6      1.252      1.848
REMARK  1 active torsions:
REMARK  status: ('A' for Active; 'I' for Inactive)
REMARK    1  A    between atoms: C2_2  and  C5_5 
ROOT
HETATM    1  C3  UNL     1     -33.960  14.373  -3.484  1.00 20.00     0.039 C 
HETATM    2  C4  UNL     1     -34.446  13.846  -4.813  1.00 20.00     0.040 C 
HETATM    3  C5  UNL     1     -35.027  15.403  -3.150  1.00 20.00     0.151 C 
HETATM    4  C6  UNL     1     -35.021  15.097  -5.476  1.00 20.00     0.054 C 
HETATM    5  C9  UNL     1     -36.200  14.768  -6.386  1.00 20.00     0.045 C 
HETATM    6  C10 UNL     1     -33.957  15.879  -6.250  1.00 20.00     0.045 C 
HETATM    7  O11 UNL     1     -35.490  15.937  -4.401  1.00 20.00    -0.371 OA
ENDROOT
BRANCH   3   8
HETATM    8  C2  UNL     1     -34.540  16.514  -2.287  1.00 20.00    -0.059 C 
HETATM    9  C1  UNL     1     -34.748  16.506  -0.956  1.00 20.00    -0.026 C 
HETATM   10  C7  UNL     1     -34.331  17.522   0.030  1.00 20.00     0.036 C 
HETATM   11  C8  UNL     1     -33.815  17.612  -3.012  1.00 20.00     0.046 C 
ENDBRANCH   3   8
TORSDOF 1
ENDMDL
MODEL 5
REMARK VINA RESULT:      -4.5      1.424      4.457
REMARK  1 active torsions:
REMARK  status: ('A' for Active; 'I' for Inactive)
REMARK    1  A    between atoms: C2_2  and  C5_5 
ROOT
HETATM    1  C3  UNL     1     -35.515  17.522  -2.821  1.00 20.00     0.039 C 
HETATM    2  C4  UNL     1     -35.640  18.275  -1.518  1.00 20.00     0.040 C 
HETATM    3  C5  UNL     1     -35.368  16.088  -2.338  1.00 20.00     0.151 C 
HETATM    4  C6  UNL     1     -34.688  17.510  -0.600  1.00 20.00     0.054 C 
HETATM    5  C9  UNL     1     -35.164  17.521   0.850  1.00 20.00     0.045 C 
HETATM    6  C10 UNL     1     -33.254  18.037  -0.690  1.00 20.00     0.045 C 
HETATM    7  O11 UNL     1     -34.687  16.148  -1.073  1.00 20.00    -0.371 OA
ENDROOT
BRANCH   3   8
HETATM    8  C2  UNL     1     -34.605  15.215  -3.271  1.00 20.00    -0.059 C 
HETATM    9  C1  UNL     1     -35.180  14.144  -3.851  1.00 20.00    -0.026 C 
HETATM   10  C7  UNL     1     -34.564  13.188  -4.792  1.00 20.00     0.036 C 
HETATM   11  C8  UNL     1     -33.177  15.625  -3.502  1.00 20.00     0.046 C 
ENDBRANCH   3   8
TORSDOF 1
ENDMDL
MODEL 6
REMARK VINA RESULT:      -4.3      1.109      1.169
REMARK  1 active torsions:
REMARK  status: ('A' for Active; 'I' for Inactive)
REMARK    1  A    between atoms: C2_2  and  C5_5 
ROOT
HETATM    1  C3  UNL     1     -33.488  17.523  -4.949  1.00 20.00     0.039 C 
HETATM    2  C4  UNL     1     -33.865  16.621  -6.100  1.00 20.00     0.040 C 
HETATM    3  C5  UNL     1     -33.580  16.573  -3.766  1.00 20.00     0.151 C 
HETATM    4  C6  UNL     1     -34.937  15.724  -5.482  1.00 20.00     0.054 C 
HETATM    5  C9  UNL     1     -34.926  14.324  -6.087  1.00 20.00     0.045 C 
HETATM    6  C10 UNL     1     -36.334  16.338  -5.594  1.00 20.00     0.045 C 
HETATM    7  O11 UNL     1     -34.611  15.622  -4.081  1.00 20.00    -0.371 OA
ENDROOT
BRANCH   3   8
HETATM    8  C2  UNL     1     -33.901  17.246  -2.478  1.00 20.00    -0.059 C 
HETATM    9  C1  UNL     1     -34.419  16.558  -1.442  1.00 20.00    -0.026 C 
HETATM   10  C7  UNL     1     -34.788  17.074  -0.110  1.00 20.00     0.036 C 
HETATM   11  C8  UNL     1     -33.602  18.718  -2.437  1.00 20.00     0.046 C 
ENDBRANCH   3   8
TORSDOF 1
ENDMDL
MODEL 7
REMARK VINA RESULT:      -4.3      1.618      4.457
REMARK  1 active torsions:
REMARK  status: ('A' for Active; 'I' for Inactive)
REMARK    1  A    between atoms: C2_2  and  C5_5 
ROOT
HETATM    1  C3  UNL     1     -34.726  15.609  -2.677  1.00 20.00     0.039 C 
HETATM    2  C4  UNL     1     -34.627  16.315  -1.346  1.00 20.00     0.040 C 
HETATM    3  C5  UNL     1     -33.607  16.273  -3.464  1.00 20.00     0.151 C 
HETATM    4  C6  UNL     1     -34.256  17.741  -1.753  1.00 20.00     0.054 C 
HETATM    5  C9  UNL     1     -33.375  18.419  -0.708  1.00 20.00     0.045 C 
HETATM    6  C10 UNL     1     -35.491  18.597  -2.039  1.00 20.00     0.045 C 
HETATM    7  O11 UNL     1     -33.507  17.622  -2.980  1.00 20.00    -0.371 OA
ENDROOT
BRANCH   3   8
HETATM    8  C2  UNL     1     -33.835  16.289  -4.935  1.00 20.00    -0.059 C 
HETATM    9  C1  UNL     1     -34.205  15.175  -5.596  1.00 20.00    -0.026 C 
HETATM   10  C7  UNL     1     -34.469  15.028  -7.040  1.00 20.00     0.036 C 
HETATM   11  C8  UNL     1     -33.624  17.622  -5.597  1.00 20.00     0.046 C 
ENDBRANCH   3   8
TORSDOF 1
ENDMDL
MODEL 8
REMARK VINA RESULT:      -4.3      1.968      2.967
REMARK  1 active torsions:
REMARK  status: ('A' for Active; 'I' for Inactive)
REMARK    1  A    between atoms: C2_2  and  C5_5 
ROOT
HETATM    1  C3  UNL     1     -34.554  14.086  -5.568  1.00 20.00     0.039 C 
HETATM    2  C4  UNL     1     -35.310  14.332  -6.852  1.00 20.00     0.040 C 
HETATM    3  C5  UNL     1     -35.367  14.892  -4.569  1.00 20.00     0.151 C 
HETATM    4  C6  UNL     1     -35.752  15.788  -6.704  1.00 20.00     0.054 C 
HETATM    5  C9  UNL     1     -37.089  16.049  -7.390  1.00 20.00     0.045 C 
HETATM    6  C10 UNL     1     -34.693  16.765  -7.219  1.00 20.00     0.045 C 
HETATM    7  O11 UNL     1     -35.909  16.013  -5.288  1.00 20.00    -0.371 OA
ENDROOT
BRANCH   3   8
HETATM    8  C2  UNL     1     -34.577  15.383  -3.407  1.00 20.00    -0.059 C 
HETATM    9  C1  UNL     1     -35.177  15.975  -2.356  1.00 20.00    -0.026 C 
HETATM   10  C7  UNL     1     -34.540  16.510  -1.138  1.00 20.00     0.036 C 
HETATM   11  C8  UNL     1     -33.094  15.164  -3.508  1.00 20.00     0.046 C 
ENDBRANCH   3   8
TORSDOF 1
ENDMDL
MODEL 9
REMARK VINA RESULT:      -4.2      1.504      2.375
REMARK  1 active torsions:
REMARK  status: ('A' for Active; 'I' for Inactive)
REMARK    1  A    between atoms: C2_2  and  C5_5 
ROOT
HETATM    1  C3  UNL     1     -33.671  16.044  -2.696  1.00 20.00     0.039 C 
HETATM    2  C4  UNL     1     -34.589  15.528  -3.778  1.00 20.00     0.040 C 
HETATM    3  C5  UNL     1     -34.637  16.246  -1.539  1.00 20.00     0.151 C 
HETATM    4  C6  UNL     1     -35.871  16.324  -3.533  1.00 20.00     0.054 C 
HETATM    5  C9  UNL     1     -37.116  15.524  -3.904  1.00 20.00     0.045 C 
HETATM    6  C10 UNL     1     -35.865  17.665  -4.271  1.00 20.00     0.045 C 
HETATM    7  O11 UNL     1     -35.904  16.599  -2.119  1.00 20.00    -0.371 OA
ENDROOT
BRANCH   3   8
HETATM    8  C2  UNL     1     -34.216  17.305  -0.583  1.00 20.00    -0.059 C 
HETATM    9  C1  UNL     1     -33.136  18.074  -0.824  1.00 20.00    -0.026 C 
HETATM   10  C7  UNL     1     -32.593  19.157   0.018  1.00 20.00     0.036 C 
HETATM   11  C8  UNL     1     -35.080  17.438   0.640  1.00 20.00     0.046 C 
ENDBRANCH   3   8
TORSDOF 1
ENDMDL
