MODEL 1
REMARK VINA RESULT:      -4.6      0.000      0.000
REMARK  2 active torsions:
REMARK  status: ('A' for Active; 'I' for Inactive)
REMARK    1  A    between atoms: C3_3  and  C7_7 
REMARK    2  A    between atoms: C4_4  and  C8_8 
ROOT
HETATM    1  C5  UNL     1     -35.832  15.691  -4.494  1.00 20.00     0.014 C 
HETATM    2  C6  UNL     1     -35.835  16.416  -3.151  1.00 20.00     0.037 C 
HETATM    3  C7  UNL     1     -34.423  15.694  -5.098  1.00 20.00     0.036 C 
HETATM    4  C8  UNL     1     -34.759  15.850  -2.223  1.00 20.00     0.144 C 
HETATM    5  C9  UNL     1     -33.384  15.168  -4.087  1.00 20.00     0.126 C 
HETATM    6  C10 UNL     1     -33.426  13.659  -3.829  1.00 20.00     0.040 C 
HETATM    7  O11 UNL     1     -33.476  15.895  -2.853  1.00 20.00    -0.377 OA
ENDROOT
BRANCH   3   8
HETATM    8  C3  UNL     1     -34.388  14.973  -6.411  1.00 20.00    -0.030 C 
HETATM    9  C1  UNL     1     -35.467  14.457  -7.010  1.00 20.00     0.007 C 
ENDBRANCH   3   8
BRANCH   4  10
HETATM   10  C4  UNL     1     -34.672  16.641  -0.958  1.00 20.00    -0.005 C 
HETATM   11  C2  UNL     1     -33.771  17.604  -0.737  1.00 20.00     0.009 C 
ENDBRANCH   4  10
TORSDOF 2
ENDMDL
MODEL 2
REMARK VINA RESULT:      -4.6      1.365      4.532
REMARK  2 active torsions:
REMARK  status: ('A' for Active; 'I' for Inactive)
REMARK    1  A    between atoms: C3_3  and  C7_7 
REMARK    2  A    between atoms: C4_4  and  C8_8 
ROOT
HETATM    1  C5  UNL     1     -34.981  15.324  -2.516  1.00 20.00     0.014 C 
HETATM    2  C6  UNL     1     -34.943  14.460  -3.774  1.00 20.00     0.037 C 
HETATM    3  C7  UNL     1     -33.779  16.276  -2.487  1.00 20.00     0.036 C 
HETATM    4  C8  UNL     1     -34.805  15.325  -5.027  1.00 20.00     0.144 C 
HETATM    5  C9  UNL     1     -33.669  17.070  -3.805  1.00 20.00     0.126 C 
HETATM    6  C10 UNL     1     -34.718  18.169  -3.997  1.00 20.00     0.040 C 
HETATM    7  O11 UNL     1     -33.661  16.176  -4.927  1.00 20.00    -0.377 OA
ENDROOT
BRANCH   3   8
HETATM    8  C3  UNL     1     -33.801  17.149  -1.270  1.00 20.00    -0.030 C 
HETATM    9  C1  UNL     1     -34.697  17.035  -0.283  1.00 20.00     0.007 C 
ENDBRANCH   3   8
BRANCH   4  10
HETATM   10  C4  UNL     1     -34.638  14.479  -6.247  1.00 20.00    -0.005 C 
HETATM   11  C2  UNL     1     -34.687  14.949  -7.498  1.00 20.00     0.009 C 
ENDBRANCH   4  10
TORSDOF 2
ENDMDL
MODEL 3
REMARK VINA RESULT:      -4.5      1.503      4.526
REMARK  2 active torsions:
REMARK  status: ('A' for Active; 'I' for Inactive)
REMARK    1  A    between atoms: C3_3  and  C7_7 
REMARK    2  A    between atoms: C4_4  and  C8_8 
ROOT
HETATM    1  C5  UNL     1     -33.449  16.658  -4.791  1.00 20.00     0.014 C 
HETATM    2  C6  UNL     1     -34.012  16.432  -6.191  1.00 20.00     0.037 C 
HETATM    3  C7  UNL     1     -34.388  16.059  -3.736  1.00 20.00     0.036 C 
HETATM    4  C8  UNL     1     -34.338  14.955  -6.417  1.00 20.00     0.144 C 
HETATM    5  C9  UNL     1     -34.721  14.589  -4.061  1.00 20.00     0.126 C 
HETATM    6  C10 UNL     1     -33.584  13.592  -3.823  1.00 20.00     0.040 C 
HETATM    7  O11 UNL     1     -35.222  14.474  -5.401  1.00 20.00    -0.377 OA
ENDROOT
BRANCH   3   8
HETATM    8  C3  UNL     1     -33.851  16.253  -2.351  1.00 20.00    -0.030 C 
HETATM    9  C1  UNL     1     -34.616  16.477  -1.277  1.00 20.00     0.007 C 
ENDBRANCH   3   8
BRANCH   4  10
HETATM   10  C4  UNL     1     -35.008  14.749  -7.737  1.00 20.00    -0.005 C 
HETATM   11  C2  UNL     1     -36.333  14.781  -7.918  1.00 20.00     0.009 C 
ENDBRANCH   4  10
TORSDOF 2
ENDMDL
MODEL 4
REMARK VINA RESULT:      -4.5      1.176      1.896
REMARK  2 active torsions:
REMARK  status: ('A' for Active; 'I' for Inactive)
REMARK    1  A    between atoms: C3_3  and  C7_7 
REMARK    2  A    between atoms: C4_4  and  C8_8 
ROOT
HETATM    1  C5  UNL     1     -34.000  14.255  -4.615  1.00 20.00     0.014 C 
HETATM    2  C6  UNL     1     -34.342  14.508  -3.150  1.00 20.00     0.037 C 
HETATM    3  C7  UNL     1     -34.860  15.141  -5.524  1.00 20.00     0.036 C 
HETATM    4  C8  UNL     1     -34.263  15.999  -2.820  1.00 20.00     0.144 C 
HETATM    5  C9  UNL     1     -34.778  16.621  -5.096  1.00 20.00     0.126 C 
HETATM    6  C10 UNL     1     -33.457  17.324  -5.418  1.00 20.00     0.040 C 
HETATM    7  O11 UNL     1     -35.096  16.755  -3.703  1.00 20.00    -0.377 OA
ENDROOT
BRANCH   3   8
HETATM    8  C3  UNL     1     -34.532  14.925  -6.970  1.00 20.00    -0.030 C 
HETATM    9  C1  UNL     1     -35.417  14.515  -7.885  1.00 20.00     0.007 C 
ENDBRANCH   3   8
BRANCH   4  10
HETATM   10  C4  UNL     1     -34.722  16.265  -1.423  1.00 20.00    -0.005 C 
HETATM   11  C2  UNL     1     -34.243  17.245  -0.650  1.00 20.00     0.009 C 
ENDBRANCH   4  10
TORSDOF 2
ENDMDL
MODEL 5
REMARK VINA RESULT:      -4.3      1.448      4.789
REMARK  2 active torsions:
REMARK  status: ('A' for Active; 'I' for Inactive)
REMARK    1  A    between atoms: C3_3  and  C7_7 
REMARK    2  A    between atoms: C4_4  and  C8_8 
ROOT
HETATM    1  C5  UNL     1     -34.764  16.005  -1.719  1.00 20.00     0.014 C 
HETATM    2  C6  UNL     1     -34.490  15.345  -3.068  1.00 20.00     0.037 C 
HETATM    3  C7  UNL     1     -33.785  17.162  -1.483  1.00 20.00     0.036 C 
HETATM    4  C8  UNL     1     -34.472  16.384  -4.190  1.00 20.00     0.144 C 
HETATM    5  C9  UNL     1     -33.777  18.135  -2.679  1.00 20.00     0.126 C 
HETATM    6  C10 UNL     1     -35.018  19.022  -2.811  1.00 20.00     0.040 C 
HETATM    7  O11 UNL     1     -33.532  17.422  -3.901  1.00 20.00    -0.377 OA
ENDROOT
BRANCH   3   8
HETATM    8  C3  UNL     1     -34.043  17.839  -0.171  1.00 20.00    -0.030 C 
HETATM    9  C1  UNL     1     -35.056  17.528   0.644  1.00 20.00     0.007 C 
ENDBRANCH   3   8
BRANCH   4  10
HETATM   10  C4  UNL     1     -34.077  15.761  -5.490  1.00 20.00    -0.005 C 
HETATM   11  C2  UNL     1     -34.538  14.586  -5.929  1.00 20.00     0.009 C 
ENDBRANCH   4  10
TORSDOF 2
ENDMDL
MODEL 6
REMARK VINA RESULT:      -4.0      1.606      2.293
REMARK  2 active torsions:
REMARK  status: ('A' for Active; 'I' for Inactive)
REMARK    1  A    between atoms: C3_3  and  C7_7 
REMARK    2  A    between atoms: C4_4  and  C8_8 
ROOT
HETATM    1  C5  UNL     1     -34.538  15.250  -2.658  1.00 20.00     0.014 C 
HETATM    2  C6  UNL     1     -34.363  16.443  -1.722  1.00 20.00     0.037 C 
HETATM    3  C7  UNL     1     -35.313  15.667  -3.914  1.00 20.00     0.036 C 
HETATM    4  C8  UNL     1     -33.753  17.634  -2.463  1.00 20.00     0.144 C 
HETATM    5  C9  UNL     1     -34.677  16.908  -4.573  1.00 20.00     0.126 C 
HETATM    6  C10 UNL     1     -33.352  16.657  -5.299  1.00 20.00     0.040 C 
HETATM    7  O11 UNL     1     -34.535  17.965  -3.613  1.00 20.00    -0.377 OA
ENDROOT
BRANCH   3   8
HETATM    8  C3  UNL     1     -35.485  14.517  -4.859  1.00 20.00    -0.030 C 
HETATM    9  C1  UNL     1     -34.944  13.308  -4.672  1.00 20.00     0.007 C 
ENDBRANCH   3   8
BRANCH   4  10
HETATM   10  C4  UNL     1     -33.701  18.842  -1.585  1.00 20.00    -0.005 C 
HETATM   11  C2  UNL     1     -32.849  18.990  -0.565  1.00 20.00     0.009 C 
ENDBRANCH   4  10
TORSDOF 2
ENDMDL
MODEL 7
REMARK VINA RESULT:      -3.9      1.569      4.433
REMARK  2 active torsions:
REMARK  status: ('A' for Active; 'I' for Inactive)
REMARK    1  A    between atoms: C3_3  and  C7_7 
REMARK    2  A    between atoms: C4_4  and  C8_8 
ROOT
HETATM    1  C5  UNL     1     -34.736  16.909  -4.165  1.00 20.00     0.014 C 
HETATM    2  C6  UNL     1     -35.587  16.629  -5.401  1.00 20.00     0.037 C 
HETATM    3  C7  UNL     1     -35.110  15.945  -3.032  1.00 20.00     0.036 C 
HETATM    4  C8  UNL     1     -35.515  15.153  -5.792  1.00 20.00     0.144 C 
HETATM    5  C9  UNL     1     -35.074  14.481  -3.515  1.00 20.00     0.126 C 
HETATM    6  C10 UNL     1     -33.675  13.900  -3.742  1.00 20.00     0.040 C 
HETATM    7  O11 UNL     1     -35.884  14.322  -4.688  1.00 20.00    -0.377 OA
ENDROOT
BRANCH   3   8
HETATM    8  C3  UNL     1     -34.277  16.187  -1.811  1.00 20.00    -0.030 C 
HETATM    9  C1  UNL     1     -34.739  16.753  -0.691  1.00 20.00     0.007 C 
ENDBRANCH   3   8
BRANCH   4  10
HETATM   10  C4  UNL     1     -36.446  14.850  -6.921  1.00 20.00    -0.005 C 
HETATM   11  C2  UNL     1     -36.716  15.700  -7.918  1.00 20.00     0.009 C 
ENDBRANCH   4  10
TORSDOF 2
ENDMDL
MODEL 8
REMARK VINA RESULT:      -3.8      1.560      2.351
REMARK  2 active torsions:
REMARK  status: ('A' for Active; 'I' for Inactive)
REMARK    1  A    between atoms: C3_3  and  C7_7 
REMARK    2  A    between atoms: C4_4  and  C8_8 
ROOT
HETATM    1  C5  UNL     1     -33.862  17.860  -3.543  1.00 20.00     0.014 C 
HETATM    2  C6  UNL     1     -33.780  18.227  -2.064  1.00 20.00     0.037 C 
HETATM    3  C7  UNL     1     -33.626  16.357  -3.733  1.00 20.00     0.036 C 
HETATM    4  C8  UNL     1     -34.707  17.343  -1.230  1.00 20.00     0.144 C 
HETATM    5  C9  UNL     1     -34.553  15.530  -2.818  1.00 20.00     0.126 C 
HETATM    6  C10 UNL     1     -36.026  15.498  -3.234  1.00 20.00     0.040 C 
HETATM    7  O11 UNL     1     -34.421  15.960  -1.455  1.00 20.00    -0.377 OA
ENDROOT
BRANCH   3   8
HETATM    8  C3  UNL     1     -33.718  15.966  -5.176  1.00 20.00    -0.030 C 
HETATM    9  C1  UNL     1     -34.071  16.803  -6.158  1.00 20.00     0.007 C 
ENDBRANCH   3   8
BRANCH   4  10
HETATM   10  C4  UNL     1     -34.534  17.611   0.230  1.00 20.00    -0.005 C 
HETATM   11  C2  UNL     1     -35.547  17.746   1.092  1.00 20.00     0.009 C 
ENDBRANCH   4  10
TORSDOF 2
ENDMDL
MODEL 9
REMARK VINA RESULT:      -3.8      1.736      2.696
REMARK  2 active torsions:
REMARK  status: ('A' for Active; 'I' for Inactive)
REMARK    1  A    between atoms: C3_3  and  C7_7 
REMARK    2  A    between atoms: C4_4  and  C8_8 
ROOT
HETATM    1  C5  UNL     1     -33.727  15.958  -2.460  1.00 20.00     0.014 C 
HETATM    2  C6  UNL     1     -34.376  16.768  -1.340  1.00 20.00     0.037 C 
HETATM    3  C7  UNL     1     -34.788  15.149  -3.215  1.00 20.00     0.036 C 
HETATM    4  C8  UNL     1     -35.535  17.610  -1.876  1.00 20.00     0.144 C 
HETATM    5  C9  UNL     1     -35.953  16.051  -3.672  1.00 20.00     0.126 C 
HETATM    6  C10 UNL     1     -35.634  16.992  -4.837  1.00 20.00     0.040 C 
HETATM    7  O11 UNL     1     -36.482  16.785  -2.559  1.00 20.00    -0.377 OA
ENDROOT
BRANCH   3   8
HETATM    8  C3  UNL     1     -34.180  14.356  -4.332  1.00 20.00    -0.030 C 
HETATM    9  C1  UNL     1     -34.712  13.234  -4.828  1.00 20.00     0.007 C 
ENDBRANCH   3   8
BRANCH   4  10
HETATM   10  C4  UNL     1     -36.253  18.303  -0.764  1.00 20.00    -0.005 C 
HETATM   11  C2  UNL     1     -35.943  18.164   0.529  1.00 20.00     0.009 C 
ENDBRANCH   4  10
TORSDOF 2
ENDMDL
