MODEL 1
REMARK VINA RESULT:      -4.8      0.000      0.000
REMARK  1 active torsions:
REMARK  status: ('A' for Active; 'I' for Inactive)
REMARK    1  A    between atoms: C3_3  and  C6_6 
ROOT
HETATM    1  C1  UNL     1     -33.313  16.103  -2.859  1.00 20.00    -0.024 C 
HETATM    2  C2  UNL     1     -34.523  16.069  -2.277  1.00 20.00    -0.087 C 
HETATM    3  C4  UNL     1     -33.050  15.647  -4.263  1.00 20.00     0.032 C 
HETATM    4  C5  UNL     1     -35.744  15.537  -2.987  1.00 20.00     0.045 C 
HETATM    5  C6  UNL     1     -35.453  14.818  -4.314  1.00 20.00     0.055 C 
HETATM    6  C7  UNL     1     -34.318  15.475  -5.119  1.00 20.00    -0.004 C 
HETATM    7  C8  UNL     1     -34.740  16.563  -0.876  1.00 20.00     0.043 C 
HETATM    8  C9  UNL     1     -34.770  16.820  -5.703  1.00 20.00     0.011 C 
ENDROOT
BRANCH   5   9
HETATM    9  C3  UNL     1     -35.126  13.372  -4.065  1.00 20.00     0.236 C 
HETATM   10  O10 UNL     1     -34.756  12.602  -4.945  1.00 20.00    -0.306 OA
ENDBRANCH   5   9
TORSDOF 1
ENDMDL
MODEL 2
REMARK VINA RESULT:      -4.6      1.873      3.556
REMARK  1 active torsions:
REMARK  status: ('A' for Active; 'I' for Inactive)
REMARK    1  A    between atoms: C3_3  and  C6_6 
ROOT
HETATM    1  C1  UNL     1     -33.954  15.970  -5.636  1.00 20.00    -0.024 C 
HETATM    2  C2  UNL     1     -34.566  14.992  -6.324  1.00 20.00    -0.087 C 
HETATM    3  C4  UNL     1     -33.841  15.993  -4.140  1.00 20.00     0.032 C 
HETATM    4  C5  UNL     1     -35.227  13.819  -5.641  1.00 20.00     0.045 C 
HETATM    5  C6  UNL     1     -35.363  13.957  -4.117  1.00 20.00     0.055 C 
HETATM    6  C7  UNL     1     -34.153  14.646  -3.463  1.00 20.00    -0.004 C 
HETATM    7  C8  UNL     1     -34.629  15.002  -7.823  1.00 20.00     0.043 C 
HETATM    8  C9  UNL     1     -32.924  13.727  -3.483  1.00 20.00     0.011 C 
ENDROOT
BRANCH   5   9
HETATM    9  C3  UNL     1     -36.621  14.703  -3.768  1.00 20.00     0.236 C 
HETATM   10  O10 UNL     1     -37.731  14.183  -3.745  1.00 20.00    -0.306 OA
ENDBRANCH   5   9
TORSDOF 1
ENDMDL
MODEL 3
REMARK VINA RESULT:      -4.5      1.080      3.056
REMARK  1 active torsions:
REMARK  status: ('A' for Active; 'I' for Inactive)
REMARK    1  A    between atoms: C3_3  and  C6_6 
ROOT
HETATM    1  C1  UNL     1     -35.487  17.034  -4.602  1.00 20.00    -0.024 C 
HETATM    2  C2  UNL     1     -34.192  17.047  -4.960  1.00 20.00    -0.087 C 
HETATM    3  C4  UNL     1     -36.067  16.079  -3.602  1.00 20.00     0.032 C 
HETATM    4  C5  UNL     1     -33.191  16.068  -4.395  1.00 20.00     0.045 C 
HETATM    5  C6  UNL     1     -33.807  14.916  -3.585  1.00 20.00     0.055 C 
HETATM    6  C7  UNL     1     -35.018  15.351  -2.742  1.00 20.00    -0.004 C 
HETATM    7  C8  UNL     1     -33.655  18.042  -5.946  1.00 20.00     0.043 C 
HETATM    8  C9  UNL     1     -34.576  16.227  -1.561  1.00 20.00     0.011 C 
ENDROOT
BRANCH   5   9
HETATM    9  C3  UNL     1     -34.202  13.787  -4.496  1.00 20.00     0.236 C 
HETATM   10  O10 UNL     1     -34.828  12.803  -4.119  1.00 20.00    -0.306 OA
ENDBRANCH   5   9
TORSDOF 1
ENDMDL
MODEL 4
REMARK VINA RESULT:      -4.5      1.869      2.971
REMARK  1 active torsions:
REMARK  status: ('A' for Active; 'I' for Inactive)
REMARK    1  A    between atoms: C3_3  and  C6_6 
ROOT
HETATM    1  C1  UNL     1     -35.902  15.739  -3.000  1.00 20.00    -0.024 C 
HETATM    2  C2  UNL     1     -34.728  16.014  -2.408  1.00 20.00    -0.087 C 
HETATM    3  C4  UNL     1     -36.028  15.221  -4.402  1.00 20.00     0.032 C 
HETATM    4  C5  UNL     1     -33.407  15.847  -3.120  1.00 20.00     0.045 C 
HETATM    5  C6  UNL     1     -33.521  15.582  -4.630  1.00 20.00     0.055 C 
HETATM    6  C7  UNL     1     -34.714  14.681  -4.996  1.00 20.00    -0.004 C 
HETATM    7  C8  UNL     1     -34.654  16.505  -0.992  1.00 20.00     0.043 C 
HETATM    8  C9  UNL     1     -34.464  13.235  -4.547  1.00 20.00     0.011 C 
ENDROOT
BRANCH   5   9
HETATM    9  C3  UNL     1     -33.616  16.879  -5.383  1.00 20.00     0.236 C 
HETATM   10  O10 UNL     1     -33.324  17.966  -4.896  1.00 20.00    -0.306 OA
ENDBRANCH   5   9
TORSDOF 1
ENDMDL
MODEL 5
REMARK VINA RESULT:      -4.4      1.088      2.045
REMARK  1 active torsions:
REMARK  status: ('A' for Active; 'I' for Inactive)
REMARK    1  A    between atoms: C3_3  and  C6_6 
ROOT
HETATM    1  C1  UNL     1     -35.462  15.943  -2.693  1.00 20.00    -0.024 C 
HETATM    2  C2  UNL     1     -36.317  15.624  -3.679  1.00 20.00    -0.087 C 
HETATM    3  C4  UNL     1     -33.971  15.860  -2.823  1.00 20.00     0.032 C 
HETATM    4  C5  UNL     1     -35.846  15.121  -5.022  1.00 20.00     0.045 C 
HETATM    5  C6  UNL     1     -34.351  14.770  -5.088  1.00 20.00     0.055 C 
HETATM    6  C7  UNL     1     -33.469  15.732  -4.273  1.00 20.00    -0.004 C 
HETATM    7  C8  UNL     1     -37.803  15.750  -3.507  1.00 20.00     0.043 C 
HETATM    8  C9  UNL     1     -33.393  17.108  -4.949  1.00 20.00     0.011 C 
ENDROOT
BRANCH   5   9
HETATM    9  C3  UNL     1     -34.124  13.358  -4.624  1.00 20.00     0.236 C 
HETATM   10  O10 UNL     1     -35.031  12.556  -4.430  1.00 20.00    -0.306 OA
ENDBRANCH   5   9
TORSDOF 1
ENDMDL
MODEL 6
REMARK VINA RESULT:      -4.4     11.243     12.959
REMARK  1 active torsions:
REMARK  status: ('A' for Active; 'I' for Inactive)
REMARK    1  A    between atoms: C3_3  and  C6_6 
ROOT
HETATM    1  C1  UNL     1     -40.726   4.365  -1.314  1.00 20.00    -0.024 C 
HETATM    2  C2  UNL     1     -41.695   4.033  -2.183  1.00 20.00    -0.087 C 
HETATM    3  C4  UNL     1     -40.743   5.614  -0.483  1.00 20.00     0.032 C 
HETATM    4  C5  UNL     1     -42.898   4.913  -2.424  1.00 20.00     0.045 C 
HETATM    5  C6  UNL     1     -42.805   6.312  -1.796  1.00 20.00     0.055 C 
HETATM    6  C7  UNL     1     -42.114   6.312  -0.422  1.00 20.00    -0.004 C 
HETATM    7  C8  UNL     1     -41.644   2.757  -2.972  1.00 20.00     0.043 C 
HETATM    8  C9  UNL     1     -43.011   5.663   0.641  1.00 20.00     0.011 C 
ENDROOT
BRANCH   5   9
HETATM    9  C3  UNL     1     -42.091   7.256  -2.723  1.00 20.00     0.236 C 
HETATM   10  O10 UNL     1     -42.524   7.580  -3.823  1.00 20.00    -0.306 OA
ENDBRANCH   5   9
TORSDOF 1
ENDMDL
MODEL 7
REMARK VINA RESULT:      -4.3      1.793      2.102
REMARK  1 active torsions:
REMARK  status: ('A' for Active; 'I' for Inactive)
REMARK    1  A    between atoms: C3_3  and  C6_6 
ROOT
HETATM    1  C1  UNL     1     -34.338  14.372  -3.263  1.00 20.00    -0.024 C 
HETATM    2  C2  UNL     1     -34.906  15.539  -2.916  1.00 20.00    -0.087 C 
HETATM    3  C4  UNL     1     -34.621  13.657  -4.551  1.00 20.00     0.032 C 
HETATM    4  C5  UNL     1     -35.915  16.237  -3.795  1.00 20.00     0.045 C 
HETATM    5  C6  UNL     1     -36.422  15.400  -4.980  1.00 20.00     0.055 C 
HETATM    6  C7  UNL     1     -35.327  14.523  -5.611  1.00 20.00    -0.004 C 
HETATM    7  C8  UNL     1     -34.568  16.228  -1.626  1.00 20.00     0.043 C 
HETATM    8  C9  UNL     1     -34.313  15.382  -6.379  1.00 20.00     0.011 C 
ENDROOT
BRANCH   5   9
HETATM    9  C3  UNL     1     -37.579  14.540  -4.556  1.00 20.00     0.236 C 
HETATM   10  O10 UNL     1     -38.004  14.496  -3.407  1.00 20.00    -0.306 OA
ENDBRANCH   5   9
TORSDOF 1
ENDMDL
MODEL 8
REMARK VINA RESULT:      -4.3      1.590      2.928
REMARK  1 active torsions:
REMARK  status: ('A' for Active; 'I' for Inactive)
REMARK    1  A    between atoms: C3_3  and  C6_6 
ROOT
HETATM    1  C1  UNL     1     -33.984  16.727  -3.553  1.00 20.00    -0.024 C 
HETATM    2  C2  UNL     1     -34.100  16.740  -4.892  1.00 20.00    -0.087 C 
HETATM    3  C4  UNL     1     -34.376  15.563  -2.693  1.00 20.00     0.032 C 
HETATM    4  C5  UNL     1     -34.669  15.573  -5.662  1.00 20.00     0.045 C 
HETATM    5  C6  UNL     1     -35.325  14.489  -4.793  1.00 20.00     0.055 C 
HETATM    6  C7  UNL     1     -34.584  14.248  -3.467  1.00 20.00    -0.004 C 
HETATM    7  C8  UNL     1     -33.667  17.921  -5.710  1.00 20.00     0.043 C 
HETATM    8  C9  UNL     1     -33.244  13.540  -3.711  1.00 20.00     0.011 C 
ENDROOT
BRANCH   5   9
HETATM    9  C3  UNL     1     -36.761  14.838  -4.515  1.00 20.00     0.236 C 
HETATM   10  O10 UNL     1     -37.493  14.167  -3.796  1.00 20.00    -0.306 OA
ENDBRANCH   5   9
TORSDOF 1
ENDMDL
MODEL 9
REMARK VINA RESULT:      -4.2      1.669      3.043
REMARK  1 active torsions:
REMARK  status: ('A' for Active; 'I' for Inactive)
REMARK    1  A    between atoms: C3_3  and  C6_6 
ROOT
HETATM    1  C1  UNL     1     -34.510  15.587  -6.271  1.00 20.00    -0.024 C 
HETATM    2  C2  UNL     1     -34.118  16.532  -5.399  1.00 20.00    -0.087 C 
HETATM    3  C4  UNL     1     -34.928  14.204  -5.870  1.00 20.00     0.032 C 
HETATM    4  C5  UNL     1     -34.040  16.275  -3.914  1.00 20.00     0.045 C 
HETATM    5  C6  UNL     1     -34.199  14.801  -3.508  1.00 20.00     0.055 C 
HETATM    6  C7  UNL     1     -35.228  14.046  -4.368  1.00 20.00    -0.004 C 
HETATM    7  C8  UNL     1     -33.735  17.911  -5.850  1.00 20.00     0.043 C 
HETATM    8  C9  UNL     1     -36.655  14.508  -4.043  1.00 20.00     0.011 C 
ENDROOT
BRANCH   5   9
HETATM    9  C3  UNL     1     -32.872  14.096  -3.569  1.00 20.00     0.236 C 
HETATM   10  O10 UNL     1     -32.757  12.875  -3.600  1.00 20.00    -0.306 OA
ENDBRANCH   5   9
TORSDOF 1
ENDMDL
