MODEL 1
REMARK VINA RESULT:      -4.4      0.000      0.000
REMARK  2 active torsions:
REMARK  status: ('A' for Active; 'I' for Inactive)
REMARK    1  A    between atoms: C3_3  and  C7_7 
REMARK    2  A    between atoms: C4_4  and  C8_8 
ROOT
HETATM    1  C5  UNL     1     -34.045  14.008  -4.563  1.00 20.00     0.014 C 
HETATM    2  C6  UNL     1     -34.621  14.437  -3.214  1.00 20.00     0.037 C 
HETATM    3  C7  UNL     1     -34.157  15.123  -5.613  1.00 20.00     0.036 C 
HETATM    4  C8  UNL     1     -34.039  15.784  -2.783  1.00 20.00     0.144 C 
HETATM    5  C9  UNL     1     -33.602  16.440  -5.031  1.00 20.00     0.126 C 
HETATM    6  C10 UNL     1     -33.746  17.631  -5.973  1.00 20.00     0.040 C 
HETATM    7  O11 UNL     1     -34.252  16.769  -3.798  1.00 20.00    -0.377 OA
ENDROOT
BRANCH   3   8
HETATM    8  C3  UNL     1     -35.575  15.237  -6.097  1.00 20.00    -0.030 C 
HETATM    9  C1  UNL     1     -36.007  14.760  -7.269  1.00 20.00     0.007 C 
ENDBRANCH   3   8
BRANCH   4  10
HETATM   10  C4  UNL     1     -34.685  16.266  -1.527  1.00 20.00    -0.005 C 
HETATM   11  C2  UNL     1     -34.178  17.227  -0.746  1.00 20.00     0.009 C 
ENDBRANCH   4  10
TORSDOF 2
ENDMDL
MODEL 2
REMARK VINA RESULT:      -4.4      1.390      4.132
REMARK  2 active torsions:
REMARK  status: ('A' for Active; 'I' for Inactive)
REMARK    1  A    between atoms: C3_3  and  C7_7 
REMARK    2  A    between atoms: C4_4  and  C8_8 
ROOT
HETATM    1  C5  UNL     1     -33.219  15.280  -3.592  1.00 20.00     0.014 C 
HETATM    2  C6  UNL     1     -33.191  16.318  -4.714  1.00 20.00     0.037 C 
HETATM    3  C7  UNL     1     -34.645  15.031  -3.080  1.00 20.00     0.036 C 
HETATM    4  C8  UNL     1     -34.210  15.965  -5.799  1.00 20.00     0.144 C 
HETATM    5  C9  UNL     1     -35.584  14.758  -4.273  1.00 20.00     0.126 C 
HETATM    6  C10 UNL     1     -37.045  14.580  -3.872  1.00 20.00     0.040 C 
HETATM    7  O11 UNL     1     -35.515  15.820  -5.233  1.00 20.00    -0.377 OA
ENDROOT
BRANCH   3   8
HETATM    8  C3  UNL     1     -35.094  16.179  -2.219  1.00 20.00    -0.030 C 
HETATM    9  C1  UNL     1     -34.494  16.539  -1.080  1.00 20.00     0.007 C 
ENDBRANCH   3   8
BRANCH   4  10
HETATM   10  C4  UNL     1     -34.273  17.035  -6.838  1.00 20.00    -0.005 C 
HETATM   11  C2  UNL     1     -34.008  18.325  -6.602  1.00 20.00     0.009 C 
ENDBRANCH   4  10
TORSDOF 2
ENDMDL
MODEL 3
REMARK VINA RESULT:      -4.4     11.844     13.351
REMARK  2 active torsions:
REMARK  status: ('A' for Active; 'I' for Inactive)
REMARK    1  A    between atoms: C3_3  and  C7_7 
REMARK    2  A    between atoms: C4_4  and  C8_8 
ROOT
HETATM    1  C5  UNL     1     -40.944   6.217  -0.245  1.00 20.00     0.014 C 
HETATM    2  C6  UNL     1     -41.714   7.292  -1.012  1.00 20.00     0.037 C 
HETATM    3  C7  UNL     1     -41.469   4.808  -0.554  1.00 20.00     0.036 C 
HETATM    4  C8  UNL     1     -41.784   6.946  -2.500  1.00 20.00     0.144 C 
HETATM    5  C9  UNL     1     -41.559   4.612  -2.082  1.00 20.00     0.126 C 
HETATM    6  C10 UNL     1     -42.151   3.267  -2.491  1.00 20.00     0.040 C 
HETATM    7  O11 UNL     1     -42.347   5.645  -2.685  1.00 20.00    -0.377 OA
ENDROOT
BRANCH   3   8
HETATM    8  C3  UNL     1     -42.775   4.576   0.154  1.00 20.00    -0.030 C 
HETATM    9  C1  UNL     1     -43.137   5.198   1.280  1.00 20.00     0.007 C 
ENDBRANCH   3   8
BRANCH   4  10
HETATM   10  C4  UNL     1     -42.635   7.928  -3.235  1.00 20.00    -0.005 C 
HETATM   11  C2  UNL     1     -42.318   8.448  -4.427  1.00 20.00     0.009 C 
ENDBRANCH   4  10
TORSDOF 2
ENDMDL
MODEL 4
REMARK VINA RESULT:      -4.3      1.444      2.501
REMARK  2 active torsions:
REMARK  status: ('A' for Active; 'I' for Inactive)
REMARK    1  A    between atoms: C3_3  and  C7_7 
REMARK    2  A    between atoms: C4_4  and  C8_8 
ROOT
HETATM    1  C5  UNL     1     -36.252  16.725  -4.654  1.00 20.00     0.014 C 
HETATM    2  C6  UNL     1     -35.426  17.241  -3.476  1.00 20.00     0.037 C 
HETATM    3  C7  UNL     1     -35.728  15.379  -5.174  1.00 20.00     0.036 C 
HETATM    4  C8  UNL     1     -35.273  16.156  -2.409  1.00 20.00     0.144 C 
HETATM    5  C9  UNL     1     -35.552  14.400  -3.994  1.00 20.00     0.126 C 
HETATM    6  C10 UNL     1     -34.955  13.057  -4.400  1.00 20.00     0.040 C 
HETATM    7  O11 UNL     1     -34.717  14.968  -2.978  1.00 20.00    -0.377 OA
ENDROOT
BRANCH   3   8
HETATM    8  C3  UNL     1     -34.469  15.586  -5.968  1.00 20.00    -0.030 C 
HETATM    9  C1  UNL     1     -34.347  15.294  -7.267  1.00 20.00     0.007 C 
ENDBRANCH   3   8
BRANCH   4  10
HETATM   10  C4  UNL     1     -34.368  16.611  -1.312  1.00 20.00    -0.005 C 
HETATM   11  C2  UNL     1     -34.796  17.130  -0.155  1.00 20.00     0.009 C 
ENDBRANCH   4  10
TORSDOF 2
ENDMDL
MODEL 5
REMARK VINA RESULT:      -4.2      1.283      4.453
REMARK  2 active torsions:
REMARK  status: ('A' for Active; 'I' for Inactive)
REMARK    1  A    between atoms: C3_3  and  C7_7 
REMARK    2  A    between atoms: C4_4  and  C8_8 
ROOT
HETATM    1  C5  UNL     1     -33.726  17.460  -4.054  1.00 20.00     0.014 C 
HETATM    2  C6  UNL     1     -34.787  17.262  -5.136  1.00 20.00     0.037 C 
HETATM    3  C7  UNL     1     -33.477  16.172  -3.256  1.00 20.00     0.036 C 
HETATM    4  C8  UNL     1     -34.466  16.033  -5.987  1.00 20.00     0.144 C 
HETATM    5  C9  UNL     1     -33.237  14.999  -4.229  1.00 20.00     0.126 C 
HETATM    6  C10 UNL     1     -33.060  13.654  -3.531  1.00 20.00     0.040 C 
HETATM    7  O11 UNL     1     -34.318  14.876  -5.160  1.00 20.00    -0.377 OA
ENDROOT
BRANCH   3   8
HETATM    8  C3  UNL     1     -34.609  15.929  -2.298  1.00 20.00    -0.030 C 
HETATM    9  C1  UNL     1     -34.701  16.494  -1.090  1.00 20.00     0.007 C 
ENDBRANCH   3   8
BRANCH   4  10
HETATM   10  C4  UNL     1     -35.558  15.764  -6.968  1.00 20.00    -0.005 C 
HETATM   11  C2  UNL     1     -35.702  14.612  -7.632  1.00 20.00     0.009 C 
ENDBRANCH   4  10
TORSDOF 2
ENDMDL
MODEL 6
REMARK VINA RESULT:      -4.2      1.774      3.962
REMARK  2 active torsions:
REMARK  status: ('A' for Active; 'I' for Inactive)
REMARK    1  A    between atoms: C3_3  and  C7_7 
REMARK    2  A    between atoms: C4_4  and  C8_8 
ROOT
HETATM    1  C5  UNL     1     -33.503  17.482  -4.328  1.00 20.00     0.014 C 
HETATM    2  C6  UNL     1     -33.739  16.047  -4.799  1.00 20.00     0.037 C 
HETATM    3  C7  UNL     1     -34.214  17.771  -2.998  1.00 20.00     0.036 C 
HETATM    4  C8  UNL     1     -33.431  15.054  -3.677  1.00 20.00     0.144 C 
HETATM    5  C9  UNL     1     -33.878  16.663  -1.979  1.00 20.00     0.126 C 
HETATM    6  C10 UNL     1     -34.606  16.817  -0.648  1.00 20.00     0.040 C 
HETATM    7  O11 UNL     1     -34.190  15.369  -2.508  1.00 20.00    -0.377 OA
ENDROOT
BRANCH   3   8
HETATM    8  C3  UNL     1     -35.690  17.941  -3.228  1.00 20.00    -0.030 C 
HETATM    9  C1  UNL     1     -36.327  19.115  -3.166  1.00 20.00     0.007 C 
ENDBRANCH   3   8
BRANCH   4  10
HETATM   10  C4  UNL     1     -33.773  13.661  -4.091  1.00 20.00    -0.005 C 
HETATM   11  C2  UNL     1     -34.987  13.278  -4.501  1.00 20.00     0.009 C 
ENDBRANCH   4  10
TORSDOF 2
ENDMDL
MODEL 7
REMARK VINA RESULT:      -4.2      3.844      6.204
REMARK  2 active torsions:
REMARK  status: ('A' for Active; 'I' for Inactive)
REMARK    1  A    between atoms: C3_3  and  C7_7 
REMARK    2  A    between atoms: C4_4  and  C8_8 
ROOT
HETATM    1  C5  UNL     1     -32.900  19.138  -0.777  1.00 20.00     0.014 C 
HETATM    2  C6  UNL     1     -31.888  18.889   0.341  1.00 20.00     0.037 C 
HETATM    3  C7  UNL     1     -34.236  18.431  -0.506  1.00 20.00     0.036 C 
HETATM    4  C8  UNL     1     -32.509  19.191   1.706  1.00 20.00     0.144 C 
HETATM    5  C9  UNL     1     -34.716  18.760   0.922  1.00 20.00     0.126 C 
HETATM    6  C10 UNL     1     -35.999  18.036   1.316  1.00 20.00     0.040 C 
HETATM    7  O11 UNL     1     -33.709  18.436   1.888  1.00 20.00    -0.377 OA
ENDROOT
BRANCH   3   8
HETATM    8  C3  UNL     1     -34.103  16.957  -0.766  1.00 20.00    -0.030 C 
HETATM    9  C1  UNL     1     -34.763  16.303  -1.726  1.00 20.00     0.007 C 
ENDBRANCH   3   8
BRANCH   4  10
HETATM   10  C4  UNL     1     -31.567  18.837   2.809  1.00 20.00    -0.005 C 
HETATM   11  C2  UNL     1     -31.904  18.818   4.104  1.00 20.00     0.009 C 
ENDBRANCH   4  10
TORSDOF 2
ENDMDL
MODEL 8
REMARK VINA RESULT:      -4.1      1.309      1.715
REMARK  2 active torsions:
REMARK  status: ('A' for Active; 'I' for Inactive)
REMARK    1  A    between atoms: C3_3  and  C7_7 
REMARK    2  A    between atoms: C4_4  and  C8_8 
ROOT
HETATM    1  C5  UNL     1     -33.272  16.287  -5.256  1.00 20.00     0.014 C 
HETATM    2  C6  UNL     1     -33.426  15.824  -3.807  1.00 20.00     0.037 C 
HETATM    3  C7  UNL     1     -34.623  16.347  -5.983  1.00 20.00     0.036 C 
HETATM    4  C8  UNL     1     -34.504  16.641  -3.092  1.00 20.00     0.144 C 
HETATM    5  C9  UNL     1     -35.637  17.135  -5.128  1.00 20.00     0.126 C 
HETATM    6  C10 UNL     1     -37.038  17.180  -5.730  1.00 20.00     0.040 C 
HETATM    7  O11 UNL     1     -35.738  16.580  -3.812  1.00 20.00    -0.377 OA
ENDROOT
BRANCH   3   8
HETATM    8  C3  UNL     1     -35.086  14.960  -6.329  1.00 20.00    -0.030 C 
HETATM    9  C1  UNL     1     -35.231  14.509  -7.580  1.00 20.00     0.007 C 
ENDBRANCH   3   8
BRANCH   4  10
HETATM   10  C4  UNL     1     -34.743  16.116  -1.716  1.00 20.00    -0.005 C 
HETATM   11  C2  UNL     1     -34.574  16.836  -0.600  1.00 20.00     0.009 C 
ENDBRANCH   4  10
TORSDOF 2
ENDMDL
MODEL 9
REMARK VINA RESULT:      -4.1      1.104      1.258
REMARK  2 active torsions:
REMARK  status: ('A' for Active; 'I' for Inactive)
REMARK    1  A    between atoms: C3_3  and  C7_7 
REMARK    2  A    between atoms: C4_4  and  C8_8 
ROOT
HETATM    1  C5  UNL     1     -35.488  13.810  -4.348  1.00 20.00     0.014 C 
HETATM    2  C6  UNL     1     -35.231  14.700  -3.132  1.00 20.00     0.037 C 
HETATM    3  C7  UNL     1     -35.521  14.620  -5.652  1.00 20.00     0.036 C 
HETATM    4  C8  UNL     1     -34.011  15.592  -3.365  1.00 20.00     0.144 C 
HETATM    5  C9  UNL     1     -34.275  15.526  -5.732  1.00 20.00     0.126 C 
HETATM    6  C10 UNL     1     -34.258  16.434  -6.957  1.00 20.00     0.040 C 
HETATM    7  O11 UNL     1     -34.167  16.352  -4.566  1.00 20.00    -0.377 OA
ENDROOT
BRANCH   3   8
HETATM    8  C3  UNL     1     -36.816  15.377  -5.758  1.00 20.00    -0.030 C 
HETATM    9  C1  UNL     1     -37.698  15.215  -6.750  1.00 20.00     0.007 C 
ENDBRANCH   3   8
BRANCH   4  10
HETATM   10  C4  UNL     1     -33.825  16.547  -2.233  1.00 20.00    -0.005 C 
HETATM   11  C2  UNL     1     -34.565  16.540  -1.119  1.00 20.00     0.009 C 
ENDBRANCH   4  10
TORSDOF 2
ENDMDL
