MODEL 1
REMARK VINA RESULT:      -3.8      0.000      0.000
REMARK  5 active torsions:
REMARK  status: ('A' for Active; 'I' for Inactive)
REMARK    1  A    between atoms: C2_2  and  C3_3 
REMARK    2  A    between atoms: C3_3  and  N7_7 
REMARK    3  A    between atoms: C4_4  and  C5_5 
REMARK    4  A    between atoms: C4_4  and  N7_7 
REMARK    5  A    between atoms: N6_6  and  N7_7 
ROOT
HETATM    1  N7  UNL     1     -34.134  14.577  -4.121  1.00 20.00    -0.205 NA
ENDROOT
BRANCH   1   2
HETATM    2  C3  UNL     1     -33.763  15.520  -3.102  1.00 20.00     0.111 C 
BRANCH   2   3
HETATM    3  C2  UNL     1     -34.937  15.903  -2.210  1.00 20.00     0.011 C 
HETATM    4  C1  UNL     1     -34.505  16.651  -0.958  1.00 20.00     0.006 C 
ENDBRANCH   2   3
ENDBRANCH   1   2
BRANCH   1   5
HETATM    5  C4  UNL     1     -35.446  14.928  -4.701  1.00 20.00     0.127 C 
BRANCH   5   6
HETATM    6  C5  UNL     1     -35.321  15.772  -5.958  1.00 20.00     0.130 C 
HETATM    7 CL9  UNL     1     -34.316  14.962  -7.185  1.00 20.00    -0.129 Cl
ENDBRANCH   5   6
ENDBRANCH   1   5
BRANCH   1   8
HETATM    8  N6  UNL     1     -34.112  13.299  -3.751  1.00 20.00     0.030 NA
HETATM    9  O8  UNL     1     -35.005  12.662  -4.323  1.00 20.00    -0.082 OA
ENDBRANCH   1   8
TORSDOF 5
ENDMDL
MODEL 2
REMARK VINA RESULT:      -3.8      2.407      3.686
REMARK  5 active torsions:
REMARK  status: ('A' for Active; 'I' for Inactive)
REMARK    1  A    between atoms: C2_2  and  C3_3 
REMARK    2  A    between atoms: C3_3  and  N7_7 
REMARK    3  A    between atoms: C4_4  and  C5_5 
REMARK    4  A    between atoms: C4_4  and  N7_7 
REMARK    5  A    between atoms: N6_6  and  N7_7 
ROOT
HETATM    1  N7  UNL     1     -35.330  13.937  -5.004  1.00 20.00    -0.205 NA
ENDROOT
BRANCH   1   2
HETATM    2  C3  UNL     1     -34.396  14.909  -5.499  1.00 20.00     0.111 C 
BRANCH   2   3
HETATM    3  C2  UNL     1     -34.403  14.997  -7.021  1.00 20.00     0.011 C 
HETATM    4  C1  UNL     1     -35.696  14.481  -7.634  1.00 20.00     0.006 C 
ENDBRANCH   2   3
ENDBRANCH   1   2
BRANCH   1   5
HETATM    5  C4  UNL     1     -36.214  14.537  -3.984  1.00 20.00     0.127 C 
BRANCH   5   6
HETATM    6  C5  UNL     1     -35.750  15.915  -3.547  1.00 20.00     0.130 C 
HETATM    7 CL9  UNL     1     -34.820  15.834  -2.030  1.00 20.00    -0.129 Cl
ENDBRANCH   5   6
ENDBRANCH   1   5
BRANCH   1   8
HETATM    8  N6  UNL     1     -34.791  12.808  -4.549  1.00 20.00     0.030 NA
HETATM    9  O8  UNL     1     -33.652  13.011  -4.111  1.00 20.00    -0.082 OA
ENDBRANCH   1   8
TORSDOF 5
ENDMDL
MODEL 3
REMARK VINA RESULT:      -3.8      2.218      3.705
REMARK  5 active torsions:
REMARK  status: ('A' for Active; 'I' for Inactive)
REMARK    1  A    between atoms: C2_2  and  C3_3 
REMARK    2  A    between atoms: C3_3  and  N7_7 
REMARK    3  A    between atoms: C4_4  and  C5_5 
REMARK    4  A    between atoms: C4_4  and  N7_7 
REMARK    5  A    between atoms: N6_6  and  N7_7 
ROOT
HETATM    1  N7  UNL     1     -34.500  14.607  -3.807  1.00 20.00    -0.205 NA
ENDROOT
BRANCH   1   2
HETATM    2  C3  UNL     1     -35.214  15.059  -4.968  1.00 20.00     0.111 C 
BRANCH   2   3
HETATM    3  C2  UNL     1     -34.282  15.467  -6.102  1.00 20.00     0.011 C 
HETATM    4  C1  UNL     1     -34.673  14.850  -7.437  1.00 20.00     0.006 C 
ENDBRANCH   2   3
ENDBRANCH   1   2
BRANCH   1   5
HETATM    5  C4  UNL     1     -33.336  15.478  -3.540  1.00 20.00     0.127 C 
BRANCH   5   6
HETATM    6  C5  UNL     1     -33.695  16.687  -2.694  1.00 20.00     0.130 C 
HETATM    7 CL9  UNL     1     -34.722  16.229  -1.312  1.00 20.00    -0.129 Cl
ENDBRANCH   5   6
ENDBRANCH   1   5
BRANCH   1   8
HETATM    8  N6  UNL     1     -34.132  13.329  -3.825  1.00 20.00     0.030 NA
HETATM    9  O8  UNL     1     -35.034  12.619  -4.288  1.00 20.00    -0.082 OA
ENDBRANCH   1   8
TORSDOF 5
ENDMDL
MODEL 4
REMARK VINA RESULT:      -3.7     11.542     12.091
REMARK  5 active torsions:
REMARK  status: ('A' for Active; 'I' for Inactive)
REMARK    1  A    between atoms: C2_2  and  C3_3 
REMARK    2  A    between atoms: C3_3  and  N7_7 
REMARK    3  A    between atoms: C4_4  and  C5_5 
REMARK    4  A    between atoms: C4_4  and  N7_7 
REMARK    5  A    between atoms: N6_6  and  N7_7 
ROOT
HETATM    1  N7  UNL     1     -33.593   5.610   3.832  1.00 20.00    -0.205 NA
ENDROOT
BRANCH   1   2
HETATM    2  C3  UNL     1     -34.005   6.582   4.805  1.00 20.00     0.111 C 
BRANCH   2   3
HETATM    3  C2  UNL     1     -34.052   6.008   6.216  1.00 20.00     0.011 C 
HETATM    4  C1  UNL     1     -34.780   4.674   6.284  1.00 20.00     0.006 C 
ENDBRANCH   2   3
ENDBRANCH   1   2
BRANCH   1   5
HETATM    5  C4  UNL     1     -32.301   5.993   3.227  1.00 20.00     0.127 C 
BRANCH   5   6
HETATM    6  C5  UNL     1     -32.007   7.476   3.369  1.00 20.00     0.130 C 
HETATM    7 CL9  UNL     1     -32.033   8.295   1.788  1.00 20.00    -0.129 Cl
ENDBRANCH   5   6
ENDBRANCH   1   5
BRANCH   1   8
HETATM    8  N6  UNL     1     -34.488   5.335   2.886  1.00 20.00     0.030 NA
HETATM    9  O8  UNL     1     -35.622   5.679   3.242  1.00 20.00    -0.082 OA
ENDBRANCH   1   8
TORSDOF 5
ENDMDL
MODEL 5
REMARK VINA RESULT:      -3.7     11.863     12.503
REMARK  5 active torsions:
REMARK  status: ('A' for Active; 'I' for Inactive)
REMARK    1  A    between atoms: C2_2  and  C3_3 
REMARK    2  A    between atoms: C3_3  and  N7_7 
REMARK    3  A    between atoms: C4_4  and  C5_5 
REMARK    4  A    between atoms: C4_4  and  N7_7 
REMARK    5  A    between atoms: N6_6  and  N7_7 
ROOT
HETATM    1  N7  UNL     1     -33.828   6.501   4.069  1.00 20.00    -0.205 NA
ENDROOT
BRANCH   1   2
HETATM    2  C3  UNL     1     -32.559   6.269   3.437  1.00 20.00     0.111 C 
BRANCH   2   3
HETATM    3  C2  UNL     1     -31.759   7.553   3.250  1.00 20.00     0.011 C 
HETATM    4  C1  UNL     1     -32.060   8.246   1.929  1.00 20.00     0.006 C 
ENDBRANCH   2   3
ENDBRANCH   1   2
BRANCH   1   5
HETATM    5  C4  UNL     1     -33.712   6.368   5.536  1.00 20.00     0.127 C 
BRANCH   5   6
HETATM    6  C5  UNL     1     -34.800   5.491   6.130  1.00 20.00     0.130 C 
HETATM    7 CL9  UNL     1     -34.365   3.766   6.036  1.00 20.00    -0.129 Cl
ENDBRANCH   5   6
ENDBRANCH   1   5
BRANCH   1   8
HETATM    8  N6  UNL     1     -34.837   5.765   3.611  1.00 20.00     0.030 NA
HETATM    9  O8  UNL     1     -34.491   5.120   2.613  1.00 20.00    -0.082 OA
ENDBRANCH   1   8
TORSDOF 5
ENDMDL
MODEL 6
REMARK VINA RESULT:      -3.6      2.232      3.154
REMARK  5 active torsions:
REMARK  status: ('A' for Active; 'I' for Inactive)
REMARK    1  A    between atoms: C2_2  and  C3_3 
REMARK    2  A    between atoms: C3_3  and  N7_7 
REMARK    3  A    between atoms: C4_4  and  C5_5 
REMARK    4  A    between atoms: C4_4  and  N7_7 
REMARK    5  A    between atoms: N6_6  and  N7_7 
ROOT
HETATM    1  N7  UNL     1     -34.660  14.510  -3.830  1.00 20.00    -0.205 NA
ENDROOT
BRANCH   1   2
HETATM    2  C3  UNL     1     -35.311  14.868  -5.060  1.00 20.00     0.111 C 
BRANCH   2   3
HETATM    3  C2  UNL     1     -36.626  15.603  -4.828  1.00 20.00     0.011 C 
HETATM    4  C1  UNL     1     -37.421  15.034  -3.662  1.00 20.00     0.006 C 
ENDBRANCH   2   3
ENDBRANCH   1   2
BRANCH   1   5
HETATM    5  C4  UNL     1     -33.453  15.336  -3.620  1.00 20.00     0.127 C 
BRANCH   5   6
HETATM    6  C5  UNL     1     -33.737  16.587  -2.807  1.00 20.00     0.130 C 
HETATM    7 CL9  UNL     1     -34.710  16.214  -1.362  1.00 20.00    -0.129 Cl
ENDBRANCH   5   6
ENDBRANCH   1   5
BRANCH   1   8
HETATM    8  N6  UNL     1     -34.373  13.219  -3.691  1.00 20.00     0.030 NA
HETATM    9  O8  UNL     1     -34.831  12.563  -4.636  1.00 20.00    -0.082 OA
ENDBRANCH   1   8
TORSDOF 5
ENDMDL
MODEL 7
REMARK VINA RESULT:      -3.6     12.277     12.912
REMARK  5 active torsions:
REMARK  status: ('A' for Active; 'I' for Inactive)
REMARK    1  A    between atoms: C2_2  and  C3_3 
REMARK    2  A    between atoms: C3_3  and  N7_7 
REMARK    3  A    between atoms: C4_4  and  C5_5 
REMARK    4  A    between atoms: C4_4  and  N7_7 
REMARK    5  A    between atoms: N6_6  and  N7_7 
ROOT
HETATM    1  N7  UNL     1     -34.566   5.714   4.167  1.00 20.00    -0.205 NA
ENDROOT
BRANCH   1   2
HETATM    2  C3  UNL     1     -33.728   5.743   3.001  1.00 20.00     0.111 C 
BRANCH   2   3
HETATM    3  C2  UNL     1     -32.363   6.359   3.284  1.00 20.00     0.011 C 
HETATM    4  C1  UNL     1     -32.145   7.670   2.542  1.00 20.00     0.006 C 
ENDBRANCH   2   3
ENDBRANCH   1   2
BRANCH   1   5
HETATM    5  C4  UNL     1     -33.758   5.501   5.385  1.00 20.00     0.127 C 
BRANCH   5   6
HETATM    6  C5  UNL     1     -34.272   6.298   6.572  1.00 20.00     0.130 C 
HETATM    7 CL9  UNL     1     -33.137   7.595   7.022  1.00 20.00    -0.129 Cl
ENDBRANCH   5   6
ENDBRANCH   1   5
BRANCH   1   8
HETATM    8  N6  UNL     1     -35.577   4.850   4.121  1.00 20.00     0.030 NA
HETATM    9  O8  UNL     1     -35.259   3.773   4.641  1.00 20.00    -0.082 OA
ENDBRANCH   1   8
TORSDOF 5
ENDMDL
MODEL 8
REMARK VINA RESULT:      -3.6     11.951     12.443
REMARK  5 active torsions:
REMARK  status: ('A' for Active; 'I' for Inactive)
REMARK    1  A    between atoms: C2_2  and  C3_3 
REMARK    2  A    between atoms: C3_3  and  N7_7 
REMARK    3  A    between atoms: C4_4  and  C5_5 
REMARK    4  A    between atoms: C4_4  and  N7_7 
REMARK    5  A    between atoms: N6_6  and  N7_7 
ROOT
HETATM    1  N7  UNL     1     -33.316   5.940   4.126  1.00 20.00    -0.205 NA
ENDROOT
BRANCH   1   2
HETATM    2  C3  UNL     1     -32.246   6.196   3.203  1.00 20.00     0.111 C 
BRANCH   2   3
HETATM    3  C2  UNL     1     -31.844   7.666   3.173  1.00 20.00     0.011 C 
HETATM    4  C1  UNL     1     -32.024   8.297   1.800  1.00 20.00     0.006 C 
ENDBRANCH   2   3
ENDBRANCH   1   2
BRANCH   1   5
HETATM    5  C4  UNL     1     -34.507   5.433   3.415  1.00 20.00     0.127 C 
BRANCH   5   6
HETATM    6  C5  UNL     1     -35.580   4.924   4.363  1.00 20.00     0.130 C 
HETATM    7 CL9  UNL     1     -34.904   3.785   5.554  1.00 20.00    -0.129 Cl
ENDBRANCH   5   6
ENDBRANCH   1   5
BRANCH   1   8
HETATM    8  N6  UNL     1     -33.643   6.959   4.917  1.00 20.00     0.030 NA
HETATM    9  O8  UNL     1     -33.409   6.688   6.101  1.00 20.00    -0.082 OA
ENDBRANCH   1   8
TORSDOF 5
ENDMDL
MODEL 9
REMARK VINA RESULT:      -3.5      2.215      2.363
REMARK  5 active torsions:
REMARK  status: ('A' for Active; 'I' for Inactive)
REMARK    1  A    between atoms: C2_2  and  C3_3 
REMARK    2  A    between atoms: C3_3  and  N7_7 
REMARK    3  A    between atoms: C4_4  and  C5_5 
REMARK    4  A    between atoms: C4_4  and  N7_7 
REMARK    5  A    between atoms: N6_6  and  N7_7 
ROOT
HETATM    1  N7  UNL     1     -34.028  15.434  -4.066  1.00 20.00    -0.205 NA
ENDROOT
BRANCH   1   2
HETATM    2  C3  UNL     1     -34.797  15.961  -2.974  1.00 20.00     0.111 C 
BRANCH   2   3
HETATM    3  C2  UNL     1     -33.923  16.606  -1.905  1.00 20.00     0.011 C 
HETATM    4  C1  UNL     1     -34.652  16.790  -0.582  1.00 20.00     0.006 C 
ENDBRANCH   2   3
ENDBRANCH   1   2
BRANCH   1   5
HETATM    5  C4  UNL     1     -33.824  13.979  -3.906  1.00 20.00     0.127 C 
BRANCH   5   6
HETATM    6  C5  UNL     1     -34.637  13.165  -4.897  1.00 20.00     0.130 C 
HETATM    7 CL9  UNL     1     -35.163  14.161  -6.277  1.00 20.00    -0.129 Cl
ENDBRANCH   5   6
ENDBRANCH   1   5
BRANCH   1   8
HETATM    8  N6  UNL     1     -32.868  16.045  -4.294  1.00 20.00     0.030 NA
HETATM    9  O8  UNL     1     -32.959  16.813  -5.260  1.00 20.00    -0.082 OA
ENDBRANCH   1   8
TORSDOF 5
ENDMDL
