MODEL 1
REMARK VINA RESULT:      -5.5      0.000      0.000
REMARK  2 active torsions:
REMARK  status: ('A' for Active; 'I' for Inactive)
REMARK    1  A    between atoms: C6_6  and  C8_8 
REMARK    2  A    between atoms: C8_8  and  O9_9 
ROOT
HETATM    1  C1  UNL     1     -34.998   4.716   6.235  1.00 20.00    -0.030 C 
HETATM    2  C2  UNL     1     -34.383   5.877   6.501  1.00 20.00    -0.030 C 
HETATM    3  C3  UNL     1     -35.034   4.099   4.868  1.00 20.00     0.031 C 
HETATM    4  C4  UNL     1     -33.642   6.668   5.464  1.00 20.00     0.034 C 
HETATM    5  C5  UNL     1     -34.635   5.067   3.734  1.00 20.00    -0.009 C 
HETATM    6  C6  UNL     1     -33.390   5.880   4.165  1.00 20.00     0.016 C 
HETATM    7  C7  UNL     1     -35.827   5.943   3.323  1.00 20.00     0.011 C 
ENDROOT
BRANCH   6   8
HETATM    8  C8  UNL     1     -32.866   6.806   3.067  1.00 20.00     0.169 C 
BRANCH   8   9
HETATM    9  O9  UNL     1     -31.674   7.415   3.525  1.00 20.00    -0.400 OA
HETATM   10  H23 UNL     1     -30.931   6.916   3.144  1.00 20.00     0.209 HD
ENDBRANCH   8   9
ENDBRANCH   6   8
TORSDOF 2
ENDMDL
MODEL 2
REMARK VINA RESULT:      -4.6      1.486      2.866
REMARK  2 active torsions:
REMARK  status: ('A' for Active; 'I' for Inactive)
REMARK    1  A    between atoms: C6_6  and  C8_8 
REMARK    2  A    between atoms: C8_8  and  O9_9 
ROOT
HETATM    1  C1  UNL     1     -34.402   5.352   2.801  1.00 20.00    -0.030 C 
HETATM    2  C2  UNL     1     -33.256   5.954   3.151  1.00 20.00    -0.030 C 
HETATM    3  C3  UNL     1     -35.524   5.099   3.763  1.00 20.00     0.031 C 
HETATM    4  C4  UNL     1     -32.988   6.465   4.535  1.00 20.00     0.034 C 
HETATM    5  C5  UNL     1     -35.123   5.249   5.246  1.00 20.00    -0.009 C 
HETATM    6  C6  UNL     1     -34.248   6.515   5.419  1.00 20.00     0.016 C 
HETATM    7  C7  UNL     1     -34.452   3.966   5.759  1.00 20.00     0.011 C 
ENDROOT
BRANCH   6   8
HETATM    8  C8  UNL     1     -33.876   6.794   6.875  1.00 20.00     0.169 C 
BRANCH   8   9
HETATM    9  O9  UNL     1     -32.753   7.655   6.892  1.00 20.00    -0.400 OA
HETATM   10  H23 UNL     1     -33.089   8.566   6.832  1.00 20.00     0.209 HD
ENDBRANCH   8   9
ENDBRANCH   6   8
TORSDOF 2
ENDMDL
MODEL 3
REMARK VINA RESULT:      -4.4     11.856     12.479
REMARK  2 active torsions:
REMARK  status: ('A' for Active; 'I' for Inactive)
REMARK    1  A    between atoms: C6_6  and  C8_8 
REMARK    2  A    between atoms: C8_8  and  O9_9 
ROOT
HETATM    1  C1  UNL     1     -35.169  13.495  -4.522  1.00 20.00    -0.030 C 
HETATM    2  C2  UNL     1     -36.163  14.295  -4.113  1.00 20.00    -0.030 C 
HETATM    3  C3  UNL     1     -33.743  13.668  -4.089  1.00 20.00     0.031 C 
HETATM    4  C4  UNL     1     -35.960  15.431  -3.154  1.00 20.00     0.034 C 
HETATM    5  C5  UNL     1     -33.449  15.037  -3.438  1.00 20.00    -0.009 C 
HETATM    6  C6  UNL     1     -34.588  15.396  -2.454  1.00 20.00     0.016 C 
HETATM    7  C7  UNL     1     -33.206  16.107  -4.512  1.00 20.00     0.011 C 
ENDROOT
BRANCH   6   8
HETATM    8  C8  UNL     1     -34.338  16.698  -1.693  1.00 20.00     0.169 C 
BRANCH   8   9
HETATM    9  O9  UNL     1     -34.908  16.580  -0.404  1.00 20.00    -0.400 OA
HETATM   10  H23 UNL     1     -35.830  16.884  -0.469  1.00 20.00     0.209 HD
ENDBRANCH   8   9
ENDBRANCH   6   8
TORSDOF 2
ENDMDL
MODEL 4
REMARK VINA RESULT:      -4.2     12.096     13.073
REMARK  2 active torsions:
REMARK  status: ('A' for Active; 'I' for Inactive)
REMARK    1  A    between atoms: C6_6  and  C8_8 
REMARK    2  A    between atoms: C8_8  and  O9_9 
ROOT
HETATM    1  C1  UNL     1     -33.713  17.273  -3.166  1.00 20.00    -0.030 C 
HETATM    2  C2  UNL     1     -33.557  17.136  -4.490  1.00 20.00    -0.030 C 
HETATM    3  C3  UNL     1     -34.279  16.195  -2.290  1.00 20.00     0.031 C 
HETATM    4  C4  UNL     1     -33.906  15.879  -5.232  1.00 20.00     0.034 C 
HETATM    5  C5  UNL     1     -35.000  15.071  -3.066  1.00 20.00    -0.009 C 
HETATM    6  C6  UNL     1     -34.158  14.676  -4.303  1.00 20.00     0.016 C 
HETATM    7  C7  UNL     1     -36.438  15.486  -3.409  1.00 20.00     0.011 C 
ENDROOT
BRANCH   6   8
HETATM    8  C8  UNL     1     -34.751  13.505  -5.086  1.00 20.00     0.169 C 
BRANCH   8   9
HETATM    9  O9  UNL     1     -35.123  12.495  -4.168  1.00 20.00    -0.400 OA
HETATM   10  H23 UNL     1     -34.683  11.675  -4.450  1.00 20.00     0.209 HD
ENDBRANCH   8   9
ENDBRANCH   6   8
TORSDOF 2
ENDMDL
MODEL 5
REMARK VINA RESULT:      -4.2      8.736     10.262
REMARK  2 active torsions:
REMARK  status: ('A' for Active; 'I' for Inactive)
REMARK    1  A    between atoms: C6_6  and  C8_8 
REMARK    2  A    between atoms: C8_8  and  O9_9 
ROOT
HETATM    1  C1  UNL     1     -41.116   7.253  -0.861  1.00 20.00    -0.030 C 
HETATM    2  C2  UNL     1     -41.940   7.202  -1.917  1.00 20.00    -0.030 C 
HETATM    3  C3  UNL     1     -40.633   6.033  -0.136  1.00 20.00     0.031 C 
HETATM    4  C4  UNL     1     -42.445   5.916  -2.502  1.00 20.00     0.034 C 
HETATM    5  C5  UNL     1     -41.437   4.754  -0.458  1.00 20.00    -0.009 C 
HETATM    6  C6  UNL     1     -41.692   4.677  -1.983  1.00 20.00     0.016 C 
HETATM    7  C7  UNL     1     -42.720   4.694   0.382  1.00 20.00     0.011 C 
ENDROOT
BRANCH   6   8
HETATM    8  C8  UNL     1     -42.406   3.394  -2.409  1.00 20.00     0.169 C 
BRANCH   8   9
HETATM    9  O9  UNL     1     -41.430   2.442  -2.786  1.00 20.00    -0.400 OA
HETATM   10  H23 UNL     1     -41.876   1.579  -2.836  1.00 20.00     0.209 HD
ENDBRANCH   8   9
ENDBRANCH   6   8
TORSDOF 2
ENDMDL
MODEL 6
REMARK VINA RESULT:      -4.1     11.910     12.916
REMARK  2 active torsions:
REMARK  status: ('A' for Active; 'I' for Inactive)
REMARK    1  A    between atoms: C6_6  and  C8_8 
REMARK    2  A    between atoms: C8_8  and  O9_9 
ROOT
HETATM    1  C1  UNL     1     -33.059  14.627  -3.575  1.00 20.00    -0.030 C 
HETATM    2  C2  UNL     1     -33.690  13.546  -4.054  1.00 20.00    -0.030 C 
HETATM    3  C3  UNL     1     -33.763  15.910  -3.243  1.00 20.00     0.031 C 
HETATM    4  C4  UNL     1     -35.172  13.495  -4.283  1.00 20.00     0.034 C 
HETATM    5  C5  UNL     1     -35.186  16.013  -3.833  1.00 20.00    -0.009 C 
HETATM    6  C6  UNL     1     -35.927  14.669  -3.631  1.00 20.00     0.016 C 
HETATM    7  C7  UNL     1     -35.134  16.471  -5.297  1.00 20.00     0.011 C 
ENDROOT
BRANCH   6   8
HETATM    8  C8  UNL     1     -37.380  14.706  -4.106  1.00 20.00     0.169 C 
BRANCH   8   9
HETATM    9  O9  UNL     1     -38.219  14.814  -2.972  1.00 20.00    -0.400 OA
HETATM   10  H23 UNL     1     -38.487  15.746  -2.901  1.00 20.00     0.209 HD
ENDBRANCH   8   9
ENDBRANCH   6   8
TORSDOF 2
ENDMDL
MODEL 7
REMARK VINA RESULT:      -4.0     12.170     13.950
REMARK  2 active torsions:
REMARK  status: ('A' for Active; 'I' for Inactive)
REMARK    1  A    between atoms: C6_6  and  C8_8 
REMARK    2  A    between atoms: C8_8  and  O9_9 
ROOT
HETATM    1  C1  UNL     1     -34.566  17.605  -5.278  1.00 20.00    -0.030 C 
HETATM    2  C2  UNL     1     -33.492  17.134  -4.629  1.00 20.00    -0.030 C 
HETATM    3  C3  UNL     1     -35.652  16.722  -5.819  1.00 20.00     0.031 C 
HETATM    4  C4  UNL     1     -33.276  15.676  -4.350  1.00 20.00     0.034 C 
HETATM    5  C5  UNL     1     -35.264  15.230  -5.896  1.00 20.00    -0.009 C 
HETATM    6  C6  UNL     1     -34.532  14.819  -4.595  1.00 20.00     0.016 C 
HETATM    7  C7  UNL     1     -34.457  14.944  -7.171  1.00 20.00     0.011 C 
ENDROOT
BRANCH   6   8
HETATM    8  C8  UNL     1     -34.188  13.331  -4.543  1.00 20.00     0.169 C 
BRANCH   8   9
HETATM    9  O9  UNL     1     -35.354  12.613  -4.186  1.00 20.00    -0.400 OA
HETATM   10  H23 UNL     1     -35.065  11.755  -3.832  1.00 20.00     0.209 HD
ENDBRANCH   8   9
ENDBRANCH   6   8
TORSDOF 2
ENDMDL
MODEL 8
REMARK VINA RESULT:      -4.0     12.122     14.027
REMARK  2 active torsions:
REMARK  status: ('A' for Active; 'I' for Inactive)
REMARK    1  A    between atoms: C6_6  and  C8_8 
REMARK    2  A    between atoms: C8_8  and  O9_9 
ROOT
HETATM    1  C1  UNL     1     -34.416  16.310  -7.170  1.00 20.00    -0.030 C 
HETATM    2  C2  UNL     1     -34.872  15.054  -7.275  1.00 20.00    -0.030 C 
HETATM    3  C3  UNL     1     -33.944  16.907  -5.877  1.00 20.00     0.031 C 
HETATM    4  C4  UNL     1     -34.933  14.103  -6.117  1.00 20.00     0.034 C 
HETATM    5  C5  UNL     1     -34.363  16.102  -4.627  1.00 20.00    -0.009 C 
HETATM    6  C6  UNL     1     -34.143  14.592  -4.888  1.00 20.00     0.016 C 
HETATM    7  C7  UNL     1     -35.800  16.451  -4.214  1.00 20.00     0.011 C 
ENDROOT
BRANCH   6   8
HETATM    8  C8  UNL     1     -34.448  13.721  -3.669  1.00 20.00     0.169 C 
BRANCH   8   9
HETATM    9  O9  UNL     1     -35.184  12.592  -4.099  1.00 20.00    -0.400 OA
HETATM   10  H23 UNL     1     -36.082  12.898  -4.312  1.00 20.00     0.209 HD
ENDBRANCH   8   9
ENDBRANCH   6   8
TORSDOF 2
ENDMDL
MODEL 9
REMARK VINA RESULT:      -4.0     11.606     12.859
REMARK  2 active torsions:
REMARK  status: ('A' for Active; 'I' for Inactive)
REMARK    1  A    between atoms: C6_6  and  C8_8 
REMARK    2  A    between atoms: C8_8  and  O9_9 
ROOT
HETATM    1  C1  UNL     1     -34.969  14.077  -5.933  1.00 20.00    -0.030 C 
HETATM    2  C2  UNL     1     -34.624  15.370  -6.017  1.00 20.00    -0.030 C 
HETATM    3  C3  UNL     1     -35.038  13.328  -4.636  1.00 20.00     0.031 C 
HETATM    4  C4  UNL     1     -34.296  16.211  -4.819  1.00 20.00     0.034 C 
HETATM    5  C5  UNL     1     -34.335  14.043  -3.462  1.00 20.00    -0.009 C 
HETATM    6  C6  UNL     1     -34.693  15.549  -3.486  1.00 20.00     0.016 C 
HETATM    7  C7  UNL     1     -32.824  13.772  -3.488  1.00 20.00     0.011 C 
ENDROOT
BRANCH   6   8
HETATM    8  C8  UNL     1     -34.112  16.325  -2.304  1.00 20.00     0.169 C 
BRANCH   8   9
HETATM    9  O9  UNL     1     -34.956  16.136  -1.185  1.00 20.00    -0.400 OA
HETATM   10  H23 UNL     1     -34.702  15.293  -0.772  1.00 20.00     0.209 HD
ENDBRANCH   8   9
ENDBRANCH   6   8
TORSDOF 2
ENDMDL
