MODEL 1
REMARK VINA RESULT:      -5.2      0.000      0.000
REMARK  1 active torsions:
REMARK  status: ('A' for Active; 'I' for Inactive)
REMARK    1  A    between atoms: C2_2  and  C3_3 
ROOT
HETATM    1  C1  UNL     1     -34.607  15.859  -4.173  1.00 20.00    -0.061 C 
HETATM    2  C2  UNL     1     -34.216  14.792  -4.880  1.00 20.00     0.088 C 
HETATM    3  C4  UNL     1     -33.866  16.592  -1.936  1.00 20.00     0.009 C 
HETATM    4  C5  UNL     1     -34.111  18.062  -2.325  1.00 20.00     0.006 C 
HETATM    5  C6  UNL     1     -36.108  16.863  -2.685  1.00 20.00     0.014 C 
HETATM    6  C7  UNL     1     -34.971  15.845  -2.701  1.00 20.00     0.016 C 
HETATM    7  C8  UNL     1     -35.265  17.962  -3.350  1.00 20.00    -0.002 C 
HETATM    8  C9  UNL     1     -34.812  17.281  -4.686  1.00 20.00    -0.020 C 
HETATM    9  C10 UNL     1     -35.927  17.356  -5.744  1.00 20.00     0.020 C 
HETATM   10  C11 UNL     1     -33.534  17.889  -5.278  1.00 20.00     0.020 C 
ENDROOT
BRANCH   2  11
HETATM   11  C3  UNL     1     -34.095  13.400  -4.246  1.00 20.00     0.198 C 
HETATM   12  O12 UNL     1     -35.122  12.675  -4.399  1.00 20.00    -0.644 OA
HETATM   13  O13 UNL     1     -33.013  13.132  -3.654  1.00 20.00    -0.644 OA
ENDBRANCH   2  11
TORSDOF 1
ENDMDL
MODEL 2
REMARK VINA RESULT:      -5.0      2.243      3.557
REMARK  1 active torsions:
REMARK  status: ('A' for Active; 'I' for Inactive)
REMARK    1  A    between atoms: C2_2  and  C3_3 
ROOT
HETATM    1  C1  UNL     1     -35.655  15.831  -3.590  1.00 20.00    -0.061 C 
HETATM    2  C2  UNL     1     -36.973  16.044  -3.501  1.00 20.00     0.088 C 
HETATM    3  C4  UNL     1     -34.273  15.482  -5.606  1.00 20.00     0.009 C 
HETATM    4  C5  UNL     1     -33.066  16.132  -4.903  1.00 20.00     0.006 C 
HETATM    5  C6  UNL     1     -33.835  14.359  -3.554  1.00 20.00     0.014 C 
HETATM    6  C7  UNL     1     -35.000  14.769  -4.453  1.00 20.00     0.016 C 
HETATM    7  C8  UNL     1     -33.309  15.796  -3.413  1.00 20.00    -0.002 C 
HETATM    8  C9  UNL     1     -34.549  16.555  -2.830  1.00 20.00    -0.020 C 
HETATM    9  C10 UNL     1     -34.659  16.340  -1.310  1.00 20.00     0.020 C 
HETATM   10  C11 UNL     1     -34.527  18.064  -3.110  1.00 20.00     0.020 C 
ENDROOT
BRANCH   2  11
HETATM   11  C3  UNL     1     -37.985  15.206  -4.292  1.00 20.00     0.198 C 
HETATM   12  O12 UNL     1     -38.277  15.688  -5.426  1.00 20.00    -0.644 OA
HETATM   13  O13 UNL     1     -38.410  14.150  -3.744  1.00 20.00    -0.644 OA
ENDBRANCH   2  11
TORSDOF 1
ENDMDL
MODEL 3
REMARK VINA RESULT:      -5.0      2.181      3.216
REMARK  1 active torsions:
REMARK  status: ('A' for Active; 'I' for Inactive)
REMARK    1  A    between atoms: C2_2  and  C3_3 
ROOT
HETATM    1  C1  UNL     1     -35.528  15.840  -4.275  1.00 20.00    -0.061 C 
HETATM    2  C2  UNL     1     -36.807  15.927  -4.663  1.00 20.00     0.088 C 
HETATM    3  C4  UNL     1     -34.336  13.921  -3.281  1.00 20.00     0.009 C 
HETATM    4  C5  UNL     1     -33.020  14.390  -3.931  1.00 20.00     0.006 C 
HETATM    5  C6  UNL     1     -33.880  16.169  -2.647  1.00 20.00     0.014 C 
HETATM    6  C7  UNL     1     -35.053  15.244  -2.964  1.00 20.00     0.016 C 
HETATM    7  C8  UNL     1     -33.194  15.925  -4.000  1.00 20.00    -0.002 C 
HETATM    8  C9  UNL     1     -34.300  16.350  -5.023  1.00 20.00    -0.020 C 
HETATM    9  C10 UNL     1     -34.327  17.879  -5.198  1.00 20.00     0.020 C 
HETATM   10  C11 UNL     1     -34.135  15.702  -6.404  1.00 20.00     0.020 C 
ENDROOT
BRANCH   2  11
HETATM   11  C3  UNL     1     -37.955  15.412  -3.787  1.00 20.00     0.198 C 
HETATM   12  O12 UNL     1     -38.557  16.322  -3.143  1.00 20.00    -0.644 OA
HETATM   13  O13 UNL     1     -38.174  14.169  -3.799  1.00 20.00    -0.644 OA
ENDBRANCH   2  11
TORSDOF 1
ENDMDL
MODEL 4
REMARK VINA RESULT:      -4.9      0.768      2.838
REMARK  1 active torsions:
REMARK  status: ('A' for Active; 'I' for Inactive)
REMARK    1  A    between atoms: C2_2  and  C3_3 
ROOT
HETATM    1  C1  UNL     1     -34.524  15.835  -3.910  1.00 20.00    -0.061 C 
HETATM    2  C2  UNL     1     -34.538  14.685  -3.225  1.00 20.00     0.088 C 
HETATM    3  C4  UNL     1     -35.394  16.303  -6.173  1.00 20.00     0.009 C 
HETATM    4  C5  UNL     1     -35.697  17.757  -5.766  1.00 20.00     0.006 C 
HETATM    5  C6  UNL     1     -33.420  17.332  -5.331  1.00 20.00     0.014 C 
HETATM    6  C7  UNL     1     -34.125  15.978  -5.367  1.00 20.00     0.016 C 
HETATM    7  C8  UNL     1     -34.620  18.051  -4.696  1.00 20.00    -0.002 C 
HETATM    8  C9  UNL     1     -34.851  17.228  -3.383  1.00 20.00    -0.020 C 
HETATM    9  C10 UNL     1     -33.873  17.671  -2.279  1.00 20.00     0.020 C 
HETATM   10  C11 UNL     1     -36.283  17.336  -2.840  1.00 20.00     0.020 C 
ENDROOT
BRANCH   2  11
HETATM   11  C3  UNL     1     -34.138  13.353  -3.870  1.00 20.00     0.198 C 
HETATM   12  O12 UNL     1     -32.908  13.073  -3.751  1.00 20.00    -0.644 OA
HETATM   13  O13 UNL     1     -35.052  12.692  -4.438  1.00 20.00    -0.644 OA
ENDBRANCH   2  11
TORSDOF 1
ENDMDL
MODEL 5
REMARK VINA RESULT:      -4.8      1.141      2.829
REMARK  1 active torsions:
REMARK  status: ('A' for Active; 'I' for Inactive)
REMARK    1  A    between atoms: C2_2  and  C3_3 
ROOT
HETATM    1  C1  UNL     1     -34.932  15.764  -4.593  1.00 20.00    -0.061 C 
HETATM    2  C2  UNL     1     -35.155  14.629  -3.919  1.00 20.00     0.088 C 
HETATM    3  C4  UNL     1     -34.547  16.082  -7.010  1.00 20.00     0.009 C 
HETATM    4  C5  UNL     1     -35.199  17.477  -6.940  1.00 20.00     0.006 C 
HETATM    5  C6  UNL     1     -33.449  17.403  -5.363  1.00 20.00     0.014 C 
HETATM    6  C7  UNL     1     -33.854  15.958  -5.643  1.00 20.00     0.016 C 
HETATM    7  C8  UNL     1     -34.885  17.935  -5.497  1.00 20.00    -0.002 C 
HETATM    8  C9  UNL     1     -35.659  17.094  -4.427  1.00 20.00    -0.020 C 
HETATM    9  C10 UNL     1     -35.465  17.685  -3.019  1.00 20.00     0.020 C 
HETATM   10  C11 UNL     1     -37.164  16.986  -4.709  1.00 20.00     0.020 C 
ENDROOT
BRANCH   2  11
HETATM   11  C3  UNL     1     -34.312  13.369  -4.154  1.00 20.00     0.198 C 
HETATM   12  O12 UNL     1     -34.848  12.530  -4.936  1.00 20.00    -0.644 OA
HETATM   13  O13 UNL     1     -33.200  13.303  -3.557  1.00 20.00    -0.644 OA
ENDBRANCH   2  11
TORSDOF 1
ENDMDL
MODEL 6
REMARK VINA RESULT:      -4.8      2.599      4.136
REMARK  1 active torsions:
REMARK  status: ('A' for Active; 'I' for Inactive)
REMARK    1  A    between atoms: C2_2  and  C3_3 
ROOT
HETATM    1  C1  UNL     1     -35.815  15.130  -4.668  1.00 20.00    -0.061 C 
HETATM    2  C2  UNL     1     -36.557  15.102  -3.554  1.00 20.00     0.088 C 
HETATM    3  C4  UNL     1     -35.913  16.716  -6.557  1.00 20.00     0.009 C 
HETATM    4  C5  UNL     1     -34.403  16.531  -6.804  1.00 20.00     0.006 C 
HETATM    5  C6  UNL     1     -35.423  14.407  -6.859  1.00 20.00     0.014 C 
HETATM    6  C7  UNL     1     -36.355  15.326  -6.071  1.00 20.00     0.016 C 
HETATM    7  C8  UNL     1     -34.149  15.082  -6.328  1.00 20.00    -0.002 C 
HETATM    8  C9  UNL     1     -34.306  14.931  -4.778  1.00 20.00    -0.020 C 
HETATM    9  C10 UNL     1     -33.876  13.527  -4.316  1.00 20.00     0.020 C 
HETATM   10  C11 UNL     1     -33.510  15.974  -3.980  1.00 20.00     0.020 C 
ENDROOT
BRANCH   2  11
HETATM   11  C3  UNL     1     -38.081  15.271  -3.592  1.00 20.00     0.198 C 
HETATM   12  O12 UNL     1     -38.710  14.199  -3.832  1.00 20.00    -0.644 OA
HETATM   13  O13 UNL     1     -38.535  16.431  -3.385  1.00 20.00    -0.644 OA
ENDBRANCH   2  11
TORSDOF 1
ENDMDL
MODEL 7
REMARK VINA RESULT:      -4.8      2.744      4.228
REMARK  1 active torsions:
REMARK  status: ('A' for Active; 'I' for Inactive)
REMARK    1  A    between atoms: C2_2  and  C3_3 
ROOT
HETATM    1  C1  UNL     1     -34.529  16.092  -4.717  1.00 20.00    -0.061 C 
HETATM    2  C2  UNL     1     -34.083  17.289  -5.115  1.00 20.00     0.088 C 
HETATM    3  C4  UNL     1     -35.051  14.100  -6.078  1.00 20.00     0.009 C 
HETATM    4  C5  UNL     1     -34.656  13.183  -4.904  1.00 20.00     0.006 C 
HETATM    5  C6  UNL     1     -36.307  14.682  -4.143  1.00 20.00     0.014 C 
HETATM    6  C7  UNL     1     -35.660  15.321  -5.370  1.00 20.00     0.016 C 
HETATM    7  C8  UNL     1     -34.996  14.041  -3.663  1.00 20.00    -0.002 C 
HETATM    8  C9  UNL     1     -34.046  15.278  -3.521  1.00 20.00    -0.020 C 
HETATM    9  C10 UNL     1     -34.293  16.009  -2.189  1.00 20.00     0.020 C 
HETATM   10  C11 UNL     1     -32.557  14.917  -3.612  1.00 20.00     0.020 C 
ENDROOT
BRANCH   2  11
HETATM   11  C3  UNL     1     -34.695  18.023  -6.315  1.00 20.00     0.198 C 
HETATM   12  O12 UNL     1     -35.585  18.867  -6.001  1.00 20.00    -0.644 OA
HETATM   13  O13 UNL     1     -34.258  17.717  -7.460  1.00 20.00    -0.644 OA
ENDBRANCH   2  11
TORSDOF 1
ENDMDL
MODEL 8
REMARK VINA RESULT:      -4.7      2.398      3.935
REMARK  1 active torsions:
REMARK  status: ('A' for Active; 'I' for Inactive)
REMARK    1  A    between atoms: C2_2  and  C3_3 
ROOT
HETATM    1  C1  UNL     1     -35.367  15.911  -3.568  1.00 20.00    -0.061 C 
HETATM    2  C2  UNL     1     -35.624  16.746  -2.554  1.00 20.00     0.088 C 
HETATM    3  C4  UNL     1     -34.066  13.813  -3.558  1.00 20.00     0.009 C 
HETATM    4  C5  UNL     1     -34.949  13.249  -4.688  1.00 20.00     0.006 C 
HETATM    5  C6  UNL     1     -34.057  15.307  -5.411  1.00 20.00     0.014 C 
HETATM    6  C7  UNL     1     -34.009  15.315  -3.884  1.00 20.00     0.016 C 
HETATM    7  C8  UNL     1     -35.374  14.518  -5.464  1.00 20.00    -0.002 C 
HETATM    8  C9  UNL     1     -36.345  15.422  -4.632  1.00 20.00    -0.020 C 
HETATM    9  C10 UNL     1     -36.886  16.580  -5.491  1.00 20.00     0.020 C 
HETATM   10  C11 UNL     1     -37.534  14.656  -4.038  1.00 20.00     0.020 C 
ENDROOT
BRANCH   2  11
HETATM   11  C3  UNL     1     -34.530  17.196  -1.578  1.00 20.00     0.198 C 
HETATM   12  O12 UNL     1     -34.528  16.563  -0.481  1.00 20.00    -0.644 OA
HETATM   13  O13 UNL     1     -33.766  18.126  -1.961  1.00 20.00    -0.644 OA
ENDBRANCH   2  11
TORSDOF 1
ENDMDL
MODEL 9
REMARK VINA RESULT:      -4.7      2.516      3.791
REMARK  1 active torsions:
REMARK  status: ('A' for Active; 'I' for Inactive)
REMARK    1  A    between atoms: C2_2  and  C3_3 
ROOT
HETATM    1  C1  UNL     1     -34.892  16.059  -3.202  1.00 20.00    -0.061 C 
HETATM    2  C2  UNL     1     -34.791  15.968  -1.870  1.00 20.00     0.088 C 
HETATM    3  C4  UNL     1     -33.434  17.265  -4.788  1.00 20.00     0.009 C 
HETATM    4  C5  UNL     1     -33.744  16.223  -5.880  1.00 20.00     0.006 C 
HETATM    5  C6  UNL     1     -35.787  17.098  -5.098  1.00 20.00     0.014 C 
HETATM    6  C7  UNL     1     -34.753  17.341  -4.001  1.00 20.00     0.016 C 
HETATM    7  C8  UNL     1     -35.172  15.754  -5.518  1.00 20.00    -0.002 C 
HETATM    8  C9  UNL     1     -35.206  14.935  -4.183  1.00 20.00    -0.020 C 
HETATM    9  C10 UNL     1     -36.603  14.335  -3.943  1.00 20.00     0.020 C 
HETATM   10  C11 UNL     1     -34.172  13.801  -4.138  1.00 20.00     0.020 C 
ENDROOT
BRANCH   2  11
HETATM   11  C3  UNL     1     -34.516  17.195  -0.993  1.00 20.00     0.198 C 
HETATM   12  O12 UNL     1     -35.558  17.717  -0.497  1.00 20.00    -0.644 OA
HETATM   13  O13 UNL     1     -33.310  17.548  -0.860  1.00 20.00    -0.644 OA
ENDBRANCH   2  11
TORSDOF 1
ENDMDL
