MODEL 1
REMARK VINA RESULT:      -4.9      0.000      0.000
REMARK  1 active torsions:
REMARK  status: ('A' for Active; 'I' for Inactive)
REMARK    1  A    between atoms: C3_3  and  C7_7 
ROOT
HETATM    1  C1  UNL     1     -34.714   5.817   6.158  1.00 20.00    -0.020 C 
HETATM    2  C2  UNL     1     -33.746   6.749   6.137  1.00 20.00    -0.086 C 
HETATM    3  C4  UNL     1     -32.943   7.047   4.895  1.00 20.00     0.045 C 
HETATM    4  C5  UNL     1     -34.565   5.566   3.646  1.00 20.00     0.020 C 
HETATM    5  C6  UNL     1     -35.125   4.997   4.960  1.00 20.00     0.005 C 
HETATM    6  C7  UNL     1     -33.105   5.996   3.789  1.00 20.00     0.051 C 
HETATM    7  C8  UNL     1     -33.405   7.562   7.352  1.00 20.00     0.043 C 
HETATM    8  C9  UNL     1     -34.715   3.538   5.164  1.00 20.00     0.014 C 
ENDROOT
BRANCH   6   9
HETATM    9  C3  UNL     1     -32.605   6.559   2.493  1.00 20.00     0.236 C 
HETATM   10  O10 UNL     1     -32.194   7.707   2.368  1.00 20.00    -0.306 OA
ENDBRANCH   6   9
TORSDOF 1
ENDMDL
MODEL 2
REMARK VINA RESULT:      -4.7     11.861     13.281
REMARK  1 active torsions:
REMARK  status: ('A' for Active; 'I' for Inactive)
REMARK    1  A    between atoms: C3_3  and  C7_7 
ROOT
HETATM    1  C1  UNL     1     -33.872  17.514  -3.148  1.00 20.00    -0.020 C 
HETATM    2  C2  UNL     1     -34.257  16.499  -2.356  1.00 20.00    -0.086 C 
HETATM    3  C4  UNL     1     -34.472  15.102  -2.885  1.00 20.00     0.045 C 
HETATM    4  C5  UNL     1     -33.452  15.904  -5.052  1.00 20.00     0.020 C 
HETATM    5  C6  UNL     1     -33.586  17.374  -4.622  1.00 20.00     0.005 C 
HETATM    6  C7  UNL     1     -34.528  15.025  -4.415  1.00 20.00     0.051 C 
HETATM    7  C8  UNL     1     -34.492  16.689  -0.886  1.00 20.00     0.043 C 
HETATM    8  C9  UNL     1     -34.660  18.104  -5.431  1.00 20.00     0.014 C 
ENDROOT
BRANCH   6   9
HETATM    9  C3  UNL     1     -34.351  13.601  -4.847  1.00 20.00     0.236 C 
HETATM   10  O10 UNL     1     -35.052  12.680  -4.443  1.00 20.00    -0.306 OA
ENDBRANCH   6   9
TORSDOF 1
ENDMDL
MODEL 3
REMARK VINA RESULT:      -4.6     11.596     13.117
REMARK  1 active torsions:
REMARK  status: ('A' for Active; 'I' for Inactive)
REMARK    1  A    between atoms: C3_3  and  C7_7 
ROOT
HETATM    1  C1  UNL     1     -34.699  17.607  -3.153  1.00 20.00    -0.020 C 
HETATM    2  C2  UNL     1     -33.969  17.333  -4.248  1.00 20.00    -0.086 C 
HETATM    3  C4  UNL     1     -33.601  15.922  -4.638  1.00 20.00     0.045 C 
HETATM    4  C5  UNL     1     -35.184  15.147  -2.828  1.00 20.00     0.020 C 
HETATM    5  C6  UNL     1     -35.253  16.558  -2.222  1.00 20.00     0.005 C 
HETATM    6  C7  UNL     1     -33.850  14.892  -3.529  1.00 20.00     0.051 C 
HETATM    7  C8  UNL     1     -33.476  18.418  -5.161  1.00 20.00     0.043 C 
HETATM    8  C9  UNL     1     -34.532  16.629  -0.874  1.00 20.00     0.014 C 
ENDROOT
BRANCH   6   9
HETATM    9  C3  UNL     1     -33.833  13.515  -4.119  1.00 20.00     0.236 C 
HETATM   10  O10 UNL     1     -34.831  12.809  -4.216  1.00 20.00    -0.306 OA
ENDBRANCH   6   9
TORSDOF 1
ENDMDL
MODEL 4
REMARK VINA RESULT:      -4.5     12.158     12.976
REMARK  1 active torsions:
REMARK  status: ('A' for Active; 'I' for Inactive)
REMARK    1  A    between atoms: C3_3  and  C7_7 
ROOT
HETATM    1  C1  UNL     1     -33.544  16.035  -2.907  1.00 20.00    -0.020 C 
HETATM    2  C2  UNL     1     -34.646  16.145  -2.146  1.00 20.00    -0.086 C 
HETATM    3  C4  UNL     1     -36.010  15.731  -2.639  1.00 20.00     0.045 C 
HETATM    4  C5  UNL     1     -34.840  14.726  -4.640  1.00 20.00     0.020 C 
HETATM    5  C6  UNL     1     -33.536  15.468  -4.305  1.00 20.00     0.005 C 
HETATM    6  C7  UNL     1     -36.071  15.490  -4.153  1.00 20.00     0.051 C 
HETATM    7  C8  UNL     1     -34.588  16.683  -0.745  1.00 20.00     0.043 C 
HETATM    8  C9  UNL     1     -33.244  16.580  -5.314  1.00 20.00     0.014 C 
ENDROOT
BRANCH   6   9
HETATM    9  C3  UNL     1     -37.316  14.725  -4.484  1.00 20.00     0.236 C 
HETATM   10  O10 UNL     1     -38.089  14.292  -3.636  1.00 20.00    -0.306 OA
ENDBRANCH   6   9
TORSDOF 1
ENDMDL
MODEL 5
REMARK VINA RESULT:      -4.4     11.713     12.730
REMARK  1 active torsions:
REMARK  status: ('A' for Active; 'I' for Inactive)
REMARK    1  A    between atoms: C3_3  and  C7_7 
ROOT
HETATM    1  C1  UNL     1     -33.757  15.721  -2.766  1.00 20.00    -0.020 C 
HETATM    2  C2  UNL     1     -34.113  14.613  -3.439  1.00 20.00    -0.086 C 
HETATM    3  C4  UNL     1     -35.540  14.344  -3.849  1.00 20.00     0.045 C 
HETATM    4  C5  UNL     1     -36.062  16.703  -3.112  1.00 20.00     0.020 C 
HETATM    5  C6  UNL     1     -34.716  16.818  -2.377  1.00 20.00     0.005 C 
HETATM    6  C7  UNL     1     -36.561  15.259  -3.163  1.00 20.00     0.051 C 
HETATM    7  C8  UNL     1     -33.107  13.571  -3.834  1.00 20.00     0.043 C 
HETATM    8  C9  UNL     1     -34.902  16.829  -0.858  1.00 20.00     0.014 C 
ENDROOT
BRANCH   6   9
HETATM    9  C3  UNL     1     -37.863  15.192  -3.902  1.00 20.00     0.236 C 
HETATM   10  O10 UNL     1     -38.647  14.254  -3.806  1.00 20.00    -0.306 OA
ENDBRANCH   6   9
TORSDOF 1
ENDMDL
MODEL 6
REMARK VINA RESULT:      -4.2     11.853     12.656
REMARK  1 active torsions:
REMARK  status: ('A' for Active; 'I' for Inactive)
REMARK    1  A    between atoms: C3_3  and  C7_7 
ROOT
HETATM    1  C1  UNL     1     -36.109  17.064  -2.546  1.00 20.00    -0.020 C 
HETATM    2  C2  UNL     1     -35.042  16.440  -2.017  1.00 20.00    -0.086 C 
HETATM    3  C4  UNL     1     -34.419  15.227  -2.661  1.00 20.00     0.045 C 
HETATM    4  C5  UNL     1     -35.917  15.669  -4.647  1.00 20.00     0.020 C 
HETATM    5  C6  UNL     1     -36.776  16.652  -3.834  1.00 20.00     0.005 C 
HETATM    6  C7  UNL     1     -35.286  14.597  -3.758  1.00 20.00     0.051 C 
HETATM    7  C8  UNL     1     -34.396  16.918  -0.750  1.00 20.00     0.043 C 
HETATM    8  C9  UNL     1     -38.164  16.080  -3.540  1.00 20.00     0.014 C 
ENDROOT
BRANCH   6   9
HETATM    9  C3  UNL     1     -34.446  13.673  -4.586  1.00 20.00     0.236 C 
HETATM   10  O10 UNL     1     -34.763  12.516  -4.841  1.00 20.00    -0.306 OA
ENDBRANCH   6   9
TORSDOF 1
ENDMDL
MODEL 7
REMARK VINA RESULT:      -4.2      9.873     11.306
REMARK  1 active torsions:
REMARK  status: ('A' for Active; 'I' for Inactive)
REMARK    1  A    between atoms: C3_3  and  C7_7 
ROOT
HETATM    1  C1  UNL     1     -40.984   4.263  -1.416  1.00 20.00    -0.020 C 
HETATM    2  C2  UNL     1     -41.802   3.965  -2.440  1.00 20.00    -0.086 C 
HETATM    3  C4  UNL     1     -42.685   5.000  -3.092  1.00 20.00     0.045 C 
HETATM    4  C5  UNL     1     -41.444   6.729  -1.731  1.00 20.00     0.020 C 
HETATM    5  C6  UNL     1     -40.831   5.644  -0.830  1.00 20.00     0.005 C 
HETATM    6  C7  UNL     1     -42.801   6.303  -2.292  1.00 20.00     0.051 C 
HETATM    7  C8  UNL     1     -41.885   2.578  -3.007  1.00 20.00     0.043 C 
HETATM    8  C9  UNL     1     -41.424   5.679   0.579  1.00 20.00     0.014 C 
ENDROOT
BRANCH   6   9
HETATM    9  C3  UNL     1     -43.353   7.380  -3.175  1.00 20.00     0.236 C 
HETATM   10  O10 UNL     1     -43.416   7.287  -4.397  1.00 20.00    -0.306 OA
ENDBRANCH   6   9
TORSDOF 1
ENDMDL
MODEL 8
REMARK VINA RESULT:      -4.2     12.082     13.228
REMARK  1 active torsions:
REMARK  status: ('A' for Active; 'I' for Inactive)
REMARK    1  A    between atoms: C3_3  and  C7_7 
ROOT
HETATM    1  C1  UNL     1     -34.950  15.154  -2.501  1.00 20.00    -0.020 C 
HETATM    2  C2  UNL     1     -34.528  16.359  -2.079  1.00 20.00    -0.086 C 
HETATM    3  C4  UNL     1     -33.966  17.392  -3.024  1.00 20.00     0.045 C 
HETATM    4  C5  UNL     1     -34.719  15.888  -4.910  1.00 20.00     0.020 C 
HETATM    5  C6  UNL     1     -34.941  14.713  -3.943  1.00 20.00     0.005 C 
HETATM    6  C7  UNL     1     -33.627  16.836  -4.413  1.00 20.00     0.051 C 
HETATM    7  C8  UNL     1     -34.596  16.758  -0.634  1.00 20.00     0.043 C 
HETATM    8  C9  UNL     1     -33.896  13.614  -4.143  1.00 20.00     0.014 C 
ENDROOT
BRANCH   6   9
HETATM    9  C3  UNL     1     -33.457  17.973  -5.374  1.00 20.00     0.236 C 
HETATM   10  O10 UNL     1     -33.252  19.130  -5.023  1.00 20.00    -0.306 OA
ENDBRANCH   6   9
TORSDOF 1
ENDMDL
MODEL 9
REMARK VINA RESULT:      -4.1     11.729     13.561
REMARK  1 active torsions:
REMARK  status: ('A' for Active; 'I' for Inactive)
REMARK    1  A    between atoms: C3_3  and  C7_7 
ROOT
HETATM    1  C1  UNL     1     -33.355  16.165  -4.297  1.00 20.00    -0.020 C 
HETATM    2  C2  UNL     1     -34.221  16.800  -5.106  1.00 20.00    -0.086 C 
HETATM    3  C4  UNL     1     -35.698  16.497  -5.100  1.00 20.00     0.045 C 
HETATM    4  C5  UNL     1     -35.272  15.093  -3.043  1.00 20.00     0.020 C 
HETATM    5  C6  UNL     1     -33.754  15.117  -3.288  1.00 20.00     0.005 C 
HETATM    6  C7  UNL     1     -36.060  15.210  -4.348  1.00 20.00     0.051 C 
HETATM    7  C8  UNL     1     -33.771  17.863  -6.066  1.00 20.00     0.043 C 
HETATM    8  C9  UNL     1     -33.231  13.748  -3.727  1.00 20.00     0.014 C 
ENDROOT
BRANCH   6   9
HETATM    9  C3  UNL     1     -37.531  15.200  -4.062  1.00 20.00     0.236 C 
HETATM   10  O10 UNL     1     -38.144  14.199  -3.705  1.00 20.00    -0.306 OA
ENDBRANCH   6   9
TORSDOF 1
ENDMDL
