MODEL 1
REMARK VINA RESULT:      -4.0      0.000      0.000
REMARK  2 active torsions:
REMARK  status: ('A' for Active; 'I' for Inactive)
REMARK    1  A    between atoms: C1_1  and  S6_6 
REMARK    2  A    between atoms: N4_4  and  O5_5 
ROOT
HETATM    1  C1  UNL     1     -34.465   5.491   5.556  1.00 20.00     0.093 C 
HETATM    2  C2  UNL     1     -33.918   6.619   6.394  1.00 20.00     0.081 C 
HETATM    3  N4  UNL     1     -34.976   4.400   6.031  1.00 20.00    -0.134 NA
ENDROOT
BRANCH   1   4
HETATM    4  S6  UNL     1     -34.378   5.757   3.817  1.00 20.00    -0.117 SA
HETATM    5  C3  UNL     1     -32.743   6.503   3.639  1.00 20.00     0.097 C 
ENDBRANCH   1   4
BRANCH   3   6
HETATM    6  O5  UNL     1     -35.393   3.552   5.002  1.00 20.00    -0.266 OA
HETATM    7  H13 UNL     1     -34.884   2.747   5.194  1.00 20.00     0.247 HD
ENDBRANCH   3   6
TORSDOF 2
ENDMDL
MODEL 2
REMARK VINA RESULT:      -3.4     12.404     12.565
REMARK  2 active torsions:
REMARK  status: ('A' for Active; 'I' for Inactive)
REMARK    1  A    between atoms: C1_1  and  S6_6 
REMARK    2  A    between atoms: N4_4  and  O5_5 
ROOT
HETATM    1  C1  UNL     1     -33.951  14.252  -3.744  1.00 20.00     0.093 C 
HETATM    2  C2  UNL     1     -32.654  15.012  -3.633  1.00 20.00     0.081 C 
HETATM    3  N4  UNL     1     -34.054  13.025  -4.146  1.00 20.00    -0.134 NA
ENDROOT
BRANCH   1   4
HETATM    4  S6  UNL     1     -35.381  15.162  -3.263  1.00 20.00    -0.117 SA
HETATM    5  C3  UNL     1     -34.751  16.135  -1.879  1.00 20.00     0.097 C 
ENDBRANCH   1   4
BRANCH   3   6
HETATM    6  O5  UNL     1     -35.387  12.606  -4.138  1.00 20.00    -0.266 OA
HETATM    7  H13 UNL     1     -35.668  12.831  -5.041  1.00 20.00     0.247 HD
ENDBRANCH   3   6
TORSDOF 2
ENDMDL
MODEL 3
REMARK VINA RESULT:      -3.3     12.711     13.152
REMARK  2 active torsions:
REMARK  status: ('A' for Active; 'I' for Inactive)
REMARK    1  A    between atoms: C1_1  and  S6_6 
REMARK    2  A    between atoms: N4_4  and  O5_5 
ROOT
HETATM    1  C1  UNL     1     -34.120  14.391  -4.080  1.00 20.00     0.093 C 
HETATM    2  C2  UNL     1     -33.006  15.345  -3.732  1.00 20.00     0.081 C 
HETATM    3  N4  UNL     1     -34.237  13.190  -3.608  1.00 20.00    -0.134 NA
ENDROOT
BRANCH   1   4
HETATM    4  S6  UNL     1     -35.314  15.033  -5.205  1.00 20.00    -0.117 SA
HETATM    5  C3  UNL     1     -34.418  14.968  -6.771  1.00 20.00     0.097 C 
ENDBRANCH   1   4
BRANCH   3   6
HETATM    6  O5  UNL     1     -35.373  12.559  -4.121  1.00 20.00    -0.266 OA
HETATM    7  H13 UNL     1     -36.010  12.684  -3.397  1.00 20.00     0.247 HD
ENDBRANCH   3   6
TORSDOF 2
ENDMDL
MODEL 4
REMARK VINA RESULT:      -3.2      2.443      2.861
REMARK  2 active torsions:
REMARK  status: ('A' for Active; 'I' for Inactive)
REMARK    1  A    between atoms: C1_1  and  S6_6 
REMARK    2  A    between atoms: N4_4  and  O5_5 
ROOT
HETATM    1  C1  UNL     1     -33.784   6.255   4.878  1.00 20.00     0.093 C 
HETATM    2  C2  UNL     1     -33.889   6.665   6.325  1.00 20.00     0.081 C 
HETATM    3  N4  UNL     1     -32.866   6.663   4.061  1.00 20.00    -0.134 NA
ENDROOT
BRANCH   1   4
HETATM    4  S6  UNL     1     -35.029   5.130   4.340  1.00 20.00    -0.117 SA
HETATM    5  C3  UNL     1     -35.041   3.923   5.683  1.00 20.00     0.097 C 
ENDBRANCH   1   4
BRANCH   3   6
HETATM    6  O5  UNL     1     -33.041   6.105   2.792  1.00 20.00    -0.266 OA
HETATM    7  H13 UNL     1     -33.351   5.210   3.013  1.00 20.00     0.247 HD
ENDBRANCH   3   6
TORSDOF 2
ENDMDL
MODEL 5
REMARK VINA RESULT:      -3.1     13.040     13.472
REMARK  2 active torsions:
REMARK  status: ('A' for Active; 'I' for Inactive)
REMARK    1  A    between atoms: C1_1  and  S6_6 
REMARK    2  A    between atoms: N4_4  and  O5_5 
ROOT
HETATM    1  C1  UNL     1     -34.750  14.204  -5.426  1.00 20.00     0.093 C 
HETATM    2  C2  UNL     1     -34.449  14.880  -6.739  1.00 20.00     0.081 C 
HETATM    3  N4  UNL     1     -34.835  12.923  -5.258  1.00 20.00    -0.134 NA
ENDROOT
BRANCH   1   4
HETATM    4  S6  UNL     1     -34.979  15.304  -4.069  1.00 20.00    -0.117 SA
HETATM    5  C3  UNL     1     -33.275  15.638  -3.573  1.00 20.00     0.097 C 
ENDBRANCH   1   4
BRANCH   3   6
HETATM    6  O5  UNL     1     -35.126  12.610  -3.928  1.00 20.00    -0.266 OA
HETATM    7  H13 UNL     1     -35.697  11.830  -4.031  1.00 20.00     0.247 HD
ENDBRANCH   3   6
TORSDOF 2
ENDMDL
MODEL 6
REMARK VINA RESULT:      -3.1     12.620     12.753
REMARK  2 active torsions:
REMARK  status: ('A' for Active; 'I' for Inactive)
REMARK    1  A    between atoms: C1_1  and  S6_6 
REMARK    2  A    between atoms: N4_4  and  O5_5 
ROOT
HETATM    1  C1  UNL     1     -35.147  14.079  -4.023  1.00 20.00     0.093 C 
HETATM    2  C2  UNL     1     -36.612  14.432  -3.966  1.00 20.00     0.081 C 
HETATM    3  N4  UNL     1     -34.681  12.917  -4.356  1.00 20.00    -0.134 NA
ENDROOT
BRANCH   1   4
HETATM    4  S6  UNL     1     -34.056  15.397  -3.604  1.00 20.00    -0.117 SA
HETATM    5  C3  UNL     1     -34.781  16.001  -2.065  1.00 20.00     0.097 C 
ENDBRANCH   1   4
BRANCH   3   6
HETATM    6  O5  UNL     1     -33.285  12.906  -4.313  1.00 20.00    -0.266 OA
HETATM    7  H13 UNL     1     -33.082  13.857  -4.312  1.00 20.00     0.247 HD
ENDBRANCH   3   6
TORSDOF 2
ENDMDL
MODEL 7
REMARK VINA RESULT:      -3.1      1.453      2.137
REMARK  2 active torsions:
REMARK  status: ('A' for Active; 'I' for Inactive)
REMARK    1  A    between atoms: C1_1  and  S6_6 
REMARK    2  A    between atoms: N4_4  and  O5_5 
ROOT
HETATM    1  C1  UNL     1     -34.348   5.478   4.660  1.00 20.00     0.093 C 
HETATM    2  C2  UNL     1     -33.573   6.530   3.908  1.00 20.00     0.081 C 
HETATM    3  N4  UNL     1     -34.937   4.463   4.112  1.00 20.00    -0.134 NA
ENDROOT
BRANCH   1   4
HETATM    4  S6  UNL     1     -34.399   5.709   6.406  1.00 20.00    -0.117 SA
HETATM    5  C3  UNL     1     -33.449   7.233   6.604  1.00 20.00     0.097 C 
ENDBRANCH   1   4
BRANCH   3   6
HETATM    6  O5  UNL     1     -35.569   3.671   5.073  1.00 20.00    -0.266 OA
HETATM    7  H13 UNL     1     -34.940   2.936   5.166  1.00 20.00     0.247 HD
ENDBRANCH   3   6
TORSDOF 2
ENDMDL
MODEL 8
REMARK VINA RESULT:      -3.0      2.199      2.446
REMARK  2 active torsions:
REMARK  status: ('A' for Active; 'I' for Inactive)
REMARK    1  A    between atoms: C1_1  and  S6_6 
REMARK    2  A    between atoms: N4_4  and  O5_5 
ROOT
HETATM    1  C1  UNL     1     -34.442   5.392   5.458  1.00 20.00     0.093 C 
HETATM    2  C2  UNL     1     -35.111   4.102   5.056  1.00 20.00     0.081 C 
HETATM    3  N4  UNL     1     -34.465   5.895   6.651  1.00 20.00    -0.134 NA
ENDROOT
BRANCH   1   4
HETATM    4  S6  UNL     1     -33.578   6.208   4.157  1.00 20.00    -0.117 SA
HETATM    5  C3  UNL     1     -34.222   5.362   2.698  1.00 20.00     0.097 C 
ENDBRANCH   1   4
BRANCH   3   6
HETATM    6  O5  UNL     1     -33.754   7.096   6.703  1.00 20.00    -0.266 OA
HETATM    7  H13 UNL     1     -34.113   7.501   7.511  1.00 20.00     0.247 HD
ENDBRANCH   3   6
TORSDOF 2
ENDMDL
MODEL 9
REMARK VINA RESULT:      -3.0     12.867     12.954
REMARK  2 active torsions:
REMARK  status: ('A' for Active; 'I' for Inactive)
REMARK    1  A    between atoms: C1_1  and  S6_6 
REMARK    2  A    between atoms: N4_4  and  O5_5 
ROOT
HETATM    1  C1  UNL     1     -35.669  14.186  -3.967  1.00 20.00     0.093 C 
HETATM    2  C2  UNL     1     -34.804  13.314  -4.842  1.00 20.00     0.081 C 
HETATM    3  N4  UNL     1     -36.954  14.073  -3.854  1.00 20.00    -0.134 NA
ENDROOT
BRANCH   1   4
HETATM    4  S6  UNL     1     -34.793  15.415  -3.058  1.00 20.00    -0.117 SA
HETATM    5  C3  UNL     1     -33.134  15.279  -3.757  1.00 20.00     0.097 C 
ENDBRANCH   1   4
BRANCH   3   6
HETATM    6  O5  UNL     1     -37.465  15.025  -2.969  1.00 20.00    -0.266 OA
HETATM    7  H13 UNL     1     -37.620  15.780  -3.562  1.00 20.00     0.247 HD
ENDBRANCH   3   6
TORSDOF 2
ENDMDL
