MODEL 1
REMARK VINA RESULT:      -6.1      0.000      0.000
REMARK  3 active torsions:
REMARK  status: ('A' for Active; 'I' for Inactive)
REMARK    1  A    between atoms: C3_3  and  C8_8 
REMARK    2  A    between atoms: C4_4  and  C10_10 
REMARK    3  A    between atoms: C10_10  and  O11_11 
ROOT
HETATM    1  C1  UNL     1     -35.021   4.613   6.009  1.00 20.00    -0.031 C 
HETATM    2  C2  UNL     1     -34.341   5.696   6.411  1.00 20.00    -0.030 C 
HETATM    3  C5  UNL     1     -35.196   4.244   4.566  1.00 20.00     0.027 C 
HETATM    4  C6  UNL     1     -33.655   6.636   5.463  1.00 20.00     0.035 C 
HETATM    5  C7  UNL     1     -34.824   5.380   3.609  1.00 20.00     0.012 C 
HETATM    6  C8  UNL     1     -33.535   6.065   4.048  1.00 20.00     0.011 C 
ENDROOT
BRANCH   6   7
HETATM    7  C3  UNL     1     -33.275   7.219   3.099  1.00 20.00    -0.023 C 
HETATM    8  C4  UNL     1     -32.052   7.590   2.691  1.00 20.00     0.000 C 
BRANCH   8   9
HETATM    9  C10 UNL     1     -31.799   8.731   1.751  1.00 20.00     0.136 C 
HETATM   10  C9  UNL     1     -31.886   8.280   0.299  1.00 20.00     0.043 C 
BRANCH   9  11
HETATM   11  O11 UNL     1     -32.790   9.727   1.992  1.00 20.00    -0.392 OA
HETATM   12  H27 UNL     1     -32.670  10.019   2.910  1.00 20.00     0.210 HD
ENDBRANCH   9  11
ENDBRANCH   8   9
ENDBRANCH   6   7
TORSDOF 3
ENDMDL
MODEL 2
REMARK VINA RESULT:      -5.1     11.033     12.085
REMARK  3 active torsions:
REMARK  status: ('A' for Active; 'I' for Inactive)
REMARK    1  A    between atoms: C3_3  and  C8_8 
REMARK    2  A    between atoms: C4_4  and  C10_10 
REMARK    3  A    between atoms: C10_10  and  O11_11 
ROOT
HETATM    1  C1  UNL     1     -33.383  19.079  -0.444  1.00 20.00    -0.031 C 
HETATM    2  C2  UNL     1     -33.300  19.051  -1.782  1.00 20.00    -0.030 C 
HETATM    3  C5  UNL     1     -33.982  17.966   0.364  1.00 20.00     0.027 C 
HETATM    4  C6  UNL     1     -33.767  17.890  -2.611  1.00 20.00     0.035 C 
HETATM    5  C7  UNL     1     -34.778  16.972  -0.485  1.00 20.00     0.012 C 
HETATM    6  C8  UNL     1     -34.036  16.637  -1.774  1.00 20.00     0.011 C 
ENDROOT
BRANCH   6   7
HETATM    7  C3  UNL     1     -34.918  15.711  -2.590  1.00 20.00    -0.023 C 
HETATM    8  C4  UNL     1     -34.450  14.843  -3.500  1.00 20.00     0.000 C 
BRANCH   8   9
HETATM    9  C10 UNL     1     -35.324  13.929  -4.305  1.00 20.00     0.136 C 
HETATM   10  C9  UNL     1     -35.102  14.125  -5.799  1.00 20.00     0.043 C 
BRANCH   9  11
HETATM   11  O11 UNL     1     -34.996  12.586  -3.955  1.00 20.00    -0.392 OA
HETATM   12  H27 UNL     1     -34.027  12.533  -3.950  1.00 20.00     0.210 HD
ENDBRANCH   9  11
ENDBRANCH   8   9
ENDBRANCH   6   7
TORSDOF 3
ENDMDL
MODEL 3
REMARK VINA RESULT:      -5.0     10.759     12.069
REMARK  3 active torsions:
REMARK  status: ('A' for Active; 'I' for Inactive)
REMARK    1  A    between atoms: C3_3  and  C8_8 
REMARK    2  A    between atoms: C4_4  and  C10_10 
REMARK    3  A    between atoms: C10_10  and  O11_11 
ROOT
HETATM    1  C1  UNL     1     -34.792  13.955  -6.033  1.00 20.00    -0.031 C 
HETATM    2  C2  UNL     1     -34.775  13.355  -4.835  1.00 20.00    -0.030 C 
HETATM    3  C5  UNL     1     -34.413  15.393  -6.235  1.00 20.00     0.027 C 
HETATM    4  C6  UNL     1     -34.345  14.046  -3.574  1.00 20.00     0.035 C 
HETATM    5  C7  UNL     1     -34.336  16.181  -4.924  1.00 20.00     0.012 C 
HETATM    6  C8  UNL     1     -33.631  15.373  -3.841  1.00 20.00     0.011 C 
ENDROOT
BRANCH   6   7
HETATM    7  C3  UNL     1     -33.662  16.186  -2.561  1.00 20.00    -0.023 C 
HETATM    8  C4  UNL     1     -34.667  16.145  -1.673  1.00 20.00     0.000 C 
BRANCH   8   9
HETATM    9  C10 UNL     1     -34.693  16.950  -0.408  1.00 20.00     0.136 C 
HETATM   10  C9  UNL     1     -33.597  18.007  -0.404  1.00 20.00     0.043 C 
BRANCH   9  11
HETATM   11  O11 UNL     1     -35.963  17.591  -0.322  1.00 20.00    -0.392 OA
HETATM   12  H27 UNL     1     -36.599  17.002  -0.757  1.00 20.00     0.210 HD
ENDBRANCH   9  11
ENDBRANCH   8   9
ENDBRANCH   6   7
TORSDOF 3
ENDMDL
MODEL 4
REMARK VINA RESULT:      -4.8     11.251     12.019
REMARK  3 active torsions:
REMARK  status: ('A' for Active; 'I' for Inactive)
REMARK    1  A    between atoms: C3_3  and  C8_8 
REMARK    2  A    between atoms: C4_4  and  C10_10 
REMARK    3  A    between atoms: C10_10  and  O11_11 
ROOT
HETATM    1  C1  UNL     1     -34.243  18.367   1.648  1.00 20.00    -0.031 C 
HETATM    2  C2  UNL     1     -35.036  17.456   1.068  1.00 20.00    -0.030 C 
HETATM    3  C5  UNL     1     -33.145  19.082   0.917  1.00 20.00     0.027 C 
HETATM    4  C6  UNL     1     -34.931  17.076  -0.380  1.00 20.00     0.035 C 
HETATM    5  C7  UNL     1     -32.804  18.437  -0.429  1.00 20.00     0.012 C 
HETATM    6  C8  UNL     1     -34.069  18.051  -1.186  1.00 20.00     0.011 C 
ENDROOT
BRANCH   6   7
HETATM    7  C3  UNL     1     -33.650  17.355  -2.467  1.00 20.00    -0.023 C 
HETATM    8  C4  UNL     1     -33.711  16.027  -2.650  1.00 20.00     0.000 C 
BRANCH   8   9
HETATM    9  C10 UNL     1     -33.296  15.342  -3.918  1.00 20.00     0.136 C 
HETATM   10  C9  UNL     1     -33.205  16.330  -5.074  1.00 20.00     0.043 C 
BRANCH   9  11
HETATM   11  O11 UNL     1     -32.015  14.755  -3.702  1.00 20.00    -0.392 OA
HETATM   12  H27 UNL     1     -31.828  14.209  -4.482  1.00 20.00     0.210 HD
ENDBRANCH   9  11
ENDBRANCH   8   9
ENDBRANCH   6   7
TORSDOF 3
ENDMDL
MODEL 5
REMARK VINA RESULT:      -4.8     10.852     11.781
REMARK  3 active torsions:
REMARK  status: ('A' for Active; 'I' for Inactive)
REMARK    1  A    between atoms: C3_3  and  C8_8 
REMARK    2  A    between atoms: C4_4  and  C10_10 
REMARK    3  A    between atoms: C10_10  and  O11_11 
ROOT
HETATM    1  C1  UNL     1     -35.126  13.520  -4.275  1.00 20.00    -0.031 C 
HETATM    2  C2  UNL     1     -36.058  14.396  -3.873  1.00 20.00    -0.030 C 
HETATM    3  C5  UNL     1     -33.667  13.674  -3.963  1.00 20.00     0.027 C 
HETATM    4  C6  UNL     1     -35.745  15.605  -3.040  1.00 20.00     0.035 C 
HETATM    5  C7  UNL     1     -33.310  15.071  -3.447  1.00 20.00     0.012 C 
HETATM    6  C8  UNL     1     -34.340  15.559  -2.435  1.00 20.00     0.011 C 
ENDROOT
BRANCH   6   7
HETATM    7  C3  UNL     1     -33.960  16.970  -2.029  1.00 20.00    -0.023 C 
HETATM    8  C4  UNL     1     -33.934  17.401  -0.759  1.00 20.00     0.000 C 
BRANCH   8   9
HETATM    9  C10 UNL     1     -33.557  18.797  -0.361  1.00 20.00     0.136 C 
HETATM   10  C9  UNL     1     -32.987  18.834   1.051  1.00 20.00     0.043 C 
BRANCH   9  11
HETATM   11  O11 UNL     1     -32.568  19.263  -1.277  1.00 20.00    -0.392 OA
HETATM   12  H27 UNL     1     -31.765  18.747  -1.101  1.00 20.00     0.210 HD
ENDBRANCH   9  11
ENDBRANCH   8   9
ENDBRANCH   6   7
TORSDOF 3
ENDMDL
MODEL 6
REMARK VINA RESULT:      -4.8     10.948     11.890
REMARK  3 active torsions:
REMARK  status: ('A' for Active; 'I' for Inactive)
REMARK    1  A    between atoms: C3_3  and  C8_8 
REMARK    2  A    between atoms: C4_4  and  C10_10 
REMARK    3  A    between atoms: C10_10  and  O11_11 
ROOT
HETATM    1  C1  UNL     1     -33.162  18.988   1.139  1.00 20.00    -0.031 C 
HETATM    2  C2  UNL     1     -32.708  18.881  -0.118  1.00 20.00    -0.030 C 
HETATM    3  C5  UNL     1     -34.363  18.243   1.642  1.00 20.00     0.027 C 
HETATM    4  C6  UNL     1     -33.332  17.981  -1.145  1.00 20.00     0.035 C 
HETATM    5  C7  UNL     1     -35.201  17.629   0.517  1.00 20.00     0.012 C 
HETATM    6  C8  UNL     1     -34.311  16.976  -0.533  1.00 20.00     0.011 C 
ENDROOT
BRANCH   6   7
HETATM    7  C3  UNL     1     -35.205  16.460  -1.645  1.00 20.00    -0.023 C 
HETATM    8  C4  UNL     1     -34.830  15.528  -2.534  1.00 20.00     0.000 C 
BRANCH   8   9
HETATM    9  C10 UNL     1     -35.718  15.020  -3.631  1.00 20.00     0.136 C 
HETATM   10  C9  UNL     1     -35.242  13.667  -4.143  1.00 20.00     0.043 C 
BRANCH   9  11
HETATM   11  O11 UNL     1     -37.035  14.885  -3.103  1.00 20.00    -0.392 OA
HETATM   12  H27 UNL     1     -36.982  15.128  -2.165  1.00 20.00     0.210 HD
ENDBRANCH   9  11
ENDBRANCH   8   9
ENDBRANCH   6   7
TORSDOF 3
ENDMDL
MODEL 7
REMARK VINA RESULT:      -4.7     10.834     11.573
REMARK  3 active torsions:
REMARK  status: ('A' for Active; 'I' for Inactive)
REMARK    1  A    between atoms: C3_3  and  C8_8 
REMARK    2  A    between atoms: C4_4  and  C10_10 
REMARK    3  A    between atoms: C10_10  and  O11_11 
ROOT
HETATM    1  C1  UNL     1     -34.995  13.319  -4.540  1.00 20.00    -0.031 C 
HETATM    2  C2  UNL     1     -33.716  13.505  -4.185  1.00 20.00    -0.030 C 
HETATM    3  C5  UNL     1     -36.101  14.251  -4.140  1.00 20.00     0.027 C 
HETATM    4  C6  UNL     1     -33.249  14.682  -3.379  1.00 20.00     0.035 C 
HETATM    5  C7  UNL     1     -35.691  15.224  -3.031  1.00 20.00     0.012 C 
HETATM    6  C8  UNL     1     -34.300  15.791  -3.288  1.00 20.00     0.011 C 
ENDROOT
BRANCH   6   7
HETATM    7  C3  UNL     1     -33.937  16.682  -2.115  1.00 20.00    -0.023 C 
HETATM    8  C4  UNL     1     -34.660  16.764  -0.987  1.00 20.00     0.000 C 
BRANCH   8   9
HETATM    9  C10 UNL     1     -34.299  17.645   0.171  1.00 20.00     0.136 C 
HETATM   10  C9  UNL     1     -33.060  18.477  -0.135  1.00 20.00     0.043 C 
BRANCH   9  11
HETATM   11  O11 UNL     1     -35.398  18.517   0.419  1.00 20.00    -0.392 OA
HETATM   12  H27 UNL     1     -35.021  19.350   0.746  1.00 20.00     0.210 HD
ENDBRANCH   9  11
ENDBRANCH   8   9
ENDBRANCH   6   7
TORSDOF 3
ENDMDL
MODEL 8
REMARK VINA RESULT:      -4.7     10.093     11.540
REMARK  3 active torsions:
REMARK  status: ('A' for Active; 'I' for Inactive)
REMARK    1  A    between atoms: C3_3  and  C8_8 
REMARK    2  A    between atoms: C4_4  and  C10_10 
REMARK    3  A    between atoms: C10_10  and  O11_11 
ROOT
HETATM    1  C1  UNL     1     -41.187   6.959  -0.862  1.00 20.00    -0.031 C 
HETATM    2  C2  UNL     1     -40.626   5.771  -0.599  1.00 20.00    -0.030 C 
HETATM    3  C5  UNL     1     -42.278   7.144  -1.876  1.00 20.00     0.027 C 
HETATM    4  C6  UNL     1     -41.050   4.495  -1.266  1.00 20.00     0.035 C 
HETATM    5  C7  UNL     1     -42.446   5.935  -2.801  1.00 20.00     0.012 C 
HETATM    6  C8  UNL     1     -42.378   4.632  -2.014  1.00 20.00     0.011 C 
ENDROOT
BRANCH   6   7
HETATM    7  C3  UNL     1     -42.477   3.486  -3.004  1.00 20.00    -0.023 C 
HETATM    8  C4  UNL     1     -41.519   2.563  -3.176  1.00 20.00     0.000 C 
BRANCH   8   9
HETATM    9  C10 UNL     1     -41.621   1.431  -4.155  1.00 20.00     0.136 C 
HETATM   10  C9  UNL     1     -42.280   0.213  -3.524  1.00 20.00     0.043 C 
BRANCH   9  11
HETATM   11  O11 UNL     1     -42.410   1.873  -5.257  1.00 20.00    -0.392 OA
HETATM   12  H27 UNL     1     -41.985   1.525  -6.057  1.00 20.00     0.210 HD
ENDBRANCH   9  11
ENDBRANCH   8   9
ENDBRANCH   6   7
TORSDOF 3
ENDMDL
MODEL 9
REMARK VINA RESULT:      -4.5     11.064     11.996
REMARK  3 active torsions:
REMARK  status: ('A' for Active; 'I' for Inactive)
REMARK    1  A    between atoms: C3_3  and  C8_8 
REMARK    2  A    between atoms: C4_4  and  C10_10 
REMARK    3  A    between atoms: C10_10  and  O11_11 
ROOT
HETATM    1  C1  UNL     1     -35.882  18.295  -0.035  1.00 20.00    -0.031 C 
HETATM    2  C2  UNL     1     -36.604  18.444  -1.154  1.00 20.00    -0.030 C 
HETATM    3  C5  UNL     1     -34.699  17.377   0.061  1.00 20.00     0.027 C 
HETATM    4  C6  UNL     1     -36.288  17.735  -2.439  1.00 20.00     0.035 C 
HETATM    5  C7  UNL     1     -34.607  16.396  -1.111  1.00 20.00     0.012 C 
HETATM    6  C8  UNL     1     -34.898  17.095  -2.434  1.00 20.00     0.011 C 
ENDROOT
BRANCH   6   7
HETATM    7  C3  UNL     1     -34.862  16.048  -3.531  1.00 20.00    -0.023 C 
HETATM    8  C4  UNL     1     -35.569  14.908  -3.500  1.00 20.00     0.000 C 
BRANCH   8   9
HETATM    9  C10 UNL     1     -35.531  13.876  -4.586  1.00 20.00     0.136 C 
HETATM   10  C9  UNL     1     -34.600  14.297  -5.715  1.00 20.00     0.043 C 
BRANCH   9  11
HETATM   11  O11 UNL     1     -35.057  12.657  -4.019  1.00 20.00    -0.392 OA
HETATM   12  H27 UNL     1     -34.655  12.889  -3.166  1.00 20.00     0.210 HD
ENDBRANCH   9  11
ENDBRANCH   8   9
ENDBRANCH   6   7
TORSDOF 3
ENDMDL
