MODEL 1
REMARK VINA RESULT:      -4.5      0.000      0.000
REMARK  2 active torsions:
REMARK  status: ('A' for Active; 'I' for Inactive)
REMARK    1  A    between atoms: C1_1  and  S11_11 
REMARK    2  A    between atoms: C8_8  and  S11_11 
ROOT
HETATM    1  C2  UNL     1     -35.883  17.750  -1.270  1.00 20.00     0.005 C 
HETATM    2  C3  UNL     1     -34.745  16.952  -0.616  1.00 20.00     0.006 C 
HETATM    3  C4  UNL     1     -33.944  17.890  -2.643  1.00 20.00     0.010 C 
HETATM    4  C5  UNL     1     -35.654  16.403  -3.375  1.00 20.00     0.020 C 
HETATM    5  C6  UNL     1     -35.465  17.799  -2.750  1.00 20.00    -0.013 C 
HETATM    6  C7  UNL     1     -33.832  16.609  -1.810  1.00 20.00     0.000 C 
HETATM    7  C8  UNL     1     -34.562  15.562  -2.682  1.00 20.00     0.059 C 
ENDROOT
BRANCH   7   8
HETATM    8  S11 UNL     1     -33.443  14.774  -3.882  1.00 20.00    -0.088 SA
BRANCH   8   9
HETATM    9  C1  UNL     1     -34.586  13.740  -4.732  1.00 20.00     0.182 C 
HETATM   10  C9  UNL     1     -34.913  14.228  -6.115  1.00 20.00     0.104 C 
HETATM   11  O10 UNL     1     -35.070  12.723  -4.252  1.00 20.00    -0.286 OA
ENDBRANCH   8   9
ENDBRANCH   7   8
TORSDOF 2
ENDMDL
MODEL 2
REMARK VINA RESULT:      -4.4     12.368     13.578
REMARK  2 active torsions:
REMARK  status: ('A' for Active; 'I' for Inactive)
REMARK    1  A    between atoms: C1_1  and  S11_11 
REMARK    2  A    between atoms: C8_8  and  S11_11 
ROOT
HETATM    1  C2  UNL     1     -40.911   7.162  -0.822  1.00 20.00     0.005 C 
HETATM    2  C3  UNL     1     -42.223   7.228  -1.618  1.00 20.00     0.006 C 
HETATM    3  C4  UNL     1     -42.515   5.730   0.199  1.00 20.00     0.010 C 
HETATM    4  C5  UNL     1     -40.831   4.670  -1.110  1.00 20.00     0.020 C 
HETATM    5  C6  UNL     1     -41.018   5.812  -0.092  1.00 20.00    -0.013 C 
HETATM    6  C7  UNL     1     -42.905   5.889  -1.274  1.00 20.00     0.000 C 
HETATM    7  C8  UNL     1     -42.110   4.759  -1.968  1.00 20.00     0.059 C 
ENDROOT
BRANCH   7   8
HETATM    8  S11 UNL     1     -43.031   3.188  -1.985  1.00 20.00    -0.088 SA
BRANCH   8   9
HETATM    9  C1  UNL     1     -42.691   2.653  -3.628  1.00 20.00     0.182 C 
HETATM   10  C9  UNL     1     -41.416   1.866  -3.743  1.00 20.00     0.104 C 
HETATM   11  O10 UNL     1     -43.415   2.895  -4.584  1.00 20.00    -0.286 OA
ENDBRANCH   8   9
ENDBRANCH   7   8
TORSDOF 2
ENDMDL
MODEL 3
REMARK VINA RESULT:      -4.4      2.531      4.125
REMARK  2 active torsions:
REMARK  status: ('A' for Active; 'I' for Inactive)
REMARK    1  A    between atoms: C1_1  and  S11_11 
REMARK    2  A    between atoms: C8_8  and  S11_11 
ROOT
HETATM    1  C2  UNL     1     -33.264  13.758  -3.772  1.00 20.00     0.005 C 
HETATM    2  C3  UNL     1     -34.479  13.338  -4.614  1.00 20.00     0.006 C 
HETATM    3  C4  UNL     1     -34.112  15.662  -4.921  1.00 20.00     0.010 C 
HETATM    4  C5  UNL     1     -34.642  15.500  -2.605  1.00 20.00     0.020 C 
HETATM    5  C6  UNL     1     -33.478  15.270  -3.588  1.00 20.00    -0.013 C 
HETATM    6  C7  UNL     1     -35.259  14.658  -4.778  1.00 20.00     0.000 C 
HETATM    7  C8  UNL     1     -35.871  15.022  -3.406  1.00 20.00     0.059 C 
ENDROOT
BRANCH   7   8
HETATM    8  S11 UNL     1     -37.141  16.318  -3.548  1.00 20.00    -0.088 SA
BRANCH   8   9
HETATM    9  C1  UNL     1     -38.595  15.326  -3.510  1.00 20.00     0.182 C 
HETATM   10  C9  UNL     1     -39.795  16.052  -2.970  1.00 20.00     0.104 C 
HETATM   11  O10 UNL     1     -38.633  14.160  -3.884  1.00 20.00    -0.286 OA
ENDBRANCH   8   9
ENDBRANCH   7   8
TORSDOF 2
ENDMDL
MODEL 4
REMARK VINA RESULT:      -4.3      1.086      1.938
REMARK  2 active torsions:
REMARK  status: ('A' for Active; 'I' for Inactive)
REMARK    1  A    between atoms: C1_1  and  S11_11 
REMARK    2  A    between atoms: C8_8  and  S11_11 
ROOT
HETATM    1  C2  UNL     1     -33.655  18.249  -2.263  1.00 20.00     0.005 C 
HETATM    2  C3  UNL     1     -35.091  18.486  -2.757  1.00 20.00     0.006 C 
HETATM    3  C4  UNL     1     -35.092  16.619  -1.293  1.00 20.00     0.010 C 
HETATM    4  C5  UNL     1     -33.729  15.885  -3.102  1.00 20.00     0.020 C 
HETATM    5  C6  UNL     1     -33.675  16.770  -1.841  1.00 20.00    -0.013 C 
HETATM    6  C7  UNL     1     -35.747  17.101  -2.591  1.00 20.00     0.000 C 
HETATM    7  C8  UNL     1     -35.143  16.158  -3.656  1.00 20.00     0.059 C 
ENDROOT
BRANCH   7   8
HETATM    8  S11 UNL     1     -36.111  14.627  -3.840  1.00 20.00    -0.088 SA
BRANCH   8   9
HETATM    9  C1  UNL     1     -35.085  13.751  -4.971  1.00 20.00     0.182 C 
HETATM   10  C9  UNL     1     -34.893  14.468  -6.277  1.00 20.00     0.104 C 
HETATM   11  O10 UNL     1     -34.575  12.666  -4.724  1.00 20.00    -0.286 OA
ENDBRANCH   8   9
ENDBRANCH   7   8
TORSDOF 2
ENDMDL
MODEL 5
REMARK VINA RESULT:      -4.3      1.921      2.480
REMARK  2 active torsions:
REMARK  status: ('A' for Active; 'I' for Inactive)
REMARK    1  A    between atoms: C1_1  and  S11_11 
REMARK    2  A    between atoms: C8_8  and  S11_11 
ROOT
HETATM    1  C2  UNL     1     -33.896  18.258   0.810  1.00 20.00     0.005 C 
HETATM    2  C3  UNL     1     -32.830  18.720  -0.195  1.00 20.00     0.006 C 
HETATM    3  C4  UNL     1     -34.962  18.881  -1.225  1.00 20.00     0.010 C 
HETATM    4  C5  UNL     1     -34.730  16.545  -0.824  1.00 20.00     0.020 C 
HETATM    5  C6  UNL     1     -35.074  17.859  -0.095  1.00 20.00    -0.013 C 
HETATM    6  C7  UNL     1     -33.517  18.495  -1.557  1.00 20.00     0.000 C 
HETATM    7  C8  UNL     1     -33.611  16.970  -1.796  1.00 20.00     0.059 C 
ENDROOT
BRANCH   7   8
HETATM    8  S11 UNL     1     -34.020  16.574  -3.525  1.00 20.00    -0.088 SA
BRANCH   8   9
HETATM    9  C1  UNL     1     -33.402  14.928  -3.615  1.00 20.00     0.182 C 
HETATM   10  C9  UNL     1     -34.485  13.892  -3.715  1.00 20.00     0.104 C 
HETATM   11  O10 UNL     1     -32.210  14.648  -3.599  1.00 20.00    -0.286 OA
ENDBRANCH   8   9
ENDBRANCH   7   8
TORSDOF 2
ENDMDL
MODEL 6
REMARK VINA RESULT:      -4.3      1.623      2.017
REMARK  2 active torsions:
REMARK  status: ('A' for Active; 'I' for Inactive)
REMARK    1  A    between atoms: C1_1  and  S11_11 
REMARK    2  A    between atoms: C8_8  and  S11_11 
ROOT
HETATM    1  C2  UNL     1     -34.130  17.947  -0.948  1.00 20.00     0.005 C 
HETATM    2  C3  UNL     1     -34.848  16.595  -0.808  1.00 20.00     0.006 C 
HETATM    3  C4  UNL     1     -33.453  16.516  -2.726  1.00 20.00     0.010 C 
HETATM    4  C5  UNL     1     -35.030  18.213  -3.276  1.00 20.00     0.020 C 
HETATM    5  C6  UNL     1     -33.756  17.986  -2.440  1.00 20.00    -0.013 C 
HETATM    6  C7  UNL     1     -34.828  16.042  -2.247  1.00 20.00     0.000 C 
HETATM    7  C8  UNL     1     -35.803  16.890  -3.096  1.00 20.00     0.059 C 
ENDROOT
BRANCH   7   8
HETATM    8  S11 UNL     1     -36.184  16.099  -4.690  1.00 20.00    -0.088 SA
BRANCH   8   9
HETATM    9  C1  UNL     1     -36.560  14.469  -4.140  1.00 20.00     0.182 C 
HETATM   10  C9  UNL     1     -35.447  13.490  -4.384  1.00 20.00     0.104 C 
HETATM   11  O10 UNL     1     -37.619  14.158  -3.611  1.00 20.00    -0.286 OA
ENDBRANCH   8   9
ENDBRANCH   7   8
TORSDOF 2
ENDMDL
MODEL 7
REMARK VINA RESULT:      -4.2      2.676      4.516
REMARK  2 active torsions:
REMARK  status: ('A' for Active; 'I' for Inactive)
REMARK    1  A    between atoms: C1_1  and  S11_11 
REMARK    2  A    between atoms: C8_8  and  S11_11 
ROOT
HETATM    1  C2  UNL     1     -36.024  16.986  -7.594  1.00 20.00     0.005 C 
HETATM    2  C3  UNL     1     -34.536  16.720  -7.318  1.00 20.00     0.006 C 
HETATM    3  C4  UNL     1     -35.574  14.670  -7.912  1.00 20.00     0.010 C 
HETATM    4  C5  UNL     1     -36.675  15.267  -5.886  1.00 20.00     0.020 C 
HETATM    5  C6  UNL     1     -36.666  15.603  -7.390  1.00 20.00    -0.013 C 
HETATM    6  C7  UNL     1     -34.514  15.222  -6.954  1.00 20.00     0.000 C 
HETATM    7  C8  UNL     1     -35.180  15.060  -5.568  1.00 20.00     0.059 C 
ENDROOT
BRANCH   7   8
HETATM    8  S11 UNL     1     -34.855  13.422  -4.843  1.00 20.00    -0.088 SA
BRANCH   8   9
HETATM    9  C1  UNL     1     -33.449  13.800  -3.853  1.00 20.00     0.182 C 
HETATM   10  C9  UNL     1     -33.342  15.258  -3.506  1.00 20.00     0.104 C 
HETATM   11  O10 UNL     1     -32.635  12.965  -3.481  1.00 20.00    -0.286 OA
ENDBRANCH   8   9
ENDBRANCH   7   8
TORSDOF 2
ENDMDL
MODEL 8
REMARK VINA RESULT:      -4.2      2.387      4.508
REMARK  2 active torsions:
REMARK  status: ('A' for Active; 'I' for Inactive)
REMARK    1  A    between atoms: C1_1  and  S11_11 
REMARK    2  A    between atoms: C8_8  and  S11_11 
ROOT
HETATM    1  C2  UNL     1     -34.652  13.809  -5.026  1.00 20.00     0.005 C 
HETATM    2  C3  UNL     1     -34.183  15.080  -5.751  1.00 20.00     0.006 C 
HETATM    3  C4  UNL     1     -32.858  14.785  -3.804  1.00 20.00     0.010 C 
HETATM    4  C5  UNL     1     -35.046  15.120  -2.923  1.00 20.00     0.020 C 
HETATM    5  C6  UNL     1     -34.171  14.036  -3.583  1.00 20.00    -0.013 C 
HETATM    6  C7  UNL     1     -33.521  15.896  -4.622  1.00 20.00     0.000 C 
HETATM    7  C8  UNL     1     -34.640  16.401  -3.682  1.00 20.00     0.059 C 
ENDROOT
BRANCH   7   8
HETATM    8  S11 UNL     1     -34.049  17.704  -2.556  1.00 20.00    -0.088 SA
BRANCH   8   9
HETATM    9  C1  UNL     1     -35.318  17.652  -1.337  1.00 20.00     0.182 C 
HETATM   10  C9  UNL     1     -34.832  17.181   0.005  1.00 20.00     0.104 C 
HETATM   11  O10 UNL     1     -36.481  17.967  -1.553  1.00 20.00    -0.286 OA
ENDBRANCH   8   9
ENDBRANCH   7   8
TORSDOF 2
ENDMDL
MODEL 9
REMARK VINA RESULT:      -4.1      2.350      4.463
REMARK  2 active torsions:
REMARK  status: ('A' for Active; 'I' for Inactive)
REMARK    1  A    between atoms: C1_1  and  S11_11 
REMARK    2  A    between atoms: C8_8  and  S11_11 
ROOT
HETATM    1  C2  UNL     1     -34.385  13.800  -5.155  1.00 20.00     0.005 C 
HETATM    2  C3  UNL     1     -35.037  13.875  -3.766  1.00 20.00     0.006 C 
HETATM    3  C4  UNL     1     -35.646  15.812  -4.994  1.00 20.00     0.010 C 
HETATM    4  C5  UNL     1     -33.284  16.025  -4.787  1.00 20.00     0.020 C 
HETATM    5  C6  UNL     1     -34.353  15.272  -5.601  1.00 20.00    -0.013 C 
HETATM    6  C7  UNL     1     -35.266  15.387  -3.572  1.00 20.00     0.000 C 
HETATM    7  C8  UNL     1     -33.887  16.055  -3.367  1.00 20.00     0.059 C 
ENDROOT
BRANCH   7   8
HETATM    8  S11 UNL     1     -34.039  17.751  -2.725  1.00 20.00    -0.088 SA
BRANCH   8   9
HETATM    9  C1  UNL     1     -33.970  17.430  -0.995  1.00 20.00     0.182 C 
HETATM   10  C9  UNL     1     -33.012  18.326  -0.263  1.00 20.00     0.104 C 
HETATM   11  O10 UNL     1     -34.633  16.565  -0.438  1.00 20.00    -0.286 OA
ENDBRANCH   8   9
ENDBRANCH   7   8
TORSDOF 2
ENDMDL
