MODEL 1
REMARK VINA RESULT:      -4.8      0.000      0.000
REMARK  2 active torsions:
REMARK  status: ('A' for Active; 'I' for Inactive)
REMARK    1  A    between atoms: C1_1  and  C10_10 
REMARK    2  A    between atoms: C8_8  and  C10_10 
ROOT
HETATM    1  C2  UNL     1     -34.934   4.600   6.071  1.00 20.00     0.005 C 
HETATM    2  C3  UNL     1     -34.314   5.998   6.214  1.00 20.00     0.005 C 
HETATM    3  C4  UNL     1     -35.602   5.942   4.222  1.00 20.00     0.009 C 
HETATM    4  C5  UNL     1     -33.895   4.338   3.803  1.00 20.00     0.010 C 
HETATM    5  C6  UNL     1     -35.224   4.502   4.564  1.00 20.00    -0.014 C 
HETATM    6  C7  UNL     1     -34.289   6.513   4.763  1.00 20.00    -0.010 C 
HETATM    7  C8  UNL     1     -33.218   5.715   3.982  1.00 20.00    -0.003 C 
ENDROOT
BRANCH   7   8
HETATM    8  C10 UNL     1     -32.855   6.358   2.649  1.00 20.00     0.082 C 
BRANCH   8   9
HETATM    9  C1  UNL     1     -31.983   7.585   2.819  1.00 20.00     0.123 C 
HETATM   10  C9  UNL     1     -32.058   8.605   1.712  1.00 20.00     0.091 C 
HETATM   11  O11 UNL     1     -31.253   7.759   3.793  1.00 20.00    -0.298 OA
ENDBRANCH   8   9
ENDBRANCH   7   8
TORSDOF 2
ENDMDL
MODEL 2
REMARK VINA RESULT:      -4.7     11.633     12.468
REMARK  2 active torsions:
REMARK  status: ('A' for Active; 'I' for Inactive)
REMARK    1  A    between atoms: C1_1  and  C10_10 
REMARK    2  A    between atoms: C8_8  and  C10_10 
ROOT
HETATM    1  C2  UNL     1     -35.731  17.527  -1.458  1.00 20.00     0.005 C 
HETATM    2  C3  UNL     1     -34.404  16.934  -0.962  1.00 20.00     0.005 C 
HETATM    3  C4  UNL     1     -34.128  17.624  -3.215  1.00 20.00     0.009 C 
HETATM    4  C5  UNL     1     -35.770  15.911  -3.376  1.00 20.00     0.010 C 
HETATM    5  C6  UNL     1     -35.620  17.393  -2.986  1.00 20.00    -0.014 C 
HETATM    6  C7  UNL     1     -33.712  16.497  -2.266  1.00 20.00    -0.010 C 
HETATM    7  C8  UNL     1     -34.472  15.274  -2.833  1.00 20.00    -0.003 C 
ENDROOT
BRANCH   7   8
HETATM    8  C10 UNL     1     -33.690  14.541  -3.917  1.00 20.00     0.082 C 
BRANCH   8   9
HETATM    9  C1  UNL     1     -34.581  13.680  -4.789  1.00 20.00     0.123 C 
HETATM   10  C9  UNL     1     -34.863  14.212  -6.170  1.00 20.00     0.091 C 
HETATM   11  O11 UNL     1     -35.056  12.609  -4.413  1.00 20.00    -0.298 OA
ENDBRANCH   8   9
ENDBRANCH   7   8
TORSDOF 2
ENDMDL
MODEL 3
REMARK VINA RESULT:      -4.6     11.184     12.407
REMARK  2 active torsions:
REMARK  status: ('A' for Active; 'I' for Inactive)
REMARK    1  A    between atoms: C1_1  and  C10_10 
REMARK    2  A    between atoms: C8_8  and  C10_10 
ROOT
HETATM    1  C2  UNL     1     -35.818  18.074  -0.790  1.00 20.00     0.005 C 
HETATM    2  C3  UNL     1     -34.818  17.064  -0.209  1.00 20.00     0.005 C 
HETATM    3  C4  UNL     1     -33.773  18.216  -2.000  1.00 20.00     0.009 C 
HETATM    4  C5  UNL     1     -35.558  17.064  -3.072  1.00 20.00     0.010 C 
HETATM    5  C6  UNL     1     -35.283  18.312  -2.212  1.00 20.00    -0.014 C 
HETATM    6  C7  UNL     1     -33.854  16.818  -1.384  1.00 20.00    -0.010 C 
HETATM    7  C8  UNL     1     -34.606  16.008  -2.468  1.00 20.00    -0.003 C 
ENDROOT
BRANCH   7   8
HETATM    8  C10 UNL     1     -33.673  15.406  -3.512  1.00 20.00     0.082 C 
BRANCH   8   9
HETATM    9  C1  UNL     1     -33.950  13.937  -3.755  1.00 20.00     0.123 C 
HETATM   10  C9  UNL     1     -35.357  13.592  -4.170  1.00 20.00     0.091 C 
HETATM   11  O11 UNL     1     -33.094  13.063  -3.629  1.00 20.00    -0.298 OA
ENDBRANCH   8   9
ENDBRANCH   7   8
TORSDOF 2
ENDMDL
MODEL 4
REMARK VINA RESULT:      -4.5      9.783     11.091
REMARK  2 active torsions:
REMARK  status: ('A' for Active; 'I' for Inactive)
REMARK    1  A    between atoms: C1_1  and  C10_10 
REMARK    2  A    between atoms: C8_8  and  C10_10 
ROOT
HETATM    1  C2  UNL     1     -40.983   7.123  -0.849  1.00 20.00     0.005 C 
HETATM    2  C3  UNL     1     -42.226   7.163  -1.749  1.00 20.00     0.005 C 
HETATM    3  C4  UNL     1     -42.618   5.623   0.013  1.00 20.00     0.009 C 
HETATM    4  C5  UNL     1     -40.797   4.641  -1.162  1.00 20.00     0.010 C 
HETATM    5  C6  UNL     1     -41.105   5.759  -0.148  1.00 20.00    -0.014 C 
HETATM    6  C7  UNL     1     -42.888   5.798  -1.484  1.00 20.00    -0.010 C 
HETATM    7  C8  UNL     1     -42.006   4.698  -2.122  1.00 20.00    -0.003 C 
ENDROOT
BRANCH   7   8
HETATM    8  C10 UNL     1     -42.720   3.356  -2.232  1.00 20.00     0.082 C 
BRANCH   8   9
HETATM    9  C1  UNL     1     -42.568   2.732  -3.604  1.00 20.00     0.123 C 
HETATM   10  C9  UNL     1     -41.297   1.957  -3.838  1.00 20.00     0.091 C 
HETATM   11  O11 UNL     1     -43.417   2.838  -4.487  1.00 20.00    -0.298 OA
ENDBRANCH   8   9
ENDBRANCH   7   8
TORSDOF 2
ENDMDL
MODEL 5
REMARK VINA RESULT:      -4.5     11.338     12.508
REMARK  2 active torsions:
REMARK  status: ('A' for Active; 'I' for Inactive)
REMARK    1  A    between atoms: C1_1  and  C10_10 
REMARK    2  A    between atoms: C8_8  and  C10_10 
ROOT
HETATM    1  C2  UNL     1     -35.146  14.192  -5.743  1.00 20.00     0.005 C 
HETATM    2  C3  UNL     1     -33.995  15.197  -5.595  1.00 20.00     0.005 C 
HETATM    3  C4  UNL     1     -33.912  13.678  -3.774  1.00 20.00     0.009 C 
HETATM    4  C5  UNL     1     -35.997  14.780  -3.458  1.00 20.00     0.010 C 
HETATM    5  C6  UNL     1     -35.343  13.675  -4.308  1.00 20.00    -0.014 C 
HETATM    6  C7  UNL     1     -33.700  15.161  -4.084  1.00 20.00    -0.010 C 
HETATM    7  C8  UNL     1     -34.878  15.839  -3.343  1.00 20.00    -0.003 C 
ENDROOT
BRANCH   7   8
HETATM    8  C10 UNL     1     -34.549  16.177  -1.893  1.00 20.00     0.082 C 
BRANCH   8   9
HETATM    9  C1  UNL     1     -33.928  17.551  -1.747  1.00 20.00     0.123 C 
HETATM   10  C9  UNL     1     -33.477  17.926  -0.360  1.00 20.00     0.091 C 
HETATM   11  O11 UNL     1     -33.790  18.328  -2.691  1.00 20.00    -0.298 OA
ENDBRANCH   8   9
ENDBRANCH   7   8
TORSDOF 2
ENDMDL
MODEL 6
REMARK VINA RESULT:      -4.5     11.631     12.862
REMARK  2 active torsions:
REMARK  status: ('A' for Active; 'I' for Inactive)
REMARK    1  A    between atoms: C1_1  and  C10_10 
REMARK    2  A    between atoms: C8_8  and  C10_10 
ROOT
HETATM    1  C2  UNL     1     -33.598  18.440   0.712  1.00 20.00     0.005 C 
HETATM    2  C3  UNL     1     -32.736  18.822  -0.500  1.00 20.00     0.005 C 
HETATM    3  C4  UNL     1     -35.019  18.902  -1.140  1.00 20.00     0.009 C 
HETATM    4  C5  UNL     1     -34.692  16.607  -0.604  1.00 20.00     0.010 C 
HETATM    5  C6  UNL     1     -34.915  17.974   0.069  1.00 20.00    -0.014 C 
HETATM    6  C7  UNL     1     -33.653  18.490  -1.692  1.00 20.00    -0.010 C 
HETATM    7  C8  UNL     1     -33.774  16.951  -1.798  1.00 20.00    -0.003 C 
ENDROOT
BRANCH   7   8
HETATM    8  C10 UNL     1     -34.360  16.493  -3.129  1.00 20.00     0.082 C 
BRANCH   8   9
HETATM    9  C1  UNL     1     -33.330  15.814  -4.009  1.00 20.00     0.123 C 
HETATM   10  C9  UNL     1     -33.019  14.379  -3.673  1.00 20.00     0.091 C 
HETATM   11  O11 UNL     1     -32.771  16.382  -4.947  1.00 20.00    -0.298 OA
ENDBRANCH   8   9
ENDBRANCH   7   8
TORSDOF 2
ENDMDL
MODEL 7
REMARK VINA RESULT:      -4.4     11.356     12.686
REMARK  2 active torsions:
REMARK  status: ('A' for Active; 'I' for Inactive)
REMARK    1  A    between atoms: C1_1  and  C10_10 
REMARK    2  A    between atoms: C8_8  and  C10_10 
ROOT
HETATM    1  C2  UNL     1     -33.198  13.775  -3.726  1.00 20.00     0.005 C 
HETATM    2  C3  UNL     1     -34.369  13.310  -4.605  1.00 20.00     0.005 C 
HETATM    3  C4  UNL     1     -34.082  15.647  -4.901  1.00 20.00     0.009 C 
HETATM    4  C5  UNL     1     -34.673  15.465  -2.603  1.00 20.00     0.010 C 
HETATM    5  C6  UNL     1     -33.472  15.278  -3.550  1.00 20.00    -0.014 C 
HETATM    6  C7  UNL     1     -35.192  14.598  -4.792  1.00 20.00    -0.010 C 
HETATM    7  C8  UNL     1     -35.862  14.946  -3.441  1.00 20.00    -0.003 C 
ENDROOT
BRANCH   7   8
HETATM    8  C10 UNL     1     -36.969  15.986  -3.579  1.00 20.00     0.082 C 
BRANCH   8   9
HETATM    9  C1  UNL     1     -38.350  15.363  -3.574  1.00 20.00     0.123 C 
HETATM   10  C9  UNL     1     -39.483  16.277  -3.187  1.00 20.00     0.091 C 
HETATM   11  O11 UNL     1     -38.555  14.186  -3.865  1.00 20.00    -0.298 OA
ENDBRANCH   8   9
ENDBRANCH   7   8
TORSDOF 2
ENDMDL
MODEL 8
REMARK VINA RESULT:      -4.4     11.565     12.862
REMARK  2 active torsions:
REMARK  status: ('A' for Active; 'I' for Inactive)
REMARK    1  A    between atoms: C1_1  and  C10_10 
REMARK    2  A    between atoms: C8_8  and  C10_10 
ROOT
HETATM    1  C2  UNL     1     -34.045  17.915  -1.227  1.00 20.00     0.005 C 
HETATM    2  C3  UNL     1     -34.817  16.627  -0.906  1.00 20.00     0.005 C 
HETATM    3  C4  UNL     1     -33.474  16.246  -2.825  1.00 20.00     0.009 C 
HETATM    4  C5  UNL     1     -34.984  17.935  -3.553  1.00 20.00     0.010 C 
HETATM    5  C6  UNL     1     -33.703  17.753  -2.717  1.00 20.00    -0.014 C 
HETATM    6  C7  UNL     1     -34.856  15.902  -2.264  1.00 20.00    -0.010 C 
HETATM    7  C8  UNL     1     -35.811  16.679  -3.202  1.00 20.00    -0.003 C 
ENDROOT
BRANCH   7   8
HETATM    8  C10 UNL     1     -36.204  15.881  -4.441  1.00 20.00     0.082 C 
BRANCH   8   9
HETATM    9  C1  UNL     1     -36.547  14.442  -4.115  1.00 20.00     0.123 C 
HETATM   10  C9  UNL     1     -35.456  13.433  -4.362  1.00 20.00     0.091 C 
HETATM   11  O11 UNL     1     -37.643  14.097  -3.675  1.00 20.00    -0.298 OA
ENDBRANCH   8   9
ENDBRANCH   7   8
TORSDOF 2
ENDMDL
MODEL 9
REMARK VINA RESULT:      -4.3      9.361     10.721
REMARK  2 active torsions:
REMARK  status: ('A' for Active; 'I' for Inactive)
REMARK    1  A    between atoms: C1_1  and  C10_10 
REMARK    2  A    between atoms: C8_8  and  C10_10 
ROOT
HETATM    1  C2  UNL     1     -43.034   6.668   0.009  1.00 20.00     0.005 C 
HETATM    2  C3  UNL     1     -42.922   5.250   0.586  1.00 20.00     0.005 C 
HETATM    3  C4  UNL     1     -40.779   5.927  -0.175  1.00 20.00     0.009 C 
HETATM    4  C5  UNL     1     -42.071   5.889  -2.172  1.00 20.00     0.010 C 
HETATM    5  C6  UNL     1     -41.816   6.759  -0.927  1.00 20.00    -0.014 C 
HETATM    6  C7  UNL     1     -41.674   4.688  -0.120  1.00 20.00    -0.010 C 
HETATM    7  C8  UNL     1     -42.025   4.451  -1.609  1.00 20.00    -0.003 C 
ENDROOT
BRANCH   7   8
HETATM    8  C10 UNL     1     -41.000   3.581  -2.328  1.00 20.00     0.082 C 
BRANCH   8   9
HETATM    9  C1  UNL     1     -41.650   2.507  -3.177  1.00 20.00     0.123 C 
HETATM   10  C9  UNL     1     -43.129   2.308  -2.969  1.00 20.00     0.091 C 
HETATM   11  O11 UNL     1     -41.027   1.828  -3.991  1.00 20.00    -0.298 OA
ENDBRANCH   8   9
ENDBRANCH   7   8
TORSDOF 2
ENDMDL
