MODEL 1
REMARK VINA RESULT:      -5.3      0.000      0.000
REMARK  0 active torsions:
REMARK  status: ('A' for Active; 'I' for Inactive)
ROOT
HETATM    1  C1  UNL     1     -35.209   4.696   5.990  1.00 20.00     0.000 C 
HETATM    2  C2  UNL     1     -34.007   5.534   6.432  1.00 20.00     0.003 C 
HETATM    3  C3  UNL     1     -35.056   4.211   4.546  1.00 20.00     0.003 C 
HETATM    4  C4  UNL     1     -33.762   6.706   5.482  1.00 20.00     0.040 C 
HETATM    5  C5  UNL     1     -34.814   5.376   3.586  1.00 20.00     0.040 C 
HETATM    6  C6  UNL     1     -32.320   6.121   3.384  1.00 20.00     0.207 A 
HETATM    7  C7  UNL     1     -33.663   6.207   4.069  1.00 20.00     0.082 A 
HETATM    8  O8  UNL     1     -33.230   7.202   3.130  1.00 20.00    -0.375 OA
ENDROOT
TORSDOF 0
ENDMDL
MODEL 2
REMARK VINA RESULT:      -4.2      1.855      3.411
REMARK  0 active torsions:
REMARK  status: ('A' for Active; 'I' for Inactive)
ROOT
HETATM    1  C1  UNL     1     -33.340   6.629   2.976  1.00 20.00     0.000 C 
HETATM    2  C2  UNL     1     -34.225   5.398   2.764  1.00 20.00     0.003 C 
HETATM    3  C3  UNL     1     -32.679   6.615   4.357  1.00 20.00     0.003 C 
HETATM    4  C4  UNL     1     -35.268   5.261   3.872  1.00 20.00     0.040 C 
HETATM    5  C5  UNL     1     -33.714   6.483   5.473  1.00 20.00     0.040 C 
HETATM    6  C6  UNL     1     -34.423   4.029   6.014  1.00 20.00     0.207 A 
HETATM    7  C7  UNL     1     -34.597   5.298   5.215  1.00 20.00     0.082 A 
HETATM    8  O8  UNL     1     -35.466   4.971   6.308  1.00 20.00    -0.375 OA
ENDROOT
TORSDOF 0
ENDMDL
MODEL 3
REMARK VINA RESULT:      -4.1     12.151     13.405
REMARK  0 active torsions:
REMARK  status: ('A' for Active; 'I' for Inactive)
ROOT
HETATM    1  C1  UNL     1     -33.258  16.695  -5.196  1.00 20.00     0.000 C 
HETATM    2  C2  UNL     1     -33.348  16.082  -3.796  1.00 20.00     0.003 C 
HETATM    3  C3  UNL     1     -34.388  16.198  -6.102  1.00 20.00     0.003 C 
HETATM    4  C4  UNL     1     -33.375  14.555  -3.855  1.00 20.00     0.040 C 
HETATM    5  C5  UNL     1     -34.421  14.672  -6.171  1.00 20.00     0.040 C 
HETATM    6  C6  UNL     1     -35.743  13.522  -4.236  1.00 20.00     0.207 A 
HETATM    7  C7  UNL     1     -34.460  14.097  -4.786  1.00 20.00     0.082 A 
HETATM    8  O8  UNL     1     -34.699  12.683  -4.750  1.00 20.00    -0.375 OA
ENDROOT
TORSDOF 0
ENDMDL
MODEL 4
REMARK VINA RESULT:      -4.0     11.843     12.498
REMARK  0 active torsions:
REMARK  status: ('A' for Active; 'I' for Inactive)
ROOT
HETATM    1  C1  UNL     1     -34.108  16.089  -2.522  1.00 20.00     0.000 C 
HETATM    2  C2  UNL     1     -35.479  15.968  -3.191  1.00 20.00     0.003 C 
HETATM    3  C3  UNL     1     -33.008  15.447  -3.372  1.00 20.00     0.003 C 
HETATM    4  C4  UNL     1     -35.816  14.513  -3.517  1.00 20.00     0.040 C 
HETATM    5  C5  UNL     1     -33.333  13.990  -3.700  1.00 20.00     0.040 C 
HETATM    6  C6  UNL     1     -34.859  13.660  -5.793  1.00 20.00     0.207 A 
HETATM    7  C7  UNL     1     -34.700  13.895  -4.309  1.00 20.00     0.082 A 
HETATM    8  O8  UNL     1     -35.012  12.598  -4.838  1.00 20.00    -0.375 OA
ENDROOT
TORSDOF 0
ENDMDL
MODEL 5
REMARK VINA RESULT:      -4.0      1.127      2.344
REMARK  0 active torsions:
REMARK  status: ('A' for Active; 'I' for Inactive)
ROOT
HETATM    1  C1  UNL     1     -34.226   5.180   6.803  1.00 20.00     0.000 C 
HETATM    2  C2  UNL     1     -35.237   4.291   6.076  1.00 20.00     0.003 C 
HETATM    3  C3  UNL     1     -34.014   6.508   6.070  1.00 20.00     0.003 C 
HETATM    4  C4  UNL     1     -34.832   4.057   4.621  1.00 20.00     0.040 C 
HETATM    5  C5  UNL     1     -33.604   6.285   4.615  1.00 20.00     0.040 C 
HETATM    6  C6  UNL     1     -35.596   5.927   2.965  1.00 20.00     0.207 A 
HETATM    7  C7  UNL     1     -34.585   5.372   3.940  1.00 20.00     0.082 A 
HETATM    8  O8  UNL     1     -34.401   5.268   2.521  1.00 20.00    -0.375 OA
ENDROOT
TORSDOF 0
ENDMDL
MODEL 6
REMARK VINA RESULT:      -3.9     12.386     13.543
REMARK  0 active torsions:
REMARK  status: ('A' for Active; 'I' for Inactive)
ROOT
HETATM    1  C1  UNL     1     -34.692  13.173  -4.871  1.00 20.00     0.000 C 
HETATM    2  C2  UNL     1     -35.239  14.180  -5.886  1.00 20.00     0.003 C 
HETATM    3  C3  UNL     1     -34.249  13.862  -3.578  1.00 20.00     0.003 C 
HETATM    4  C4  UNL     1     -34.228  15.290  -6.172  1.00 20.00     0.040 C 
HETATM    5  C5  UNL     1     -33.235  14.972  -3.853  1.00 20.00     0.040 C 
HETATM    6  C6  UNL     1     -34.287  17.277  -4.479  1.00 20.00     0.207 A 
HETATM    7  C7  UNL     1     -33.776  15.916  -4.885  1.00 20.00     0.082 A 
HETATM    8  O8  UNL     1     -32.986  17.101  -5.060  1.00 20.00    -0.375 OA
ENDROOT
TORSDOF 0
ENDMDL
MODEL 7
REMARK VINA RESULT:      -3.9     11.945     12.613
REMARK  0 active torsions:
REMARK  status: ('A' for Active; 'I' for Inactive)
ROOT
HETATM    1  C1  UNL     1     -33.304  14.591  -3.630  1.00 20.00     0.000 C 
HETATM    2  C2  UNL     1     -34.146  15.826  -3.302  1.00 20.00     0.003 C 
HETATM    3  C3  UNL     1     -33.981  13.712  -4.684  1.00 20.00     0.003 C 
HETATM    4  C4  UNL     1     -35.561  15.441  -2.871  1.00 20.00     0.040 C 
HETATM    5  C5  UNL     1     -35.396  13.317  -4.260  1.00 20.00     0.040 C 
HETATM    6  C6  UNL     1     -37.237  15.076  -4.840  1.00 20.00     0.207 A 
HETATM    7  C7  UNL     1     -36.183  14.542  -3.899  1.00 20.00     0.082 A 
HETATM    8  O8  UNL     1     -37.580  14.294  -3.686  1.00 20.00    -0.375 OA
ENDROOT
TORSDOF 0
ENDMDL
MODEL 8
REMARK VINA RESULT:      -3.8      9.052     10.271
REMARK  0 active torsions:
REMARK  status: ('A' for Active; 'I' for Inactive)
ROOT
HETATM    1  C1  UNL     1     -41.122   7.182  -0.818  1.00 20.00     0.000 C 
HETATM    2  C2  UNL     1     -40.816   5.879  -0.076  1.00 20.00     0.003 C 
HETATM    3  C3  UNL     1     -42.382   7.057  -1.679  1.00 20.00     0.003 C 
HETATM    4  C4  UNL     1     -40.707   4.699  -1.040  1.00 20.00     0.040 C 
HETATM    5  C5  UNL     1     -42.281   5.882  -2.650  1.00 20.00     0.040 C 
HETATM    6  C6  UNL     1     -42.986   3.577  -1.647  1.00 20.00     0.207 A 
HETATM    7  C7  UNL     1     -41.933   4.628  -1.904  1.00 20.00     0.082 A 
HETATM    8  O8  UNL     1     -42.018   3.436  -2.697  1.00 20.00    -0.375 OA
ENDROOT
TORSDOF 0
ENDMDL
MODEL 9
REMARK VINA RESULT:      -3.8      0.980      2.043
REMARK  0 active torsions:
REMARK  status: ('A' for Active; 'I' for Inactive)
ROOT
HETATM    1  C1  UNL     1     -35.165   5.018   5.707  1.00 20.00     0.000 C 
HETATM    2  C2  UNL     1     -35.464   5.036   4.206  1.00 20.00     0.003 C 
HETATM    3  C3  UNL     1     -34.284   6.201   6.120  1.00 20.00     0.003 C 
HETATM    4  C4  UNL     1     -34.179   5.079   3.380  1.00 20.00     0.040 C 
HETATM    5  C5  UNL     1     -32.994   6.250   5.302  1.00 20.00     0.040 C 
HETATM    6  C6  UNL     1     -33.207   7.474   3.005  1.00 20.00     0.207 A 
HETATM    7  C7  UNL     1     -33.314   6.218   3.837  1.00 20.00     0.082 A 
HETATM    8  O8  UNL     1     -32.184   6.467   2.989  1.00 20.00    -0.375 OA
ENDROOT
TORSDOF 0
ENDMDL
