MODEL 1
REMARK VINA RESULT:      -5.2      0.000      0.000
REMARK  1 active torsions:
REMARK  status: ('A' for Active; 'I' for Inactive)
REMARK    1  A    between atoms: C3_3  and  C6_6 
ROOT
HETATM    1  C1  UNL     1     -35.217   4.181   4.414  1.00 20.00    -0.030 C 
HETATM    2  C2  UNL     1     -35.247   4.203   5.752  1.00 20.00    -0.030 C 
HETATM    3  C4  UNL     1     -34.465   5.185   3.595  1.00 20.00     0.038 C 
HETATM    4  C5  UNL     1     -34.553   5.248   6.570  1.00 20.00     0.031 C 
HETATM    5  C6  UNL     1     -33.491   6.048   4.415  1.00 20.00     0.054 C 
HETATM    6  C7  UNL     1     -34.116   6.482   5.755  1.00 20.00    -0.004 C 
HETATM    7  C8  UNL     1     -33.160   7.336   6.594  1.00 20.00     0.011 C 
ENDROOT
BRANCH   5   8
HETATM    8  C3  UNL     1     -33.114   7.235   3.579  1.00 20.00     0.236 C 
HETATM    9  O9  UNL     1     -32.224   7.211   2.734  1.00 20.00    -0.306 OA
ENDBRANCH   5   8
TORSDOF 1
ENDMDL
MODEL 2
REMARK VINA RESULT:      -5.0      0.818      2.467
REMARK  1 active torsions:
REMARK  status: ('A' for Active; 'I' for Inactive)
REMARK    1  A    between atoms: C3_3  and  C6_6 
ROOT
HETATM    1  C1  UNL     1     -34.290   5.932   6.483  1.00 20.00    -0.030 C 
HETATM    2  C2  UNL     1     -35.166   5.052   5.984  1.00 20.00    -0.030 C 
HETATM    3  C4  UNL     1     -33.307   6.681   5.636  1.00 20.00     0.038 C 
HETATM    4  C5  UNL     1     -35.237   4.703   4.529  1.00 20.00     0.031 C 
HETATM    5  C6  UNL     1     -33.591   6.584   4.128  1.00 20.00     0.054 C 
HETATM    6  C7  UNL     1     -34.003   5.156   3.723  1.00 20.00    -0.004 C 
HETATM    7  C8  UNL     1     -34.300   5.038   2.225  1.00 20.00     0.011 C 
ENDROOT
BRANCH   5   8
HETATM    8  C3  UNL     1     -32.355   7.022   3.400  1.00 20.00     0.236 C 
HETATM    9  O9  UNL     1     -32.348   7.911   2.553  1.00 20.00    -0.306 OA
ENDBRANCH   5   8
TORSDOF 1
ENDMDL
MODEL 3
REMARK VINA RESULT:      -4.7      1.635      2.755
REMARK  1 active torsions:
REMARK  status: ('A' for Active; 'I' for Inactive)
REMARK    1  A    between atoms: C3_3  and  C6_6 
ROOT
HETATM    1  C1  UNL     1     -35.291   4.243   5.684  1.00 20.00    -0.030 C 
HETATM    2  C2  UNL     1     -35.256   4.168   4.348  1.00 20.00    -0.030 C 
HETATM    3  C4  UNL     1     -34.588   5.311   6.464  1.00 20.00     0.038 C 
HETATM    4  C5  UNL     1     -34.489   5.129   3.494  1.00 20.00     0.031 C 
HETATM    5  C6  UNL     1     -34.085   6.478   5.598  1.00 20.00     0.054 C 
HETATM    6  C7  UNL     1     -33.467   5.975   4.279  1.00 20.00    -0.004 C 
HETATM    7  C8  UNL     1     -32.966   7.122   3.395  1.00 20.00     0.011 C 
ENDROOT
BRANCH   5   8
HETATM    8  C3  UNL     1     -33.087   7.253   6.407  1.00 20.00     0.236 C 
HETATM    9  O9  UNL     1     -33.374   7.854   7.437  1.00 20.00    -0.306 OA
ENDBRANCH   5   8
TORSDOF 1
ENDMDL
MODEL 4
REMARK VINA RESULT:      -4.5      1.969      3.212
REMARK  1 active torsions:
REMARK  status: ('A' for Active; 'I' for Inactive)
REMARK    1  A    between atoms: C3_3  and  C6_6 
ROOT
HETATM    1  C1  UNL     1     -32.780   6.072   2.407  1.00 20.00    -0.030 C 
HETATM    2  C2  UNL     1     -32.140   6.968   3.168  1.00 20.00    -0.030 C 
HETATM    3  C4  UNL     1     -33.958   5.281   2.887  1.00 20.00     0.038 C 
HETATM    4  C5  UNL     1     -32.519   7.255   4.588  1.00 20.00     0.031 C 
HETATM    5  C6  UNL     1     -34.555   5.800   4.205  1.00 20.00     0.054 C 
HETATM    6  C7  UNL     1     -33.452   6.194   5.206  1.00 20.00    -0.004 C 
HETATM    7  C8  UNL     1     -34.024   6.723   6.525  1.00 20.00     0.011 C 
ENDROOT
BRANCH   5   8
HETATM    8  C3  UNL     1     -35.439   4.723   4.763  1.00 20.00     0.236 C 
HETATM    9  O9  UNL     1     -35.084   3.555   4.887  1.00 20.00    -0.306 OA
ENDBRANCH   5   8
TORSDOF 1
ENDMDL
MODEL 5
REMARK VINA RESULT:      -4.3     12.148     12.631
REMARK  1 active torsions:
REMARK  status: ('A' for Active; 'I' for Inactive)
REMARK    1  A    between atoms: C3_3  and  C6_6 
ROOT
HETATM    1  C1  UNL     1     -34.087  13.432  -4.321  1.00 20.00    -0.030 C 
HETATM    2  C2  UNL     1     -33.207  14.225  -3.698  1.00 20.00    -0.030 C 
HETATM    3  C4  UNL     1     -35.557  13.717  -4.368  1.00 20.00     0.038 C 
HETATM    4  C5  UNL     1     -33.603  15.466  -2.959  1.00 20.00     0.031 C 
HETATM    5  C6  UNL     1     -35.926  15.139  -3.910  1.00 20.00     0.054 C 
HETATM    6  C7  UNL     1     -35.115  15.559  -2.670  1.00 20.00    -0.004 C 
HETATM    7  C8  UNL     1     -35.459  16.976  -2.201  1.00 20.00     0.011 C 
ENDROOT
BRANCH   5   8
HETATM    8  C3  UNL     1     -37.400  15.162  -3.631  1.00 20.00     0.236 C 
HETATM    9  O9  UNL     1     -38.115  14.166  -3.689  1.00 20.00    -0.306 OA
ENDBRANCH   5   8
TORSDOF 1
ENDMDL
MODEL 6
REMARK VINA RESULT:      -4.3     12.090     13.715
REMARK  1 active torsions:
REMARK  status: ('A' for Active; 'I' for Inactive)
REMARK    1  A    between atoms: C3_3  and  C6_6 
ROOT
HETATM    1  C1  UNL     1     -33.988  16.225  -2.567  1.00 20.00    -0.030 C 
HETATM    2  C2  UNL     1     -33.730  17.277  -3.352  1.00 20.00    -0.030 C 
HETATM    3  C4  UNL     1     -34.311  14.863  -3.100  1.00 20.00     0.038 C 
HETATM    4  C5  UNL     1     -33.761  17.209  -4.848  1.00 20.00     0.031 C 
HETATM    5  C6  UNL     1     -34.020  14.703  -4.602  1.00 20.00     0.054 C 
HETATM    6  C7  UNL     1     -34.459  15.948  -5.396  1.00 20.00    -0.004 C 
HETATM    7  C8  UNL     1     -34.171  15.814  -6.894  1.00 20.00     0.011 C 
ENDROOT
BRANCH   5   8
HETATM    8  C3  UNL     1     -34.735  13.472  -5.078  1.00 20.00     0.236 C 
HETATM    9  O9  UNL     1     -35.109  12.576  -4.328  1.00 20.00    -0.306 OA
ENDBRANCH   5   8
TORSDOF 1
ENDMDL
MODEL 7
REMARK VINA RESULT:      -4.2     11.899     13.898
REMARK  1 active torsions:
REMARK  status: ('A' for Active; 'I' for Inactive)
REMARK    1  A    between atoms: C3_3  and  C6_6 
ROOT
HETATM    1  C1  UNL     1     -34.274  15.953  -6.878  1.00 20.00    -0.030 C 
HETATM    2  C2  UNL     1     -33.887  17.106  -6.319  1.00 20.00    -0.030 C 
HETATM    3  C4  UNL     1     -34.571  14.717  -6.085  1.00 20.00     0.038 C 
HETATM    4  C5  UNL     1     -33.686  17.275  -4.845  1.00 20.00     0.031 C 
HETATM    5  C6  UNL     1     -34.691  14.967  -4.572  1.00 20.00     0.054 C 
HETATM    6  C7  UNL     1     -33.606  15.941  -4.075  1.00 20.00    -0.004 C 
HETATM    7  C8  UNL     1     -33.712  16.213  -2.571  1.00 20.00     0.011 C 
ENDROOT
BRANCH   5   8
HETATM    8  C3  UNL     1     -34.593  13.640  -3.878  1.00 20.00     0.236 C 
HETATM    9  O9  UNL     1     -35.047  12.600  -4.344  1.00 20.00    -0.306 OA
ENDBRANCH   5   8
TORSDOF 1
ENDMDL
MODEL 8
REMARK VINA RESULT:      -4.0      1.787      3.530
REMARK  1 active torsions:
REMARK  status: ('A' for Active; 'I' for Inactive)
REMARK    1  A    between atoms: C3_3  and  C6_6 
ROOT
HETATM    1  C1  UNL     1     -32.209   6.980   3.072  1.00 20.00    -0.030 C 
HETATM    2  C2  UNL     1     -32.833   6.062   2.324  1.00 20.00    -0.030 C 
HETATM    3  C4  UNL     1     -32.534   7.222   4.514  1.00 20.00     0.038 C 
HETATM    4  C5  UNL     1     -33.939   5.197   2.844  1.00 20.00     0.031 C 
HETATM    5  C6  UNL     1     -33.418   6.130   5.140  1.00 20.00     0.054 C 
HETATM    6  C7  UNL     1     -34.538   5.692   4.176  1.00 20.00    -0.004 C 
HETATM    7  C8  UNL     1     -35.426   4.597   4.775  1.00 20.00     0.011 C 
ENDROOT
BRANCH   5   8
HETATM    8  C3  UNL     1     -33.981   6.673   6.419  1.00 20.00     0.236 C 
HETATM    9  O9  UNL     1     -33.420   7.531   7.094  1.00 20.00    -0.306 OA
ENDBRANCH   5   8
TORSDOF 1
ENDMDL
MODEL 9
REMARK VINA RESULT:      -4.0     12.211     12.751
REMARK  1 active torsions:
REMARK  status: ('A' for Active; 'I' for Inactive)
REMARK    1  A    between atoms: C3_3  and  C6_6 
ROOT
HETATM    1  C1  UNL     1     -36.221  16.576  -2.670  1.00 20.00    -0.030 C 
HETATM    2  C2  UNL     1     -35.097  17.015  -2.091  1.00 20.00    -0.030 C 
HETATM    3  C4  UNL     1     -36.260  15.401  -3.599  1.00 20.00     0.038 C 
HETATM    4  C5  UNL     1     -33.756  16.394  -2.331  1.00 20.00     0.031 C 
HETATM    5  C6  UNL     1     -34.970  14.563  -3.590  1.00 20.00     0.054 C 
HETATM    6  C7  UNL     1     -33.717  15.459  -3.557  1.00 20.00    -0.004 C 
HETATM    7  C8  UNL     1     -32.420  14.645  -3.539  1.00 20.00     0.011 C 
ENDROOT
BRANCH   5   8
HETATM    8  C3  UNL     1     -34.983  13.689  -4.809  1.00 20.00     0.236 C 
HETATM    9  O9  UNL     1     -34.900  12.465  -4.764  1.00 20.00    -0.306 OA
ENDBRANCH   5   8
TORSDOF 1
ENDMDL
