MODEL 1
REMARK VINA RESULT:      -3.9      0.000      0.000
REMARK  1 active torsions:
REMARK  status: ('A' for Active; 'I' for Inactive)
REMARK    1  A    between atoms: C1_1  and  C3_3 
ROOT
HETATM    1  C1  UNL     1     -35.158   4.491   4.928  1.00 20.00     0.037 C 
HETATM    2  C2  UNL     1     -34.709   4.908   6.118  1.00 20.00    -0.028 C 
HETATM    3  C4  UNL     1     -34.150   6.273   6.351  1.00 20.00     0.036 C 
ENDROOT
BRANCH   1   4
HETATM    4  C3  UNL     1     -35.108   5.412   3.777  1.00 20.00     0.258 C 
HETATM    5  O5  UNL     1     -34.248   5.320   2.910  1.00 20.00    -0.302 OA
ENDBRANCH   1   4
TORSDOF 1
ENDMDL
MODEL 2
REMARK VINA RESULT:      -3.9      1.281      1.743
REMARK  1 active torsions:
REMARK  status: ('A' for Active; 'I' for Inactive)
REMARK    1  A    between atoms: C1_1  and  C3_3 
ROOT
HETATM    1  C1  UNL     1     -34.645   5.463   3.637  1.00 20.00     0.037 C 
HETATM    2  C2  UNL     1     -35.239   4.849   4.667  1.00 20.00    -0.028 C 
HETATM    3  C4  UNL     1     -34.759   4.961   6.077  1.00 20.00     0.036 C 
ENDROOT
BRANCH   1   4
HETATM    4  C3  UNL     1     -33.455   6.298   3.887  1.00 20.00     0.258 C 
HETATM    5  O5  UNL     1     -32.389   6.095   3.319  1.00 20.00    -0.302 OA
ENDBRANCH   1   4
TORSDOF 1
ENDMDL
MODEL 3
REMARK VINA RESULT:      -3.7      1.928      2.669
REMARK  1 active torsions:
REMARK  status: ('A' for Active; 'I' for Inactive)
REMARK    1  A    between atoms: C1_1  and  C3_3 
ROOT
HETATM    1  C1  UNL     1     -35.281   4.886   4.591  1.00 20.00     0.037 C 
HETATM    2  C2  UNL     1     -34.731   5.427   3.498  1.00 20.00    -0.028 C 
HETATM    3  C4  UNL     1     -33.390   6.085   3.494  1.00 20.00     0.036 C 
ENDROOT
BRANCH   1   4
HETATM    4  C3  UNL     1     -34.541   4.929   5.866  1.00 20.00     0.258 C 
HETATM    5  O5  UNL     1     -34.666   5.857   6.657  1.00 20.00    -0.302 OA
ENDBRANCH   1   4
TORSDOF 1
ENDMDL
MODEL 4
REMARK VINA RESULT:      -3.6      1.755      2.664
REMARK  1 active torsions:
REMARK  status: ('A' for Active; 'I' for Inactive)
REMARK    1  A    between atoms: C1_1  and  C3_3 
ROOT
HETATM    1  C1  UNL     1     -34.632   4.726   6.140  1.00 20.00     0.037 C 
HETATM    2  C2  UNL     1     -35.006   4.386   4.902  1.00 20.00    -0.028 C 
HETATM    3  C4  UNL     1     -35.249   5.381   3.815  1.00 20.00     0.036 C 
ENDROOT
BRANCH   1   4
HETATM    4  C3  UNL     1     -34.442   6.152   6.468  1.00 20.00     0.258 C 
HETATM    5  O5  UNL     1     -33.338   6.681   6.445  1.00 20.00    -0.302 OA
ENDBRANCH   1   4
TORSDOF 1
ENDMDL
MODEL 5
REMARK VINA RESULT:      -3.5      1.527      1.844
REMARK  1 active torsions:
REMARK  status: ('A' for Active; 'I' for Inactive)
REMARK    1  A    between atoms: C1_1  and  C3_3 
ROOT
HETATM    1  C1  UNL     1     -34.358   5.613   4.089  1.00 20.00     0.037 C 
HETATM    2  C2  UNL     1     -33.714   6.459   4.901  1.00 20.00    -0.028 C 
HETATM    3  C4  UNL     1     -33.964   6.536   6.372  1.00 20.00     0.036 C 
ENDROOT
BRANCH   1   4
HETATM    4  C3  UNL     1     -35.370   4.701   4.656  1.00 20.00     0.258 C 
HETATM    5  O5  UNL     1     -35.103   3.545   4.960  1.00 20.00    -0.302 OA
ENDBRANCH   1   4
TORSDOF 1
ENDMDL
MODEL 6
REMARK VINA RESULT:      -3.4      1.871      2.412
REMARK  1 active torsions:
REMARK  status: ('A' for Active; 'I' for Inactive)
REMARK    1  A    between atoms: C1_1  and  C3_3 
ROOT
HETATM    1  C1  UNL     1     -34.372   5.758   5.385  1.00 20.00     0.037 C 
HETATM    2  C2  UNL     1     -33.461   6.399   4.644  1.00 20.00    -0.028 C 
HETATM    3  C4  UNL     1     -33.242   6.122   3.192  1.00 20.00     0.036 C 
ENDROOT
BRANCH   1   4
HETATM    4  C3  UNL     1     -35.213   4.723   4.755  1.00 20.00     0.258 C 
HETATM    5  O5  UNL     1     -35.101   3.536   5.037  1.00 20.00    -0.302 OA
ENDBRANCH   1   4
TORSDOF 1
ENDMDL
MODEL 7
REMARK VINA RESULT:      -3.0     12.170     12.920
REMARK  1 active torsions:
REMARK  status: ('A' for Active; 'I' for Inactive)
REMARK    1  A    between atoms: C1_1  and  C3_3 
ROOT
HETATM    1  C1  UNL     1     -33.306  13.877  -3.669  1.00 20.00     0.037 C 
HETATM    2  C2  UNL     1     -32.816  15.121  -3.695  1.00 20.00    -0.028 C 
HETATM    3  C4  UNL     1     -33.239  16.149  -4.693  1.00 20.00     0.036 C 
ENDROOT
BRANCH   1   4
HETATM    4  C3  UNL     1     -34.318  13.481  -4.667  1.00 20.00     0.258 C 
HETATM    5  O5  UNL     1     -35.117  12.577  -4.457  1.00 20.00    -0.302 OA
ENDBRANCH   1   4
TORSDOF 1
ENDMDL
MODEL 8
REMARK VINA RESULT:      -3.0     12.108     12.499
REMARK  1 active torsions:
REMARK  status: ('A' for Active; 'I' for Inactive)
REMARK    1  A    between atoms: C1_1  and  C3_3 
ROOT
HETATM    1  C1  UNL     1     -33.576  14.466  -3.845  1.00 20.00     0.037 C 
HETATM    2  C2  UNL     1     -33.522  15.546  -3.056  1.00 20.00    -0.028 C 
HETATM    3  C4  UNL     1     -34.654  15.984  -2.186  1.00 20.00     0.036 C 
ENDROOT
BRANCH   1   4
HETATM    4  C3  UNL     1     -34.807  13.654  -3.868  1.00 20.00     0.258 C 
HETATM    5  O5  UNL     1     -34.898  12.635  -4.543  1.00 20.00    -0.302 OA
ENDBRANCH   1   4
TORSDOF 1
ENDMDL
MODEL 9
REMARK VINA RESULT:      -2.8     12.333     12.581
REMARK  1 active torsions:
REMARK  status: ('A' for Active; 'I' for Inactive)
REMARK    1  A    between atoms: C1_1  and  C3_3 
ROOT
HETATM    1  C1  UNL     1     -35.251  13.442  -4.193  1.00 20.00     0.037 C 
HETATM    2  C2  UNL     1     -34.048  13.830  -3.757  1.00 20.00    -0.028 C 
HETATM    3  C4  UNL     1     -33.762  15.208  -3.256  1.00 20.00     0.036 C 
ENDROOT
BRANCH   1   4
HETATM    4  C3  UNL     1     -36.366  14.408  -4.185  1.00 20.00     0.258 C 
HETATM    5  O5  UNL     1     -37.480  14.108  -3.774  1.00 20.00    -0.302 OA
ENDBRANCH   1   4
TORSDOF 1
ENDMDL
