MODEL 1
REMARK VINA RESULT:      -4.5      0.000      0.000
REMARK  2 active torsions:
REMARK  status: ('A' for Active; 'I' for Inactive)
REMARK    1  A    between atoms: C1_1  and  S11_11 
REMARK    2  A    between atoms: C8_8  and  S11_11 
ROOT
HETATM    1  C2  UNL     1     -35.275  18.756  -1.913  1.00 20.00     0.005 C 
HETATM    2  C3  UNL     1     -35.779  17.522  -1.151  1.00 20.00     0.006 C 
HETATM    3  C4  UNL     1     -33.428  17.631  -0.914  1.00 20.00     0.010 C 
HETATM    4  C5  UNL     1     -33.718  17.340  -3.269  1.00 20.00     0.020 C 
HETATM    5  C6  UNL     1     -33.795  18.420  -2.172  1.00 20.00    -0.013 C 
HETATM    6  C7  UNL     1     -34.545  16.601  -1.124  1.00 20.00     0.000 C 
HETATM    7  C8  UNL     1     -34.171  16.067  -2.527  1.00 20.00     0.059 C 
ENDROOT
BRANCH   7   8
HETATM    8  S11 UNL     1     -35.481  15.161  -3.394  1.00 20.00    -0.088 SA
BRANCH   8   9
HETATM    9  C1  UNL     1     -34.600  13.706  -3.859  1.00 20.00     0.182 C 
HETATM   10  C9  UNL     1     -33.117  13.814  -3.651  1.00 20.00     0.104 C 
HETATM   11  O10 UNL     1     -35.142  12.703  -4.306  1.00 20.00    -0.286 OA
ENDBRANCH   8   9
ENDBRANCH   7   8
TORSDOF 2
ENDMDL
MODEL 2
REMARK VINA RESULT:      -4.4      2.395      4.477
REMARK  2 active torsions:
REMARK  status: ('A' for Active; 'I' for Inactive)
REMARK    1  A    between atoms: C1_1  and  S11_11 
REMARK    2  A    between atoms: C8_8  and  S11_11 
ROOT
HETATM    1  C2  UNL     1     -34.402  14.888  -5.903  1.00 20.00     0.005 C 
HETATM    2  C3  UNL     1     -33.593  15.775  -4.947  1.00 20.00     0.006 C 
HETATM    3  C4  UNL     1     -33.701  13.598  -4.029  1.00 20.00     0.010 C 
HETATM    4  C5  UNL     1     -35.992  14.279  -4.068  1.00 20.00     0.020 C 
HETATM    5  C6  UNL     1     -34.880  13.744  -4.992  1.00 20.00    -0.013 C 
HETATM    6  C7  UNL     1     -33.760  15.067  -3.589  1.00 20.00     0.000 C 
HETATM    7  C8  UNL     1     -35.210  15.140  -3.055  1.00 20.00     0.059 C 
ENDROOT
BRANCH   7   8
HETATM    8  S11 UNL     1     -35.889  16.811  -2.861  1.00 20.00    -0.088 SA
BRANCH   8   9
HETATM    9  C1  UNL     1     -34.665  17.525  -1.812  1.00 20.00     0.182 C 
HETATM   10  C9  UNL     1     -34.650  16.944  -0.428  1.00 20.00     0.104 C 
HETATM   11  O10 UNL     1     -33.899  18.409  -2.175  1.00 20.00    -0.286 OA
ENDBRANCH   8   9
ENDBRANCH   7   8
TORSDOF 2
ENDMDL
MODEL 3
REMARK VINA RESULT:      -4.3      1.178      1.374
REMARK  2 active torsions:
REMARK  status: ('A' for Active; 'I' for Inactive)
REMARK    1  A    between atoms: C1_1  and  S11_11 
REMARK    2  A    between atoms: C8_8  and  S11_11 
ROOT
HETATM    1  C2  UNL     1     -35.070  18.380  -2.960  1.00 20.00     0.005 C 
HETATM    2  C3  UNL     1     -35.974  17.480  -2.107  1.00 20.00     0.006 C 
HETATM    3  C4  UNL     1     -33.730  17.098  -1.465  1.00 20.00     0.010 C 
HETATM    4  C5  UNL     1     -33.762  16.397  -3.750  1.00 20.00     0.020 C 
HETATM    5  C6  UNL     1     -33.706  17.670  -2.883  1.00 20.00    -0.013 C 
HETATM    6  C7  UNL     1     -35.036  16.328  -1.701  1.00 20.00     0.000 C 
HETATM    7  C8  UNL     1     -34.626  15.443  -2.901  1.00 20.00     0.059 C 
ENDROOT
BRANCH   7   8
HETATM    8  S11 UNL     1     -35.995  14.699  -3.829  1.00 20.00    -0.088 SA
BRANCH   8   9
HETATM    9  C1  UNL     1     -35.093  13.713  -4.978  1.00 20.00     0.182 C 
HETATM   10  C9  UNL     1     -35.102  14.263  -6.376  1.00 20.00     0.104 C 
HETATM   11  O10 UNL     1     -34.512  12.679  -4.671  1.00 20.00    -0.286 OA
ENDBRANCH   8   9
ENDBRANCH   7   8
TORSDOF 2
ENDMDL
MODEL 4
REMARK VINA RESULT:      -4.3      1.304      2.122
REMARK  2 active torsions:
REMARK  status: ('A' for Active; 'I' for Inactive)
REMARK    1  A    between atoms: C1_1  and  S11_11 
REMARK    2  A    between atoms: C8_8  and  S11_11 
ROOT
HETATM    1  C2  UNL     1     -34.915  16.919  -0.857  1.00 20.00     0.005 C 
HETATM    2  C3  UNL     1     -33.534  17.078  -1.509  1.00 20.00     0.006 C 
HETATM    3  C4  UNL     1     -35.103  18.310  -2.781  1.00 20.00     0.010 C 
HETATM    4  C5  UNL     1     -35.882  16.060  -3.000  1.00 20.00     0.020 C 
HETATM    5  C6  UNL     1     -35.881  17.242  -2.010  1.00 20.00    -0.013 C 
HETATM    6  C7  UNL     1     -33.877  17.407  -2.974  1.00 20.00     0.000 C 
HETATM    7  C8  UNL     1     -34.525  16.214  -3.716  1.00 20.00     0.059 C 
ENDROOT
BRANCH   7   8
HETATM    8  S11 UNL     1     -33.550  14.684  -3.738  1.00 20.00    -0.088 SA
BRANCH   8   9
HETATM    9  C1  UNL     1     -34.511  13.719  -4.858  1.00 20.00     0.182 C 
HETATM   10  C9  UNL     1     -34.744  14.392  -6.180  1.00 20.00     0.104 C 
HETATM   11  O10 UNL     1     -34.946  12.606  -4.588  1.00 20.00    -0.286 OA
ENDBRANCH   8   9
ENDBRANCH   7   8
TORSDOF 2
ENDMDL
MODEL 5
REMARK VINA RESULT:      -4.2     12.496     14.100
REMARK  2 active torsions:
REMARK  status: ('A' for Active; 'I' for Inactive)
REMARK    1  A    between atoms: C1_1  and  S11_11 
REMARK    2  A    between atoms: C8_8  and  S11_11 
ROOT
HETATM    1  C2  UNL     1     -41.215   6.929  -1.370  1.00 20.00     0.005 C 
HETATM    2  C3  UNL     1     -42.728   6.695  -1.487  1.00 20.00     0.006 C 
HETATM    3  C4  UNL     1     -41.967   5.655   0.496  1.00 20.00     0.010 C 
HETATM    4  C5  UNL     1     -40.799   4.465  -1.217  1.00 20.00     0.020 C 
HETATM    5  C6  UNL     1     -40.763   5.793  -0.435  1.00 20.00    -0.013 C 
HETATM    6  C7  UNL     1     -42.948   5.415  -0.660  1.00 20.00     0.000 C 
HETATM    7  C8  UNL     1     -42.309   4.167  -1.312  1.00 20.00     0.059 C 
ENDROOT
BRANCH   7   8
HETATM    8  S11 UNL     1     -42.860   3.798  -3.001  1.00 20.00    -0.088 SA
BRANCH   8   9
HETATM    9  C1  UNL     1     -42.467   2.082  -3.090  1.00 20.00     0.182 C 
HETATM   10  C9  UNL     1     -41.272   1.786  -3.950  1.00 20.00     0.104 C 
HETATM   11  O10 UNL     1     -43.103   1.213  -2.507  1.00 20.00    -0.286 OA
ENDBRANCH   8   9
ENDBRANCH   7   8
TORSDOF 2
ENDMDL
MODEL 6
REMARK VINA RESULT:      -4.2      2.705      3.725
REMARK  2 active torsions:
REMARK  status: ('A' for Active; 'I' for Inactive)
REMARK    1  A    between atoms: C1_1  and  S11_11 
REMARK    2  A    between atoms: C8_8  and  S11_11 
ROOT
HETATM    1  C2  UNL     1     -33.879  16.039  -2.647  1.00 20.00     0.005 C 
HETATM    2  C3  UNL     1     -35.158  15.196  -2.748  1.00 20.00     0.006 C 
HETATM    3  C4  UNL     1     -33.377  13.961  -3.696  1.00 20.00     0.010 C 
HETATM    4  C5  UNL     1     -33.520  15.876  -5.119  1.00 20.00     0.020 C 
HETATM    5  C6  UNL     1     -32.982  15.437  -3.743  1.00 20.00    -0.013 C 
HETATM    6  C7  UNL     1     -34.864  14.258  -3.933  1.00 20.00     0.000 C 
HETATM    7  C8  UNL     1     -34.786  15.010  -5.282  1.00 20.00     0.059 C 
ENDROOT
BRANCH   7   8
HETATM    8  S11 UNL     1     -36.258  15.970  -5.729  1.00 20.00    -0.088 SA
BRANCH   8   9
HETATM    9  C1  UNL     1     -36.772  15.100  -7.173  1.00 20.00     0.182 C 
HETATM   10  C9  UNL     1     -35.638  14.455  -7.918  1.00 20.00     0.104 C 
HETATM   11  O10 UNL     1     -37.939  15.025  -7.536  1.00 20.00    -0.286 OA
ENDBRANCH   8   9
ENDBRANCH   7   8
TORSDOF 2
ENDMDL
MODEL 7
REMARK VINA RESULT:      -4.0      3.123      4.467
REMARK  2 active torsions:
REMARK  status: ('A' for Active; 'I' for Inactive)
REMARK    1  A    between atoms: C1_1  and  S11_11 
REMARK    2  A    between atoms: C8_8  and  S11_11 
ROOT
HETATM    1  C2  UNL     1     -32.865  14.943  -3.693  1.00 20.00     0.005 C 
HETATM    2  C3  UNL     1     -33.482  16.186  -4.349  1.00 20.00     0.006 C 
HETATM    3  C4  UNL     1     -35.192  15.030  -3.195  1.00 20.00     0.010 C 
HETATM    4  C5  UNL     1     -34.507  13.455  -4.857  1.00 20.00     0.020 C 
HETATM    5  C6  UNL     1     -34.081  14.022  -3.488  1.00 20.00    -0.013 C 
HETATM    6  C7  UNL     1     -34.965  15.799  -4.503  1.00 20.00     0.000 C 
HETATM    7  C8  UNL     1     -35.180  14.666  -5.533  1.00 20.00     0.059 C 
ENDROOT
BRANCH   7   8
HETATM    8  S11 UNL     1     -34.551  14.995  -7.202  1.00 20.00    -0.088 SA
BRANCH   8   9
HETATM    9  C1  UNL     1     -35.442  16.467  -7.587  1.00 20.00     0.182 C 
HETATM   10  C9  UNL     1     -34.557  17.657  -7.824  1.00 20.00     0.104 C 
HETATM   11  O10 UNL     1     -36.663  16.518  -7.657  1.00 20.00    -0.286 OA
ENDBRANCH   8   9
ENDBRANCH   7   8
TORSDOF 2
ENDMDL
MODEL 8
REMARK VINA RESULT:      -4.0      2.340      2.866
REMARK  2 active torsions:
REMARK  status: ('A' for Active; 'I' for Inactive)
REMARK    1  A    between atoms: C1_1  and  S11_11 
REMARK    2  A    between atoms: C8_8  and  S11_11 
ROOT
HETATM    1  C2  UNL     1     -33.917  17.720  -3.238  1.00 20.00     0.005 C 
HETATM    2  C3  UNL     1     -35.451  17.664  -3.245  1.00 20.00     0.006 C 
HETATM    3  C4  UNL     1     -34.670  16.415  -1.394  1.00 20.00     0.010 C 
HETATM    4  C5  UNL     1     -33.778  15.221  -3.262  1.00 20.00     0.020 C 
HETATM    5  C6  UNL     1     -33.530  16.481  -2.410  1.00 20.00    -0.013 C 
HETATM    6  C7  UNL     1     -35.755  16.363  -2.478  1.00 20.00     0.000 C 
HETATM    7  C8  UNL     1     -35.315  15.099  -3.252  1.00 20.00     0.059 C 
ENDROOT
BRANCH   7   8
HETATM    8  S11 UNL     1     -36.029  14.908  -4.909  1.00 20.00    -0.088 SA
BRANCH   8   9
HETATM    9  C1  UNL     1     -37.746  14.969  -4.518  1.00 20.00     0.182 C 
HETATM   10  C9  UNL     1     -38.482  16.071  -5.226  1.00 20.00     0.104 C 
HETATM   11  O10 UNL     1     -38.291  14.190  -3.746  1.00 20.00    -0.286 OA
ENDBRANCH   8   9
ENDBRANCH   7   8
TORSDOF 2
ENDMDL
MODEL 9
REMARK VINA RESULT:      -4.0      2.959      4.748
REMARK  2 active torsions:
REMARK  status: ('A' for Active; 'I' for Inactive)
REMARK    1  A    between atoms: C1_1  and  S11_11 
REMARK    2  A    between atoms: C8_8  and  S11_11 
ROOT
HETATM    1  C2  UNL     1     -33.644  13.564  -3.924  1.00 20.00     0.005 C 
HETATM    2  C3  UNL     1     -33.974  14.827  -3.117  1.00 20.00     0.006 C 
HETATM    3  C4  UNL     1     -35.954  14.084  -4.175  1.00 20.00     0.010 C 
HETATM    4  C5  UNL     1     -34.528  14.614  -6.018  1.00 20.00     0.020 C 
HETATM    5  C6  UNL     1     -34.776  13.515  -4.966  1.00 20.00    -0.013 C 
HETATM    6  C7  UNL     1     -35.216  15.386  -3.836  1.00 20.00     0.000 C 
HETATM    7  C8  UNL     1     -34.898  15.904  -5.258  1.00 20.00     0.059 C 
ENDROOT
BRANCH   7   8
HETATM    8  S11 UNL     1     -33.618  17.185  -5.356  1.00 20.00    -0.088 SA
BRANCH   8   9
HETATM    9  C1  UNL     1     -34.236  18.335  -4.171  1.00 20.00     0.182 C 
HETATM   10  C9  UNL     1     -35.490  19.034  -4.613  1.00 20.00     0.104 C 
HETATM   11  O10 UNL     1     -33.699  18.545  -3.090  1.00 20.00    -0.286 OA
ENDBRANCH   8   9
ENDBRANCH   7   8
TORSDOF 2
ENDMDL
