MODEL 1
REMARK VINA RESULT:      -4.6      0.000      0.000
REMARK  0 active torsions:
REMARK  status: ('A' for Active; 'I' for Inactive)
ROOT
HETATM    1  C1  UNL     1     -34.584  13.763  -4.699  1.00 20.00     0.086 C 
HETATM    2  C2  UNL     1     -33.934  17.719  -3.083  1.00 20.00     0.005 C 
HETATM    3  C3  UNL     1     -35.178  17.506  -3.957  1.00 20.00     0.008 C 
HETATM    4  C4  UNL     1     -35.049  15.726  -2.411  1.00 20.00     0.012 C 
HETATM    5  C5  UNL     1     -33.046  15.455  -3.695  1.00 20.00     0.046 C 
HETATM    6  C6  UNL     1     -33.641  16.306  -2.552  1.00 20.00    -0.011 C 
HETATM    7  C7  UNL     1     -35.397  15.980  -3.887  1.00 20.00     0.024 C 
HETATM    8  C8  UNL     1     -34.266  15.198  -4.608  1.00 20.00     0.129 C 
HETATM    9  N9  UNL     1     -34.834  12.632  -4.770  1.00 20.00    -0.195 NA
HETATM   10 CL10 UNL     1     -33.977  15.743  -6.280  1.00 20.00    -0.102 Cl
ENDROOT
TORSDOF 0
ENDMDL
MODEL 2
REMARK VINA RESULT:      -4.6      1.794      2.248
REMARK  0 active torsions:
REMARK  status: ('A' for Active; 'I' for Inactive)
ROOT
HETATM    1  C1  UNL     1     -37.193  14.555  -4.081  1.00 20.00     0.086 C 
HETATM    2  C2  UNL     1     -32.959  15.424  -4.038  1.00 20.00     0.005 C 
HETATM    3  C3  UNL     1     -33.900  16.510  -4.579  1.00 20.00     0.008 C 
HETATM    4  C4  UNL     1     -34.805  15.688  -2.559  1.00 20.00     0.012 C 
HETATM    5  C5  UNL     1     -34.829  13.756  -3.973  1.00 20.00     0.046 C 
HETATM    6  C6  UNL     1     -33.873  14.608  -3.110  1.00 20.00    -0.011 C 
HETATM    7  C7  UNL     1     -35.261  16.133  -3.957  1.00 20.00     0.024 C 
HETATM    8  C8  UNL     1     -35.815  14.804  -4.538  1.00 20.00     0.129 C 
HETATM    9  N9  UNL     1     -38.278  14.359  -3.721  1.00 20.00    -0.195 NA
HETATM   10 CL10 UNL     1     -35.875  14.774  -6.318  1.00 20.00    -0.102 Cl
ENDROOT
TORSDOF 0
ENDMDL
MODEL 3
REMARK VINA RESULT:      -4.6      2.041      2.796
REMARK  0 active torsions:
REMARK  status: ('A' for Active; 'I' for Inactive)
ROOT
HETATM    1  C1  UNL     1     -37.299  14.912  -3.812  1.00 20.00     0.086 C 
HETATM    2  C2  UNL     1     -33.091  15.822  -4.196  1.00 20.00     0.005 C 
HETATM    3  C3  UNL     1     -33.744  16.053  -2.826  1.00 20.00     0.008 C 
HETATM    4  C4  UNL     1     -34.417  13.933  -3.617  1.00 20.00     0.012 C 
HETATM    5  C5  UNL     1     -35.327  15.421  -5.257  1.00 20.00     0.046 C 
HETATM    6  C6  UNL     1     -33.998  14.757  -4.834  1.00 20.00    -0.011 C 
HETATM    7  C7  UNL     1     -34.995  15.151  -2.879  1.00 20.00     0.024 C 
HETATM    8  C8  UNL     1     -36.037  15.667  -3.907  1.00 20.00     0.129 C 
HETATM    9  N9  UNL     1     -38.292  14.318  -3.737  1.00 20.00    -0.195 NA
HETATM   10 CL10 UNL     1     -36.473  17.380  -3.682  1.00 20.00    -0.102 Cl
ENDROOT
TORSDOF 0
ENDMDL
MODEL 4
REMARK VINA RESULT:      -4.5      2.224      3.468
REMARK  0 active torsions:
REMARK  status: ('A' for Active; 'I' for Inactive)
ROOT
HETATM    1  C1  UNL     1     -34.460  15.877  -2.225  1.00 20.00     0.086 C 
HETATM    2  C2  UNL     1     -35.105  14.134  -6.127  1.00 20.00     0.005 C 
HETATM    3  C3  UNL     1     -34.640  13.199  -5.001  1.00 20.00     0.008 C 
HETATM    4  C4  UNL     1     -36.394  14.542  -4.169  1.00 20.00     0.012 C 
HETATM    5  C5  UNL     1     -34.702  16.152  -4.695  1.00 20.00     0.046 C 
HETATM    6  C6  UNL     1     -35.788  15.280  -5.363  1.00 20.00    -0.011 C 
HETATM    7  C7  UNL     1     -35.041  13.966  -3.723  1.00 20.00     0.024 C 
HETATM    8  C8  UNL     1     -34.202  15.259  -3.537  1.00 20.00     0.129 C 
HETATM    9  N9  UNL     1     -34.663  16.364  -1.192  1.00 20.00    -0.195 NA
HETATM   10 CL10 UNL     1     -32.444  14.986  -3.614  1.00 20.00    -0.102 Cl
ENDROOT
TORSDOF 0
ENDMDL
MODEL 5
REMARK VINA RESULT:      -4.5      1.555      2.022
REMARK  0 active torsions:
REMARK  status: ('A' for Active; 'I' for Inactive)
ROOT
HETATM    1  C1  UNL     1     -35.027  13.625  -4.466  1.00 20.00     0.086 C 
HETATM    2  C2  UNL     1     -34.163  17.610  -3.034  1.00 20.00     0.005 C 
HETATM    3  C3  UNL     1     -34.530  16.546  -1.990  1.00 20.00     0.008 C 
HETATM    4  C4  UNL     1     -32.942  15.614  -3.468  1.00 20.00     0.012 C 
HETATM    5  C5  UNL     1     -34.798  16.072  -4.909  1.00 20.00     0.046 C 
HETATM    6  C6  UNL     1     -33.617  16.773  -4.202  1.00 20.00    -0.011 C 
HETATM    7  C7  UNL     1     -34.226  15.221  -2.721  1.00 20.00     0.024 C 
HETATM    8  C8  UNL     1     -35.204  14.974  -3.901  1.00 20.00     0.129 C 
HETATM    9  N9  UNL     1     -34.887  12.563  -4.911  1.00 20.00    -0.195 NA
HETATM   10 CL10 UNL     1     -36.921  15.091  -3.441  1.00 20.00    -0.102 Cl
ENDROOT
TORSDOF 0
ENDMDL
MODEL 6
REMARK VINA RESULT:      -4.5      2.249      3.453
REMARK  0 active torsions:
REMARK  status: ('A' for Active; 'I' for Inactive)
ROOT
HETATM    1  C1  UNL     1     -34.805  16.169  -2.042  1.00 20.00     0.086 C 
HETATM    2  C2  UNL     1     -35.089  14.042  -5.793  1.00 20.00     0.005 C 
HETATM    3  C3  UNL     1     -34.046  15.164  -5.692  1.00 20.00     0.008 C 
HETATM    4  C4  UNL     1     -33.879  13.823  -3.756  1.00 20.00     0.012 C 
HETATM    5  C5  UNL     1     -36.099  14.704  -3.596  1.00 20.00     0.046 C 
HETATM    6  C6  UNL     1     -35.282  13.617  -4.328  1.00 20.00    -0.011 C 
HETATM    7  C7  UNL     1     -33.829  15.302  -4.171  1.00 20.00     0.024 C 
HETATM    8  C8  UNL     1     -35.088  15.864  -3.455  1.00 20.00     0.129 C 
HETATM    9  N9  UNL     1     -34.583  16.410  -0.929  1.00 20.00    -0.195 NA
HETATM   10 CL10 UNL     1     -35.699  17.376  -4.171  1.00 20.00    -0.102 Cl
ENDROOT
TORSDOF 0
ENDMDL
MODEL 7
REMARK VINA RESULT:      -4.4      1.848      2.591
REMARK  0 active torsions:
REMARK  status: ('A' for Active; 'I' for Inactive)
ROOT
HETATM    1  C1  UNL     1     -36.513  15.107  -6.056  1.00 20.00     0.086 C 
HETATM    2  C2  UNL     1     -32.994  14.326  -3.671  1.00 20.00     0.005 C 
HETATM    3  C3  UNL     1     -33.185  15.753  -4.207  1.00 20.00     0.008 C 
HETATM    4  C4  UNL     1     -35.236  15.027  -3.288  1.00 20.00     0.012 C 
HETATM    5  C5  UNL     1     -34.886  13.482  -5.083  1.00 20.00     0.046 C 
HETATM    6  C6  UNL     1     -34.429  13.776  -3.637  1.00 20.00    -0.011 C 
HETATM    7  C7  UNL     1     -34.700  15.818  -4.493  1.00 20.00     0.024 C 
HETATM    8  C8  UNL     1     -35.107  14.893  -5.672  1.00 20.00     0.129 C 
HETATM    9  N9  UNL     1     -37.620  15.276  -6.359  1.00 20.00    -0.195 NA
HETATM   10 CL10 UNL     1     -34.149  15.159  -7.150  1.00 20.00    -0.102 Cl
ENDROOT
TORSDOF 0
ENDMDL
MODEL 8
REMARK VINA RESULT:      -4.4      2.218      3.325
REMARK  0 active torsions:
REMARK  status: ('A' for Active; 'I' for Inactive)
ROOT
HETATM    1  C1  UNL     1     -33.804  17.372  -5.094  1.00 20.00     0.086 C 
HETATM    2  C2  UNL     1     -35.475  13.524  -4.057  1.00 20.00     0.005 C 
HETATM    3  C3  UNL     1     -33.985  13.573  -4.425  1.00 20.00     0.008 C 
HETATM    4  C4  UNL     1     -34.433  15.333  -2.915  1.00 20.00     0.012 C 
HETATM    5  C5  UNL     1     -35.797  15.897  -4.801  1.00 20.00     0.046 C 
HETATM    6  C6  UNL     1     -35.759  14.956  -3.576  1.00 20.00    -0.011 C 
HETATM    7  C7  UNL     1     -33.617  15.053  -4.188  1.00 20.00     0.024 C 
HETATM    8  C8  UNL     1     -34.310  15.994  -5.210  1.00 20.00     0.129 C 
HETATM    9  N9  UNL     1     -33.405  18.458  -5.002  1.00 20.00    -0.195 NA
HETATM   10 CL10 UNL     1     -34.050  15.518  -6.907  1.00 20.00    -0.102 Cl
ENDROOT
TORSDOF 0
ENDMDL
MODEL 9
REMARK VINA RESULT:      -4.3      1.671      2.015
REMARK  0 active torsions:
REMARK  status: ('A' for Active; 'I' for Inactive)
ROOT
HETATM    1  C1  UNL     1     -35.175  14.893  -6.352  1.00 20.00     0.086 C 
HETATM    2  C2  UNL     1     -33.795  16.154  -2.454  1.00 20.00     0.005 C 
HETATM    3  C3  UNL     1     -35.270  15.749  -2.587  1.00 20.00     0.008 C 
HETATM    4  C4  UNL     1     -33.955  14.112  -3.667  1.00 20.00     0.012 C 
HETATM    5  C5  UNL     1     -33.493  16.085  -4.943  1.00 20.00     0.046 C 
HETATM    6  C6  UNL     1     -33.125  15.394  -3.611  1.00 20.00    -0.011 C 
HETATM    7  C7  UNL     1     -35.278  14.872  -3.857  1.00 20.00     0.024 C 
HETATM    8  C8  UNL     1     -34.977  15.699  -5.135  1.00 20.00     0.129 C 
HETATM    9  N9  UNL     1     -35.331  14.258  -7.310  1.00 20.00    -0.195 NA
HETATM   10 CL10 UNL     1     -36.022  17.131  -5.320  1.00 20.00    -0.102 Cl
ENDROOT
TORSDOF 0
ENDMDL
