MODEL 1
REMARK VINA RESULT:      -4.8      0.000      0.000
REMARK  1 active torsions:
REMARK  status: ('A' for Active; 'I' for Inactive)
REMARK    1  A    between atoms: C8_8  and  C9_9 
ROOT
HETATM    1  C1  UNL     1     -32.112   7.671   2.482  1.00 20.00     0.059 C 
HETATM    2  C9  UNL     1     -32.242   6.549   3.404  1.00 20.00     0.129 C 
HETATM    3  N10 UNL     1     -31.982   8.566   1.754  1.00 20.00    -0.197 NA
ENDROOT
BRANCH   2   4
HETATM    4  C8  UNL     1     -33.688   6.103   3.258  1.00 20.00     0.003 C 
HETATM    5  C5  UNL     1     -33.869   4.572   3.312  1.00 20.00     0.010 C 
HETATM    6  C6  UNL     1     -34.972   4.394   4.372  1.00 20.00    -0.014 C 
HETATM    7  C2  UNL     1     -34.369   4.668   5.761  1.00 20.00     0.005 C 
HETATM    8  C4  UNL     1     -35.835   5.637   4.154  1.00 20.00     0.009 C 
HETATM    9  C3  UNL     1     -34.185   6.192   5.762  1.00 20.00     0.005 C 
HETATM   10  C7  UNL     1     -34.659   6.599   4.356  1.00 20.00    -0.009 C 
ENDBRANCH   2   4
TORSDOF 1
ENDMDL
MODEL 2
REMARK VINA RESULT:      -4.5     11.339     12.220
REMARK  1 active torsions:
REMARK  status: ('A' for Active; 'I' for Inactive)
REMARK    1  A    between atoms: C8_8  and  C9_9 
ROOT
HETATM    1  C1  UNL     1     -34.394  16.673  -1.197  1.00 20.00     0.059 C 
HETATM    2  C9  UNL     1     -33.882  16.366  -2.527  1.00 20.00     0.129 C 
HETATM    3  N10 UNL     1     -34.789  16.940  -0.138  1.00 20.00    -0.197 NA
ENDROOT
BRANCH   2   4
HETATM    4  C8  UNL     1     -34.530  15.039  -2.888  1.00 20.00     0.003 C 
HETATM    5  C5  UNL     1     -36.032  15.157  -3.219  1.00 20.00     0.010 C 
HETATM    6  C6  UNL     1     -36.142  14.434  -4.574  1.00 20.00    -0.014 C 
HETATM    7  C2  UNL     1     -35.530  15.332  -5.663  1.00 20.00     0.005 C 
HETATM    8  C4  UNL     1     -35.086  13.337  -4.444  1.00 20.00     0.009 C 
HETATM    9  C3  UNL     1     -34.024  15.235  -5.384  1.00 20.00     0.005 C 
HETATM   10  C7  UNL     1     -33.961  14.331  -4.140  1.00 20.00    -0.009 C 
ENDBRANCH   2   4
TORSDOF 1
ENDMDL
MODEL 3
REMARK VINA RESULT:      -4.5     11.263     12.571
REMARK  1 active torsions:
REMARK  status: ('A' for Active; 'I' for Inactive)
REMARK    1  A    between atoms: C8_8  and  C9_9 
ROOT
HETATM    1  C1  UNL     1     -35.079  13.661  -4.122  1.00 20.00     0.059 C 
HETATM    2  C9  UNL     1     -35.703  14.797  -3.454  1.00 20.00     0.129 C 
HETATM    3  N10 UNL     1     -34.607  12.749  -4.664  1.00 20.00    -0.197 NA
ENDROOT
BRANCH   2   4
HETATM    4  C8  UNL     1     -34.560  15.482  -2.723  1.00 20.00     0.003 C 
HETATM    5  C5  UNL     1     -33.730  16.424  -3.619  1.00 20.00     0.010 C 
HETATM    6  C6  UNL     1     -33.703  17.734  -2.809  1.00 20.00    -0.014 C 
HETATM    7  C2  UNL     1     -35.091  18.393  -2.894  1.00 20.00     0.005 C 
HETATM    8  C4  UNL     1     -33.687  17.224  -1.368  1.00 20.00     0.009 C 
HETATM    9  C3  UNL     1     -35.955  17.494  -1.998  1.00 20.00     0.005 C 
HETATM   10  C7  UNL     1     -34.968  16.403  -1.548  1.00 20.00    -0.009 C 
ENDBRANCH   2   4
TORSDOF 1
ENDMDL
MODEL 4
REMARK VINA RESULT:      -4.4      8.910     10.186
REMARK  1 active torsions:
REMARK  status: ('A' for Active; 'I' for Inactive)
REMARK    1  A    between atoms: C8_8  and  C9_9 
ROOT
HETATM    1  C1  UNL     1     -42.539   7.980  -3.809  1.00 20.00     0.059 C 
HETATM    2  C9  UNL     1     -43.003   7.176  -2.685  1.00 20.00     0.129 C 
HETATM    3  N10 UNL     1     -42.195   8.630  -4.707  1.00 20.00    -0.197 NA
ENDROOT
BRANCH   2   4
HETATM    4  C8  UNL     1     -41.758   6.458  -2.191  1.00 20.00     0.003 C 
HETATM    5  C5  UNL     1     -41.166   7.065  -0.902  1.00 20.00     0.010 C 
HETATM    6  C6  UNL     1     -41.017   5.838   0.018  1.00 20.00    -0.014 C 
HETATM    7  C2  UNL     1     -42.414   5.416   0.505  1.00 20.00     0.005 C 
HETATM    8  C4  UNL     1     -40.684   4.726  -0.976  1.00 20.00     0.009 C 
HETATM    9  C3  UNL     1     -43.041   4.787  -0.747  1.00 20.00     0.005 C 
HETATM   10  C7  UNL     1     -41.945   4.970  -1.811  1.00 20.00    -0.009 C 
ENDBRANCH   2   4
TORSDOF 1
ENDMDL
MODEL 5
REMARK VINA RESULT:      -4.4      8.785     10.199
REMARK  1 active torsions:
REMARK  status: ('A' for Active; 'I' for Inactive)
REMARK    1  A    between atoms: C8_8  and  C9_9 
ROOT
HETATM    1  C1  UNL     1     -41.751   2.678  -3.051  1.00 20.00     0.059 C 
HETATM    2  C9  UNL     1     -42.495   3.519  -2.122  1.00 20.00     0.129 C 
HETATM    3  N10 UNL     1     -41.180   1.993  -3.795  1.00 20.00    -0.197 NA
ENDROOT
BRANCH   2   4
HETATM    4  C8  UNL     1     -41.498   4.582  -1.689  1.00 20.00     0.003 C 
HETATM    5  C5  UNL     1     -41.847   5.997  -2.195  1.00 20.00     0.010 C 
HETATM    6  C6  UNL     1     -41.784   6.846  -0.911  1.00 20.00    -0.014 C 
HETATM    7  C2  UNL     1     -43.020   6.528  -0.050  1.00 20.00     0.005 C 
HETATM    8  C4  UNL     1     -40.669   6.160  -0.123  1.00 20.00     0.009 C 
HETATM    9  C3  UNL     1     -42.710   5.126   0.492  1.00 20.00     0.005 C 
HETATM   10  C7  UNL     1     -41.358   4.793  -0.162  1.00 20.00    -0.009 C 
ENDBRANCH   2   4
TORSDOF 1
ENDMDL
MODEL 6
REMARK VINA RESULT:      -4.4     11.254     12.307
REMARK  1 active torsions:
REMARK  status: ('A' for Active; 'I' for Inactive)
REMARK    1  A    between atoms: C8_8  and  C9_9 
ROOT
HETATM    1  C1  UNL     1     -34.864  17.024  -0.905  1.00 20.00     0.059 C 
HETATM    2  C9  UNL     1     -34.940  16.916  -2.357  1.00 20.00     0.129 C 
HETATM    3  N10 UNL     1     -34.811  17.137   0.249  1.00 20.00    -0.197 NA
ENDROOT
BRANCH   2   4
HETATM    4  C8  UNL     1     -34.586  15.467  -2.650  1.00 20.00     0.003 C 
HETATM    5  C5  UNL     1     -35.614  14.750  -3.549  1.00 20.00     0.010 C 
HETATM    6  C6  UNL     1     -34.735  14.139  -4.656  1.00 20.00    -0.014 C 
HETATM    7  C2  UNL     1     -34.263  15.268  -5.590  1.00 20.00     0.005 C 
HETATM    8  C4  UNL     1     -33.450  13.801  -3.900  1.00 20.00     0.009 C 
HETATM    9  C3  UNL     1     -33.219  16.005  -4.739  1.00 20.00     0.005 C 
HETATM   10  C7  UNL     1     -33.255  15.238  -3.406  1.00 20.00    -0.009 C 
ENDBRANCH   2   4
TORSDOF 1
ENDMDL
MODEL 7
REMARK VINA RESULT:      -4.4     11.465     12.637
REMARK  1 active torsions:
REMARK  status: ('A' for Active; 'I' for Inactive)
REMARK    1  A    between atoms: C8_8  and  C9_9 
ROOT
HETATM    1  C1  UNL     1     -37.648  14.972  -4.288  1.00 20.00     0.059 C 
HETATM    2  C9  UNL     1     -36.637  15.867  -4.838  1.00 20.00     0.129 C 
HETATM    3  N10 UNL     1     -38.472  14.279  -3.854  1.00 20.00    -0.197 NA
ENDROOT
BRANCH   2   4
HETATM    4  C8  UNL     1     -35.356  15.048  -4.822  1.00 20.00     0.003 C 
HETATM    5  C5  UNL     1     -34.117  15.833  -5.302  1.00 20.00     0.010 C 
HETATM    6  C6  UNL     1     -33.099  15.591  -4.171  1.00 20.00    -0.014 C 
HETATM    7  C2  UNL     1     -33.517  16.423  -2.946  1.00 20.00     0.005 C 
HETATM    8  C4  UNL     1     -33.446  14.173  -3.720  1.00 20.00     0.009 C 
HETATM    9  C3  UNL     1     -34.746  15.667  -2.420  1.00 20.00     0.005 C 
HETATM   10  C7  UNL     1     -34.909  14.524  -3.437  1.00 20.00    -0.009 C 
ENDBRANCH   2   4
TORSDOF 1
ENDMDL
MODEL 8
REMARK VINA RESULT:      -4.3     11.476     12.664
REMARK  1 active torsions:
REMARK  status: ('A' for Active; 'I' for Inactive)
REMARK    1  A    between atoms: C8_8  and  C9_9 
ROOT
HETATM    1  C1  UNL     1     -37.621  14.640  -3.881  1.00 20.00     0.059 C 
HETATM    2  C9  UNL     1     -36.335  14.343  -4.500  1.00 20.00     0.129 C 
HETATM    3  N10 UNL     1     -38.658  14.867  -3.410  1.00 20.00    -0.197 NA
ENDROOT
BRANCH   2   4
HETATM    4  C8  UNL     1     -35.309  14.718  -3.443  1.00 20.00     0.003 C 
HETATM    5  C5  UNL     1     -33.902  14.151  -3.721  1.00 20.00     0.010 C 
HETATM    6  C6  UNL     1     -33.000  15.394  -3.598  1.00 20.00    -0.014 C 
HETATM    7  C2  UNL     1     -33.211  16.280  -4.839  1.00 20.00     0.005 C 
HETATM    8  C4  UNL     1     -33.709  16.203  -2.512  1.00 20.00     0.009 C 
HETATM    9  C3  UNL     1     -34.602  16.883  -4.599  1.00 20.00     0.005 C 
HETATM   10  C7  UNL     1     -35.037  16.232  -3.274  1.00 20.00    -0.009 C 
ENDBRANCH   2   4
TORSDOF 1
ENDMDL
MODEL 9
REMARK VINA RESULT:      -4.2     11.371     12.266
REMARK  1 active torsions:
REMARK  status: ('A' for Active; 'I' for Inactive)
REMARK    1  A    between atoms: C8_8  and  C9_9 
ROOT
HETATM    1  C1  UNL     1     -33.843  17.263  -1.084  1.00 20.00     0.059 C 
HETATM    2  C9  UNL     1     -34.651  16.189  -1.647  1.00 20.00     0.129 C 
HETATM    3  N10 UNL     1     -33.209  18.113  -0.610  1.00 20.00    -0.197 NA
ENDROOT
BRANCH   2   4
HETATM    4  C8  UNL     1     -34.277  16.164  -3.121  1.00 20.00     0.003 C 
HETATM    5  C5  UNL     1     -33.293  15.034  -3.488  1.00 20.00     0.010 C 
HETATM    6  C6  UNL     1     -33.985  14.353  -4.684  1.00 20.00    -0.014 C 
HETATM    7  C2  UNL     1     -35.185  13.542  -4.163  1.00 20.00     0.005 C 
HETATM    8  C4  UNL     1     -34.677  15.530  -5.371  1.00 20.00     0.009 C 
HETATM    9  C3  UNL     1     -36.203  14.631  -3.798  1.00 20.00     0.005 C 
HETATM   10  C7  UNL     1     -35.445  15.933  -4.109  1.00 20.00    -0.009 C 
ENDBRANCH   2   4
TORSDOF 1
ENDMDL
