MODEL 1
REMARK VINA RESULT:      -4.7      0.000      0.000
REMARK  1 active torsions:
REMARK  status: ('A' for Active; 'I' for Inactive)
REMARK    1  A    between atoms: C8_8  and  C9_9 
ROOT
HETATM    1  C1  UNL     1     -34.542  17.051  -0.775  1.00 20.00     0.059 C 
HETATM    2  C9  UNL     1     -34.012  16.981  -2.132  1.00 20.00     0.129 C 
HETATM    3  N10 UNL     1     -34.956  17.136   0.305  1.00 20.00    -0.197 NA
ENDROOT
BRANCH   2   4
HETATM    4  C8  UNL     1     -34.295  15.550  -2.573  1.00 20.00     0.003 C 
HETATM    5  C5  UNL     1     -35.685  15.403  -3.227  1.00 20.00     0.010 C 
HETATM    6  C6  UNL     1     -35.361  14.792  -4.603  1.00 20.00    -0.014 C 
HETATM    7  C2  UNL     1     -34.868  13.348  -4.410  1.00 20.00     0.005 C 
HETATM    8  C4  UNL     1     -34.070  15.519  -4.969  1.00 20.00     0.009 C 
HETATM    9  C3  UNL     1     -33.466  13.539  -3.811  1.00 20.00     0.005 C 
HETATM   10  C7  UNL     1     -33.346  15.070  -3.698  1.00 20.00    -0.009 C 
ENDBRANCH   2   4
TORSDOF 1
ENDMDL
MODEL 2
REMARK VINA RESULT:      -4.6     11.917     12.918
REMARK  1 active torsions:
REMARK  status: ('A' for Active; 'I' for Inactive)
REMARK    1  A    between atoms: C8_8  and  C9_9 
ROOT
HETATM    1  C1  UNL     1     -32.563   6.843   2.941  1.00 20.00     0.059 C 
HETATM    2  C9  UNL     1     -33.584   5.808   2.824  1.00 20.00     0.129 C 
HETATM    3  N10 UNL     1     -31.741   7.659   3.006  1.00 20.00    -0.197 NA
ENDROOT
BRANCH   2   4
HETATM    4  C8  UNL     1     -34.378   5.915   4.121  1.00 20.00     0.003 C 
HETATM    5  C5  UNL     1     -35.425   4.789   4.260  1.00 20.00     0.010 C 
HETATM    6  C6  UNL     1     -35.063   4.140   5.608  1.00 20.00    -0.014 C 
HETATM    7  C2  UNL     1     -35.392   5.121   6.746  1.00 20.00     0.005 C 
HETATM    8  C4  UNL     1     -33.537   4.194   5.578  1.00 20.00     0.009 C 
HETATM    9  C3  UNL     1     -34.298   6.191   6.607  1.00 20.00     0.005 C 
HETATM   10  C7  UNL     1     -33.501   5.711   5.380  1.00 20.00    -0.009 C 
ENDBRANCH   2   4
TORSDOF 1
ENDMDL
MODEL 3
REMARK VINA RESULT:      -4.6      2.331      4.142
REMARK  1 active torsions:
REMARK  status: ('A' for Active; 'I' for Inactive)
REMARK    1  A    between atoms: C8_8  and  C9_9 
ROOT
HETATM    1  C1  UNL     1     -35.206  13.718  -4.146  1.00 20.00     0.059 C 
HETATM    2  C9  UNL     1     -35.896  14.892  -3.625  1.00 20.00     0.129 C 
HETATM    3  N10 UNL     1     -34.682  12.778  -4.580  1.00 20.00    -0.197 NA
ENDROOT
BRANCH   2   4
HETATM    4  C8  UNL     1     -34.927  15.473  -2.601  1.00 20.00     0.003 C 
HETATM    5  C5  UNL     1     -33.722  16.172  -3.266  1.00 20.00     0.010 C 
HETATM    6  C6  UNL     1     -33.768  17.590  -2.668  1.00 20.00    -0.014 C 
HETATM    7  C2  UNL     1     -33.402  17.521  -1.176  1.00 20.00     0.005 C 
HETATM    8  C4  UNL     1     -35.270  17.855  -2.613  1.00 20.00     0.009 C 
HETATM    9  C3  UNL     1     -34.645  16.873  -0.545  1.00 20.00     0.005 C 
HETATM   10  C7  UNL     1     -35.552  16.614  -1.763  1.00 20.00    -0.009 C 
ENDBRANCH   2   4
TORSDOF 1
ENDMDL
MODEL 4
REMARK VINA RESULT:      -4.3      2.246      3.367
REMARK  1 active torsions:
REMARK  status: ('A' for Active; 'I' for Inactive)
REMARK    1  A    between atoms: C8_8  and  C9_9 
ROOT
HETATM    1  C1  UNL     1     -37.649  15.065  -4.245  1.00 20.00     0.059 C 
HETATM    2  C9  UNL     1     -36.752  16.104  -4.738  1.00 20.00     0.129 C 
HETATM    3  N10 UNL     1     -38.385  14.257  -3.857  1.00 20.00    -0.197 NA
ENDROOT
BRANCH   2   4
HETATM    4  C8  UNL     1     -35.375  15.452  -4.721  1.00 20.00     0.003 C 
HETATM    5  C5  UNL     1     -34.234  16.491  -4.736  1.00 20.00     0.010 C 
HETATM    6  C6  UNL     1     -33.413  16.126  -3.486  1.00 20.00    -0.014 C 
HETATM    7  C2  UNL     1     -32.712  14.777  -3.718  1.00 20.00     0.005 C 
HETATM    8  C4  UNL     1     -34.509  15.745  -2.494  1.00 20.00     0.009 C 
HETATM    9  C3  UNL     1     -33.869  13.769  -3.641  1.00 20.00     0.005 C 
HETATM   10  C7  UNL     1     -35.096  14.671  -3.413  1.00 20.00    -0.009 C 
ENDBRANCH   2   4
TORSDOF 1
ENDMDL
MODEL 5
REMARK VINA RESULT:      -4.3     12.036     13.606
REMARK  1 active torsions:
REMARK  status: ('A' for Active; 'I' for Inactive)
REMARK    1  A    between atoms: C8_8  and  C9_9 
ROOT
HETATM    1  C1  UNL     1     -41.774   2.516  -3.162  1.00 20.00     0.059 C 
HETATM    2  C9  UNL     1     -42.585   3.281  -2.223  1.00 20.00     0.129 C 
HETATM    3  N10 UNL     1     -41.151   1.886  -3.911  1.00 20.00    -0.197 NA
ENDROOT
BRANCH   2   4
HETATM    4  C8  UNL     1     -41.758   4.531  -1.943  1.00 20.00     0.003 C 
HETATM    5  C5  UNL     1     -42.362   5.791  -2.598  1.00 20.00     0.010 C 
HETATM    6  C6  UNL     1     -42.537   6.753  -1.409  1.00 20.00    -0.014 C 
HETATM    7  C2  UNL     1     -41.151   7.200  -0.913  1.00 20.00     0.005 C 
HETATM    8  C4  UNL     1     -42.976   5.800  -0.300  1.00 20.00     0.009 C 
HETATM    9  C3  UNL     1     -40.609   5.938  -0.221  1.00 20.00     0.005 C 
HETATM   10  C7  UNL     1     -41.737   4.913  -0.443  1.00 20.00    -0.009 C 
ENDBRANCH   2   4
TORSDOF 1
ENDMDL
MODEL 6
REMARK VINA RESULT:      -4.3     11.235     12.398
REMARK  1 active torsions:
REMARK  status: ('A' for Active; 'I' for Inactive)
REMARK    1  A    between atoms: C8_8  and  C9_9 
ROOT
HETATM    1  C1  UNL     1     -43.149   7.963  -3.864  1.00 20.00     0.059 C 
HETATM    2  C9  UNL     1     -42.866   7.966  -2.433  1.00 20.00     0.129 C 
HETATM    3  N10 UNL     1     -43.392   7.985  -4.998  1.00 20.00    -0.197 NA
ENDROOT
BRANCH   2   4
HETATM    4  C8  UNL     1     -41.904   6.799  -2.238  1.00 20.00     0.003 C 
HETATM    5  C5  UNL     1     -40.964   7.012  -1.032  1.00 20.00     0.010 C 
HETATM    6  C6  UNL     1     -41.211   5.760  -0.172  1.00 20.00    -0.014 C 
HETATM    7  C2  UNL     1     -40.642   4.528  -0.896  1.00 20.00     0.005 C 
HETATM    8  C4  UNL     1     -42.715   5.558  -0.342  1.00 20.00     0.009 C 
HETATM    9  C3  UNL     1     -41.634   4.318  -2.052  1.00 20.00     0.005 C 
HETATM   10  C7  UNL     1     -42.626   5.482  -1.868  1.00 20.00    -0.009 C 
ENDBRANCH   2   4
TORSDOF 1
ENDMDL
MODEL 7
REMARK VINA RESULT:      -4.2      2.368      4.036
REMARK  1 active torsions:
REMARK  status: ('A' for Active; 'I' for Inactive)
REMARK    1  A    between atoms: C8_8  and  C9_9 
ROOT
HETATM    1  C1  UNL     1     -34.132  13.657  -4.244  1.00 20.00     0.059 C 
HETATM    2  C9  UNL     1     -33.321  14.783  -3.798  1.00 20.00     0.129 C 
HETATM    3  N10 UNL     1     -34.752  12.743  -4.600  1.00 20.00    -0.197 NA
ENDROOT
BRANCH   2   4
HETATM    4  C8  UNL     1     -34.327  15.906  -3.572  1.00 20.00     0.003 C 
HETATM    5  C5  UNL     1     -35.329  15.576  -2.445  1.00 20.00     0.010 C 
HETATM    6  C6  UNL     1     -35.169  16.764  -1.478  1.00 20.00    -0.014 C 
HETATM    7  C2  UNL     1     -35.733  18.033  -2.140  1.00 20.00     0.005 C 
HETATM    8  C4  UNL     1     -33.665  17.016  -1.543  1.00 20.00     0.009 C 
HETATM    9  C3  UNL     1     -34.683  18.357  -3.214  1.00 20.00     0.005 C 
HETATM   10  C7  UNL     1     -33.667  17.209  -3.061  1.00 20.00    -0.009 C 
ENDBRANCH   2   4
TORSDOF 1
ENDMDL
MODEL 8
REMARK VINA RESULT:      -4.2      2.510      3.257
REMARK  1 active torsions:
REMARK  status: ('A' for Active; 'I' for Inactive)
REMARK    1  A    between atoms: C8_8  and  C9_9 
ROOT
HETATM    1  C1  UNL     1     -38.106  14.993  -4.136  1.00 20.00     0.059 C 
HETATM    2  C9  UNL     1     -36.992  15.841  -4.541  1.00 20.00     0.129 C 
HETATM    3  N10 UNL     1     -39.012  14.336  -3.830  1.00 20.00    -0.197 NA
ENDROOT
BRANCH   2   4
HETATM    4  C8  UNL     1     -35.774  15.199  -3.885  1.00 20.00     0.003 C 
HETATM    5  C5  UNL     1     -35.680  13.686  -4.177  1.00 20.00     0.010 C 
HETATM    6  C6  UNL     1     -34.281  13.538  -4.802  1.00 20.00    -0.014 C 
HETATM    7  C2  UNL     1     -33.216  13.791  -3.721  1.00 20.00     0.005 C 
HETATM    8  C4  UNL     1     -34.181  14.806  -5.646  1.00 20.00     0.009 C 
HETATM    9  C3  UNL     1     -33.303  15.310  -3.500  1.00 20.00     0.005 C 
HETATM   10  C7  UNL     1     -34.436  15.731  -4.454  1.00 20.00    -0.009 C 
ENDBRANCH   2   4
TORSDOF 1
ENDMDL
MODEL 9
REMARK VINA RESULT:      -4.2      2.738      3.345
REMARK  1 active torsions:
REMARK  status: ('A' for Active; 'I' for Inactive)
REMARK    1  A    between atoms: C8_8  and  C9_9 
ROOT
HETATM    1  C1  UNL     1     -33.606  18.220  -5.512  1.00 20.00     0.059 C 
HETATM    2  C9  UNL     1     -33.578  17.436  -4.283  1.00 20.00     0.129 C 
HETATM    3  N10 UNL     1     -33.627  18.870  -6.472  1.00 20.00    -0.197 NA
ENDROOT
BRANCH   2   4
HETATM    4  C8  UNL     1     -33.621  15.988  -4.760  1.00 20.00     0.003 C 
HETATM    5  C5  UNL     1     -33.098  15.004  -3.692  1.00 20.00     0.010 C 
HETATM    6  C6  UNL     1     -34.270  14.021  -3.520  1.00 20.00    -0.014 C 
HETATM    7  C2  UNL     1     -34.409  13.173  -4.795  1.00 20.00     0.005 C 
HETATM    8  C4  UNL     1     -35.475  14.953  -3.628  1.00 20.00     0.009 C 
HETATM    9  C3  UNL     1     -34.982  14.171  -5.813  1.00 20.00     0.005 C 
HETATM   10  C7  UNL     1     -35.062  15.480  -5.004  1.00 20.00    -0.009 C 
ENDBRANCH   2   4
TORSDOF 1
ENDMDL
