MODEL 1
REMARK VINA RESULT:      -3.3      0.000      0.000
REMARK  1 active torsions:
REMARK  status: ('A' for Active; 'I' for Inactive)
REMARK    1  A    between atoms: C2_2  and  C3_3 
ROOT
HETATM    1  C3  UNL     1     -34.150  15.215  -3.546  1.00 20.00     0.216 C 
HETATM    2 CL5  UNL     1     -34.152  16.572  -4.726  1.00 20.00    -0.081 Cl
HETATM    3 CL6  UNL     1     -34.554  15.884  -1.926  1.00 20.00    -0.081 Cl
HETATM    4 CL7  UNL     1     -32.483  14.543  -3.471  1.00 20.00    -0.081 Cl
ENDROOT
BRANCH   1   5
HETATM    5  C2  UNL     1     -35.125  14.167  -3.943  1.00 20.00     0.199 A 
HETATM    6  C1  UNL     1     -34.946  13.376  -5.209  1.00 20.00     0.204 A 
HETATM    7  O4  UNL     1     -34.606  12.833  -3.923  1.00 20.00    -0.377 OA
ENDBRANCH   1   5
TORSDOF 1
ENDMDL
MODEL 2
REMARK VINA RESULT:      -3.3      0.140      1.884
REMARK  1 active torsions:
REMARK  status: ('A' for Active; 'I' for Inactive)
REMARK    1  A    between atoms: C2_2  and  C3_3 
ROOT
HETATM    1  C3  UNL     1     -34.109  15.175  -3.628  1.00 20.00     0.216 C 
HETATM    2 CL5  UNL     1     -34.531  15.868  -2.024  1.00 20.00    -0.081 Cl
HETATM    3 CL6  UNL     1     -32.496  14.391  -3.491  1.00 20.00    -0.081 Cl
HETATM    4 CL7  UNL     1     -33.972  16.530  -4.803  1.00 20.00    -0.081 Cl
ENDROOT
BRANCH   1   5
HETATM    5  C2  UNL     1     -35.138  14.196  -4.068  1.00 20.00     0.199 A 
HETATM    6  C1  UNL     1     -34.958  13.389  -5.323  1.00 20.00     0.204 A 
HETATM    7  O4  UNL     1     -34.716  12.829  -4.023  1.00 20.00    -0.377 OA
ENDBRANCH   1   5
TORSDOF 1
ENDMDL
MODEL 3
REMARK VINA RESULT:      -3.3      0.210      1.955
REMARK  1 active torsions:
REMARK  status: ('A' for Active; 'I' for Inactive)
REMARK    1  A    between atoms: C2_2  and  C3_3 
ROOT
HETATM    1  C3  UNL     1     -34.074  15.148  -3.648  1.00 20.00     0.216 C 
HETATM    2 CL5  UNL     1     -32.500  14.298  -3.467  1.00 20.00    -0.081 Cl
HETATM    3 CL6  UNL     1     -33.854  16.482  -4.834  1.00 20.00    -0.081 Cl
HETATM    4 CL7  UNL     1     -34.498  15.879  -2.060  1.00 20.00    -0.081 Cl
ENDROOT
BRANCH   1   5
HETATM    5  C2  UNL     1     -35.134  14.209  -4.097  1.00 20.00     0.199 A 
HETATM    6  C1  UNL     1     -34.984  13.415  -5.364  1.00 20.00     0.204 A 
HETATM    7  O4  UNL     1     -34.755  12.829  -4.073  1.00 20.00    -0.377 OA
ENDBRANCH   1   5
TORSDOF 1
ENDMDL
MODEL 4
REMARK VINA RESULT:      -3.1      2.155      3.157
REMARK  1 active torsions:
REMARK  status: ('A' for Active; 'I' for Inactive)
REMARK    1  A    between atoms: C2_2  and  C3_3 
ROOT
HETATM    1  C3  UNL     1     -35.162  14.696  -5.841  1.00 20.00     0.216 C 
HETATM    2 CL5  UNL     1     -34.267  16.255  -5.797  1.00 20.00    -0.081 Cl
HETATM    3 CL6  UNL     1     -35.454  14.269  -7.564  1.00 20.00    -0.081 Cl
HETATM    4 CL7  UNL     1     -36.759  14.948  -5.052  1.00 20.00    -0.081 Cl
ENDROOT
BRANCH   1   5
HETATM    5  C2  UNL     1     -34.395  13.626  -5.153  1.00 20.00     0.199 A 
HETATM    6  C1  UNL     1     -34.198  13.645  -3.663  1.00 20.00     0.204 A 
HETATM    7  O4  UNL     1     -35.177  12.798  -4.286  1.00 20.00    -0.377 OA
ENDBRANCH   1   5
TORSDOF 1
ENDMDL
MODEL 5
REMARK VINA RESULT:      -3.1      2.117      2.966
REMARK  1 active torsions:
REMARK  status: ('A' for Active; 'I' for Inactive)
REMARK    1  A    between atoms: C2_2  and  C3_3 
ROOT
HETATM    1  C3  UNL     1     -35.066  14.654  -5.834  1.00 20.00     0.216 C 
HETATM    2 CL5  UNL     1     -36.623  15.034  -5.018  1.00 20.00    -0.081 Cl
HETATM    3 CL6  UNL     1     -34.039  16.130  -5.793  1.00 20.00    -0.081 Cl
HETATM    4 CL7  UNL     1     -35.418  14.269  -7.556  1.00 20.00    -0.081 Cl
ENDROOT
BRANCH   1   5
HETATM    5  C2  UNL     1     -34.384  13.515  -5.167  1.00 20.00     0.199 A 
HETATM    6  C1  UNL     1     -34.065  13.551  -3.699  1.00 20.00     0.204 A 
HETATM    7  O4  UNL     1     -35.188  12.817  -4.211  1.00 20.00    -0.377 OA
ENDBRANCH   1   5
TORSDOF 1
ENDMDL
MODEL 6
REMARK VINA RESULT:      -3.1     11.938     12.432
REMARK  1 active torsions:
REMARK  status: ('A' for Active; 'I' for Inactive)
REMARK    1  A    between atoms: C2_2  and  C3_3 
ROOT
HETATM    1  C3  UNL     1     -34.375   5.434   4.795  1.00 20.00     0.216 C 
HETATM    2 CL5  UNL     1     -35.875   5.757   3.858  1.00 20.00    -0.081 Cl
HETATM    3 CL6  UNL     1     -34.480   3.766   5.459  1.00 20.00    -0.081 Cl
HETATM    4 CL7  UNL     1     -34.324   6.582   6.179  1.00 20.00    -0.081 Cl
ENDROOT
BRANCH   1   5
HETATM    5  C2  UNL     1     -33.172   5.587   3.936  1.00 20.00     0.199 A 
HETATM    6  C1  UNL     1     -33.068   6.701   2.933  1.00 20.00     0.204 A 
HETATM    7  O4  UNL     1     -32.397   6.761   4.201  1.00 20.00    -0.377 OA
ENDBRANCH   1   5
TORSDOF 1
ENDMDL
MODEL 7
REMARK VINA RESULT:      -3.1     11.939     12.441
REMARK  1 active torsions:
REMARK  status: ('A' for Active; 'I' for Inactive)
REMARK    1  A    between atoms: C2_2  and  C3_3 
ROOT
HETATM    1  C3  UNL     1     -34.372   5.434   4.797  1.00 20.00     0.216 C 
HETATM    2 CL5  UNL     1     -34.323   6.584   6.179  1.00 20.00    -0.081 Cl
HETATM    3 CL6  UNL     1     -35.873   5.754   3.859  1.00 20.00    -0.081 Cl
HETATM    4 CL7  UNL     1     -34.476   3.767   5.462  1.00 20.00    -0.081 Cl
ENDROOT
BRANCH   1   5
HETATM    5  C2  UNL     1     -33.168   5.587   3.939  1.00 20.00     0.199 A 
HETATM    6  C1  UNL     1     -33.065   6.698   2.933  1.00 20.00     0.204 A 
HETATM    7  O4  UNL     1     -32.396   6.763   4.202  1.00 20.00    -0.377 OA
ENDBRANCH   1   5
TORSDOF 1
ENDMDL
MODEL 8
REMARK VINA RESULT:      -3.1      2.244      2.933
REMARK  1 active torsions:
REMARK  status: ('A' for Active; 'I' for Inactive)
REMARK    1  A    between atoms: C2_2  and  C3_3 
ROOT
HETATM    1  C3  UNL     1     -34.058  15.099  -3.642  1.00 20.00     0.216 C 
HETATM    2 CL5  UNL     1     -32.370  14.505  -3.458  1.00 20.00    -0.081 Cl
HETATM    3 CL6  UNL     1     -34.576  15.802  -2.069  1.00 20.00    -0.081 Cl
HETATM    4 CL7  UNL     1     -35.111  13.685  -3.994  1.00 20.00    -0.081 Cl
ENDROOT
BRANCH   1   5
HETATM    5  C2  UNL     1     -34.148  16.109  -4.728  1.00 20.00     0.199 A 
HETATM    6  C1  UNL     1     -33.688  17.524  -4.515  1.00 20.00     0.204 A 
HETATM    7  O4  UNL     1     -32.884  16.565  -5.222  1.00 20.00    -0.377 OA
ENDBRANCH   1   5
TORSDOF 1
ENDMDL
MODEL 9
REMARK VINA RESULT:      -3.1      2.245      3.162
REMARK  1 active torsions:
REMARK  status: ('A' for Active; 'I' for Inactive)
REMARK    1  A    between atoms: C2_2  and  C3_3 
ROOT
HETATM    1  C3  UNL     1     -34.036  15.095  -3.655  1.00 20.00     0.216 C 
HETATM    2 CL5  UNL     1     -35.076  13.667  -3.994  1.00 20.00    -0.081 Cl
HETATM    3 CL6  UNL     1     -32.344  14.518  -3.457  1.00 20.00    -0.081 Cl
HETATM    4 CL7  UNL     1     -34.566  15.812  -2.093  1.00 20.00    -0.081 Cl
ENDROOT
BRANCH   1   5
HETATM    5  C2  UNL     1     -34.131  16.091  -4.754  1.00 20.00     0.199 A 
HETATM    6  C1  UNL     1     -33.712  17.519  -4.548  1.00 20.00     0.204 A 
HETATM    7  O4  UNL     1     -32.871  16.574  -5.229  1.00 20.00    -0.377 OA
ENDBRANCH   1   5
TORSDOF 1
ENDMDL
