MODEL 1
REMARK VINA RESULT:      -4.6      0.000      0.000
REMARK  0 active torsions:
REMARK  status: ('A' for Active; 'I' for Inactive)
ROOT
HETATM    1  C1  UNL     1     -33.527  17.323  -4.945  1.00 20.00     0.018 C 
HETATM    2  C2  UNL     1     -35.738  14.617  -3.797  1.00 20.00     0.018 C 
HETATM    3  C3  UNL     1     -33.792  16.171  -5.919  1.00 20.00     0.022 C 
HETATM    4  C4  UNL     1     -34.342  14.718  -3.180  1.00 20.00     0.022 C 
HETATM    5  C5  UNL     1     -34.293  17.297  -3.613  1.00 20.00     0.066 C 
HETATM    6  C6  UNL     1     -36.120  15.701  -4.818  1.00 20.00     0.066 C 
HETATM    7  C7  UNL     1     -35.269  15.804  -6.097  1.00 20.00     0.096 C 
HETATM    8  C8  UNL     1     -33.927  16.114  -2.694  1.00 20.00     0.096 C 
HETATM    9  S9  UNL     1     -36.075  17.314  -3.982  1.00 20.00    -0.156 SA
HETATM   10 CL10 UNL     1     -35.383  14.284  -7.049  1.00 20.00    -0.124 Cl
HETATM   11 CL11 UNL     1     -34.619  16.389  -1.047  1.00 20.00    -0.124 Cl
ENDROOT
TORSDOF 0
ENDMDL
MODEL 2
REMARK VINA RESULT:      -4.5      1.655      2.624
REMARK  0 active torsions:
REMARK  status: ('A' for Active; 'I' for Inactive)
ROOT
HETATM    1  C1  UNL     1     -35.098  13.664  -4.384  1.00 20.00     0.018 C 
HETATM    2  C2  UNL     1     -34.415  17.275  -4.537  1.00 20.00     0.018 C 
HETATM    3  C3  UNL     1     -35.358  14.373  -5.717  1.00 20.00     0.022 C 
HETATM    4  C4  UNL     1     -35.630  16.804  -3.733  1.00 20.00     0.022 C 
HETATM    5  C5  UNL     1     -34.475  14.506  -3.260  1.00 20.00     0.066 C 
HETATM    6  C6  UNL     1     -33.544  16.181  -5.173  1.00 20.00     0.066 C 
HETATM    7  C7  UNL     1     -34.209  15.258  -6.212  1.00 20.00     0.096 C 
HETATM    8  C8  UNL     1     -35.374  15.652  -2.753  1.00 20.00     0.096 C 
HETATM    9  S9  UNL     1     -32.872  15.140  -3.845  1.00 20.00    -0.156 SA
HETATM   10 CL10 UNL     1     -34.772  16.211  -7.627  1.00 20.00    -0.124 Cl
HETATM   11 CL11 UNL     1     -34.689  16.328  -1.223  1.00 20.00    -0.124 Cl
ENDROOT
TORSDOF 0
ENDMDL
MODEL 3
REMARK VINA RESULT:      -4.5      1.500      3.992
REMARK  0 active torsions:
REMARK  status: ('A' for Active; 'I' for Inactive)
ROOT
HETATM    1  C1  UNL     1     -33.732  13.575  -4.090  1.00 20.00     0.018 C 
HETATM    2  C2  UNL     1     -35.295  16.775  -5.012  1.00 20.00     0.018 C 
HETATM    3  C3  UNL     1     -33.283  14.823  -3.323  1.00 20.00     0.022 C 
HETATM    4  C4  UNL     1     -34.301  16.148  -5.993  1.00 20.00     0.022 C 
HETATM    5  C5  UNL     1     -34.872  13.756  -5.104  1.00 20.00     0.066 C 
HETATM    6  C6  UNL     1     -35.597  15.977  -3.734  1.00 20.00     0.066 C 
HETATM    7  C7  UNL     1     -34.423  15.691  -2.780  1.00 20.00     0.096 C 
HETATM    8  C8  UNL     1     -34.518  14.660  -6.301  1.00 20.00     0.096 C 
HETATM    9  S9  UNL     1     -36.330  14.385  -4.215  1.00 20.00    -0.156 SA
HETATM   10 CL10 UNL     1     -33.739  17.229  -2.152  1.00 20.00    -0.124 Cl
HETATM   11 CL11 UNL     1     -35.793  14.507  -7.574  1.00 20.00    -0.124 Cl
ENDROOT
TORSDOF 0
ENDMDL
MODEL 4
REMARK VINA RESULT:      -4.5      1.493      2.208
REMARK  0 active torsions:
REMARK  status: ('A' for Active; 'I' for Inactive)
ROOT
HETATM    1  C1  UNL     1     -33.797  13.609  -4.159  1.00 20.00     0.018 C 
HETATM    2  C2  UNL     1     -35.970  16.544  -4.602  1.00 20.00     0.018 C 
HETATM    3  C3  UNL     1     -34.820  13.561  -5.298  1.00 20.00     0.022 C 
HETATM    4  C4  UNL     1     -36.214  15.642  -3.389  1.00 20.00     0.022 C 
HETATM    5  C5  UNL     1     -33.700  14.924  -3.368  1.00 20.00     0.066 C 
HETATM    6  C6  UNL     1     -34.790  16.170  -5.511  1.00 20.00     0.066 C 
HETATM    7  C7  UNL     1     -34.834  14.796  -6.205  1.00 20.00     0.096 C 
HETATM    8  C8  UNL     1     -34.969  15.278  -2.568  1.00 20.00     0.096 C 
HETATM    9  S9  UNL     1     -33.263  16.255  -4.530  1.00 20.00    -0.156 SA
HETATM   10 CL10 UNL     1     -36.250  14.696  -7.306  1.00 20.00    -0.124 Cl
HETATM   11 CL11 UNL     1     -34.607  16.631  -1.425  1.00 20.00    -0.124 Cl
ENDROOT
TORSDOF 0
ENDMDL
MODEL 5
REMARK VINA RESULT:      -4.4      1.298      3.748
REMARK  0 active torsions:
REMARK  status: ('A' for Active; 'I' for Inactive)
ROOT
HETATM    1  C1  UNL     1     -35.722  17.696  -4.570  1.00 20.00     0.018 C 
HETATM    2  C2  UNL     1     -34.431  14.472  -3.360  1.00 20.00     0.018 C 
HETATM    3  C3  UNL     1     -35.704  17.470  -3.055  1.00 20.00     0.022 C 
HETATM    4  C4  UNL     1     -35.792  14.487  -4.060  1.00 20.00     0.022 C 
HETATM    5  C5  UNL     1     -35.102  16.595  -5.444  1.00 20.00     0.066 C 
HETATM    6  C6  UNL     1     -33.688  15.813  -3.271  1.00 20.00     0.066 C 
HETATM    7  C7  UNL     1     -34.373  16.955  -2.496  1.00 20.00     0.096 C 
HETATM    8  C8  UNL     1     -35.849  15.247  -5.391  1.00 20.00     0.096 C 
HETATM    9  S9  UNL     1     -33.358  16.399  -4.959  1.00 20.00    -0.156 SA
HETATM   10 CL10 UNL     1     -34.600  16.495  -0.775  1.00 20.00    -0.124 Cl
HETATM   11 CL11 UNL     1     -35.242  14.167  -6.707  1.00 20.00    -0.124 Cl
ENDROOT
TORSDOF 0
ENDMDL
MODEL 6
REMARK VINA RESULT:      -4.4      1.434      3.747
REMARK  0 active torsions:
REMARK  status: ('A' for Active; 'I' for Inactive)
ROOT
HETATM    1  C1  UNL     1     -33.351  16.360  -5.228  1.00 20.00     0.018 C 
HETATM    2  C2  UNL     1     -36.511  15.168  -3.770  1.00 20.00     0.018 C 
HETATM    3  C3  UNL     1     -33.655  16.765  -3.782  1.00 20.00     0.022 C 
HETATM    4  C4  UNL     1     -36.577  16.258  -4.842  1.00 20.00     0.022 C 
HETATM    5  C5  UNL     1     -34.346  15.404  -5.905  1.00 20.00     0.066 C 
HETATM    6  C6  UNL     1     -35.116  14.621  -3.430  1.00 20.00     0.066 C 
HETATM    7  C7  UNL     1     -34.081  15.613  -2.866  1.00 20.00     0.096 C 
HETATM    8  C8  UNL     1     -35.754  15.996  -6.111  1.00 20.00     0.096 C 
HETATM    9  S9  UNL     1     -34.415  13.870  -4.928  1.00 20.00    -0.156 SA
HETATM   10 CL10 UNL     1     -34.651  16.289  -1.302  1.00 20.00    -0.124 Cl
HETATM   11 CL11 UNL     1     -36.706  14.926  -7.213  1.00 20.00    -0.124 Cl
ENDROOT
TORSDOF 0
ENDMDL
MODEL 7
REMARK VINA RESULT:      -4.2      1.957      2.299
REMARK  0 active torsions:
REMARK  status: ('A' for Active; 'I' for Inactive)
ROOT
HETATM    1  C1  UNL     1     -33.780  17.486  -5.132  1.00 20.00     0.018 C 
HETATM    2  C2  UNL     1     -34.657  15.927  -1.917  1.00 20.00     0.018 C 
HETATM    3  C3  UNL     1     -33.100  16.158  -4.786  1.00 20.00     0.022 C 
HETATM    4  C4  UNL     1     -33.797  17.193  -1.895  1.00 20.00     0.022 C 
HETATM    5  C5  UNL     1     -34.848  17.995  -4.151  1.00 20.00     0.066 C 
HETATM    6  C6  UNL     1     -35.130  15.441  -3.296  1.00 20.00     0.066 C 
HETATM    7  C7  UNL     1     -34.050  15.048  -4.321  1.00 20.00     0.096 C 
HETATM    8  C8  UNL     1     -34.304  18.359  -2.754  1.00 20.00     0.096 C 
HETATM    9  S9  UNL     1     -36.162  16.741  -4.037  1.00 20.00    -0.156 SA
HETATM   10 CL10 UNL     1     -33.080  13.666  -3.709  1.00 20.00    -0.124 Cl
HETATM   11 CL11 UNL     1     -35.567  19.261  -1.828  1.00 20.00    -0.124 Cl
ENDROOT
TORSDOF 0
ENDMDL
MODEL 8
REMARK VINA RESULT:      -4.2      1.603      2.642
REMARK  0 active torsions:
REMARK  status: ('A' for Active; 'I' for Inactive)
ROOT
HETATM    1  C1  UNL     1     -36.981  14.875  -4.218  1.00 20.00     0.018 C 
HETATM    2  C2  UNL     1     -33.622  16.049  -5.149  1.00 20.00     0.018 C 
HETATM    3  C3  UNL     1     -36.719  15.149  -5.702  1.00 20.00     0.022 C 
HETATM    4  C4  UNL     1     -34.542  17.016  -4.399  1.00 20.00     0.022 C 
HETATM    5  C5  UNL     1     -35.785  15.015  -3.264  1.00 20.00     0.066 C 
HETATM    6  C6  UNL     1     -34.169  14.636  -5.404  1.00 20.00     0.066 C 
HETATM    7  C7  UNL     1     -35.443  14.510  -6.260  1.00 20.00     0.096 C 
HETATM    8  C8  UNL     1     -35.229  16.448  -3.150  1.00 20.00     0.096 C 
HETATM    9  S9  UNL     1     -34.492  13.850  -3.798  1.00 20.00    -0.156 SA
HETATM   10 CL10 UNL     1     -35.148  15.142  -7.916  1.00 20.00    -0.124 Cl
HETATM   11 CL11 UNL     1     -34.080  16.544  -1.758  1.00 20.00    -0.124 Cl
ENDROOT
TORSDOF 0
ENDMDL
MODEL 9
REMARK VINA RESULT:      -4.0      1.626      2.263
REMARK  0 active torsions:
REMARK  status: ('A' for Active; 'I' for Inactive)
ROOT
HETATM    1  C1  UNL     1     -33.894  14.240  -3.689  1.00 20.00     0.018 C 
HETATM    2  C2  UNL     1     -35.946  17.290  -3.793  1.00 20.00     0.018 C 
HETATM    3  C3  UNL     1     -35.258  14.145  -4.378  1.00 20.00     0.022 C 
HETATM    4  C4  UNL     1     -35.779  16.579  -2.448  1.00 20.00     0.022 C 
HETATM    5  C5  UNL     1     -33.460  15.628  -3.194  1.00 20.00     0.066 C 
HETATM    6  C6  UNL     1     -35.189  16.691  -4.988  1.00 20.00     0.066 C 
HETATM    7  C7  UNL     1     -35.541  15.250  -5.402  1.00 20.00     0.096 C 
HETATM    8  C8  UNL     1     -34.341  16.204  -2.067  1.00 20.00     0.096 C 
HETATM    9  S9  UNL     1     -33.409  16.752  -4.626  1.00 20.00    -0.156 SA
HETATM   10 CL10 UNL     1     -37.261  15.148  -5.913  1.00 20.00    -0.124 Cl
HETATM   11 CL11 UNL     1     -33.532  17.650  -1.344  1.00 20.00    -0.124 Cl
ENDROOT
TORSDOF 0
ENDMDL
