MODEL 1
REMARK VINA RESULT:      -4.8      0.000      0.000
REMARK  1 active torsions:
REMARK  status: ('A' for Active; 'I' for Inactive)
REMARK    1  A    between atoms: C8_8  and  O10_10 
ROOT
HETATM    1  C1  UNL     1     -34.642  15.573  -2.680  1.00 20.00     0.005 C 
HETATM    2  C2  UNL     1     -33.217  13.782  -3.696  1.00 20.00     0.005 C 
HETATM    3  C3  UNL     1     -35.806  15.139  -3.579  1.00 20.00     0.008 C 
HETATM    4  C4  UNL     1     -34.390  13.371  -4.595  1.00 20.00     0.008 C 
HETATM    5  C5  UNL     1     -33.227  16.085  -4.681  1.00 20.00     0.042 C 
HETATM    6  C6  UNL     1     -33.296  15.282  -3.367  1.00 20.00    -0.012 C 
HETATM    7  C7  UNL     1     -35.265  14.604  -4.917  1.00 20.00     0.019 C 
HETATM    8  C8  UNL     1     -34.391  15.680  -5.617  1.00 20.00     0.058 C 
HETATM    9  C9  UNL     1     -35.197  16.906  -6.055  1.00 20.00     0.046 C 
ENDROOT
BRANCH   8  10
HETATM   10  O10 UNL     1     -33.824  15.118  -6.807  1.00 20.00    -0.390 OA
HETATM   11  H26 UNL     1     -33.248  14.398  -6.515  1.00 20.00     0.210 HD
ENDBRANCH   8  10
TORSDOF 1
ENDMDL
MODEL 2
REMARK VINA RESULT:      -4.7      1.340      2.547
REMARK  1 active torsions:
REMARK  status: ('A' for Active; 'I' for Inactive)
REMARK    1  A    between atoms: C8_8  and  O10_10 
ROOT
HETATM    1  C1  UNL     1     -36.420  14.393  -4.091  1.00 20.00     0.005 C 
HETATM    2  C2  UNL     1     -34.873  13.752  -5.954  1.00 20.00     0.005 C 
HETATM    3  C3  UNL     1     -36.135  15.872  -4.382  1.00 20.00     0.008 C 
HETATM    4  C4  UNL     1     -34.593  15.236  -6.220  1.00 20.00     0.008 C 
HETATM    5  C5  UNL     1     -33.997  13.973  -3.617  1.00 20.00     0.042 C 
HETATM    6  C6  UNL     1     -35.204  13.529  -4.469  1.00 20.00    -0.012 C 
HETATM    7  C7  UNL     1     -34.696  16.038  -4.902  1.00 20.00     0.019 C 
HETATM    8  C8  UNL     1     -33.680  15.464  -3.877  1.00 20.00     0.058 C 
HETATM    9  C9  UNL     1     -33.648  16.257  -2.567  1.00 20.00     0.046 C 
ENDROOT
BRANCH   8  10
HETATM   10  O10 UNL     1     -32.362  15.544  -4.433  1.00 20.00    -0.390 OA
HETATM   11  H26 UNL     1     -32.330  16.372  -4.931  1.00 20.00     0.210 HD
ENDBRANCH   8  10
TORSDOF 1
ENDMDL
MODEL 3
REMARK VINA RESULT:      -4.5      1.756      2.935
REMARK  1 active torsions:
REMARK  status: ('A' for Active; 'I' for Inactive)
REMARK    1  A    between atoms: C8_8  and  O10_10 
ROOT
HETATM    1  C1  UNL     1     -33.062  15.925  -4.905  1.00 20.00     0.005 C 
HETATM    2  C2  UNL     1     -34.860  14.451  -5.836  1.00 20.00     0.005 C 
HETATM    3  C3  UNL     1     -32.965  15.009  -3.677  1.00 20.00     0.008 C 
HETATM    4  C4  UNL     1     -34.756  13.556  -4.595  1.00 20.00     0.008 C 
HETATM    5  C5  UNL     1     -35.466  16.416  -4.405  1.00 20.00     0.042 C 
HETATM    6  C6  UNL     1     -34.489  15.900  -5.481  1.00 20.00    -0.012 C 
HETATM    7  C7  UNL     1     -34.344  14.400  -3.367  1.00 20.00     0.019 C 
HETATM    8  C8  UNL     1     -35.395  15.522  -3.145  1.00 20.00     0.058 C 
HETATM    9  C9  UNL     1     -35.115  16.356  -1.892  1.00 20.00     0.046 C 
ENDROOT
BRANCH   8  10
HETATM   10  O10 UNL     1     -36.683  14.923  -2.957  1.00 20.00    -0.390 OA
HETATM   11  H26 UNL     1     -37.100  15.405  -2.229  1.00 20.00     0.210 HD
ENDBRANCH   8  10
TORSDOF 1
ENDMDL
MODEL 4
REMARK VINA RESULT:      -4.5      1.588      3.120
REMARK  1 active torsions:
REMARK  status: ('A' for Active; 'I' for Inactive)
REMARK    1  A    between atoms: C8_8  and  O10_10 
ROOT
HETATM    1  C1  UNL     1     -34.782  16.832  -4.882  1.00 20.00     0.005 C 
HETATM    2  C2  UNL     1     -36.788  15.454  -5.470  1.00 20.00     0.005 C 
HETATM    3  C3  UNL     1     -33.914  15.918  -5.755  1.00 20.00     0.008 C 
HETATM    4  C4  UNL     1     -35.900  14.544  -6.328  1.00 20.00     0.008 C 
HETATM    5  C5  UNL     1     -35.440  14.899  -3.432  1.00 20.00     0.042 C 
HETATM    6  C6  UNL     1     -35.977  16.050  -4.308  1.00 20.00    -0.012 C 
HETATM    7  C7  UNL     1     -34.474  14.484  -5.734  1.00 20.00     0.019 C 
HETATM    8  C8  UNL     1     -34.552  13.954  -4.276  1.00 20.00     0.058 C 
HETATM    9  C9  UNL     1     -33.173  13.777  -3.635  1.00 20.00     0.046 C 
ENDROOT
BRANCH   8  10
HETATM   10  O10 UNL     1     -35.168  12.661  -4.283  1.00 20.00    -0.390 OA
HETATM   11  H26 UNL     1     -34.446  12.020  -4.329  1.00 20.00     0.210 HD
ENDBRANCH   8  10
TORSDOF 1
ENDMDL
MODEL 5
REMARK VINA RESULT:      -4.5      1.133      2.096
REMARK  1 active torsions:
REMARK  status: ('A' for Active; 'I' for Inactive)
REMARK    1  A    between atoms: C8_8  and  O10_10 
ROOT
HETATM    1  C1  UNL     1     -36.458  14.530  -3.927  1.00 20.00     0.005 C 
HETATM    2  C2  UNL     1     -34.774  15.718  -2.504  1.00 20.00     0.005 C 
HETATM    3  C3  UNL     1     -35.365  13.555  -4.384  1.00 20.00     0.008 C 
HETATM    4  C4  UNL     1     -33.694  14.740  -2.983  1.00 20.00     0.008 C 
HETATM    5  C5  UNL     1     -35.179  16.471  -4.858  1.00 20.00     0.042 C 
HETATM    6  C6  UNL     1     -35.847  15.902  -3.590  1.00 20.00    -0.012 C 
HETATM    7  C7  UNL     1     -34.004  14.273  -4.423  1.00 20.00     0.019 C 
HETATM    8  C8  UNL     1     -34.072  15.513  -5.357  1.00 20.00     0.058 C 
HETATM    9  C9  UNL     1     -34.287  15.138  -6.826  1.00 20.00     0.046 C 
ENDROOT
BRANCH   8  10
HETATM   10  O10 UNL     1     -32.823  16.212  -5.293  1.00 20.00    -0.390 OA
HETATM   11  H26 UNL     1     -32.993  17.020  -4.790  1.00 20.00     0.210 HD
ENDBRANCH   8  10
TORSDOF 1
ENDMDL
MODEL 6
REMARK VINA RESULT:      -4.4      1.603      2.831
REMARK  1 active torsions:
REMARK  status: ('A' for Active; 'I' for Inactive)
REMARK    1  A    between atoms: C8_8  and  O10_10 
ROOT
HETATM    1  C1  UNL     1     -35.971  16.625  -4.231  1.00 20.00     0.005 C 
HETATM    2  C2  UNL     1     -33.858  17.627  -3.335  1.00 20.00     0.005 C 
HETATM    3  C3  UNL     1     -35.910  15.550  -3.139  1.00 20.00     0.008 C 
HETATM    4  C4  UNL     1     -33.809  16.536  -2.257  1.00 20.00     0.008 C 
HETATM    5  C5  UNL     1     -33.755  15.893  -5.139  1.00 20.00     0.042 C 
HETATM    6  C6  UNL     1     -34.553  17.097  -4.600  1.00 20.00    -0.012 C 
HETATM    7  C7  UNL     1     -34.443  15.233  -2.795  1.00 20.00     0.019 C 
HETATM    8  C8  UNL     1     -33.674  14.781  -4.067  1.00 20.00     0.058 C 
HETATM    9  C9  UNL     1     -34.178  13.445  -4.620  1.00 20.00     0.046 C 
ENDROOT
BRANCH   8  10
HETATM   10  O10 UNL     1     -32.294  14.590  -3.734  1.00 20.00    -0.390 OA
HETATM   11  H26 UNL     1     -32.246  13.748  -3.260  1.00 20.00     0.210 HD
ENDBRANCH   8  10
TORSDOF 1
ENDMDL
MODEL 7
REMARK VINA RESULT:      -4.4      1.491      2.514
REMARK  1 active torsions:
REMARK  status: ('A' for Active; 'I' for Inactive)
REMARK    1  A    between atoms: C8_8  and  O10_10 
ROOT
HETATM    1  C1  UNL     1     -33.391  16.535  -4.431  1.00 20.00     0.005 C 
HETATM    2  C2  UNL     1     -34.407  15.669  -2.312  1.00 20.00     0.005 C 
HETATM    3  C3  UNL     1     -34.786  16.583  -5.066  1.00 20.00     0.008 C 
HETATM    4  C4  UNL     1     -35.792  15.713  -2.970  1.00 20.00     0.008 C 
HETATM    5  C5  UNL     1     -33.595  14.067  -4.058  1.00 20.00     0.042 C 
HETATM    6  C6  UNL     1     -33.321  15.421  -3.372  1.00 20.00    -0.012 C 
HETATM    7  C7  UNL     1     -35.664  15.457  -4.489  1.00 20.00     0.019 C 
HETATM    8  C8  UNL     1     -34.993  14.075  -4.718  1.00 20.00     0.058 C 
HETATM    9  C9  UNL     1     -34.906  13.697  -6.199  1.00 20.00     0.046 C 
ENDROOT
BRANCH   8  10
HETATM   10  O10 UNL     1     -35.785  13.063  -4.085  1.00 20.00    -0.390 OA
HETATM   11  H26 UNL     1     -36.107  12.491  -4.795  1.00 20.00     0.210 HD
ENDBRANCH   8  10
TORSDOF 1
ENDMDL
MODEL 8
REMARK VINA RESULT:      -4.4     11.972     13.156
REMARK  1 active torsions:
REMARK  status: ('A' for Active; 'I' for Inactive)
REMARK    1  A    between atoms: C8_8  and  O10_10 
ROOT
HETATM    1  C1  UNL     1     -43.409   6.975  -0.625  1.00 20.00     0.005 C 
HETATM    2  C2  UNL     1     -40.936   7.114  -0.988  1.00 20.00     0.005 C 
HETATM    3  C3  UNL     1     -43.179   5.900   0.445  1.00 20.00     0.008 C 
HETATM    4  C4  UNL     1     -40.727   6.029   0.076  1.00 20.00     0.008 C 
HETATM    5  C5  UNL     1     -42.317   5.543  -2.365  1.00 20.00     0.042 C 
HETATM    6  C6  UNL     1     -42.294   6.926  -1.684  1.00 20.00    -0.012 C 
HETATM    7  C7  UNL     1     -41.935   5.064   0.090  1.00 20.00     0.019 C 
HETATM    8  C8  UNL     1     -42.094   4.427  -1.317  1.00 20.00     0.058 C 
HETATM    9  C9  UNL     1     -43.215   3.386  -1.374  1.00 20.00     0.046 C 
ENDROOT
BRANCH   8  10
HETATM   10  O10 UNL     1     -40.883   3.741  -1.657  1.00 20.00    -0.390 OA
HETATM   11  H26 UNL     1     -40.983   3.459  -2.577  1.00 20.00     0.210 HD
ENDBRANCH   8  10
TORSDOF 1
ENDMDL
MODEL 9
REMARK VINA RESULT:      -4.4      1.825      2.908
REMARK  1 active torsions:
REMARK  status: ('A' for Active; 'I' for Inactive)
REMARK    1  A    between atoms: C8_8  and  O10_10 
ROOT
HETATM    1  C1  UNL     1     -34.591  14.406  -6.026  1.00 20.00     0.005 C 
HETATM    2  C2  UNL     1     -33.544  13.672  -3.873  1.00 20.00     0.005 C 
HETATM    3  C3  UNL     1     -34.181  15.852  -5.718  1.00 20.00     0.008 C 
HETATM    4  C4  UNL     1     -33.154  15.126  -3.578  1.00 20.00     0.008 C 
HETATM    5  C5  UNL     1     -35.967  14.303  -3.936  1.00 20.00     0.042 C 
HETATM    6  C6  UNL     1     -34.826  13.625  -4.721  1.00 20.00    -0.012 C 
HETATM    7  C7  UNL     1     -34.194  16.088  -4.197  1.00 20.00     0.019 C 
HETATM    8  C8  UNL     1     -35.596  15.768  -3.610  1.00 20.00     0.058 C 
HETATM    9  C9  UNL     1     -36.678  16.734  -4.100  1.00 20.00     0.046 C 
ENDROOT
BRANCH   8  10
HETATM   10  O10 UNL     1     -35.545  15.902  -2.184  1.00 20.00    -0.390 OA
HETATM   11  H26 UNL     1     -35.648  16.846  -1.999  1.00 20.00     0.210 HD
ENDBRANCH   8  10
TORSDOF 1
ENDMDL
