MODEL 1
REMARK VINA RESULT:      -3.7      0.000      0.000
REMARK  1 active torsions:
REMARK  status: ('A' for Active; 'I' for Inactive)
REMARK    1  A    between atoms: C1_1  and  C3_3 
ROOT
HETATM    1  C1  UNL     1     -34.470   5.377   3.547  1.00 20.00     0.181 A 
HETATM    2  C2  UNL     1     -35.194   4.531   4.557  1.00 20.00     0.247 A 
HETATM    3  O4  UNL     1     -35.874   5.534   3.792  1.00 20.00    -0.358 OA
HETATM    4 CL5  UNL     1     -34.990   4.763   6.270  1.00 20.00    -0.092 Cl
ENDROOT
BRANCH   1   5
HETATM    5  C3  UNL     1     -33.649   6.564   3.906  1.00 20.00     0.150 C 
HETATM    6 CL6  UNL     1     -32.097   6.572   3.022  1.00 20.00    -0.128 Cl
ENDBRANCH   1   5
TORSDOF 1
ENDMDL
MODEL 2
REMARK VINA RESULT:      -3.5      1.979      2.778
REMARK  1 active torsions:
REMARK  status: ('A' for Active; 'I' for Inactive)
REMARK    1  A    between atoms: C1_1  and  C3_3 
ROOT
HETATM    1  C1  UNL     1     -35.232   4.824   5.670  1.00 20.00     0.181 A 
HETATM    2  C2  UNL     1     -35.333   4.914   4.172  1.00 20.00     0.247 A 
HETATM    3  O4  UNL     1     -35.109   3.664   4.837  1.00 20.00    -0.358 OA
HETATM    4 CL5  UNL     1     -34.063   5.601   3.202  1.00 20.00    -0.092 Cl
ENDROOT
BRANCH   1   5
HETATM    5  C3  UNL     1     -34.001   5.164   6.433  1.00 20.00     0.150 C 
HETATM    6 CL6  UNL     1     -33.816   6.931   6.614  1.00 20.00    -0.128 Cl
ENDBRANCH   1   5
TORSDOF 1
ENDMDL
MODEL 3
REMARK VINA RESULT:      -3.4      1.280      1.280
REMARK  1 active torsions:
REMARK  status: ('A' for Active; 'I' for Inactive)
REMARK    1  A    between atoms: C1_1  and  C3_3 
ROOT
HETATM    1  C1  UNL     1     -34.288   4.932   4.294  1.00 20.00     0.181 A 
HETATM    2  C2  UNL     1     -34.470   5.121   5.774  1.00 20.00     0.247 A 
HETATM    3  O4  UNL     1     -35.588   5.084   4.878  1.00 20.00    -0.358 OA
HETATM    4 CL5  UNL     1     -34.068   6.616   6.569  1.00 20.00    -0.092 Cl
ENDROOT
BRANCH   1   5
HETATM    5  C3  UNL     1     -33.902   6.029   3.366  1.00 20.00     0.150 C 
HETATM    6 CL6  UNL     1     -32.127   6.152   3.208  1.00 20.00    -0.128 Cl
ENDBRANCH   1   5
TORSDOF 1
ENDMDL
MODEL 4
REMARK VINA RESULT:      -3.3      1.615      1.720
REMARK  1 active torsions:
REMARK  status: ('A' for Active; 'I' for Inactive)
REMARK    1  A    between atoms: C1_1  and  C3_3 
ROOT
HETATM    1  C1  UNL     1     -33.200   5.975   3.659  1.00 20.00     0.181 A 
HETATM    2  C2  UNL     1     -34.126   5.795   4.830  1.00 20.00     0.247 A 
HETATM    3  O4  UNL     1     -34.506   6.566   3.683  1.00 20.00    -0.358 OA
HETATM    4 CL5  UNL     1     -33.862   6.604   6.348  1.00 20.00    -0.092 Cl
ENDROOT
BRANCH   1   5
HETATM    5  C3  UNL     1     -32.084   6.959   3.637  1.00 20.00     0.150 C 
HETATM    6 CL6  UNL     1     -32.127   7.957   2.157  1.00 20.00    -0.128 Cl
ENDBRANCH   1   5
TORSDOF 1
ENDMDL
MODEL 5
REMARK VINA RESULT:      -3.2      1.613      1.622
REMARK  1 active torsions:
REMARK  status: ('A' for Active; 'I' for Inactive)
REMARK    1  A    between atoms: C1_1  and  C3_3 
ROOT
HETATM    1  C1  UNL     1     -34.191   6.382   4.479  1.00 20.00     0.181 A 
HETATM    2  C2  UNL     1     -34.945   5.480   5.417  1.00 20.00     0.247 A 
HETATM    3  O4  UNL     1     -33.860   6.298   5.872  1.00 20.00    -0.358 OA
HETATM    4 CL5  UNL     1     -34.751   3.751   5.388  1.00 20.00    -0.092 Cl
ENDROOT
BRANCH   1   5
HETATM    5  C3  UNL     1     -33.118   5.907   3.565  1.00 20.00     0.150 C 
HETATM    6 CL6  UNL     1     -32.111   7.263   2.984  1.00 20.00    -0.128 Cl
ENDBRANCH   1   5
TORSDOF 1
ENDMDL
MODEL 6
REMARK VINA RESULT:      -3.2      1.163      3.110
REMARK  1 active torsions:
REMARK  status: ('A' for Active; 'I' for Inactive)
REMARK    1  A    between atoms: C1_1  and  C3_3 
ROOT
HETATM    1  C1  UNL     1     -34.654   6.143   4.255  1.00 20.00     0.181 A 
HETATM    2  C2  UNL     1     -33.698   6.322   3.108  1.00 20.00     0.247 A 
HETATM    3  O4  UNL     1     -34.555   5.177   3.200  1.00 20.00    -0.358 OA
HETATM    4 CL5  UNL     1     -31.981   6.115   3.299  1.00 20.00    -0.092 Cl
ENDROOT
BRANCH   1   5
HETATM    5  C3  UNL     1     -34.249   5.633   5.592  1.00 20.00     0.150 C 
HETATM    6 CL6  UNL     1     -35.011   4.057   5.945  1.00 20.00    -0.128 Cl
ENDBRANCH   1   5
TORSDOF 1
ENDMDL
MODEL 7
REMARK VINA RESULT:      -3.1     11.647     12.551
REMARK  1 active torsions:
REMARK  status: ('A' for Active; 'I' for Inactive)
REMARK    1  A    between atoms: C1_1  and  C3_3 
ROOT
HETATM    1  C1  UNL     1     -34.395  13.425  -5.147  1.00 20.00     0.181 A 
HETATM    2  C2  UNL     1     -34.207  13.703  -3.682  1.00 20.00     0.247 A 
HETATM    3  O4  UNL     1     -35.148  12.727  -4.147  1.00 20.00    -0.358 OA
HETATM    4 CL5  UNL     1     -34.795  15.162  -2.937  1.00 20.00    -0.092 Cl
ENDROOT
BRANCH   1   5
HETATM    5  C3  UNL     1     -35.216  14.278  -6.047  1.00 20.00     0.150 C 
HETATM    6 CL6  UNL     1     -34.193  15.390  -7.000  1.00 20.00    -0.128 Cl
ENDBRANCH   1   5
TORSDOF 1
ENDMDL
MODEL 8
REMARK VINA RESULT:      -3.1     11.718     12.341
REMARK  1 active torsions:
REMARK  status: ('A' for Active; 'I' for Inactive)
REMARK    1  A    between atoms: C1_1  and  C3_3 
ROOT
HETATM    1  C1  UNL     1     -34.456  14.000  -3.467  1.00 20.00     0.181 A 
HETATM    2  C2  UNL     1     -34.723  13.433  -4.834  1.00 20.00     0.247 A 
HETATM    3  O4  UNL     1     -33.537  13.102  -4.102  1.00 20.00    -0.358 OA
HETATM    4 CL5  UNL     1     -34.591  14.399  -6.275  1.00 20.00    -0.092 Cl
ENDROOT
BRANCH   1   5
HETATM    5  C3  UNL     1     -33.916  15.366  -3.235  1.00 20.00     0.150 C 
HETATM    6 CL6  UNL     1     -34.548  16.067  -1.719  1.00 20.00    -0.128 Cl
ENDBRANCH   1   5
TORSDOF 1
ENDMDL
MODEL 9
REMARK VINA RESULT:      -3.0      2.102      2.839
REMARK  1 active torsions:
REMARK  status: ('A' for Active; 'I' for Inactive)
REMARK    1  A    between atoms: C1_1  and  C3_3 
ROOT
HETATM    1  C1  UNL     1     -34.439   5.950   3.849  1.00 20.00     0.181 A 
HETATM    2  C2  UNL     1     -33.572   6.749   4.782  1.00 20.00     0.247 A 
HETATM    3  O4  UNL     1     -33.109   5.531   4.185  1.00 20.00    -0.358 OA
HETATM    4 CL5  UNL     1     -33.862   6.797   6.497  1.00 20.00    -0.092 Cl
ENDROOT
BRANCH   1   5
HETATM    5  C3  UNL     1     -35.507   5.023   4.311  1.00 20.00     0.150 C 
HETATM    6 CL6  UNL     1     -34.847   3.750   5.377  1.00 20.00    -0.128 Cl
ENDBRANCH   1   5
TORSDOF 1
ENDMDL
