MODEL 1
REMARK VINA RESULT:      -4.9      0.000      0.000
REMARK  2 active torsions:
REMARK  status: ('A' for Active; 'I' for Inactive)
REMARK    1  A    between atoms: C2_2  and  C5_5 
REMARK    2  A    between atoms: C3_3  and  C5_5 
ROOT
HETATM    1  C5  UNL     1     -34.961   5.354   3.877  1.00 20.00     0.123 C 
ENDROOT
BRANCH   1   2
HETATM    2  C2  UNL     1     -33.961   6.466   3.783  1.00 20.00    -0.022 C 
HETATM    3  C1  UNL     1     -32.770   6.349   3.176  1.00 20.00    -0.034 C 
HETATM    4  C4  UNL     1     -31.772   7.455   3.086  1.00 20.00     0.036 C 
ENDBRANCH   1   2
BRANCH   1   5
HETATM    5  C3  UNL     1     -34.900   4.682   5.240  1.00 20.00     0.222 C 
HETATM    6  O6  UNL     1     -35.101   3.484   5.412  1.00 20.00    -0.280 OA
HETATM    7 CL7  UNL     1     -34.484   5.824   6.490  1.00 20.00    -0.043 Cl
ENDBRANCH   1   5
TORSDOF 2
ENDMDL
MODEL 2
REMARK VINA RESULT:      -4.3      3.223      4.309
REMARK  2 active torsions:
REMARK  status: ('A' for Active; 'I' for Inactive)
REMARK    1  A    between atoms: C2_2  and  C5_5 
REMARK    2  A    between atoms: C3_3  and  C5_5 
ROOT
HETATM    1  C5  UNL     1     -33.132   6.364   2.968  1.00 20.00     0.123 C 
ENDROOT
BRANCH   1   2
HETATM    2  C2  UNL     1     -33.590   6.011   4.351  1.00 20.00    -0.022 C 
HETATM    3  C1  UNL     1     -34.593   5.159   4.609  1.00 20.00    -0.034 C 
HETATM    4  C4  UNL     1     -35.052   4.809   5.986  1.00 20.00     0.036 C 
ENDBRANCH   1   2
BRANCH   1   5
HETATM    5  C3  UNL     1     -32.057   7.440   3.011  1.00 20.00     0.222 C 
HETATM    6  O6  UNL     1     -31.294   7.595   3.960  1.00 20.00    -0.280 OA
HETATM    7 CL7  UNL     1     -32.043   8.379   1.543  1.00 20.00    -0.043 Cl
ENDBRANCH   1   5
TORSDOF 2
ENDMDL
MODEL 3
REMARK VINA RESULT:      -4.2      1.572      2.026
REMARK  2 active torsions:
REMARK  status: ('A' for Active; 'I' for Inactive)
REMARK    1  A    between atoms: C2_2  and  C5_5 
REMARK    2  A    between atoms: C3_3  and  C5_5 
ROOT
HETATM    1  C5  UNL     1     -32.949   6.461   4.216  1.00 20.00     0.123 C 
ENDROOT
BRANCH   1   2
HETATM    2  C2  UNL     1     -32.590   6.855   2.816  1.00 20.00    -0.022 C 
HETATM    3  C1  UNL     1     -32.169   8.081   2.472  1.00 20.00    -0.034 C 
HETATM    4  C4  UNL     1     -31.814   8.477   1.077  1.00 20.00     0.036 C 
ENDBRANCH   1   2
BRANCH   1   5
HETATM    5  C3  UNL     1     -34.256   5.681   4.242  1.00 20.00     0.222 C 
HETATM    6  O6  UNL     1     -34.865   5.351   3.229  1.00 20.00    -0.280 OA
HETATM    7 CL7  UNL     1     -34.738   5.306   5.874  1.00 20.00    -0.043 Cl
ENDBRANCH   1   5
TORSDOF 2
ENDMDL
MODEL 4
REMARK VINA RESULT:      -4.0      2.641      3.053
REMARK  2 active torsions:
REMARK  status: ('A' for Active; 'I' for Inactive)
REMARK    1  A    between atoms: C2_2  and  C5_5 
REMARK    2  A    between atoms: C3_3  and  C5_5 
ROOT
HETATM    1  C5  UNL     1     -34.944   4.496   5.106  1.00 20.00     0.123 C 
ENDROOT
BRANCH   1   2
HETATM    2  C2  UNL     1     -34.567   5.423   6.220  1.00 20.00    -0.022 C 
HETATM    3  C1  UNL     1     -33.846   6.541   6.048  1.00 20.00    -0.034 C 
HETATM    4  C4  UNL     1     -33.467   7.464   7.158  1.00 20.00     0.036 C 
ENDBRANCH   1   2
BRANCH   1   5
HETATM    5  C3  UNL     1     -35.210   5.268   3.822  1.00 20.00     0.222 C 
HETATM    6  O6  UNL     1     -36.295   5.773   3.550  1.00 20.00    -0.280 OA
HETATM    7 CL7  UNL     1     -33.780   5.359   2.830  1.00 20.00    -0.043 Cl
ENDBRANCH   1   5
TORSDOF 2
ENDMDL
MODEL 5
REMARK VINA RESULT:      -4.0     11.671     12.127
REMARK  2 active torsions:
REMARK  status: ('A' for Active; 'I' for Inactive)
REMARK    1  A    between atoms: C2_2  and  C5_5 
REMARK    2  A    between atoms: C3_3  and  C5_5 
ROOT
HETATM    1  C5  UNL     1     -35.402  14.819  -3.388  1.00 20.00     0.123 C 
ENDROOT
BRANCH   1   2
HETATM    2  C2  UNL     1     -34.526  15.840  -2.729  1.00 20.00    -0.022 C 
HETATM    3  C1  UNL     1     -34.741  16.324  -1.497  1.00 20.00    -0.034 C 
HETATM    4  C4  UNL     1     -33.870  17.344  -0.841  1.00 20.00     0.036 C 
ENDBRANCH   1   2
BRANCH   1   5
HETATM    5  C3  UNL     1     -34.582  13.635  -3.879  1.00 20.00     0.222 C 
HETATM    6  O6  UNL     1     -35.075  12.651  -4.421  1.00 20.00    -0.280 OA
HETATM    7 CL7  UNL     1     -32.880  13.883  -3.596  1.00 20.00    -0.043 Cl
ENDBRANCH   1   5
TORSDOF 2
ENDMDL
MODEL 6
REMARK VINA RESULT:      -3.8      3.802      4.892
REMARK  2 active torsions:
REMARK  status: ('A' for Active; 'I' for Inactive)
REMARK    1  A    between atoms: C2_2  and  C5_5 
REMARK    2  A    between atoms: C3_3  and  C5_5 
ROOT
HETATM    1  C5  UNL     1     -31.857   7.657   2.969  1.00 20.00     0.123 C 
ENDROOT
BRANCH   1   2
HETATM    2  C2  UNL     1     -32.896   6.578   2.948  1.00 20.00    -0.022 C 
HETATM    3  C1  UNL     1     -33.803   6.398   3.920  1.00 20.00    -0.034 C 
HETATM    4  C4  UNL     1     -34.837   5.321   3.902  1.00 20.00     0.036 C 
ENDBRANCH   1   2
BRANCH   1   5
HETATM    5  C3  UNL     1     -31.964   8.537   1.732  1.00 20.00     0.222 C 
HETATM    6  O6  UNL     1     -31.516   8.217   0.635  1.00 20.00    -0.280 OA
HETATM    7 CL7  UNL     1     -32.819  10.016   2.078  1.00 20.00    -0.043 Cl
ENDBRANCH   1   5
TORSDOF 2
ENDMDL
MODEL 7
REMARK VINA RESULT:      -3.8     12.381     12.605
REMARK  2 active torsions:
REMARK  status: ('A' for Active; 'I' for Inactive)
REMARK    1  A    between atoms: C2_2  and  C5_5 
REMARK    2  A    between atoms: C3_3  and  C5_5 
ROOT
HETATM    1  C5  UNL     1     -33.697  14.633  -4.095  1.00 20.00     0.123 C 
ENDROOT
BRANCH   1   2
HETATM    2  C2  UNL     1     -34.383  15.138  -2.862  1.00 20.00    -0.022 C 
HETATM    3  C1  UNL     1     -34.003  16.236  -2.193  1.00 20.00    -0.034 C 
HETATM    4  C4  UNL     1     -34.684  16.737  -0.962  1.00 20.00     0.036 C 
ENDBRANCH   1   2
BRANCH   1   5
HETATM    5  C3  UNL     1     -34.597  13.678  -4.864  1.00 20.00     0.222 C 
HETATM    6  O6  UNL     1     -35.014  12.621  -4.400  1.00 20.00    -0.280 OA
HETATM    7 CL7  UNL     1     -34.967  14.297  -6.451  1.00 20.00    -0.043 Cl
ENDBRANCH   1   5
TORSDOF 2
ENDMDL
MODEL 8
REMARK VINA RESULT:      -3.8     11.835     12.304
REMARK  2 active torsions:
REMARK  status: ('A' for Active; 'I' for Inactive)
REMARK    1  A    between atoms: C2_2  and  C5_5 
REMARK    2  A    between atoms: C3_3  and  C5_5 
ROOT
HETATM    1  C5  UNL     1     -33.654  15.421  -4.052  1.00 20.00     0.123 C 
ENDROOT
BRANCH   1   2
HETATM    2  C2  UNL     1     -33.629  16.077  -2.705  1.00 20.00    -0.022 C 
HETATM    3  C1  UNL     1     -34.691  16.144  -1.888  1.00 20.00    -0.034 C 
HETATM    4  C4  UNL     1     -34.667  16.800  -0.547  1.00 20.00     0.036 C 
ENDBRANCH   1   2
BRANCH   1   5
HETATM    5  C3  UNL     1     -33.924  13.929  -3.924  1.00 20.00     0.222 C 
HETATM    6  O6  UNL     1     -33.063  13.111  -3.615  1.00 20.00    -0.280 OA
HETATM    7 CL7  UNL     1     -35.597  13.558  -4.243  1.00 20.00    -0.043 Cl
ENDBRANCH   1   5
TORSDOF 2
ENDMDL
MODEL 9
REMARK VINA RESULT:      -3.4     12.322     12.623
REMARK  2 active torsions:
REMARK  status: ('A' for Active; 'I' for Inactive)
REMARK    1  A    between atoms: C2_2  and  C5_5 
REMARK    2  A    between atoms: C3_3  and  C5_5 
ROOT
HETATM    1  C5  UNL     1     -34.857  14.905  -2.922  1.00 20.00     0.123 C 
ENDROOT
BRANCH   1   2
HETATM    2  C2  UNL     1     -34.188  16.051  -2.226  1.00 20.00    -0.022 C 
HETATM    3  C1  UNL     1     -34.609  16.563  -1.061  1.00 20.00    -0.034 C 
HETATM    4  C4  UNL     1     -33.946  17.707  -0.368  1.00 20.00     0.036 C 
ENDBRANCH   1   2
BRANCH   1   5
HETATM    5  C3  UNL     1     -33.985  14.372  -4.050  1.00 20.00     0.222 C 
HETATM    6  O6  UNL     1     -33.603  13.208  -4.116  1.00 20.00    -0.280 OA
HETATM    7 CL7  UNL     1     -33.641  15.613  -5.225  1.00 20.00    -0.043 Cl
ENDBRANCH   1   5
TORSDOF 2
ENDMDL
