MODEL 1
REMARK VINA RESULT:      -4.8      0.000      0.000
REMARK  1 active torsions:
REMARK  status: ('A' for Active; 'I' for Inactive)
REMARK    1  A    between atoms: C9_9  and  O11_11 
ROOT
HETATM    1  C1  UNL     1     -34.974  16.466  -1.872  1.00 20.00    -0.025 C 
HETATM    2  C2  UNL     1     -35.806  17.001  -2.786  1.00 20.00    -0.025 C 
HETATM    3  C3  UNL     1     -33.913  13.527  -3.680  1.00 20.00    -0.022 C 
HETATM    4  C4  UNL     1     -34.461  13.250  -4.886  1.00 20.00     0.001 C 
HETATM    5  C5  UNL     1     -33.723  17.291  -3.617  1.00 20.00     0.018 C 
HETATM    6  C6  UNL     1     -33.675  16.133  -2.570  1.00 20.00     0.017 C 
HETATM    7  C7  UNL     1     -35.115  16.908  -4.146  1.00 20.00     0.016 C 
HETATM    8  C8  UNL     1     -33.760  15.000  -3.605  1.00 20.00     0.023 C 
HETATM    9  C9  UNL     1     -34.932  14.516  -5.609  1.00 20.00     0.146 C 
HETATM   10  C10 UNL     1     -35.056  15.384  -4.375  1.00 20.00     0.034 C 
ENDROOT
BRANCH   9  11
HETATM   11  O11 UNL     1     -33.966  14.967  -6.532  1.00 20.00    -0.391 OA
HETATM   12  H23 UNL     1     -33.109  14.984  -6.069  1.00 20.00     0.210 HD
ENDBRANCH   9  11
TORSDOF 1
ENDMDL
MODEL 2
REMARK VINA RESULT:      -4.8      1.379      1.783
REMARK  1 active torsions:
REMARK  status: ('A' for Active; 'I' for Inactive)
REMARK    1  A    between atoms: C9_9  and  O11_11 
ROOT
HETATM    1  C1  UNL     1     -33.677  17.339  -1.336  1.00 20.00    -0.025 C 
HETATM    2  C2  UNL     1     -34.868  16.825  -0.971  1.00 20.00    -0.025 C 
HETATM    3  C3  UNL     1     -32.658  14.840  -3.733  1.00 20.00    -0.022 C 
HETATM    4  C4  UNL     1     -33.425  13.741  -3.921  1.00 20.00     0.001 C 
HETATM    5  C5  UNL     1     -35.155  17.587  -3.081  1.00 20.00     0.018 C 
HETATM    6  C6  UNL     1     -33.628  17.360  -2.846  1.00 20.00     0.017 C 
HETATM    7  C7  UNL     1     -35.580  16.369  -2.244  1.00 20.00     0.016 C 
HETATM    8  C8  UNL     1     -33.582  15.980  -3.519  1.00 20.00     0.023 C 
HETATM    9  C9  UNL     1     -34.903  14.012  -3.615  1.00 20.00     0.146 C 
HETATM   10  C10 UNL     1     -34.678  15.214  -2.723  1.00 20.00     0.034 C 
ENDROOT
BRANCH   9  11
HETATM   11  O11 UNL     1     -35.623  14.300  -4.793  1.00 20.00    -0.391 OA
HETATM   12  H23 UNL     1     -34.982  14.334  -5.525  1.00 20.00     0.210 HD
ENDBRANCH   9  11
TORSDOF 1
ENDMDL
MODEL 3
REMARK VINA RESULT:      -4.8      1.918      3.335
REMARK  1 active torsions:
REMARK  status: ('A' for Active; 'I' for Inactive)
REMARK    1  A    between atoms: C9_9  and  O11_11 
ROOT
HETATM    1  C1  UNL     1     -35.317  16.984  -6.886  1.00 20.00    -0.025 C 
HETATM    2  C2  UNL     1     -36.455  16.265  -6.925  1.00 20.00    -0.025 C 
HETATM    3  C3  UNL     1     -33.742  15.453  -4.023  1.00 20.00    -0.022 C 
HETATM    4  C4  UNL     1     -34.408  14.509  -3.317  1.00 20.00     0.001 C 
HETATM    5  C5  UNL     1     -34.820  14.850  -7.583  1.00 20.00     0.018 C 
HETATM    6  C6  UNL     1     -34.163  16.015  -6.777  1.00 20.00     0.017 C 
HETATM    7  C7  UNL     1     -36.080  14.800  -6.705  1.00 20.00     0.016 C 
HETATM    8  C8  UNL     1     -34.080  15.243  -5.451  1.00 20.00     0.023 C 
HETATM    9  C9  UNL     1     -35.420  13.751  -4.184  1.00 20.00     0.146 C 
HETATM   10  C10 UNL     1     -35.562  14.813  -5.253  1.00 20.00     0.034 C 
ENDROOT
BRANCH   9  11
HETATM   11  O11 UNL     1     -34.882  12.535  -4.653  1.00 20.00    -0.391 OA
HETATM   12  H23 UNL     1     -35.522  12.158  -5.283  1.00 20.00     0.210 HD
ENDBRANCH   9  11
TORSDOF 1
ENDMDL
MODEL 4
REMARK VINA RESULT:      -4.7      1.576      2.899
REMARK  1 active torsions:
REMARK  status: ('A' for Active; 'I' for Inactive)
REMARK    1  A    between atoms: C9_9  and  O11_11 
ROOT
HETATM    1  C1  UNL     1     -32.673  14.756  -3.619  1.00 20.00    -0.025 C 
HETATM    2  C2  UNL     1     -33.292  13.561  -3.684  1.00 20.00    -0.025 C 
HETATM    3  C3  UNL     1     -33.968  16.264  -6.631  1.00 20.00    -0.022 C 
HETATM    4  C4  UNL     1     -34.757  15.538  -7.457  1.00 20.00     0.001 C 
HETATM    5  C5  UNL     1     -34.912  15.059  -3.187  1.00 20.00     0.018 C 
HETATM    6  C6  UNL     1     -33.716  15.828  -3.834  1.00 20.00     0.017 C 
HETATM    7  C7  UNL     1     -34.746  13.819  -4.081  1.00 20.00     0.016 C 
HETATM    8  C8  UNL     1     -34.323  15.877  -5.245  1.00 20.00     0.023 C 
HETATM    9  C9  UNL     1     -35.527  14.447  -6.705  1.00 20.00     0.146 C 
HETATM   10  C10 UNL     1     -34.597  14.369  -5.513  1.00 20.00     0.034 C 
ENDROOT
BRANCH   9  11
HETATM   11  O11 UNL     1     -36.833  14.872  -6.385  1.00 20.00    -0.391 OA
HETATM   12  H23 UNL     1     -37.299  14.110  -5.997  1.00 20.00     0.210 HD
ENDBRANCH   9  11
TORSDOF 1
ENDMDL
MODEL 5
REMARK VINA RESULT:      -4.7      1.386      1.771
REMARK  1 active torsions:
REMARK  status: ('A' for Active; 'I' for Inactive)
REMARK    1  A    between atoms: C9_9  and  O11_11 
ROOT
HETATM    1  C1  UNL     1     -35.850  17.433  -1.701  1.00 20.00    -0.025 C 
HETATM    2  C2  UNL     1     -35.298  18.368  -2.498  1.00 20.00    -0.025 C 
HETATM    3  C3  UNL     1     -34.995  14.469  -3.574  1.00 20.00    -0.022 C 
HETATM    4  C4  UNL     1     -34.379  14.590  -4.773  1.00 20.00     0.001 C 
HETATM    5  C5  UNL     1     -33.561  17.292  -1.530  1.00 20.00     0.018 C 
HETATM    6  C6  UNL     1     -34.813  16.361  -1.461  1.00 20.00     0.017 C 
HETATM    7  C7  UNL     1     -33.918  17.859  -2.914  1.00 20.00     0.016 C 
HETATM    8  C8  UNL     1     -34.438  15.525  -2.694  1.00 20.00     0.023 C 
HETATM    9  C9  UNL     1     -33.542  15.871  -4.863  1.00 20.00     0.146 C 
HETATM   10  C10 UNL     1     -34.271  16.631  -3.776  1.00 20.00     0.034 C 
ENDROOT
BRANCH   9  11
HETATM   11  O11 UNL     1     -32.186  15.617  -4.572  1.00 20.00    -0.391 OA
HETATM   12  H23 UNL     1     -31.863  14.975  -5.230  1.00 20.00     0.210 HD
ENDBRANCH   9  11
TORSDOF 1
ENDMDL
MODEL 6
REMARK VINA RESULT:      -4.6      2.152      3.911
REMARK  1 active torsions:
REMARK  status: ('A' for Active; 'I' for Inactive)
REMARK    1  A    between atoms: C9_9  and  O11_11 
ROOT
HETATM    1  C1  UNL     1     -34.054  14.360  -3.297  1.00 20.00    -0.025 C 
HETATM    2  C2  UNL     1     -33.164  15.092  -3.994  1.00 20.00    -0.025 C 
HETATM    3  C3  UNL     1     -34.730  16.655  -0.595  1.00 20.00    -0.022 C 
HETATM    4  C4  UNL     1     -34.040  17.817  -0.516  1.00 20.00     0.001 C 
HETATM    5  C5  UNL     1     -35.159  16.110  -4.300  1.00 20.00     0.018 C 
HETATM    6  C6  UNL     1     -35.247  15.240  -3.006  1.00 20.00     0.017 C 
HETATM    7  C7  UNL     1     -33.698  16.522  -4.060  1.00 20.00     0.016 C 
HETATM    8  C8  UNL     1     -34.981  16.401  -2.034  1.00 20.00     0.023 C 
HETATM    9  C9  UNL     1     -33.573  18.304  -1.892  1.00 20.00     0.146 C 
HETATM   10  C10 UNL     1     -33.637  16.960  -2.583  1.00 20.00     0.034 C 
ENDROOT
BRANCH   9  11
HETATM   11  O11 UNL     1     -34.462  19.263  -2.423  1.00 20.00    -0.391 OA
HETATM   12  H23 UNL     1     -34.615  19.931  -1.731  1.00 20.00     0.210 HD
ENDBRANCH   9  11
TORSDOF 1
ENDMDL
MODEL 7
REMARK VINA RESULT:      -4.6      1.349      2.369
REMARK  1 active torsions:
REMARK  status: ('A' for Active; 'I' for Inactive)
REMARK    1  A    between atoms: C9_9  and  O11_11 
ROOT
HETATM    1  C1  UNL     1     -34.628  17.626  -3.736  1.00 20.00    -0.025 C 
HETATM    2  C2  UNL     1     -33.652  16.940  -3.109  1.00 20.00    -0.025 C 
HETATM    3  C3  UNL     1     -35.685  15.125  -6.113  1.00 20.00    -0.022 C 
HETATM    4  C4  UNL     1     -35.018  13.949  -6.189  1.00 20.00     0.001 C 
HETATM    5  C5  UNL     1     -35.590  15.984  -2.445  1.00 20.00     0.018 C 
HETATM    6  C6  UNL     1     -35.854  16.744  -3.783  1.00 20.00     0.017 C 
HETATM    7  C7  UNL     1     -34.179  15.529  -2.849  1.00 20.00     0.016 C 
HETATM    8  C8  UNL     1     -35.732  15.502  -4.680  1.00 20.00     0.023 C 
HETATM    9  C9  UNL     1     -34.367  13.571  -4.854  1.00 20.00     0.146 C 
HETATM   10  C10 UNL     1     -34.327  14.969  -4.277  1.00 20.00     0.034 C 
ENDROOT
BRANCH   9  11
HETATM   11  O11 UNL     1     -35.177  12.675  -4.126  1.00 20.00    -0.391 OA
HETATM   12  H23 UNL     1     -34.627  12.298  -3.415  1.00 20.00     0.210 HD
ENDBRANCH   9  11
TORSDOF 1
ENDMDL
MODEL 8
REMARK VINA RESULT:      -4.6      1.336      2.559
REMARK  1 active torsions:
REMARK  status: ('A' for Active; 'I' for Inactive)
REMARK    1  A    between atoms: C9_9  and  O11_11 
ROOT
HETATM    1  C1  UNL     1     -34.984  15.929  -2.329  1.00 20.00    -0.025 C 
HETATM    2  C2  UNL     1     -33.680  16.116  -2.612  1.00 20.00    -0.025 C 
HETATM    3  C3  UNL     1     -36.374  16.321  -5.637  1.00 20.00    -0.022 C 
HETATM    4  C4  UNL     1     -35.566  16.667  -6.665  1.00 20.00     0.001 C 
HETATM    5  C5  UNL     1     -34.210  14.102  -3.493  1.00 20.00     0.018 C 
HETATM    6  C6  UNL     1     -35.528  14.920  -3.313  1.00 20.00     0.017 C 
HETATM    7  C7  UNL     1     -33.369  15.328  -3.884  1.00 20.00     0.016 C 
HETATM    8  C8  UNL     1     -35.600  15.399  -4.771  1.00 20.00     0.023 C 
HETATM    9  C9  UNL     1     -34.124  16.198  -6.446  1.00 20.00     0.146 C 
HETATM   10  C10 UNL     1     -34.208  16.074  -4.941  1.00 20.00     0.034 C 
ENDROOT
BRANCH   9  11
HETATM   11  O11 UNL     1     -33.877  14.977  -7.108  1.00 20.00    -0.391 OA
HETATM   12  H23 UNL     1     -33.342  14.425  -6.509  1.00 20.00     0.210 HD
ENDBRANCH   9  11
TORSDOF 1
ENDMDL
MODEL 9
REMARK VINA RESULT:      -4.6     11.545     12.991
REMARK  1 active torsions:
REMARK  status: ('A' for Active; 'I' for Inactive)
REMARK    1  A    between atoms: C9_9  and  O11_11 
ROOT
HETATM    1  C1  UNL     1     -42.921   3.630  -1.348  1.00 20.00    -0.025 C 
HETATM    2  C2  UNL     1     -42.849   4.083  -0.081  1.00 20.00    -0.025 C 
HETATM    3  C3  UNL     1     -42.835   6.777  -3.113  1.00 20.00    -0.022 C 
HETATM    4  C4  UNL     1     -42.839   7.936  -2.414  1.00 20.00     0.001 C 
HETATM    5  C5  UNL     1     -40.801   4.437  -0.970  1.00 20.00     0.018 C 
HETATM    6  C6  UNL     1     -41.826   4.304  -2.141  1.00 20.00     0.017 C 
HETATM    7  C7  UNL     1     -41.781   5.175  -0.045  1.00 20.00     0.016 C 
HETATM    8  C8  UNL     1     -42.004   5.816  -2.348  1.00 20.00     0.023 C 
HETATM    9  C9  UNL     1     -42.214   7.772  -1.024  1.00 20.00     0.146 C 
HETATM   10  C10 UNL     1     -42.413   6.276  -0.920  1.00 20.00     0.034 C 
ENDROOT
BRANCH   9  11
HETATM   11  O11 UNL     1     -40.861   8.171  -1.022  1.00 20.00    -0.391 OA
HETATM   12  H23 UNL     1     -40.319   7.361  -1.029  1.00 20.00     0.210 HD
ENDBRANCH   9  11
TORSDOF 1
ENDMDL
