MODEL 1
REMARK VINA RESULT:      -4.6      0.000      0.000
REMARK  3 active torsions:
REMARK  status: ('A' for Active; 'I' for Inactive)
REMARK    1  A    between atoms: C2_2  and  C6_6 
REMARK    2  A    between atoms: C6_6  and  C7_7 
REMARK    3  A    between atoms: C6_6  and  O8_8 
ROOT
HETATM    1  C6  UNL     1     -33.499   5.943   4.894  1.00 20.00     0.144 C 
ENDROOT
BRANCH   1   2
HETATM    2  C2  UNL     1     -33.325   6.943   3.784  1.00 20.00     0.000 C 
HETATM    3  C1  UNL     1     -32.180   7.108   3.105  1.00 20.00    -0.033 C 
HETATM    4  C3  UNL     1     -32.005   8.096   2.000  1.00 20.00     0.036 C 
ENDBRANCH   1   2
BRANCH   1   5
HETATM    5  C7  UNL     1     -34.612   4.895   4.654  1.00 20.00     0.010 C 
HETATM    6  C4  UNL     1     -35.778   5.427   3.816  1.00 20.00     0.012 C 
HETATM    7  C5  UNL     1     -35.130   4.302   5.966  1.00 20.00     0.012 C 
ENDBRANCH   1   5
BRANCH   1   8
HETATM    8  O8  UNL     1     -33.789   6.676   6.085  1.00 20.00    -0.391 OA
HETATM    9  H22 UNL     1     -33.113   7.367   6.152  1.00 20.00     0.210 HD
ENDBRANCH   1   8
TORSDOF 3
ENDMDL
MODEL 2
REMARK VINA RESULT:      -4.6      0.433      1.321
REMARK  3 active torsions:
REMARK  status: ('A' for Active; 'I' for Inactive)
REMARK    1  A    between atoms: C2_2  and  C6_6 
REMARK    2  A    between atoms: C6_6  and  C7_7 
REMARK    3  A    between atoms: C6_6  and  O8_8 
ROOT
HETATM    1  C6  UNL     1     -33.641   6.046   5.220  1.00 20.00     0.144 C 
ENDROOT
BRANCH   1   2
HETATM    2  C2  UNL     1     -33.398   6.945   4.040  1.00 20.00     0.000 C 
HETATM    3  C1  UNL     1     -32.245   6.978   3.356  1.00 20.00    -0.033 C 
HETATM    4  C3  UNL     1     -32.001   7.866   2.181  1.00 20.00     0.036 C 
ENDBRANCH   1   2
BRANCH   1   5
HETATM    5  C7  UNL     1     -34.990   5.289   5.192  1.00 20.00     0.010 C 
HETATM    6  C4  UNL     1     -34.893   3.852   5.716  1.00 20.00     0.012 C 
HETATM    7  C5  UNL     1     -35.624   5.302   3.800  1.00 20.00     0.012 C 
ENDBRANCH   1   5
BRANCH   1   8
HETATM    8  O8  UNL     1     -33.580   6.859   6.394  1.00 20.00    -0.391 OA
HETATM    9  H22 UNL     1     -33.986   6.340   7.105  1.00 20.00     0.210 HD
ENDBRANCH   1   8
TORSDOF 3
ENDMDL
MODEL 3
REMARK VINA RESULT:      -4.4      1.545      1.925
REMARK  3 active torsions:
REMARK  status: ('A' for Active; 'I' for Inactive)
REMARK    1  A    between atoms: C2_2  and  C6_6 
REMARK    2  A    between atoms: C6_6  and  C7_7 
REMARK    3  A    between atoms: C6_6  and  O8_8 
ROOT
HETATM    1  C6  UNL     1     -34.632   5.845   4.092  1.00 20.00     0.144 C 
ENDROOT
BRANCH   1   2
HETATM    2  C2  UNL     1     -33.807   6.979   3.549  1.00 20.00     0.000 C 
HETATM    3  C1  UNL     1     -32.624   6.812   2.940  1.00 20.00    -0.033 C 
HETATM    4  C3  UNL     1     -31.803   7.934   2.396  1.00 20.00     0.036 C 
ENDBRANCH   1   2
BRANCH   1   5
HETATM    5  C7  UNL     1     -34.197   5.336   5.487  1.00 20.00     0.010 C 
HETATM    6  C4  UNL     1     -35.113   4.244   6.049  1.00 20.00     0.012 C 
HETATM    7  C5  UNL     1     -34.059   6.480   6.494  1.00 20.00     0.012 C 
ENDBRANCH   1   5
BRANCH   1   8
HETATM    8  O8  UNL     1     -34.550   4.772   3.152  1.00 20.00    -0.391 OA
HETATM    9  H22 UNL     1     -33.608   4.648   2.962  1.00 20.00     0.210 HD
ENDBRANCH   1   8
TORSDOF 3
ENDMDL
MODEL 4
REMARK VINA RESULT:      -4.2     11.554     12.274
REMARK  3 active torsions:
REMARK  status: ('A' for Active; 'I' for Inactive)
REMARK    1  A    between atoms: C2_2  and  C6_6 
REMARK    2  A    between atoms: C6_6  and  C7_7 
REMARK    3  A    between atoms: C6_6  and  O8_8 
ROOT
HETATM    1  C6  UNL     1     -33.411  15.153  -4.031  1.00 20.00     0.144 C 
ENDROOT
BRANCH   1   2
HETATM    2  C2  UNL     1     -34.092  15.395  -2.712  1.00 20.00     0.000 C 
HETATM    3  C1  UNL     1     -33.959  16.526  -2.004  1.00 20.00    -0.033 C 
HETATM    4  C3  UNL     1     -34.637  16.772  -0.697  1.00 20.00     0.036 C 
ENDBRANCH   1   2
BRANCH   1   5
HETATM    5  C7  UNL     1     -34.123  14.132  -4.951  1.00 20.00     0.010 C 
HETATM    6  C4  UNL     1     -34.600  14.737  -6.275  1.00 20.00     0.012 C 
HETATM    7  C5  UNL     1     -35.283  13.434  -4.239  1.00 20.00     0.012 C 
ENDBRANCH   1   5
BRANCH   1   8
HETATM    8  O8  UNL     1     -32.088  14.691  -3.748  1.00 20.00    -0.391 OA
HETATM    9  H22 UNL     1     -31.575  15.473  -3.494  1.00 20.00     0.210 HD
ENDBRANCH   1   8
TORSDOF 3
ENDMDL
MODEL 5
REMARK VINA RESULT:      -4.1     11.688     12.622
REMARK  3 active torsions:
REMARK  status: ('A' for Active; 'I' for Inactive)
REMARK    1  A    between atoms: C2_2  and  C6_6 
REMARK    2  A    between atoms: C6_6  and  C7_7 
REMARK    3  A    between atoms: C6_6  and  O8_8 
ROOT
HETATM    1  C6  UNL     1     -33.207  15.627  -4.198  1.00 20.00     0.144 C 
ENDROOT
BRANCH   1   2
HETATM    2  C2  UNL     1     -33.600  16.438  -2.994  1.00 20.00     0.000 C 
HETATM    3  C1  UNL     1     -34.380  15.973  -2.007  1.00 20.00    -0.033 C 
HETATM    4  C3  UNL     1     -34.769  16.773  -0.809  1.00 20.00     0.036 C 
ENDBRANCH   1   2
BRANCH   1   5
HETATM    5  C7  UNL     1     -34.374  14.876  -4.882  1.00 20.00     0.010 C 
HETATM    6  C4  UNL     1     -34.360  13.366  -4.623  1.00 20.00     0.012 C 
HETATM    7  C5  UNL     1     -34.429  15.154  -6.385  1.00 20.00     0.012 C 
ENDBRANCH   1   5
BRANCH   1   8
HETATM    8  O8  UNL     1     -32.223  14.683  -3.772  1.00 20.00    -0.391 OA
HETATM    9  H22 UNL     1     -31.361  15.079  -3.972  1.00 20.00     0.210 HD
ENDBRANCH   1   8
TORSDOF 3
ENDMDL
MODEL 6
REMARK VINA RESULT:      -4.1      1.436      2.090
REMARK  3 active torsions:
REMARK  status: ('A' for Active; 'I' for Inactive)
REMARK    1  A    between atoms: C2_2  and  C6_6 
REMARK    2  A    between atoms: C6_6  and  C7_7 
REMARK    3  A    between atoms: C6_6  and  O8_8 
ROOT
HETATM    1  C6  UNL     1     -32.548   6.577   3.731  1.00 20.00     0.144 C 
ENDROOT
BRANCH   1   2
HETATM    2  C2  UNL     1     -32.458   7.140   2.340  1.00 20.00     0.000 C 
HETATM    3  C1  UNL     1     -32.118   8.409   2.072  1.00 20.00    -0.033 C 
HETATM    4  C3  UNL     1     -32.025   8.971   0.693  1.00 20.00     0.036 C 
ENDBRANCH   1   2
BRANCH   1   5
HETATM    5  C7  UNL     1     -33.987   6.427   4.279  1.00 20.00     0.010 C 
HETATM    6  C4  UNL     1     -34.041   6.202   5.794  1.00 20.00     0.012 C 
HETATM    7  C5  UNL     1     -34.763   5.326   3.553  1.00 20.00     0.012 C 
ENDBRANCH   1   5
BRANCH   1   8
HETATM    8  O8  UNL     1     -31.804   7.444   4.589  1.00 20.00    -0.391 OA
HETATM    9  H22 UNL     1     -31.949   7.124   5.492  1.00 20.00     0.210 HD
ENDBRANCH   1   8
TORSDOF 3
ENDMDL
MODEL 7
REMARK VINA RESULT:      -4.1      1.926      3.250
REMARK  3 active torsions:
REMARK  status: ('A' for Active; 'I' for Inactive)
REMARK    1  A    between atoms: C2_2  and  C6_6 
REMARK    2  A    between atoms: C6_6  and  C7_7 
REMARK    3  A    between atoms: C6_6  and  O8_8 
ROOT
HETATM    1  C6  UNL     1     -34.442   4.599   5.169  1.00 20.00     0.144 C 
ENDROOT
BRANCH   1   2
HETATM    2  C2  UNL     1     -34.517   5.681   6.211  1.00 20.00     0.000 C 
HETATM    3  C1  UNL     1     -33.606   6.658   6.333  1.00 20.00    -0.033 C 
HETATM    4  C3  UNL     1     -33.678   7.737   7.363  1.00 20.00     0.036 C 
ENDBRANCH   1   2
BRANCH   1   5
HETATM    5  C7  UNL     1     -34.616   5.089   3.711  1.00 20.00     0.010 C 
HETATM    6  C4  UNL     1     -33.427   5.908   3.198  1.00 20.00     0.012 C 
HETATM    7  C5  UNL     1     -35.917   5.873   3.524  1.00 20.00     0.012 C 
ENDBRANCH   1   5
BRANCH   1   8
HETATM    8  O8  UNL     1     -35.462   3.646   5.472  1.00 20.00    -0.391 OA
HETATM    9  H22 UNL     1     -35.736   3.262   4.625  1.00 20.00     0.210 HD
ENDBRANCH   1   8
TORSDOF 3
ENDMDL
MODEL 8
REMARK VINA RESULT:      -4.0     11.654     12.607
REMARK  3 active torsions:
REMARK  status: ('A' for Active; 'I' for Inactive)
REMARK    1  A    between atoms: C2_2  and  C6_6 
REMARK    2  A    between atoms: C6_6  and  C7_7 
REMARK    3  A    between atoms: C6_6  and  O8_8 
ROOT
HETATM    1  C6  UNL     1     -34.702  13.895  -4.505  1.00 20.00     0.144 C 
ENDROOT
BRANCH   1   2
HETATM    2  C2  UNL     1     -35.081  14.729  -3.313  1.00 20.00     0.000 C 
HETATM    3  C1  UNL     1     -34.241  15.578  -2.703  1.00 20.00    -0.033 C 
HETATM    4  C3  UNL     1     -34.614  16.411  -1.522  1.00 20.00     0.036 C 
ENDBRANCH   1   2
BRANCH   1   5
HETATM    5  C7  UNL     1     -35.308  14.370  -5.848  1.00 20.00     0.010 C 
HETATM    6  C4  UNL     1     -34.327  15.176  -6.706  1.00 20.00     0.012 C 
HETATM    7  C5  UNL     1     -36.602  15.158  -5.643  1.00 20.00     0.012 C 
ENDBRANCH   1   5
BRANCH   1   8
HETATM    8  O8  UNL     1     -35.129  12.557  -4.242  1.00 20.00    -0.391 OA
HETATM    9  H22 UNL     1     -35.285  12.504  -3.287  1.00 20.00     0.210 HD
ENDBRANCH   1   8
TORSDOF 3
ENDMDL
MODEL 9
REMARK VINA RESULT:      -4.0     11.380     12.607
REMARK  3 active torsions:
REMARK  status: ('A' for Active; 'I' for Inactive)
REMARK    1  A    between atoms: C2_2  and  C6_6 
REMARK    2  A    between atoms: C6_6  and  C7_7 
REMARK    3  A    between atoms: C6_6  and  O8_8 
ROOT
HETATM    1  C6  UNL     1     -35.221  13.926  -4.277  1.00 20.00     0.144 C 
ENDROOT
BRANCH   1   2
HETATM    2  C2  UNL     1     -34.765  14.204  -5.682  1.00 20.00     0.000 C 
HETATM    3  C1  UNL     1     -35.407  15.030  -6.522  1.00 20.00    -0.033 C 
HETATM    4  C3  UNL     1     -34.956  15.312  -7.916  1.00 20.00     0.036 C 
ENDBRANCH   1   2
BRANCH   1   5
HETATM    5  C7  UNL     1     -34.321  14.530  -3.172  1.00 20.00     0.010 C 
HETATM    6  C4  UNL     1     -34.916  15.782  -2.519  1.00 20.00     0.012 C 
HETATM    7  C5  UNL     1     -32.908  14.819  -3.682  1.00 20.00     0.012 C 
ENDBRANCH   1   5
BRANCH   1   8
HETATM    8  O8  UNL     1     -35.274  12.507  -4.119  1.00 20.00    -0.391 OA
HETATM    9  H22 UNL     1     -36.214  12.271  -4.091  1.00 20.00     0.210 HD
ENDBRANCH   1   8
TORSDOF 3
ENDMDL
