MODEL 1
REMARK VINA RESULT:      -4.0      0.000      0.000
REMARK  1 active torsions:
REMARK  status: ('A' for Active; 'I' for Inactive)
REMARK    1  A    between atoms: C2_2  and  C4_4 
ROOT
HETATM    1  C3  UNL     1     -32.905   5.852   3.374  1.00 20.00     0.205 A 
HETATM    2  C4  UNL     1     -34.283   5.848   3.930  1.00 20.00     0.173 A 
HETATM    3  O6  UNL     1     -33.632   7.062   3.619  1.00 20.00    -0.377 OA
ENDROOT
BRANCH   2   4
HETATM    4  C2  UNL     1     -34.444   5.404   5.353  1.00 20.00    -0.062 C 
HETATM    5  C1  UNL     1     -34.880   4.175   5.667  1.00 20.00     0.016 C 
HETATM    6  C5  UNL     1     -34.089   6.412   6.405  1.00 20.00     0.045 C 
ENDBRANCH   2   4
TORSDOF 1
ENDMDL
MODEL 2
REMARK VINA RESULT:      -4.0      0.134      1.441
REMARK  1 active torsions:
REMARK  status: ('A' for Active; 'I' for Inactive)
REMARK    1  A    between atoms: C2_2  and  C4_4 
ROOT
HETATM    1  C3  UNL     1     -32.799   5.856   3.377  1.00 20.00     0.205 A 
HETATM    2  C4  UNL     1     -34.177   5.941   3.928  1.00 20.00     0.173 A 
HETATM    3  O6  UNL     1     -33.474   7.107   3.553  1.00 20.00    -0.377 OA
ENDROOT
BRANCH   2   4
HETATM    4  C2  UNL     1     -34.359   5.582   5.372  1.00 20.00    -0.062 C 
HETATM    5  C1  UNL     1     -34.051   6.436   6.359  1.00 20.00     0.016 C 
HETATM    6  C5  UNL     1     -34.906   4.213   5.650  1.00 20.00     0.045 C 
ENDBRANCH   2   4
TORSDOF 1
ENDMDL
MODEL 3
REMARK VINA RESULT:      -3.6      1.635      2.616
REMARK  1 active torsions:
REMARK  status: ('A' for Active; 'I' for Inactive)
REMARK    1  A    between atoms: C2_2  and  C4_4 
ROOT
HETATM    1  C3  UNL     1     -34.873   3.806   5.888  1.00 20.00     0.205 A 
HETATM    2  C4  UNL     1     -35.167   5.086   5.193  1.00 20.00     0.173 A 
HETATM    3  O6  UNL     1     -35.104   3.871   4.475  1.00 20.00    -0.377 OA
ENDROOT
BRANCH   2   4
HETATM    4  C2  UNL     1     -34.055   6.089   5.109  1.00 20.00    -0.062 C 
HETATM    5  C1  UNL     1     -33.380   6.306   3.971  1.00 20.00     0.016 C 
HETATM    6  C5  UNL     1     -33.741   6.836   6.372  1.00 20.00     0.045 C 
ENDBRANCH   2   4
TORSDOF 1
ENDMDL
MODEL 4
REMARK VINA RESULT:      -3.6      1.570      2.733
REMARK  1 active torsions:
REMARK  status: ('A' for Active; 'I' for Inactive)
REMARK    1  A    between atoms: C2_2  and  C4_4 
ROOT
HETATM    1  C3  UNL     1     -34.864   3.879   5.823  1.00 20.00     0.205 A 
HETATM    2  C4  UNL     1     -35.124   5.224   5.249  1.00 20.00     0.173 A 
HETATM    3  O6  UNL     1     -35.066   4.083   4.420  1.00 20.00    -0.377 OA
ENDROOT
BRANCH   2   4
HETATM    4  C2  UNL     1     -33.996   6.211   5.281  1.00 20.00    -0.062 C 
HETATM    5  C1  UNL     1     -33.665   6.875   6.399  1.00 20.00     0.016 C 
HETATM    6  C5  UNL     1     -33.257   6.413   3.991  1.00 20.00     0.045 C 
ENDBRANCH   2   4
TORSDOF 1
ENDMDL
MODEL 5
REMARK VINA RESULT:      -3.5      1.158      1.443
REMARK  1 active torsions:
REMARK  status: ('A' for Active; 'I' for Inactive)
REMARK    1  A    between atoms: C2_2  and  C4_4 
ROOT
HETATM    1  C3  UNL     1     -35.552   5.788   3.364  1.00 20.00     0.205 A 
HETATM    2  C4  UNL     1     -34.303   5.985   4.145  1.00 20.00     0.173 A 
HETATM    3  O6  UNL     1     -34.375   5.006   3.130  1.00 20.00    -0.377 OA
ENDROOT
BRANCH   2   4
HETATM    4  C2  UNL     1     -34.334   5.596   5.593  1.00 20.00    -0.062 C 
HETATM    5  C1  UNL     1     -34.691   4.367   5.990  1.00 20.00     0.016 C 
HETATM    6  C5  UNL     1     -33.942   6.663   6.572  1.00 20.00     0.045 C 
ENDBRANCH   2   4
TORSDOF 1
ENDMDL
MODEL 6
REMARK VINA RESULT:      -3.4      2.013      2.864
REMARK  1 active torsions:
REMARK  status: ('A' for Active; 'I' for Inactive)
REMARK    1  A    between atoms: C2_2  and  C4_4 
ROOT
HETATM    1  C3  UNL     1     -34.641   4.318   6.028  1.00 20.00     0.205 A 
HETATM    2  C4  UNL     1     -35.217   4.970   4.823  1.00 20.00     0.173 A 
HETATM    3  O6  UNL     1     -35.229   3.565   4.961  1.00 20.00    -0.377 OA
ENDROOT
BRANCH   2   4
HETATM    4  C2  UNL     1     -34.259   5.644   3.887  1.00 20.00    -0.062 C 
HETATM    5  C1  UNL     1     -34.185   5.314   2.589  1.00 20.00     0.016 C 
HETATM    6  C5  UNL     1     -33.388   6.708   4.485  1.00 20.00     0.045 C 
ENDBRANCH   2   4
TORSDOF 1
ENDMDL
MODEL 7
REMARK VINA RESULT:      -3.4      1.610      2.822
REMARK  1 active torsions:
REMARK  status: ('A' for Active; 'I' for Inactive)
REMARK    1  A    between atoms: C2_2  and  C4_4 
ROOT
HETATM    1  C3  UNL     1     -34.454   4.125   6.020  1.00 20.00     0.205 A 
HETATM    2  C4  UNL     1     -34.107   5.500   5.574  1.00 20.00     0.173 A 
HETATM    3  O6  UNL     1     -35.270   5.259   6.339  1.00 20.00    -0.377 OA
ENDROOT
BRANCH   2   4
HETATM    4  C2  UNL     1     -34.198   5.785   4.105  1.00 20.00    -0.062 C 
HETATM    5  C1  UNL     1     -35.338   5.619   3.419  1.00 20.00     0.016 C 
HETATM    6  C5  UNL     1     -32.939   6.266   3.446  1.00 20.00     0.045 C 
ENDBRANCH   2   4
TORSDOF 1
ENDMDL
MODEL 8
REMARK VINA RESULT:      -3.3      1.632      3.009
REMARK  1 active torsions:
REMARK  status: ('A' for Active; 'I' for Inactive)
REMARK    1  A    between atoms: C2_2  and  C4_4 
ROOT
HETATM    1  C3  UNL     1     -34.468   4.092   6.027  1.00 20.00     0.205 A 
HETATM    2  C4  UNL     1     -34.119   5.483   5.637  1.00 20.00     0.173 A 
HETATM    3  O6  UNL     1     -35.322   5.204   6.321  1.00 20.00    -0.377 OA
ENDROOT
BRANCH   2   4
HETATM    4  C2  UNL     1     -34.122   5.804   4.172  1.00 20.00    -0.062 C 
HETATM    5  C1  UNL     1     -33.023   6.241   3.540  1.00 20.00     0.016 C 
HETATM    6  C5  UNL     1     -35.424   5.606   3.455  1.00 20.00     0.045 C 
ENDBRANCH   2   4
TORSDOF 1
ENDMDL
MODEL 9
REMARK VINA RESULT:      -3.2     11.931     12.526
REMARK  1 active torsions:
REMARK  status: ('A' for Active; 'I' for Inactive)
REMARK    1  A    between atoms: C2_2  and  C4_4 
ROOT
HETATM    1  C3  UNL     1     -34.751  13.345  -5.350  1.00 20.00     0.205 A 
HETATM    2  C4  UNL     1     -33.869  13.697  -4.207  1.00 20.00     0.173 A 
HETATM    3  O6  UNL     1     -34.949  12.802  -4.039  1.00 20.00    -0.377 OA
ENDROOT
BRANCH   2   4
HETATM    4  C2  UNL     1     -33.948  15.103  -3.692  1.00 20.00    -0.062 C 
HETATM    5  C1  UNL     1     -34.694  15.428  -2.626  1.00 20.00     0.016 C 
HETATM    6  C5  UNL     1     -33.142  16.126  -4.437  1.00 20.00     0.045 C 
ENDBRANCH   2   4
TORSDOF 1
ENDMDL
