MODEL 1
REMARK VINA RESULT:      -5.1      0.000      0.000
REMARK  2 active torsions:
REMARK  status: ('A' for Active; 'I' for Inactive)
REMARK    1  A    between atoms: C3_3  and  C5_5 
REMARK    2  A    between atoms: C4_4  and  C10_10 
ROOT
HETATM    1  C1  UNL     1     -35.480  18.883  -1.370  1.00 20.00    -0.026 C 
HETATM    2  C2  UNL     1     -35.692  17.751  -0.683  1.00 20.00    -0.025 C 
HETATM    3  C6  UNL     1     -33.456  18.272  -0.434  1.00 20.00     0.017 C 
HETATM    4  C7  UNL     1     -33.723  17.846  -2.762  1.00 20.00     0.017 C 
HETATM    5  C8  UNL     1     -34.008  18.934  -1.701  1.00 20.00     0.009 C 
HETATM    6  C9  UNL     1     -34.361  17.041  -0.566  1.00 20.00     0.016 C 
HETATM    7  C10 UNL     1     -33.928  16.528  -1.961  1.00 20.00     0.017 C 
ENDROOT
BRANCH   7   8
HETATM    8  C4  UNL     1     -34.874  15.563  -2.597  1.00 20.00    -0.015 C 
HETATM    9  C3  UNL     1     -34.487  14.588  -3.431  1.00 20.00     0.081 C 
BRANCH   9  10
HETATM   10  C5  UNL     1     -35.493  13.617  -4.066  1.00 20.00     0.198 C 
HETATM   11  O11 UNL     1     -34.955  12.635  -4.660  1.00 20.00    -0.645 OA
HETATM   12  O12 UNL     1     -36.719  13.890  -3.932  1.00 20.00    -0.645 OA
ENDBRANCH   9  10
ENDBRANCH   7   8
TORSDOF 2
ENDMDL
MODEL 2
REMARK VINA RESULT:      -4.9      2.773      5.013
REMARK  2 active torsions:
REMARK  status: ('A' for Active; 'I' for Inactive)
REMARK    1  A    between atoms: C3_3  and  C5_5 
REMARK    2  A    between atoms: C4_4  and  C10_10 
ROOT
HETATM    1  C1  UNL     1     -36.433  14.286  -4.189  1.00 20.00    -0.026 C 
HETATM    2  C2  UNL     1     -36.148  15.522  -4.625  1.00 20.00    -0.025 C 
HETATM    3  C6  UNL     1     -34.777  14.074  -5.789  1.00 20.00     0.017 C 
HETATM    4  C7  UNL     1     -34.095  13.861  -3.518  1.00 20.00     0.017 C 
HETATM    5  C8  UNL     1     -35.227  13.425  -4.475  1.00 20.00     0.009 C 
HETATM    6  C9  UNL     1     -34.747  15.486  -5.193  1.00 20.00     0.016 C 
HETATM    7  C10 UNL     1     -33.732  15.279  -4.043  1.00 20.00     0.017 C 
ENDROOT
BRANCH   7   8
HETATM    8  C4  UNL     1     -33.743  16.344  -2.995  1.00 20.00    -0.015 C 
HETATM    9  C3  UNL     1     -34.208  16.154  -1.753  1.00 20.00     0.081 C 
BRANCH   9  10
HETATM   10  C5  UNL     1     -34.202  17.276  -0.704  1.00 20.00     0.198 C 
HETATM   11  O11 UNL     1     -35.012  17.091   0.252  1.00 20.00    -0.645 OA
HETATM   12  O12 UNL     1     -33.411  18.241  -0.900  1.00 20.00    -0.645 OA
ENDBRANCH   9  10
ENDBRANCH   7   8
TORSDOF 2
ENDMDL
MODEL 3
REMARK VINA RESULT:      -4.8      1.202      2.044
REMARK  2 active torsions:
REMARK  status: ('A' for Active; 'I' for Inactive)
REMARK    1  A    between atoms: C3_3  and  C5_5 
REMARK    2  A    between atoms: C4_4  and  C10_10 
ROOT
HETATM    1  C1  UNL     1     -34.796  17.009  -0.612  1.00 20.00    -0.026 C 
HETATM    2  C2  UNL     1     -33.641  17.109  -1.285  1.00 20.00    -0.025 C 
HETATM    3  C6  UNL     1     -34.958  18.883  -1.957  1.00 20.00     0.017 C 
HETATM    4  C7  UNL     1     -36.132  16.944  -2.688  1.00 20.00     0.017 C 
HETATM    5  C8  UNL     1     -35.840  17.757  -1.406  1.00 20.00     0.009 C 
HETATM    6  C9  UNL     1     -33.917  17.916  -2.535  1.00 20.00     0.016 C 
HETATM    7  C10 UNL     1     -34.809  17.089  -3.492  1.00 20.00     0.017 C 
ENDROOT
BRANCH   7   8
HETATM    8  C4  UNL     1     -34.217  15.792  -3.941  1.00 20.00    -0.015 C 
HETATM    9  C3  UNL     1     -34.752  14.597  -3.655  1.00 20.00     0.081 C 
BRANCH   9  10
HETATM   10  C5  UNL     1     -34.112  13.287  -4.135  1.00 20.00     0.198 C 
HETATM   11  O11 UNL     1     -32.917  13.124  -3.745  1.00 20.00    -0.645 OA
HETATM   12  O12 UNL     1     -34.825  12.528  -4.849  1.00 20.00    -0.645 OA
ENDBRANCH   9  10
ENDBRANCH   7   8
TORSDOF 2
ENDMDL
MODEL 4
REMARK VINA RESULT:      -4.8      3.166      5.012
REMARK  2 active torsions:
REMARK  status: ('A' for Active; 'I' for Inactive)
REMARK    1  A    between atoms: C3_3  and  C5_5 
REMARK    2  A    between atoms: C4_4  and  C10_10 
ROOT
HETATM    1  C1  UNL     1     -34.462  16.041  -5.498  1.00 20.00    -0.026 C 
HETATM    2  C2  UNL     1     -33.305  15.994  -4.820  1.00 20.00    -0.025 C 
HETATM    3  C6  UNL     1     -34.234  13.883  -4.697  1.00 20.00     0.017 C 
HETATM    4  C7  UNL     1     -35.770  15.289  -3.543  1.00 20.00     0.017 C 
HETATM    5  C8  UNL     1     -35.328  14.920  -4.977  1.00 20.00     0.009 C 
HETATM    6  C9  UNL     1     -33.405  14.847  -3.839  1.00 20.00     0.016 C 
HETATM    7  C10 UNL     1     -34.440  15.199  -2.742  1.00 20.00     0.017 C 
ENDROOT
BRANCH   7   8
HETATM    8  C4  UNL     1     -34.119  16.420  -1.943  1.00 20.00    -0.015 C 
HETATM    9  C3  UNL     1     -34.616  16.657  -0.722  1.00 20.00     0.081 C 
BRANCH   9  10
HETATM   10  C5  UNL     1     -34.261  17.926   0.067  1.00 20.00     0.198 C 
HETATM   11  O11 UNL     1     -33.071  18.323  -0.106  1.00 20.00    -0.645 OA
HETATM   12  O12 UNL     1     -35.170  18.428   0.785  1.00 20.00    -0.645 OA
ENDBRANCH   9  10
ENDBRANCH   7   8
TORSDOF 2
ENDMDL
MODEL 5
REMARK VINA RESULT:      -4.8      1.103      2.088
REMARK  2 active torsions:
REMARK  status: ('A' for Active; 'I' for Inactive)
REMARK    1  A    between atoms: C3_3  and  C5_5 
REMARK    2  A    between atoms: C4_4  and  C10_10 
ROOT
HETATM    1  C1  UNL     1     -33.077  18.740  -0.514  1.00 20.00    -0.026 C 
HETATM    2  C2  UNL     1     -33.303  18.658  -1.833  1.00 20.00    -0.025 C 
HETATM    3  C6  UNL     1     -35.314  19.221  -0.848  1.00 20.00     0.017 C 
HETATM    4  C7  UNL     1     -34.807  17.054   0.003  1.00 20.00     0.017 C 
HETATM    5  C8  UNL     1     -34.403  18.536   0.178  1.00 20.00     0.009 C 
HETATM    6  C9  UNL     1     -34.780  18.389  -2.021  1.00 20.00     0.016 C 
HETATM    7  C10 UNL     1     -35.109  16.962  -1.521  1.00 20.00     0.017 C 
ENDROOT
BRANCH   7   8
HETATM    8  C4  UNL     1     -34.381  15.865  -2.226  1.00 20.00    -0.015 C 
HETATM    9  C3  UNL     1     -34.987  14.945  -2.989  1.00 20.00     0.081 C 
BRANCH   9  10
HETATM   10  C5  UNL     1     -34.201  13.832  -3.697  1.00 20.00     0.198 C 
HETATM   11  O11 UNL     1     -32.952  14.036  -3.746  1.00 20.00    -0.645 OA
HETATM   12  O12 UNL     1     -34.865  12.856  -4.144  1.00 20.00    -0.645 OA
ENDBRANCH   9  10
ENDBRANCH   7   8
TORSDOF 2
ENDMDL
MODEL 6
REMARK VINA RESULT:      -4.7     12.691     14.275
REMARK  2 active torsions:
REMARK  status: ('A' for Active; 'I' for Inactive)
REMARK    1  A    between atoms: C3_3  and  C5_5 
REMARK    2  A    between atoms: C4_4  and  C10_10 
ROOT
HETATM    1  C1  UNL     1     -42.700   5.541   0.524  1.00 20.00    -0.026 C 
HETATM    2  C2  UNL     1     -41.819   4.550   0.319  1.00 20.00    -0.025 C 
HETATM    3  C6  UNL     1     -40.848   6.482  -0.492  1.00 20.00     0.017 C 
HETATM    4  C7  UNL     1     -42.759   6.138  -1.872  1.00 20.00     0.017 C 
HETATM    5  C8  UNL     1     -42.373   6.637  -0.461  1.00 20.00     0.009 C 
HETATM    6  C9  UNL     1     -40.911   4.983  -0.811  1.00 20.00     0.016 C 
HETATM    7  C10 UNL     1     -41.715   5.014  -2.133  1.00 20.00     0.017 C 
ENDROOT
BRANCH   7   8
HETATM    8  C4  UNL     1     -42.310   3.705  -2.538  1.00 20.00    -0.015 C 
HETATM    9  C3  UNL     1     -41.594   2.692  -3.044  1.00 20.00     0.081 C 
BRANCH   9  10
HETATM   10  C5  UNL     1     -42.245   1.361  -3.449  1.00 20.00     0.198 C 
HETATM   11  O11 UNL     1     -41.934   0.970  -4.613  1.00 20.00    -0.645 OA
HETATM   12  O12 UNL     1     -43.002   0.811  -2.602  1.00 20.00    -0.645 OA
ENDBRANCH   9  10
ENDBRANCH   7   8
TORSDOF 2
ENDMDL
MODEL 7
REMARK VINA RESULT:      -4.7      3.703      5.138
REMARK  2 active torsions:
REMARK  status: ('A' for Active; 'I' for Inactive)
REMARK    1  A    between atoms: C3_3  and  C5_5 
REMARK    2  A    between atoms: C4_4  and  C10_10 
ROOT
HETATM    1  C1  UNL     1     -33.646  16.567  -4.205  1.00 20.00    -0.026 C 
HETATM    2  C2  UNL     1     -33.390  15.681  -3.232  1.00 20.00    -0.025 C 
HETATM    3  C6  UNL     1     -35.660  15.579  -3.646  1.00 20.00     0.017 C 
HETATM    4  C7  UNL     1     -35.293  17.783  -2.824  1.00 20.00     0.017 C 
HETATM    5  C8  UNL     1     -35.106  16.934  -4.102  1.00 20.00     0.009 C 
HETATM    6  C9  UNL     1     -34.680  15.464  -2.472  1.00 20.00     0.016 C 
HETATM    7  C10 UNL     1     -35.036  16.751  -1.688  1.00 20.00     0.017 C 
ENDROOT
BRANCH   7   8
HETATM    8  C4  UNL     1     -34.015  17.180  -0.686  1.00 20.00    -0.015 C 
HETATM    9  C3  UNL     1     -33.538  18.429  -0.605  1.00 20.00     0.081 C 
BRANCH   9  10
HETATM   10  C5  UNL     1     -32.487  18.830   0.441  1.00 20.00     0.198 C 
HETATM   11  O11 UNL     1     -32.868  18.675   1.639  1.00 20.00    -0.645 OA
HETATM   12  O12 UNL     1     -31.381  19.259   0.008  1.00 20.00    -0.645 OA
ENDBRANCH   9  10
ENDBRANCH   7   8
TORSDOF 2
ENDMDL
MODEL 8
REMARK VINA RESULT:      -4.7     12.516     14.235
REMARK  2 active torsions:
REMARK  status: ('A' for Active; 'I' for Inactive)
REMARK    1  A    between atoms: C3_3  and  C5_5 
REMARK    2  A    between atoms: C4_4  and  C10_10 
ROOT
HETATM    1  C1  UNL     1     -41.481   6.916  -2.144  1.00 20.00    -0.026 C 
HETATM    2  C2  UNL     1     -42.538   6.280  -2.671  1.00 20.00    -0.025 C 
HETATM    3  C6  UNL     1     -42.757   6.144  -0.376  1.00 20.00     0.017 C 
HETATM    4  C7  UNL     1     -40.772   4.924  -0.868  1.00 20.00     0.017 C 
HETATM    5  C8  UNL     1     -41.288   6.376  -0.748  1.00 20.00     0.009 C 
HETATM    6  C9  UNL     1     -43.042   5.306  -1.629  1.00 20.00     0.016 C 
HETATM    7  C10 UNL     1     -42.006   4.171  -1.443  1.00 20.00     0.017 C 
ENDROOT
BRANCH   7   8
HETATM    8  C4  UNL     1     -41.721   3.373  -2.673  1.00 20.00    -0.015 C 
HETATM    9  C3  UNL     1     -42.322   2.209  -2.955  1.00 20.00     0.081 C 
BRANCH   9  10
HETATM   10  C5  UNL     1     -42.000   1.418  -4.232  1.00 20.00     0.198 C 
HETATM   11  O11 UNL     1     -41.289   0.388  -4.033  1.00 20.00    -0.645 OA
HETATM   12  O12 UNL     1     -42.465   1.865  -5.317  1.00 20.00    -0.645 OA
ENDBRANCH   9  10
ENDBRANCH   7   8
TORSDOF 2
ENDMDL
MODEL 9
REMARK VINA RESULT:      -4.5     10.717     12.071
REMARK  2 active torsions:
REMARK  status: ('A' for Active; 'I' for Inactive)
REMARK    1  A    between atoms: C3_3  and  C5_5 
REMARK    2  A    between atoms: C4_4  and  C10_10 
ROOT
HETATM    1  C1  UNL     1     -35.830   5.469   4.235  1.00 20.00    -0.026 C 
HETATM    2  C2  UNL     1     -35.019   5.307   3.179  1.00 20.00    -0.025 C 
HETATM    3  C6  UNL     1     -34.048   4.176   4.943  1.00 20.00     0.017 C 
HETATM    4  C7  UNL     1     -34.034   6.463   5.607  1.00 20.00     0.017 C 
HETATM    5  C8  UNL     1     -34.994   5.259   5.474  1.00 20.00     0.009 C 
HETATM    6  C9  UNL     1     -33.639   4.999   3.715  1.00 20.00     0.016 C 
HETATM    7  C10 UNL     1     -33.065   6.260   4.407  1.00 20.00     0.017 C 
ENDROOT
BRANCH   7   8
HETATM    8  C4  UNL     1     -32.924   7.454   3.521  1.00 20.00    -0.015 C 
HETATM    9  C3  UNL     1     -32.150   7.478   2.428  1.00 20.00     0.081 C 
BRANCH   9  10
HETATM   10  C5  UNL     1     -32.033   8.728   1.544  1.00 20.00     0.198 C 
HETATM   11  O11 UNL     1     -31.288   8.573   0.531  1.00 20.00    -0.645 OA
HETATM   12  O12 UNL     1     -32.675   9.752   1.909  1.00 20.00    -0.645 OA
ENDBRANCH   9  10
ENDBRANCH   7   8
TORSDOF 2
ENDMDL
