MODEL 1
REMARK VINA RESULT:      -3.9      0.000      0.000
REMARK  2 active torsions:
REMARK  status: ('A' for Active; 'I' for Inactive)
REMARK    1  A    between atoms: C2_2  and  C6_6 
REMARK    2  A    between atoms: C6_6  and  O7_7 
ROOT
HETATM    1  C4  UNL     1     -33.487  13.862  -3.808  1.00 20.00     0.050 C 
HETATM    2  C5  UNL     1     -34.826  15.711  -4.865  1.00 20.00     0.050 C 
HETATM    3  C6  UNL     1     -33.583  15.372  -4.039  1.00 20.00     0.068 C 
ENDROOT
BRANCH   3   4
HETATM    4  C2  UNL     1     -33.639  16.092  -2.709  1.00 20.00     0.005 C 
HETATM    5  C1  UNL     1     -34.673  16.103  -1.851  1.00 20.00    -0.032 C 
HETATM    6  C3  UNL     1     -34.662  16.838  -0.552  1.00 20.00     0.036 C 
ENDBRANCH   3   4
BRANCH   3   7
HETATM    7  O7  UNL     1     -32.434  15.777  -4.785  1.00 20.00    -0.387 OA
HETATM    8  H19 UNL     1     -32.691  15.749  -5.719  1.00 20.00     0.211 HD
ENDBRANCH   3   7
TORSDOF 2
ENDMDL
MODEL 2
REMARK VINA RESULT:      -3.9     12.284     13.115
REMARK  2 active torsions:
REMARK  status: ('A' for Active; 'I' for Inactive)
REMARK    1  A    between atoms: C2_2  and  C6_6 
REMARK    2  A    between atoms: C6_6  and  O7_7 
ROOT
HETATM    1  C4  UNL     1     -34.324   3.626   5.369  1.00 20.00     0.050 C 
HETATM    2  C5  UNL     1     -34.522   5.982   6.230  1.00 20.00     0.050 C 
HETATM    3  C6  UNL     1     -34.647   5.077   5.003  1.00 20.00     0.068 C 
ENDROOT
BRANCH   3   4
HETATM    4  C2  UNL     1     -33.707   5.553   3.917  1.00 20.00     0.005 C 
HETATM    5  C1  UNL     1     -32.953   6.665   3.945  1.00 20.00    -0.032 C 
HETATM    6  C3  UNL     1     -32.045   7.078   2.835  1.00 20.00     0.036 C 
ENDBRANCH   3   4
BRANCH   3   7
HETATM    7  O7  UNL     1     -36.003   5.126   4.555  1.00 20.00    -0.387 OA
HETATM    8  H19 UNL     1     -36.200   6.059   4.383  1.00 20.00     0.211 HD
ENDBRANCH   3   7
TORSDOF 2
ENDMDL
MODEL 3
REMARK VINA RESULT:      -3.9      1.922      2.385
REMARK  2 active torsions:
REMARK  status: ('A' for Active; 'I' for Inactive)
REMARK    1  A    between atoms: C2_2  and  C6_6 
REMARK    2  A    between atoms: C6_6  and  O7_7 
ROOT
HETATM    1  C4  UNL     1     -34.690  14.529  -5.450  1.00 20.00     0.050 C 
HETATM    2  C5  UNL     1     -33.147  13.515  -3.740  1.00 20.00     0.050 C 
HETATM    3  C6  UNL     1     -34.590  13.919  -4.049  1.00 20.00     0.068 C 
ENDROOT
BRANCH   3   4
HETATM    4  C2  UNL     1     -35.076  14.916  -3.020  1.00 20.00     0.005 C 
HETATM    5  C1  UNL     1     -34.314  15.761  -2.307  1.00 20.00    -0.032 C 
HETATM    6  C3  UNL     1     -34.859  16.721  -1.303  1.00 20.00     0.036 C 
ENDBRANCH   3   4
BRANCH   3   7
HETATM    7  O7  UNL     1     -35.394  12.737  -4.027  1.00 20.00    -0.387 OA
HETATM    8  H19 UNL     1     -35.172  12.241  -4.829  1.00 20.00     0.211 HD
ENDBRANCH   3   7
TORSDOF 2
ENDMDL
MODEL 4
REMARK VINA RESULT:      -3.9     12.209     13.011
REMARK  2 active torsions:
REMARK  status: ('A' for Active; 'I' for Inactive)
REMARK    1  A    between atoms: C2_2  and  C6_6 
REMARK    2  A    between atoms: C6_6  and  O7_7 
ROOT
HETATM    1  C4  UNL     1     -34.870   5.380   6.214  1.00 20.00     0.050 C 
HETATM    2  C5  UNL     1     -35.971   5.583   3.960  1.00 20.00     0.050 C 
HETATM    3  C6  UNL     1     -34.801   4.977   4.738  1.00 20.00     0.068 C 
ENDROOT
BRANCH   3   4
HETATM    4  C2  UNL     1     -33.491   5.442   4.141  1.00 20.00     0.005 C 
HETATM    5  C1  UNL     1     -33.265   6.618   3.531  1.00 20.00    -0.032 C 
HETATM    6  C3  UNL     1     -31.944   7.014   2.960  1.00 20.00     0.036 C 
ENDBRANCH   3   4
BRANCH   3   7
HETATM    7  O7  UNL     1     -34.913   3.554   4.665  1.00 20.00    -0.387 OA
HETATM    8  H19 UNL     1     -35.851   3.361   4.523  1.00 20.00     0.211 HD
ENDBRANCH   3   7
TORSDOF 2
ENDMDL
MODEL 5
REMARK VINA RESULT:      -3.9      2.111      2.331
REMARK  2 active torsions:
REMARK  status: ('A' for Active; 'I' for Inactive)
REMARK    1  A    between atoms: C2_2  and  C6_6 
REMARK    2  A    between atoms: C6_6  and  O7_7 
ROOT
HETATM    1  C4  UNL     1     -36.717  14.412  -4.191  1.00 20.00     0.050 C 
HETATM    2  C5  UNL     1     -34.613  14.444  -5.570  1.00 20.00     0.050 C 
HETATM    3  C6  UNL     1     -35.218  14.098  -4.209  1.00 20.00     0.068 C 
ENDROOT
BRANCH   3   4
HETATM    4  C2  UNL     1     -34.517  14.882  -3.121  1.00 20.00     0.005 C 
HETATM    5  C1  UNL     1     -35.050  15.865  -2.377  1.00 20.00    -0.032 C 
HETATM    6  C3  UNL     1     -34.299  16.601  -1.317  1.00 20.00     0.036 C 
ENDBRANCH   3   4
BRANCH   3   7
HETATM    7  O7  UNL     1     -35.061  12.693  -4.000  1.00 20.00    -0.387 OA
HETATM    8  H19 UNL     1     -34.592  12.593  -3.159  1.00 20.00     0.211 HD
ENDBRANCH   3   7
TORSDOF 2
ENDMDL
MODEL 6
REMARK VINA RESULT:      -3.7     12.341     12.916
REMARK  2 active torsions:
REMARK  status: ('A' for Active; 'I' for Inactive)
REMARK    1  A    between atoms: C2_2  and  C6_6 
REMARK    2  A    between atoms: C6_6  and  O7_7 
ROOT
HETATM    1  C4  UNL     1     -33.953   5.054   2.797  1.00 20.00     0.050 C 
HETATM    2  C5  UNL     1     -34.964   4.013   4.853  1.00 20.00     0.050 C 
HETATM    3  C6  UNL     1     -34.791   5.306   4.053  1.00 20.00     0.068 C 
ENDROOT
BRANCH   3   4
HETATM    4  C2  UNL     1     -34.123   6.356   4.914  1.00 20.00     0.005 C 
HETATM    5  C1  UNL     1     -34.057   6.364   6.255  1.00 20.00    -0.032 C 
HETATM    6  C3  UNL     1     -33.380   7.436   7.044  1.00 20.00     0.036 C 
ENDBRANCH   3   4
BRANCH   3   7
HETATM    7  O7  UNL     1     -36.086   5.743   3.637  1.00 20.00    -0.387 OA
HETATM    8  H19 UNL     1     -36.574   5.962   4.445  1.00 20.00     0.211 HD
ENDBRANCH   3   7
TORSDOF 2
ENDMDL
MODEL 7
REMARK VINA RESULT:      -3.5     12.290     13.283
REMARK  2 active torsions:
REMARK  status: ('A' for Active; 'I' for Inactive)
REMARK    1  A    between atoms: C2_2  and  C6_6 
REMARK    2  A    between atoms: C6_6  and  O7_7 
ROOT
HETATM    1  C4  UNL     1     -42.877   7.071  -0.881  1.00 20.00     0.050 C 
HETATM    2  C5  UNL     1     -40.728   5.943  -0.215  1.00 20.00     0.050 C 
HETATM    3  C6  UNL     1     -41.606   6.383  -1.388  1.00 20.00     0.068 C 
ENDROOT
BRANCH   3   4
HETATM    4  C2  UNL     1     -41.976   5.182  -2.231  1.00 20.00     0.005 C 
HETATM    5  C1  UNL     1     -41.490   3.936  -2.101  1.00 20.00    -0.032 C 
HETATM    6  C3  UNL     1     -41.898   2.793  -2.970  1.00 20.00     0.036 C 
ENDBRANCH   3   4
BRANCH   3   7
HETATM    7  O7  UNL     1     -40.869   7.333  -2.159  1.00 20.00    -0.387 OA
HETATM    8  H19 UNL     1     -40.384   7.882  -1.524  1.00 20.00     0.211 HD
ENDBRANCH   3   7
TORSDOF 2
ENDMDL
MODEL 8
REMARK VINA RESULT:      -3.5      1.340      3.601
REMARK  2 active torsions:
REMARK  status: ('A' for Active; 'I' for Inactive)
REMARK    1  A    between atoms: C2_2  and  C6_6 
REMARK    2  A    between atoms: C6_6  and  O7_7 
ROOT
HETATM    1  C4  UNL     1     -33.678  16.003  -2.779  1.00 20.00     0.050 C 
HETATM    2  C5  UNL     1     -33.826  13.708  -3.800  1.00 20.00     0.050 C 
HETATM    3  C6  UNL     1     -33.291  15.131  -3.976  1.00 20.00     0.068 C 
ENDROOT
BRANCH   3   4
HETATM    4  C2  UNL     1     -33.845  15.733  -5.249  1.00 20.00     0.005 C 
HETATM    5  C1  UNL     1     -34.359  15.060  -6.292  1.00 20.00    -0.032 C 
HETATM    6  C3  UNL     1     -34.888  15.719  -7.522  1.00 20.00     0.036 C 
ENDBRANCH   3   4
BRANCH   3   7
HETATM    7  O7  UNL     1     -31.865  15.062  -4.028  1.00 20.00    -0.387 OA
HETATM    8  H19 UNL     1     -31.637  14.806  -4.934  1.00 20.00     0.211 HD
ENDBRANCH   3   7
TORSDOF 2
ENDMDL
MODEL 9
REMARK VINA RESULT:      -3.5     12.234     13.041
REMARK  2 active torsions:
REMARK  status: ('A' for Active; 'I' for Inactive)
REMARK    1  A    between atoms: C2_2  and  C6_6 
REMARK    2  A    between atoms: C6_6  and  O7_7 
ROOT
HETATM    1  C4  UNL     1     -40.500   6.168  -0.067  1.00 20.00     0.050 C 
HETATM    2  C5  UNL     1     -42.295   4.408   0.052  1.00 20.00     0.050 C 
HETATM    3  C6  UNL     1     -41.243   5.072  -0.837  1.00 20.00     0.068 C 
ENDROOT
BRANCH   3   4
HETATM    4  C2  UNL     1     -41.906   5.666  -2.061  1.00 20.00     0.005 C 
HETATM    5  C1  UNL     1     -41.930   6.965  -2.404  1.00 20.00    -0.032 C 
HETATM    6  C3  UNL     1     -42.606   7.485  -3.628  1.00 20.00     0.036 C 
ENDBRANCH   3   4
BRANCH   3   7
HETATM    7  O7  UNL     1     -40.290   4.076  -1.213  1.00 20.00    -0.387 OA
HETATM    8  H19 UNL     1     -39.721   3.937  -0.440  1.00 20.00     0.211 HD
ENDBRANCH   3   7
TORSDOF 2
ENDMDL
