MODEL 1
REMARK VINA RESULT:      -4.7      0.000      0.000
REMARK  0 active torsions:
REMARK  status: ('A' for Active; 'I' for Inactive)
ROOT
HETATM    1  C1  UNL     1     -34.339   5.499   3.359  1.00 20.00     0.229 C 
HETATM    2  C2  UNL     1     -35.547   4.948   4.090  1.00 20.00     0.104 C 
HETATM    3  C3  UNL     1     -35.149   4.094   5.289  1.00 20.00     0.009 C 
HETATM    4  C4  UNL     1     -34.900   4.905   6.560  1.00 20.00     0.002 C 
HETATM    5  C5  UNL     1     -33.721   5.872   6.475  1.00 20.00     0.021 C 
HETATM    6  C6  UNL     1     -33.886   6.933   5.392  1.00 20.00     0.140 C 
HETATM    7  N7  UNL     1     -33.572   6.418   4.062  1.00 20.00    -0.284 N 
HETATM    8  O8  UNL     1     -34.090   5.117   2.214  1.00 20.00    -0.273 OA
HETATM    9 BR9  UNL     1     -31.976   7.072   3.250  1.00 20.00     0.052 Br
ENDROOT
TORSDOF 0
ENDMDL
MODEL 2
REMARK VINA RESULT:      -4.1     12.627     13.555
REMARK  0 active torsions:
REMARK  status: ('A' for Active; 'I' for Inactive)
ROOT
HETATM    1  C1  UNL     1     -34.796  13.889  -4.785  1.00 20.00     0.229 C 
HETATM    2  C2  UNL     1     -34.479  14.366  -3.382  1.00 20.00     0.104 C 
HETATM    3  C3  UNL     1     -33.234  15.245  -3.345  1.00 20.00     0.009 C 
HETATM    4  C4  UNL     1     -33.514  16.715  -3.652  1.00 20.00     0.002 C 
HETATM    5  C5  UNL     1     -34.027  16.981  -5.066  1.00 20.00     0.021 C 
HETATM    6  C6  UNL     1     -35.350  16.285  -5.370  1.00 20.00     0.140 C 
HETATM    7  N7  UNL     1     -35.170  14.872  -5.690  1.00 20.00    -0.284 N 
HETATM    8  O8  UNL     1     -34.703  12.690  -5.059  1.00 20.00    -0.273 OA
HETATM    9 BR9  UNL     1     -35.477  14.363  -7.501  1.00 20.00     0.052 Br
ENDROOT
TORSDOF 0
ENDMDL
MODEL 3
REMARK VINA RESULT:      -4.0      9.740     10.550
REMARK  0 active torsions:
REMARK  status: ('A' for Active; 'I' for Inactive)
ROOT
HETATM    1  C1  UNL     1     -42.916   5.396  -2.670  1.00 20.00     0.229 C 
HETATM    2  C2  UNL     1     -42.514   4.540  -1.486  1.00 20.00     0.104 C 
HETATM    3  C3  UNL     1     -41.030   4.674  -1.163  1.00 20.00     0.009 C 
HETATM    4  C4  UNL     1     -40.706   5.863  -0.260  1.00 20.00     0.002 C 
HETATM    5  C5  UNL     1     -41.002   7.228  -0.879  1.00 20.00     0.021 C 
HETATM    6  C6  UNL     1     -42.473   7.426  -1.230  1.00 20.00     0.140 C 
HETATM    7  N7  UNL     1     -42.836   6.768  -2.482  1.00 20.00    -0.284 N 
HETATM    8  O8  UNL     1     -43.278   4.858  -3.719  1.00 20.00    -0.273 OA
HETATM    9 BR9  UNL     1     -43.220   7.907  -3.962  1.00 20.00     0.052 Br
ENDROOT
TORSDOF 0
ENDMDL
MODEL 4
REMARK VINA RESULT:      -4.0      9.751     10.583
REMARK  0 active torsions:
REMARK  status: ('A' for Active; 'I' for Inactive)
ROOT
HETATM    1  C1  UNL     1     -42.503   6.080  -2.929  1.00 20.00     0.229 C 
HETATM    2  C2  UNL     1     -41.588   7.111  -2.297  1.00 20.00     0.104 C 
HETATM    3  C3  UNL     1     -41.758   7.173  -0.783  1.00 20.00     0.009 C 
HETATM    4  C4  UNL     1     -40.918   6.143  -0.031  1.00 20.00     0.002 C 
HETATM    5  C5  UNL     1     -41.293   4.689  -0.315  1.00 20.00     0.021 C 
HETATM    6  C6  UNL     1     -41.128   4.297  -1.779  1.00 20.00     0.140 C 
HETATM    7  N7  UNL     1     -42.242   4.757  -2.604  1.00 20.00    -0.284 N 
HETATM    8  O8  UNL     1     -43.415   6.447  -3.672  1.00 20.00    -0.273 OA
HETATM    9 BR9  UNL     1     -43.417   3.413  -3.272  1.00 20.00     0.052 Br
ENDROOT
TORSDOF 0
ENDMDL
MODEL 5
REMARK VINA RESULT:      -3.9     12.980     13.938
REMARK  0 active torsions:
REMARK  status: ('A' for Active; 'I' for Inactive)
ROOT
HETATM    1  C1  UNL     1     -33.607  16.378  -4.239  1.00 20.00     0.229 C 
HETATM    2  C2  UNL     1     -33.084  15.048  -3.734  1.00 20.00     0.104 C 
HETATM    3  C3  UNL     1     -34.199  14.024  -3.560  1.00 20.00     0.009 C 
HETATM    4  C4  UNL     1     -34.539  13.267  -4.842  1.00 20.00     0.002 C 
HETATM    5  C5  UNL     1     -35.104  14.137  -5.963  1.00 20.00     0.021 C 
HETATM    6  C6  UNL     1     -34.141  15.226  -6.425  1.00 20.00     0.140 C 
HETATM    7  N7  UNL     1     -34.131  16.375  -5.523  1.00 20.00    -0.284 N 
HETATM    8  O8  UNL     1     -33.556  17.372  -3.511  1.00 20.00    -0.273 OA
HETATM    9 BR9  UNL     1     -34.909  17.984  -6.186  1.00 20.00     0.052 Br
ENDROOT
TORSDOF 0
ENDMDL
MODEL 6
REMARK VINA RESULT:      -3.9     12.645     13.620
REMARK  0 active torsions:
REMARK  status: ('A' for Active; 'I' for Inactive)
ROOT
HETATM    1  C1  UNL     1     -35.694  14.876  -3.830  1.00 20.00     0.229 C 
HETATM    2  C2  UNL     1     -35.574  14.299  -5.225  1.00 20.00     0.104 C 
HETATM    3  C3  UNL     1     -35.419  15.386  -6.282  1.00 20.00     0.009 C 
HETATM    4  C4  UNL     1     -33.975  15.847  -6.478  1.00 20.00     0.002 C 
HETATM    5  C5  UNL     1     -33.354  16.524  -5.257  1.00 20.00     0.021 C 
HETATM    6  C6  UNL     1     -33.286  15.617  -4.033  1.00 20.00     0.140 C 
HETATM    7  N7  UNL     1     -34.569  15.525  -3.342  1.00 20.00    -0.284 N 
HETATM    8  O8  UNL     1     -36.753  14.759  -3.209  1.00 20.00    -0.273 OA
HETATM    9 BR9  UNL     1     -34.681  16.372  -1.638  1.00 20.00     0.052 Br
ENDROOT
TORSDOF 0
ENDMDL
MODEL 7
REMARK VINA RESULT:      -3.9     12.600     13.586
REMARK  0 active torsions:
REMARK  status: ('A' for Active; 'I' for Inactive)
ROOT
HETATM    1  C1  UNL     1     -34.262  15.657  -2.902  1.00 20.00     0.229 C 
HETATM    2  C2  UNL     1     -34.224  14.234  -3.422  1.00 20.00     0.104 C 
HETATM    3  C3  UNL     1     -35.190  14.024  -4.583  1.00 20.00     0.009 C 
HETATM    4  C4  UNL     1     -34.606  14.409  -5.941  1.00 20.00     0.002 C 
HETATM    5  C5  UNL     1     -34.273  15.893  -6.092  1.00 20.00     0.021 C 
HETATM    6  C6  UNL     1     -33.230  16.382  -5.093  1.00 20.00     0.140 C 
HETATM    7  N7  UNL     1     -33.803  16.634  -3.773  1.00 20.00    -0.284 N 
HETATM    8  O8  UNL     1     -34.692  15.882  -1.768  1.00 20.00    -0.273 OA
HETATM    9 BR9  UNL     1     -33.923  18.457  -3.231  1.00 20.00     0.052 Br
ENDROOT
TORSDOF 0
ENDMDL
MODEL 8
REMARK VINA RESULT:      -3.9     12.948     13.848
REMARK  0 active torsions:
REMARK  status: ('A' for Active; 'I' for Inactive)
ROOT
HETATM    1  C1  UNL     1     -34.710  16.458  -5.211  1.00 20.00     0.229 C 
HETATM    2  C2  UNL     1     -33.293  16.146  -4.772  1.00 20.00     0.104 C 
HETATM    3  C3  UNL     1     -33.261  15.307  -3.500  1.00 20.00     0.009 C 
HETATM    4  C4  UNL     1     -33.385  13.806  -3.756  1.00 20.00     0.002 C 
HETATM    5  C5  UNL     1     -34.717  13.373  -4.367  1.00 20.00     0.021 C 
HETATM    6  C6  UNL     1     -34.987  14.000  -5.731  1.00 20.00     0.140 C 
HETATM    7  N7  UNL     1     -35.471  15.374  -5.622  1.00 20.00    -0.284 N 
HETATM    8  O8  UNL     1     -35.118  17.622  -5.179  1.00 20.00    -0.273 OA
HETATM    9 BR9  UNL     1     -37.296  15.673  -6.084  1.00 20.00     0.052 Br
ENDROOT
TORSDOF 0
ENDMDL
MODEL 9
REMARK VINA RESULT:      -3.8     12.737     13.725
REMARK  0 active torsions:
REMARK  status: ('A' for Active; 'I' for Inactive)
ROOT
HETATM    1  C1  UNL     1     -34.464  16.864  -4.296  1.00 20.00     0.229 C 
HETATM    2  C2  UNL     1     -34.796  16.467  -5.721  1.00 20.00     0.104 C 
HETATM    3  C3  UNL     1     -34.208  15.109  -6.087  1.00 20.00     0.009 C 
HETATM    4  C4  UNL     1     -35.092  13.931  -5.680  1.00 20.00     0.002 C 
HETATM    5  C5  UNL     1     -35.289  13.776  -4.173  1.00 20.00     0.021 C 
HETATM    6  C6  UNL     1     -35.964  14.980  -3.525  1.00 20.00     0.140 C 
HETATM    7  N7  UNL     1     -35.032  16.081  -3.301  1.00 20.00    -0.284 N 
HETATM    8  O8  UNL     1     -33.723  17.826  -4.087  1.00 20.00    -0.273 OA
HETATM    9 BR9  UNL     1     -34.572  16.452  -1.488  1.00 20.00     0.052 Br
ENDROOT
TORSDOF 0
ENDMDL
