MODEL 1
REMARK VINA RESULT:      -4.9      0.000      0.000
REMARK  2 active torsions:
REMARK  status: ('A' for Active; 'I' for Inactive)
REMARK    1  A    between atoms: C4_4  and  C7_7 
REMARK    2  A    between atoms: C8_8  and  O11_11 
ROOT
HETATM    1  C1  UNL     1     -33.303  15.047  -3.038  1.00 20.00    -0.019 C 
HETATM    2  C2  UNL     1     -33.470  14.211  -4.073  1.00 20.00     0.007 C 
HETATM    3  C5  UNL     1     -35.719  15.792  -3.239  1.00 20.00     0.016 C 
HETATM    4  C6  UNL     1     -35.972  14.403  -3.819  1.00 20.00     0.042 C 
HETATM    5  C7  UNL     1     -34.430  15.817  -2.398  1.00 20.00     0.036 C 
HETATM    6  C8  UNL     1     -34.806  13.925  -4.706  1.00 20.00     0.072 C 
HETATM    7  C10 UNL     1     -34.861  14.549  -6.104  1.00 20.00     0.050 C 
ENDROOT
BRANCH   5   8
HETATM    8  C4  UNL     1     -34.025  17.231  -2.112  1.00 20.00    -0.085 C 
HETATM    9  C3  UNL     1     -33.775  17.657  -0.865  1.00 20.00     0.014 C 
HETATM   10  C9  UNL     1     -33.917  18.142  -3.298  1.00 20.00     0.043 C 
ENDBRANCH   5   8
BRANCH   6  11
HETATM   11  O11 UNL     1     -34.923  12.507  -4.855  1.00 20.00    -0.386 OA
HETATM   12  H27 UNL     1     -34.922  12.140  -3.959  1.00 20.00     0.211 HD
ENDBRANCH   6  11
TORSDOF 2
ENDMDL
MODEL 2
REMARK VINA RESULT:      -4.9      0.133      1.066
REMARK  2 active torsions:
REMARK  status: ('A' for Active; 'I' for Inactive)
REMARK    1  A    between atoms: C4_4  and  C7_7 
REMARK    2  A    between atoms: C8_8  and  O11_11 
ROOT
HETATM    1  C1  UNL     1     -33.337  15.072  -3.040  1.00 20.00    -0.019 C 
HETATM    2  C2  UNL     1     -33.484  14.247  -4.087  1.00 20.00     0.007 C 
HETATM    3  C5  UNL     1     -35.771  15.760  -3.229  1.00 20.00     0.016 C 
HETATM    4  C6  UNL     1     -35.990  14.374  -3.828  1.00 20.00     0.042 C 
HETATM    5  C7  UNL     1     -34.482  15.805  -2.389  1.00 20.00     0.036 C 
HETATM    6  C8  UNL     1     -34.813  13.937  -4.722  1.00 20.00     0.072 C 
HETATM    7  C10 UNL     1     -34.884  14.579  -6.111  1.00 20.00     0.050 C 
ENDROOT
BRANCH   5   8
HETATM    8  C4  UNL     1     -34.112  17.225  -2.083  1.00 20.00    -0.085 C 
HETATM    9  C3  UNL     1     -33.899  18.126  -3.053  1.00 20.00     0.014 C 
HETATM   10  C9  UNL     1     -33.993  17.579  -0.630  1.00 20.00     0.043 C 
ENDBRANCH   5   8
BRANCH   6  11
HETATM   11  O11 UNL     1     -34.895  12.519  -4.891  1.00 20.00    -0.386 OA
HETATM   12  H27 UNL     1     -34.088  12.256  -5.357  1.00 20.00     0.211 HD
ENDBRANCH   6  11
TORSDOF 2
ENDMDL
MODEL 3
REMARK VINA RESULT:      -4.7      1.769      2.939
REMARK  2 active torsions:
REMARK  status: ('A' for Active; 'I' for Inactive)
REMARK    1  A    between atoms: C4_4  and  C7_7 
REMARK    2  A    between atoms: C8_8  and  O11_11 
ROOT
HETATM    1  C1  UNL     1     -34.270  15.416  -6.197  1.00 20.00    -0.019 C 
HETATM    2  C2  UNL     1     -35.035  14.393  -5.789  1.00 20.00     0.007 C 
HETATM    3  C5  UNL     1     -34.095  16.249  -3.808  1.00 20.00     0.016 C 
HETATM    4  C6  UNL     1     -34.286  14.788  -3.412  1.00 20.00     0.042 C 
HETATM    5  C7  UNL     1     -33.583  16.371  -5.255  1.00 20.00     0.036 C 
HETATM    6  C8  UNL     1     -35.280  14.063  -4.340  1.00 20.00     0.072 C 
HETATM    7  C10 UNL     1     -36.734  14.381  -3.978  1.00 20.00     0.050 C 
ENDROOT
BRANCH   5   8
HETATM    8  C4  UNL     1     -33.709  17.786  -5.732  1.00 20.00    -0.085 C 
HETATM    9  C3  UNL     1     -34.041  18.080  -6.998  1.00 20.00     0.014 C 
HETATM   10  C9  UNL     1     -33.441  18.854  -4.714  1.00 20.00     0.043 C 
ENDBRANCH   5   8
BRANCH   6  11
HETATM   11  O11 UNL     1     -35.086  12.655  -4.176  1.00 20.00    -0.386 OA
HETATM   12  H27 UNL     1     -35.932  12.300  -3.864  1.00 20.00     0.211 HD
ENDBRANCH   6  11
TORSDOF 2
ENDMDL
MODEL 4
REMARK VINA RESULT:      -4.6      1.605      1.966
REMARK  2 active torsions:
REMARK  status: ('A' for Active; 'I' for Inactive)
REMARK    1  A    between atoms: C4_4  and  C7_7 
REMARK    2  A    between atoms: C8_8  and  O11_11 
ROOT
HETATM    1  C1  UNL     1     -33.561  17.143  -4.277  1.00 20.00    -0.019 C 
HETATM    2  C2  UNL     1     -34.038  16.710  -5.453  1.00 20.00     0.007 C 
HETATM    3  C5  UNL     1     -34.356  15.009  -3.160  1.00 20.00     0.016 C 
HETATM    4  C6  UNL     1     -34.170  14.366  -4.532  1.00 20.00     0.042 C 
HETATM    5  C7  UNL     1     -33.520  16.295  -3.032  1.00 20.00     0.036 C 
HETATM    6  C8  UNL     1     -34.568  15.319  -5.676  1.00 20.00     0.072 C 
HETATM    7  C10 UNL     1     -36.086  15.369  -5.874  1.00 20.00     0.050 C 
ENDROOT
BRANCH   5   8
HETATM    8  C4  UNL     1     -33.953  17.077  -1.829  1.00 20.00    -0.085 C 
HETATM    9  C3  UNL     1     -34.696  16.528  -0.857  1.00 20.00     0.014 C 
HETATM   10  C9  UNL     1     -33.510  18.510  -1.776  1.00 20.00     0.043 C 
ENDBRANCH   5   8
BRANCH   6  11
HETATM   11  O11 UNL     1     -33.986  14.819  -6.884  1.00 20.00    -0.386 OA
HETATM   12  H27 UNL     1     -34.029  13.854  -6.826  1.00 20.00     0.211 HD
ENDBRANCH   6  11
TORSDOF 2
ENDMDL
MODEL 5
REMARK VINA RESULT:      -4.6      1.980      4.319
REMARK  2 active torsions:
REMARK  status: ('A' for Active; 'I' for Inactive)
REMARK    1  A    between atoms: C4_4  and  C7_7 
REMARK    2  A    between atoms: C8_8  and  O11_11 
ROOT
HETATM    1  C1  UNL     1     -34.857  13.821  -5.310  1.00 20.00    -0.019 C 
HETATM    2  C2  UNL     1     -34.044  13.916  -4.248  1.00 20.00     0.007 C 
HETATM    3  C5  UNL     1     -34.534  16.290  -5.789  1.00 20.00     0.016 C 
HETATM    4  C6  UNL     1     -33.175  16.119  -5.116  1.00 20.00     0.042 C 
HETATM    5  C7  UNL     1     -35.079  14.942  -6.293  1.00 20.00     0.036 C 
HETATM    6  C8  UNL     1     -33.239  15.146  -3.923  1.00 20.00     0.072 C 
HETATM    7  C10 UNL     1     -33.806  15.819  -2.669  1.00 20.00     0.050 C 
ENDROOT
BRANCH   5   8
HETATM    8  C4  UNL     1     -36.529  15.069  -6.650  1.00 20.00    -0.085 C 
HETATM    9  C3  UNL     1     -36.961  14.940  -7.913  1.00 20.00     0.014 C 
HETATM   10  C9  UNL     1     -37.469  15.351  -5.515  1.00 20.00     0.043 C 
ENDBRANCH   5   8
BRANCH   6  11
HETATM   11  O11 UNL     1     -31.903  14.727  -3.628  1.00 20.00    -0.386 OA
HETATM   12  H27 UNL     1     -31.940  13.766  -3.514  1.00 20.00     0.211 HD
ENDBRANCH   6  11
TORSDOF 2
ENDMDL
MODEL 6
REMARK VINA RESULT:      -4.5     11.452     13.456
REMARK  2 active torsions:
REMARK  status: ('A' for Active; 'I' for Inactive)
REMARK    1  A    between atoms: C4_4  and  C7_7 
REMARK    2  A    between atoms: C8_8  and  O11_11 
ROOT
HETATM    1  C1  UNL     1     -41.166   4.628  -0.900  1.00 20.00    -0.019 C 
HETATM    2  C2  UNL     1     -41.232   5.837  -0.325  1.00 20.00     0.007 C 
HETATM    3  C5  UNL     1     -42.518   5.479  -2.869  1.00 20.00     0.016 C 
HETATM    4  C6  UNL     1     -41.921   6.843  -2.534  1.00 20.00     0.042 C 
HETATM    5  C7  UNL     1     -41.658   4.339  -2.295  1.00 20.00     0.036 C 
HETATM    6  C8  UNL     1     -41.784   7.057  -1.014  1.00 20.00     0.072 C 
HETATM    7  C10 UNL     1     -43.118   7.453  -0.372  1.00 20.00     0.050 C 
ENDROOT
BRANCH   5   8
HETATM    8  C4  UNL     1     -42.412   3.045  -2.347  1.00 20.00    -0.085 C 
HETATM    9  C3  UNL     1     -43.417   2.777  -1.501  1.00 20.00     0.014 C 
HETATM   10  C9  UNL     1     -41.976   2.067  -3.397  1.00 20.00     0.043 C 
ENDBRANCH   5   8
BRANCH   6  11
HETATM   11  O11 UNL     1     -40.863   8.131  -0.803  1.00 20.00    -0.386 OA
HETATM   12  H27 UNL     1     -40.477   8.329  -1.669  1.00 20.00     0.211 HD
ENDBRANCH   6  11
TORSDOF 2
ENDMDL
MODEL 7
REMARK VINA RESULT:      -4.4      1.894      2.885
REMARK  2 active torsions:
REMARK  status: ('A' for Active; 'I' for Inactive)
REMARK    1  A    between atoms: C4_4  and  C7_7 
REMARK    2  A    between atoms: C8_8  and  O11_11 
ROOT
HETATM    1  C1  UNL     1     -35.854  16.036  -4.015  1.00 20.00    -0.019 C 
HETATM    2  C2  UNL     1     -35.500  14.841  -3.520  1.00 20.00     0.007 C 
HETATM    3  C5  UNL     1     -34.432  15.615  -6.072  1.00 20.00     0.016 C 
HETATM    4  C6  UNL     1     -34.701  14.136  -5.807  1.00 20.00     0.042 C 
HETATM    5  C7  UNL     1     -35.496  16.503  -5.402  1.00 20.00     0.036 C 
HETATM    6  C8  UNL     1     -34.723  13.813  -4.300  1.00 20.00     0.072 C 
HETATM    7  C10 UNL     1     -33.309  13.688  -3.723  1.00 20.00     0.050 C 
ENDROOT
BRANCH   5   8
HETATM    8  C4  UNL     1     -35.048  17.933  -5.394  1.00 20.00    -0.085 C 
HETATM    9  C3  UNL     1     -35.900  18.941  -5.158  1.00 20.00     0.014 C 
HETATM   10  C9  UNL     1     -33.592  18.172  -5.665  1.00 20.00     0.043 C 
ENDBRANCH   5   8
BRANCH   6  11
HETATM   11  O11 UNL     1     -35.377  12.552  -4.131  1.00 20.00    -0.386 OA
HETATM   12  H27 UNL     1     -35.784  12.574  -3.253  1.00 20.00     0.211 HD
ENDBRANCH   6  11
TORSDOF 2
ENDMDL
MODEL 8
REMARK VINA RESULT:      -4.4      1.962      2.792
REMARK  2 active torsions:
REMARK  status: ('A' for Active; 'I' for Inactive)
REMARK    1  A    between atoms: C4_4  and  C7_7 
REMARK    2  A    between atoms: C8_8  and  O11_11 
ROOT
HETATM    1  C1  UNL     1     -33.710  18.177  -2.447  1.00 20.00    -0.019 C 
HETATM    2  C2  UNL     1     -33.583  17.846  -3.740  1.00 20.00     0.007 C 
HETATM    3  C5  UNL     1     -34.607  15.860  -1.934  1.00 20.00     0.016 C 
HETATM    4  C6  UNL     1     -33.775  15.406  -3.130  1.00 20.00     0.042 C 
HETATM    5  C7  UNL     1     -34.085  17.194  -1.368  1.00 20.00     0.036 C 
HETATM    6  C8  UNL     1     -33.776  16.448  -4.265  1.00 20.00     0.072 C 
HETATM    7  C10 UNL     1     -35.060  16.382  -5.098  1.00 20.00     0.050 C 
ENDROOT
BRANCH   5   8
HETATM    8  C4  UNL     1     -35.087  17.783  -0.422  1.00 20.00    -0.085 C 
HETATM    9  C3  UNL     1     -35.097  17.472   0.883  1.00 20.00     0.014 C 
HETATM   10  C9  UNL     1     -36.078  18.738  -1.018  1.00 20.00     0.043 C 
ENDBRANCH   5   8
BRANCH   6  11
HETATM   11  O11 UNL     1     -32.677  16.153  -5.132  1.00 20.00    -0.386 OA
HETATM   12  H27 UNL     1     -32.034  15.665  -4.597  1.00 20.00     0.211 HD
ENDBRANCH   6  11
TORSDOF 2
ENDMDL
MODEL 9
REMARK VINA RESULT:      -4.3      1.943      3.398
REMARK  2 active torsions:
REMARK  status: ('A' for Active; 'I' for Inactive)
REMARK    1  A    between atoms: C4_4  and  C7_7 
REMARK    2  A    between atoms: C8_8  and  O11_11 
ROOT
HETATM    1  C1  UNL     1     -35.419  15.562  -2.656  1.00 20.00    -0.019 C 
HETATM    2  C2  UNL     1     -34.132  15.802  -2.946  1.00 20.00     0.007 C 
HETATM    3  C5  UNL     1     -35.765  14.575  -4.966  1.00 20.00     0.016 C 
HETATM    4  C6  UNL     1     -34.283  14.216  -4.902  1.00 20.00     0.042 C 
HETATM    5  C7  UNL     1     -36.347  14.789  -3.557  1.00 20.00     0.036 C 
HETATM    6  C8  UNL     1     -33.453  15.306  -4.196  1.00 20.00     0.072 C 
HETATM    7  C10 UNL     1     -33.156  16.487  -5.125  1.00 20.00     0.050 C 
ENDROOT
BRANCH   5   8
HETATM    8  C4  UNL     1     -37.690  15.447  -3.645  1.00 20.00    -0.085 C 
HETATM    9  C3  UNL     1     -38.794  14.762  -3.976  1.00 20.00     0.014 C 
HETATM   10  C9  UNL     1     -37.728  16.916  -3.344  1.00 20.00     0.043 C 
ENDBRANCH   5   8
BRANCH   6  11
HETATM   11  O11 UNL     1     -32.204  14.726  -3.812  1.00 20.00    -0.386 OA
HETATM   12  H27 UNL     1     -31.721  15.415  -3.334  1.00 20.00     0.211 HD
ENDBRANCH   6  11
TORSDOF 2
ENDMDL
