MODEL 1
REMARK VINA RESULT:      -5.4      0.000      0.000
REMARK  2 active torsions:
REMARK  status: ('A' for Active; 'I' for Inactive)
REMARK    1  A    between atoms: C8_8  and  C9_9 
REMARK    2  A    between atoms: C8_8  and  O10_10 
ROOT
HETATM    1  C1  UNL     1     -32.167   8.763   1.795  1.00 20.00     0.012 C 
HETATM    2  C2  UNL     1     -32.173   7.738   2.420  1.00 20.00    -0.115 C 
HETATM    3  C9  UNL     1     -32.167   6.484   3.178  1.00 20.00     0.130 C 
ENDROOT
BRANCH   3   4
HETATM    4  C8  UNL     1     -33.460   6.325   3.980  1.00 20.00     0.068 C 
HETATM    5  C6  UNL     1     -33.167   6.384   5.487  1.00 20.00     0.038 C 
HETATM    6  C4  UNL     1     -34.418   6.136   6.332  1.00 20.00     0.003 C 
HETATM    7  C3  UNL     1     -35.104   4.827   5.952  1.00 20.00     0.000 C 
HETATM    8  C5  UNL     1     -35.420   4.771   4.461  1.00 20.00     0.003 C 
HETATM    9  C7  UNL     1     -34.171   5.013   3.611  1.00 20.00     0.038 C 
BRANCH   4  10
HETATM   10  O10 UNL     1     -34.314   7.425   3.654  1.00 20.00    -0.389 OA
HETATM   11  H24 UNL     1     -33.859   8.222   3.962  1.00 20.00     0.210 HD
ENDBRANCH   4  10
ENDBRANCH   3   4
TORSDOF 2
ENDMDL
MODEL 2
REMARK VINA RESULT:      -4.9     11.248     12.456
REMARK  2 active torsions:
REMARK  status: ('A' for Active; 'I' for Inactive)
REMARK    1  A    between atoms: C8_8  and  C9_9 
REMARK    2  A    between atoms: C8_8  and  O10_10 
ROOT
HETATM    1  C1  UNL     1     -34.652  16.637  -0.815  1.00 20.00     0.012 C 
HETATM    2  C2  UNL     1     -34.226  16.873  -1.911  1.00 20.00    -0.115 C 
HETATM    3  C9  UNL     1     -33.703  17.175  -3.246  1.00 20.00     0.130 C 
ENDROOT
BRANCH   3   4
HETATM    4  C8  UNL     1     -33.698  15.924  -4.127  1.00 20.00     0.068 C 
HETATM    5  C6  UNL     1     -34.991  15.843  -4.952  1.00 20.00     0.038 C 
HETATM    6  C4  UNL     1     -35.072  14.560  -5.780  1.00 20.00     0.003 C 
HETATM    7  C3  UNL     1     -34.889  13.317  -4.913  1.00 20.00     0.000 C 
HETATM    8  C5  UNL     1     -33.595  13.379  -4.108  1.00 20.00     0.003 C 
HETATM    9  C7  UNL     1     -33.511  14.659  -3.274  1.00 20.00     0.038 C 
BRANCH   4  10
HETATM   10  O10 UNL     1     -32.600  16.037  -5.037  1.00 20.00    -0.389 OA
HETATM   11  H24 UNL     1     -32.893  15.635  -5.868  1.00 20.00     0.210 HD
ENDBRANCH   4  10
ENDBRANCH   3   4
TORSDOF 2
ENDMDL
MODEL 3
REMARK VINA RESULT:      -4.7     11.064     12.203
REMARK  2 active torsions:
REMARK  status: ('A' for Active; 'I' for Inactive)
REMARK    1  A    between atoms: C8_8  and  C9_9 
REMARK    2  A    between atoms: C8_8  and  O10_10 
ROOT
HETATM    1  C1  UNL     1     -34.793  17.013  -0.108  1.00 20.00     0.012 C 
HETATM    2  C2  UNL     1     -34.305  16.740  -1.170  1.00 20.00    -0.115 C 
HETATM    3  C9  UNL     1     -33.698  16.414  -2.463  1.00 20.00     0.130 C 
ENDROOT
BRANCH   3   4
HETATM    4  C8  UNL     1     -34.646  15.568  -3.314  1.00 20.00     0.068 C 
HETATM    5  C6  UNL     1     -34.131  14.124  -3.418  1.00 20.00     0.038 C 
HETATM    6  C4  UNL     1     -34.999  13.263  -4.337  1.00 20.00     0.003 C 
HETATM    7  C3  UNL     1     -35.158  13.895  -5.716  1.00 20.00     0.000 C 
HETATM    8  C5  UNL     1     -35.692  15.321  -5.623  1.00 20.00     0.003 C 
HETATM    9  C7  UNL     1     -34.824  16.188  -4.709  1.00 20.00     0.038 C 
BRANCH   4  10
HETATM   10  O10 UNL     1     -35.914  15.537  -2.653  1.00 20.00    -0.389 OA
HETATM   11  H24 UNL     1     -35.862  14.826  -1.998  1.00 20.00     0.210 HD
ENDBRANCH   4  10
ENDBRANCH   3   4
TORSDOF 2
ENDMDL
MODEL 4
REMARK VINA RESULT:      -4.6     11.618     13.515
REMARK  2 active torsions:
REMARK  status: ('A' for Active; 'I' for Inactive)
REMARK    1  A    between atoms: C8_8  and  C9_9 
REMARK    2  A    between atoms: C8_8  and  O10_10 
ROOT
HETATM    1  C1  UNL     1     -34.374  16.743  -1.228  1.00 20.00     0.012 C 
HETATM    2  C2  UNL     1     -34.362  15.935  -2.116  1.00 20.00    -0.115 C 
HETATM    3  C9  UNL     1     -34.353  14.939  -3.190  1.00 20.00     0.130 C 
ENDROOT
BRANCH   3   4
HETATM    4  C8  UNL     1     -33.979  15.582  -4.528  1.00 20.00     0.068 C 
HETATM    5  C6  UNL     1     -34.569  16.996  -4.627  1.00 20.00     0.038 C 
HETATM    6  C4  UNL     1     -34.299  17.644  -5.986  1.00 20.00     0.003 C 
HETATM    7  C3  UNL     1     -34.778  16.761  -7.135  1.00 20.00     0.000 C 
HETATM    8  C5  UNL     1     -34.178  15.362  -7.057  1.00 20.00     0.003 C 
HETATM    9  C7  UNL     1     -34.449  14.707  -5.701  1.00 20.00     0.038 C 
BRANCH   4  10
HETATM   10  O10 UNL     1     -32.554  15.694  -4.573  1.00 20.00    -0.389 OA
HETATM   11  H24 UNL     1     -32.204  14.880  -4.182  1.00 20.00     0.210 HD
ENDBRANCH   4  10
ENDBRANCH   3   4
TORSDOF 2
ENDMDL
MODEL 5
REMARK VINA RESULT:      -4.6     11.093     13.261
REMARK  2 active torsions:
REMARK  status: ('A' for Active; 'I' for Inactive)
REMARK    1  A    between atoms: C8_8  and  C9_9 
REMARK    2  A    between atoms: C8_8  and  O10_10 
ROOT
HETATM    1  C1  UNL     1     -33.588  19.092  -6.328  1.00 20.00     0.012 C 
HETATM    2  C2  UNL     1     -33.694  18.408  -5.347  1.00 20.00    -0.115 C 
HETATM    3  C9  UNL     1     -33.824  17.585  -4.142  1.00 20.00     0.130 C 
ENDROOT
BRANCH   3   4
HETATM    4  C8  UNL     1     -33.727  16.097  -4.483  1.00 20.00     0.068 C 
HETATM    5  C6  UNL     1     -34.735  15.732  -5.584  1.00 20.00     0.038 C 
HETATM    6  C4  UNL     1     -34.739  14.235  -5.893  1.00 20.00     0.003 C 
HETATM    7  C3  UNL     1     -34.965  13.400  -4.636  1.00 20.00     0.000 C 
HETATM    8  C5  UNL     1     -33.953  13.740  -3.547  1.00 20.00     0.003 C 
HETATM    9  C7  UNL     1     -33.949  15.236  -3.229  1.00 20.00     0.038 C 
BRANCH   4  10
HETATM   10  O10 UNL     1     -32.412  15.852  -4.990  1.00 20.00    -0.389 OA
HETATM   11  H24 UNL     1     -31.809  15.945  -4.238  1.00 20.00     0.210 HD
ENDBRANCH   4  10
ENDBRANCH   3   4
TORSDOF 2
ENDMDL
MODEL 6
REMARK VINA RESULT:      -4.6     10.919     12.392
REMARK  2 active torsions:
REMARK  status: ('A' for Active; 'I' for Inactive)
REMARK    1  A    between atoms: C8_8  and  C9_9 
REMARK    2  A    between atoms: C8_8  and  O10_10 
ROOT
HETATM    1  C1  UNL     1     -33.799  16.748  -2.308  1.00 20.00     0.012 C 
HETATM    2  C2  UNL     1     -33.886  15.618  -2.703  1.00 20.00    -0.115 C 
HETATM    3  C9  UNL     1     -33.982  14.234  -3.176  1.00 20.00     0.130 C 
ENDROOT
BRANCH   3   4
HETATM    4  C8  UNL     1     -35.114  14.082  -4.194  1.00 20.00     0.068 C 
HETATM    5  C6  UNL     1     -34.659  14.572  -5.578  1.00 20.00     0.038 C 
HETATM    6  C4  UNL     1     -35.788  14.525  -6.609  1.00 20.00     0.003 C 
HETATM    7  C3  UNL     1     -37.021  15.285  -6.129  1.00 20.00     0.000 C 
HETATM    8  C5  UNL     1     -37.492  14.789  -4.767  1.00 20.00     0.003 C 
HETATM    9  C7  UNL     1     -36.369  14.838  -3.730  1.00 20.00     0.038 C 
BRANCH   4  10
HETATM   10  O10 UNL     1     -35.421  12.689  -4.298  1.00 20.00    -0.389 OA
HETATM   11  H24 UNL     1     -34.682  12.217  -3.889  1.00 20.00     0.210 HD
ENDBRANCH   4  10
ENDBRANCH   3   4
TORSDOF 2
ENDMDL
MODEL 7
REMARK VINA RESULT:      -4.4     11.468     13.263
REMARK  2 active torsions:
REMARK  status: ('A' for Active; 'I' for Inactive)
REMARK    1  A    between atoms: C8_8  and  C9_9 
REMARK    2  A    between atoms: C8_8  and  O10_10 
ROOT
HETATM    1  C1  UNL     1     -34.778  14.785  -7.711  1.00 20.00     0.012 C 
HETATM    2  C2  UNL     1     -34.432  15.707  -7.024  1.00 20.00    -0.115 C 
HETATM    3  C9  UNL     1     -34.011  16.839  -6.196  1.00 20.00     0.130 C 
ENDROOT
BRANCH   3   4
HETATM    4  C8  UNL     1     -33.768  16.400  -4.751  1.00 20.00     0.068 C 
HETATM    5  C6  UNL     1     -34.780  15.320  -4.341  1.00 20.00     0.038 C 
HETATM    6  C4  UNL     1     -34.635  14.915  -2.874  1.00 20.00     0.003 C 
HETATM    7  C3  UNL     1     -34.708  16.125  -1.946  1.00 20.00     0.000 C 
HETATM    8  C5  UNL     1     -33.689  17.192  -2.332  1.00 20.00     0.003 C 
HETATM    9  C7  UNL     1     -33.833  17.604  -3.798  1.00 20.00     0.038 C 
BRANCH   4  10
HETATM   10  O10 UNL     1     -32.459  15.825  -4.686  1.00 20.00    -0.389 OA
HETATM   11  H24 UNL     1     -32.564  14.886  -4.896  1.00 20.00     0.210 HD
ENDBRANCH   4  10
ENDBRANCH   3   4
TORSDOF 2
ENDMDL
MODEL 8
REMARK VINA RESULT:      -4.4      9.527     10.833
REMARK  2 active torsions:
REMARK  status: ('A' for Active; 'I' for Inactive)
REMARK    1  A    between atoms: C8_8  and  C9_9 
REMARK    2  A    between atoms: C8_8  and  O10_10 
ROOT
HETATM    1  C1  UNL     1     -41.208   1.822  -4.150  1.00 20.00     0.012 C 
HETATM    2  C2  UNL     1     -41.898   2.320  -3.303  1.00 20.00    -0.115 C 
HETATM    3  C9  UNL     1     -42.749   2.917  -2.271  1.00 20.00     0.130 C 
ENDROOT
BRANCH   3   4
HETATM    4  C8  UNL     1     -42.079   4.146  -1.654  1.00 20.00     0.068 C 
HETATM    5  C6  UNL     1     -42.660   4.429  -0.260  1.00 20.00     0.038 C 
HETATM    6  C4  UNL     1     -42.086   5.704   0.360  1.00 20.00     0.003 C 
HETATM    7  C3  UNL     1     -42.255   6.905  -0.566  1.00 20.00     0.000 C 
HETATM    8  C5  UNL     1     -41.660   6.640  -1.945  1.00 20.00     0.003 C 
HETATM    9  C7  UNL     1     -42.234   5.369  -2.572  1.00 20.00     0.038 C 
BRANCH   4  10
HETATM   10  O10 UNL     1     -40.688   3.852  -1.500  1.00 20.00    -0.389 OA
HETATM   11  H24 UNL     1     -40.271   4.667  -1.185  1.00 20.00     0.210 HD
ENDBRANCH   4  10
ENDBRANCH   3   4
TORSDOF 2
ENDMDL
MODEL 9
REMARK VINA RESULT:      -4.4      1.135      2.012
REMARK  2 active torsions:
REMARK  status: ('A' for Active; 'I' for Inactive)
REMARK    1  A    between atoms: C8_8  and  C9_9 
REMARK    2  A    between atoms: C8_8  and  O10_10 
ROOT
HETATM    1  C1  UNL     1     -31.701   7.979   1.959  1.00 20.00     0.012 C 
HETATM    2  C2  UNL     1     -32.697   7.819   2.608  1.00 20.00    -0.115 C 
HETATM    3  C9  UNL     1     -33.919   7.636   3.396  1.00 20.00     0.130 C 
ENDROOT
BRANCH   3   4
HETATM    4  C8  UNL     1     -33.877   6.317   4.171  1.00 20.00     0.068 C 
HETATM    5  C6  UNL     1     -35.019   5.393   3.719  1.00 20.00     0.038 C 
HETATM    6  C4  UNL     1     -35.073   4.099   4.532  1.00 20.00     0.003 C 
HETATM    7  C3  UNL     1     -35.144   4.377   6.031  1.00 20.00     0.000 C 
HETATM    8  C5  UNL     1     -34.000   5.274   6.490  1.00 20.00     0.003 C 
HETATM    9  C7  UNL     1     -33.944   6.573   5.685  1.00 20.00     0.038 C 
BRANCH   4  10
HETATM   10  O10 UNL     1     -32.639   5.670   3.862  1.00 20.00    -0.389 OA
HETATM   11  H24 UNL     1     -31.950   6.343   3.958  1.00 20.00     0.210 HD
ENDBRANCH   4  10
ENDBRANCH   3   4
TORSDOF 2
ENDMDL
