MODEL 1
REMARK VINA RESULT:      -3.9      0.000      0.000
REMARK  0 active torsions:
REMARK  status: ('A' for Active; 'I' for Inactive)
ROOT
HETATM    1  C1  UNL     1     -34.073   6.255   6.017  1.00 20.00     0.223 C 
HETATM    2  C2  UNL     1     -34.566   5.343   5.225  1.00 20.00    -0.033 C 
HETATM    3  C3  UNL     1     -34.753   5.575   3.752  1.00 20.00     0.047 C 
HETATM    4  C4  UNL     1     -34.984   3.989   5.722  1.00 20.00     0.047 C 
HETATM    5  O5  UNL     1     -33.630   7.077   6.731  1.00 20.00    -0.284 OA
ENDROOT
TORSDOF 0
ENDMDL
MODEL 2
REMARK VINA RESULT:      -3.9      0.007      1.606
REMARK  0 active torsions:
REMARK  status: ('A' for Active; 'I' for Inactive)
ROOT
HETATM    1  C1  UNL     1     -34.071   6.256   6.014  1.00 20.00     0.223 C 
HETATM    2  C2  UNL     1     -34.560   5.343   5.220  1.00 20.00    -0.033 C 
HETATM    3  C3  UNL     1     -34.973   3.987   5.717  1.00 20.00     0.047 C 
HETATM    4  C4  UNL     1     -34.750   5.576   3.750  1.00 20.00     0.047 C 
HETATM    5  O5  UNL     1     -33.629   7.078   6.728  1.00 20.00    -0.284 OA
ENDROOT
TORSDOF 0
ENDMDL
MODEL 3
REMARK VINA RESULT:      -3.9      1.805      2.564
REMARK  0 active torsions:
REMARK  status: ('A' for Active; 'I' for Inactive)
ROOT
HETATM    1  C1  UNL     1     -33.956   5.716   4.153  1.00 20.00     0.223 C 
HETATM    2  C2  UNL     1     -34.307   5.503   5.391  1.00 20.00    -0.033 C 
HETATM    3  C3  UNL     1     -34.964   4.225   5.830  1.00 20.00     0.047 C 
HETATM    4  C4  UNL     1     -34.081   6.517   6.474  1.00 20.00     0.047 C 
HETATM    5  O5  UNL     1     -33.641   5.908   3.036  1.00 20.00    -0.284 OA
ENDROOT
TORSDOF 0
ENDMDL
MODEL 4
REMARK VINA RESULT:      -3.9      1.804      2.354
REMARK  0 active torsions:
REMARK  status: ('A' for Active; 'I' for Inactive)
ROOT
HETATM    1  C1  UNL     1     -33.951   5.719   4.155  1.00 20.00     0.223 C 
HETATM    2  C2  UNL     1     -34.305   5.505   5.392  1.00 20.00    -0.033 C 
HETATM    3  C3  UNL     1     -34.083   6.519   6.478  1.00 20.00     0.047 C 
HETATM    4  C4  UNL     1     -34.963   4.228   5.828  1.00 20.00     0.047 C 
HETATM    5  O5  UNL     1     -33.632   5.913   3.040  1.00 20.00    -0.284 OA
ENDROOT
TORSDOF 0
ENDMDL
MODEL 5
REMARK VINA RESULT:      -3.8      2.054      2.534
REMARK  0 active torsions:
REMARK  status: ('A' for Active; 'I' for Inactive)
ROOT
HETATM    1  C1  UNL     1     -34.749   4.621   5.121  1.00 20.00     0.223 C 
HETATM    2  C2  UNL     1     -34.169   5.790   5.137  1.00 20.00    -0.033 C 
HETATM    3  C3  UNL     1     -33.636   6.438   3.890  1.00 20.00     0.047 C 
HETATM    4  C4  UNL     1     -33.990   6.579   6.401  1.00 20.00     0.047 C 
HETATM    5  O5  UNL     1     -35.271   3.568   5.107  1.00 20.00    -0.284 OA
ENDROOT
TORSDOF 0
ENDMDL
MODEL 6
REMARK VINA RESULT:      -3.8      2.054      2.888
REMARK  0 active torsions:
REMARK  status: ('A' for Active; 'I' for Inactive)
ROOT
HETATM    1  C1  UNL     1     -34.748   4.622   5.120  1.00 20.00     0.223 C 
HETATM    2  C2  UNL     1     -34.169   5.790   5.135  1.00 20.00    -0.033 C 
HETATM    3  C3  UNL     1     -33.988   6.580   6.401  1.00 20.00     0.047 C 
HETATM    4  C4  UNL     1     -33.637   6.438   3.891  1.00 20.00     0.047 C 
HETATM    5  O5  UNL     1     -35.271   3.568   5.106  1.00 20.00    -0.284 OA
ENDROOT
TORSDOF 0
ENDMDL
MODEL 7
REMARK VINA RESULT:      -3.5      1.306      1.918
REMARK  0 active torsions:
REMARK  status: ('A' for Active; 'I' for Inactive)
ROOT
HETATM    1  C1  UNL     1     -33.916   6.412   5.544  1.00 20.00     0.223 C 
HETATM    2  C2  UNL     1     -33.885   6.049   4.291  1.00 20.00    -0.033 C 
HETATM    3  C3  UNL     1     -35.039   5.349   3.630  1.00 20.00     0.047 C 
HETATM    4  C4  UNL     1     -32.695   6.301   3.412  1.00 20.00     0.047 C 
HETATM    5  O5  UNL     1     -33.944   6.739   6.673  1.00 20.00    -0.284 OA
ENDROOT
TORSDOF 0
ENDMDL
MODEL 8
REMARK VINA RESULT:      -3.1     12.398     12.835
REMARK  0 active torsions:
REMARK  status: ('A' for Active; 'I' for Inactive)
ROOT
HETATM    1  C1  UNL     1     -34.634  13.615  -3.894  1.00 20.00     0.223 C 
HETATM    2  C2  UNL     1     -34.111  14.699  -3.390  1.00 20.00    -0.033 C 
HETATM    3  C3  UNL     1     -32.687  15.100  -3.652  1.00 20.00     0.047 C 
HETATM    4  C4  UNL     1     -34.892  15.631  -2.511  1.00 20.00     0.047 C 
HETATM    5  O5  UNL     1     -35.104  12.638  -4.348  1.00 20.00    -0.284 OA
ENDROOT
TORSDOF 0
ENDMDL
MODEL 9
REMARK VINA RESULT:      -3.1     12.410     12.880
REMARK  0 active torsions:
REMARK  status: ('A' for Active; 'I' for Inactive)
ROOT
HETATM    1  C1  UNL     1     -34.641  13.620  -3.907  1.00 20.00     0.223 C 
HETATM    2  C2  UNL     1     -34.127  14.710  -3.407  1.00 20.00    -0.033 C 
HETATM    3  C3  UNL     1     -34.922  15.649  -2.544  1.00 20.00     0.047 C 
HETATM    4  C4  UNL     1     -32.702  15.110  -3.652  1.00 20.00     0.047 C 
HETATM    5  O5  UNL     1     -35.105  12.639  -4.359  1.00 20.00    -0.284 OA
ENDROOT
TORSDOF 0
ENDMDL
