MODEL 1
REMARK VINA RESULT:      -5.4      0.000      0.000
REMARK  0 active torsions:
REMARK  status: ('A' for Active; 'I' for Inactive)
ROOT
HETATM    1  C1  UNL     1     -32.675   6.973   3.154  1.00 20.00     0.064 C 
HETATM    2  C2  UNL     1     -34.622   5.505   3.552  1.00 20.00     0.022 C 
HETATM    3  C3  UNL     1     -35.204   4.410   4.446  1.00 20.00     0.036 C 
HETATM    4  C4  UNL     1     -33.509   6.718   5.463  1.00 20.00     0.053 C 
HETATM    5  C5  UNL     1     -33.291   6.033   4.106  1.00 20.00     0.095 C 
HETATM    6  C6  UNL     1     -35.218   4.799   5.889  1.00 20.00     0.151 A 
HETATM    7  C7  UNL     1     -34.351   5.916   6.403  1.00 20.00     0.152 A 
HETATM    8  N8  UNL     1     -32.189   7.714   2.405  1.00 20.00    -0.197 NA
HETATM    9  O9  UNL     1     -33.969   4.550   6.563  1.00 20.00    -0.375 OA
ENDROOT
TORSDOF 0
ENDMDL
MODEL 2
REMARK VINA RESULT:      -4.3     12.172     12.859
REMARK  0 active torsions:
REMARK  status: ('A' for Active; 'I' for Inactive)
ROOT
HETATM    1  C1  UNL     1     -37.175  14.575  -3.915  1.00 20.00     0.064 C 
HETATM    2  C2  UNL     1     -34.930  13.544  -3.828  1.00 20.00     0.022 C 
HETATM    3  C3  UNL     1     -33.448  13.741  -4.146  1.00 20.00     0.036 C 
HETATM    4  C4  UNL     1     -35.278  15.942  -3.124  1.00 20.00     0.053 C 
HETATM    5  C5  UNL     1     -35.733  14.829  -4.079  1.00 20.00     0.095 C 
HETATM    6  C6  UNL     1     -32.890  14.980  -3.522  1.00 20.00     0.151 A 
HETATM    7  C7  UNL     1     -33.792  16.088  -3.050  1.00 20.00     0.152 A 
HETATM    8  N8  UNL     1     -38.310  14.375  -3.786  1.00 20.00    -0.197 NA
HETATM    9  O9  UNL     1     -33.116  16.169  -4.305  1.00 20.00    -0.375 OA
ENDROOT
TORSDOF 0
ENDMDL
MODEL 3
REMARK VINA RESULT:      -4.2     11.987     12.450
REMARK  0 active torsions:
REMARK  status: ('A' for Active; 'I' for Inactive)
ROOT
HETATM    1  C1  UNL     1     -35.001  16.495  -1.807  1.00 20.00     0.064 C 
HETATM    2  C2  UNL     1     -33.440  15.162  -3.183  1.00 20.00     0.022 C 
HETATM    3  C3  UNL     1     -33.204  13.810  -3.856  1.00 20.00     0.036 C 
HETATM    4  C4  UNL     1     -35.913  15.177  -3.684  1.00 20.00     0.053 C 
HETATM    5  C5  UNL     1     -34.848  15.250  -2.579  1.00 20.00     0.095 C 
HETATM    6  C6  UNL     1     -34.321  13.425  -4.771  1.00 20.00     0.151 A 
HETATM    7  C7  UNL     1     -35.675  14.073  -4.663  1.00 20.00     0.152 A 
HETATM    8  N8  UNL     1     -35.121  17.476  -1.199  1.00 20.00    -0.197 NA
HETATM    9  O9  UNL     1     -35.423  12.787  -4.096  1.00 20.00    -0.375 OA
ENDROOT
TORSDOF 0
ENDMDL
MODEL 4
REMARK VINA RESULT:      -4.2     12.119     13.364
REMARK  0 active torsions:
REMARK  status: ('A' for Active; 'I' for Inactive)
ROOT
HETATM    1  C1  UNL     1     -33.519  17.392  -4.979  1.00 20.00     0.064 C 
HETATM    2  C2  UNL     1     -34.856  15.502  -5.841  1.00 20.00     0.022 C 
HETATM    3  C3  UNL     1     -34.946  13.980  -5.955  1.00 20.00     0.036 C 
HETATM    4  C4  UNL     1     -33.895  15.445  -3.509  1.00 20.00     0.053 C 
HETATM    5  C5  UNL     1     -33.680  15.929  -4.951  1.00 20.00     0.095 C 
HETATM    6  C6  UNL     1     -34.868  13.302  -4.626  1.00 20.00     0.151 A 
HETATM    7  C7  UNL     1     -34.312  14.012  -3.421  1.00 20.00     0.152 A 
HETATM    8  N8  UNL     1     -33.391  18.545  -5.000  1.00 20.00    -0.197 NA
HETATM    9  O9  UNL     1     -33.518  13.090  -4.168  1.00 20.00    -0.375 OA
ENDROOT
TORSDOF 0
ENDMDL
MODEL 5
REMARK VINA RESULT:      -4.1      1.087      2.019
REMARK  0 active torsions:
REMARK  status: ('A' for Active; 'I' for Inactive)
ROOT
HETATM    1  C1  UNL     1     -32.646   7.369   2.911  1.00 20.00     0.064 C 
HETATM    2  C2  UNL     1     -33.199   6.612   5.198  1.00 20.00     0.022 C 
HETATM    3  C3  UNL     1     -34.298   6.054   6.101  1.00 20.00     0.036 C 
HETATM    4  C4  UNL     1     -33.935   5.282   3.185  1.00 20.00     0.053 C 
HETATM    5  C5  UNL     1     -33.660   6.689   3.735  1.00 20.00     0.095 C 
HETATM    6  C6  UNL     1     -34.908   4.804   5.553  1.00 20.00     0.151 A 
HETATM    7  C7  UNL     1     -34.762   4.438   4.101  1.00 20.00     0.152 A 
HETATM    8  N8  UNL     1     -31.848   7.905   2.261  1.00 20.00    -0.197 NA
HETATM    9  O9  UNL     1     -35.955   5.048   4.594  1.00 20.00    -0.375 OA
ENDROOT
TORSDOF 0
ENDMDL
MODEL 6
REMARK VINA RESULT:      -4.0     12.793     13.639
REMARK  0 active torsions:
REMARK  status: ('A' for Active; 'I' for Inactive)
ROOT
HETATM    1  C1  UNL     1     -37.212  14.857  -3.911  1.00 20.00     0.064 C 
HETATM    2  C2  UNL     1     -35.252  15.047  -5.404  1.00 20.00     0.022 C 
HETATM    3  C3  UNL     1     -34.019  15.881  -5.753  1.00 20.00     0.036 C 
HETATM    4  C4  UNL     1     -35.025  15.434  -2.921  1.00 20.00     0.053 C 
HETATM    5  C5  UNL     1     -35.947  15.576  -4.141  1.00 20.00     0.095 C 
HETATM    6  C6  UNL     1     -33.128  16.104  -4.574  1.00 20.00     0.151 A 
HETATM    7  C7  UNL     1     -33.634  15.921  -3.169  1.00 20.00     0.152 A 
HETATM    8  N8  UNL     1     -38.208  14.291  -3.730  1.00 20.00    -0.197 NA
HETATM    9  O9  UNL     1     -33.529  17.220  -3.754  1.00 20.00    -0.375 OA
ENDROOT
TORSDOF 0
ENDMDL
MODEL 7
REMARK VINA RESULT:      -4.0     12.146     13.159
REMARK  0 active torsions:
REMARK  status: ('A' for Active; 'I' for Inactive)
ROOT
HETATM    1  C1  UNL     1     -34.754  15.978  -1.972  1.00 20.00     0.064 C 
HETATM    2  C2  UNL     1     -34.239  14.060  -3.443  1.00 20.00     0.022 C 
HETATM    3  C3  UNL     1     -34.687  13.268  -4.671  1.00 20.00     0.036 C 
HETATM    4  C4  UNL     1     -34.917  16.287  -4.416  1.00 20.00     0.053 C 
HETATM    5  C5  UNL     1     -35.101  15.315  -3.241  1.00 20.00     0.095 C 
HETATM    6  C6  UNL     1     -34.855  14.133  -5.879  1.00 20.00     0.151 A 
HETATM    7  C7  UNL     1     -35.007  15.625  -5.753  1.00 20.00     0.152 A 
HETATM    8  N8  UNL     1     -34.481  16.501  -0.973  1.00 20.00    -0.197 NA
HETATM    9  O9  UNL     1     -36.141  14.779  -5.948  1.00 20.00    -0.375 OA
ENDROOT
TORSDOF 0
ENDMDL
MODEL 8
REMARK VINA RESULT:      -3.9     12.547     13.704
REMARK  0 active torsions:
REMARK  status: ('A' for Active; 'I' for Inactive)
ROOT
HETATM    1  C1  UNL     1     -34.572  13.785  -4.326  1.00 20.00     0.064 C 
HETATM    2  C2  UNL     1     -34.428  15.517  -2.570  1.00 20.00     0.022 C 
HETATM    3  C3  UNL     1     -33.879  16.899  -2.216  1.00 20.00     0.036 C 
HETATM    4  C4  UNL     1     -34.942  16.142  -4.961  1.00 20.00     0.053 C 
HETATM    5  C5  UNL     1     -34.175  15.175  -4.046  1.00 20.00     0.095 C 
HETATM    6  C6  UNL     1     -34.292  17.947  -3.199  1.00 20.00     0.151 A 
HETATM    7  C7  UNL     1     -34.783  17.576  -4.573  1.00 20.00     0.152 A 
HETATM    8  N8  UNL     1     -34.885  12.689  -4.548  1.00 20.00    -0.197 NA
HETATM    9  O9  UNL     1     -33.440  18.014  -4.359  1.00 20.00    -0.375 OA
ENDROOT
TORSDOF 0
ENDMDL
MODEL 9
REMARK VINA RESULT:      -3.9     12.464     13.568
REMARK  0 active torsions:
REMARK  status: ('A' for Active; 'I' for Inactive)
ROOT
HETATM    1  C1  UNL     1     -34.807  13.872  -4.327  1.00 20.00     0.064 C 
HETATM    2  C2  UNL     1     -33.605  15.958  -4.882  1.00 20.00     0.022 C 
HETATM    3  C3  UNL     1     -33.617  17.481  -4.760  1.00 20.00     0.036 C 
HETATM    4  C4  UNL     1     -34.552  15.590  -2.573  1.00 20.00     0.053 C 
HETATM    5  C5  UNL     1     -34.744  15.321  -4.073  1.00 20.00     0.095 C 
HETATM    6  C6  UNL     1     -33.732  17.940  -3.342  1.00 20.00     0.151 A 
HETATM    7  C7  UNL     1     -34.231  17.017  -2.263  1.00 20.00     0.152 A 
HETATM    8  N8  UNL     1     -34.857  12.730  -4.526  1.00 20.00    -0.197 NA
HETATM    9  O9  UNL     1     -35.090  17.988  -2.862  1.00 20.00    -0.375 OA
ENDROOT
TORSDOF 0
ENDMDL
