MODEL 1
REMARK VINA RESULT:      -3.6      0.000      0.000
REMARK  1 active torsions:
REMARK  status: ('A' for Active; 'I' for Inactive)
REMARK    1  A    between atoms: C1_1  and  C3_3 
ROOT
HETATM    1  C1  UNL     1     -34.337   6.210   3.995  1.00 20.00     0.181 A 
HETATM    2  C2  UNL     1     -32.887   6.191   3.611  1.00 20.00     0.247 A 
HETATM    3  O4  UNL     1     -33.307   6.523   4.940  1.00 20.00    -0.358 OA
HETATM    4 CL5  UNL     1     -32.240   7.447   2.593  1.00 20.00    -0.092 Cl
ENDROOT
BRANCH   1   5
HETATM    5  C3  UNL     1     -35.072   4.950   4.280  1.00 20.00     0.150 C 
HETATM    6 CL6  UNL     1     -35.046   4.562   6.024  1.00 20.00    -0.128 Cl
ENDBRANCH   1   5
TORSDOF 1
ENDMDL
MODEL 2
REMARK VINA RESULT:      -3.5      1.164      3.581
REMARK  1 active torsions:
REMARK  status: ('A' for Active; 'I' for Inactive)
REMARK    1  A    between atoms: C1_1  and  C3_3 
ROOT
HETATM    1  C1  UNL     1     -33.625   6.429   4.066  1.00 20.00     0.181 A 
HETATM    2  C2  UNL     1     -34.114   5.253   4.859  1.00 20.00     0.247 A 
HETATM    3  O4  UNL     1     -34.826   5.733   3.712  1.00 20.00    -0.358 OA
HETATM    4 CL5  UNL     1     -34.801   5.498   6.441  1.00 20.00    -0.092 Cl
ENDROOT
BRANCH   1   5
HETATM    5  C3  UNL     1     -32.519   6.284   3.083  1.00 20.00     0.150 C 
HETATM    6 CL6  UNL     1     -32.118   7.848   2.318  1.00 20.00    -0.128 Cl
ENDBRANCH   1   5
TORSDOF 1
ENDMDL
MODEL 3
REMARK VINA RESULT:      -3.3      2.436      2.647
REMARK  1 active torsions:
REMARK  status: ('A' for Active; 'I' for Inactive)
REMARK    1  A    between atoms: C1_1  and  C3_3 
ROOT
HETATM    1  C1  UNL     1     -34.234   5.059   5.204  1.00 20.00     0.181 A 
HETATM    2  C2  UNL     1     -35.031   5.333   3.962  1.00 20.00     0.247 A 
HETATM    3  O4  UNL     1     -35.223   4.137   4.728  1.00 20.00    -0.358 OA
HETATM    4 CL5  UNL     1     -34.270   5.219   2.399  1.00 20.00    -0.092 Cl
ENDROOT
BRANCH   1   5
HETATM    5  C3  UNL     1     -34.576   5.716   6.493  1.00 20.00     0.150 C 
HETATM    6 CL6  UNL     1     -33.582   7.175   6.765  1.00 20.00    -0.128 Cl
ENDBRANCH   1   5
TORSDOF 1
ENDMDL
MODEL 4
REMARK VINA RESULT:      -3.1      1.938      4.049
REMARK  1 active torsions:
REMARK  status: ('A' for Active; 'I' for Inactive)
REMARK    1  A    between atoms: C1_1  and  C3_3 
ROOT
HETATM    1  C1  UNL     1     -32.684   6.854   2.595  1.00 20.00     0.181 A 
HETATM    2  C2  UNL     1     -33.334   6.392   3.867  1.00 20.00     0.247 A 
HETATM    3  O4  UNL     1     -32.082   5.853   3.424  1.00 20.00    -0.358 OA
HETATM    4 CL5  UNL     1     -34.754   5.387   3.801  1.00 20.00    -0.092 Cl
ENDROOT
BRANCH   1   5
HETATM    5  C3  UNL     1     -31.937   8.138   2.539  1.00 20.00     0.150 C 
HETATM    6 CL6  UNL     1     -32.067   8.898   0.927  1.00 20.00    -0.128 Cl
ENDBRANCH   1   5
TORSDOF 1
ENDMDL
MODEL 5
REMARK VINA RESULT:      -3.0      2.136      2.400
REMARK  1 active torsions:
REMARK  status: ('A' for Active; 'I' for Inactive)
REMARK    1  A    between atoms: C1_1  and  C3_3 
ROOT
HETATM    1  C1  UNL     1     -32.857   7.285   3.267  1.00 20.00     0.181 A 
HETATM    2  C2  UNL     1     -32.075   7.914   2.151  1.00 20.00     0.247 A 
HETATM    3  O4  UNL     1     -31.492   7.685   3.440  1.00 20.00    -0.358 OA
HETATM    4 CL5  UNL     1     -32.422   9.550   1.662  1.00 20.00    -0.092 Cl
ENDROOT
BRANCH   1   5
HETATM    5  C3  UNL     1     -33.077   5.816   3.314  1.00 20.00     0.150 C 
HETATM    6 CL6  UNL     1     -34.807   5.424   3.529  1.00 20.00    -0.128 Cl
ENDBRANCH   1   5
TORSDOF 1
ENDMDL
MODEL 6
REMARK VINA RESULT:      -2.9     11.462     11.887
REMARK  1 active torsions:
REMARK  status: ('A' for Active; 'I' for Inactive)
REMARK    1  A    between atoms: C1_1  and  C3_3 
ROOT
HETATM    1  C1  UNL     1     -35.509  14.058  -3.970  1.00 20.00     0.181 A 
HETATM    2  C2  UNL     1     -34.171  13.717  -4.557  1.00 20.00     0.247 A 
HETATM    3  O4  UNL     1     -35.179  12.719  -4.356  1.00 20.00    -0.358 OA
HETATM    4 CL5  UNL     1     -32.755  13.702  -3.542  1.00 20.00    -0.092 Cl
ENDROOT
BRANCH   1   5
HETATM    5  C3  UNL     1     -36.569  14.693  -4.796  1.00 20.00     0.150 C 
HETATM    6 CL6  UNL     1     -38.146  14.679  -3.956  1.00 20.00    -0.128 Cl
ENDBRANCH   1   5
TORSDOF 1
ENDMDL
MODEL 7
REMARK VINA RESULT:      -2.8     11.791     12.453
REMARK  1 active torsions:
REMARK  status: ('A' for Active; 'I' for Inactive)
REMARK    1  A    between atoms: C1_1  and  C3_3 
ROOT
HETATM    1  C1  UNL     1     -34.153  13.928  -4.671  1.00 20.00     0.181 A 
HETATM    2  C2  UNL     1     -35.392  13.866  -5.516  1.00 20.00     0.247 A 
HETATM    3  O4  UNL     1     -34.791  12.682  -4.977  1.00 20.00    -0.358 OA
HETATM    4 CL5  UNL     1     -35.289  14.158  -7.230  1.00 20.00    -0.092 Cl
ENDROOT
BRANCH   1   5
HETATM    5  C3  UNL     1     -34.222  14.318  -3.238  1.00 20.00     0.150 C 
HETATM    6 CL6  UNL     1     -33.542  15.949  -2.974  1.00 20.00    -0.128 Cl
ENDBRANCH   1   5
TORSDOF 1
ENDMDL
MODEL 8
REMARK VINA RESULT:      -2.8     11.689     12.127
REMARK  1 active torsions:
REMARK  status: ('A' for Active; 'I' for Inactive)
REMARK    1  A    between atoms: C1_1  and  C3_3 
ROOT
HETATM    1  C1  UNL     1     -34.294  15.768  -3.348  1.00 20.00     0.181 A 
HETATM    2  C2  UNL     1     -33.968  14.311  -3.498  1.00 20.00     0.247 A 
HETATM    3  O4  UNL     1     -33.350  15.306  -4.322  1.00 20.00    -0.358 OA
HETATM    4 CL5  UNL     1     -35.133  13.230  -4.212  1.00 20.00    -0.092 Cl
ENDROOT
BRANCH   1   5
HETATM    5  C3  UNL     1     -33.700  16.577  -2.252  1.00 20.00     0.150 C 
HETATM    6 CL6  UNL     1     -34.692  16.493  -0.769  1.00 20.00    -0.128 Cl
ENDBRANCH   1   5
TORSDOF 1
ENDMDL
MODEL 9
REMARK VINA RESULT:      -2.8     11.606     12.264
REMARK  1 active torsions:
REMARK  status: ('A' for Active; 'I' for Inactive)
REMARK    1  A    between atoms: C1_1  and  C3_3 
ROOT
HETATM    1  C1  UNL     1     -35.100  13.927  -4.210  1.00 20.00     0.181 A 
HETATM    2  C2  UNL     1     -34.114  14.761  -3.445  1.00 20.00     0.247 A 
HETATM    3  O4  UNL     1     -34.149  13.334  -3.317  1.00 20.00    -0.358 OA
HETATM    4 CL5  UNL     1     -34.657  15.740  -2.110  1.00 20.00    -0.092 Cl
ENDROOT
BRANCH   1   5
HETATM    5  C3  UNL     1     -34.880  13.605  -5.644  1.00 20.00     0.150 C 
HETATM    6 CL6  UNL     1     -35.850  14.665  -6.707  1.00 20.00    -0.128 Cl
ENDBRANCH   1   5
TORSDOF 1
ENDMDL
