MODEL 1
REMARK VINA RESULT:      -4.4      0.000      0.000
REMARK  3 active torsions:
REMARK  status: ('A' for Active; 'I' for Inactive)
REMARK    1  A    between atoms: C1_1  and  C2_2 
REMARK    2  A    between atoms: C1_1  and  C3_3 
REMARK    3  A    between atoms: C2_2  and  S8_8 
ROOT
HETATM    1  C1  UNL     1     -34.235   5.825   5.355  1.00 20.00     0.241 C 
HETATM    2  O4  UNL     1     -33.929   6.607   6.255  1.00 20.00    -0.287 OA
ENDROOT
BRANCH   1   3
HETATM    3  C2  UNL     1     -34.161   6.163   3.882  1.00 20.00     0.158 C 
BRANCH   3   4
HETATM    4  S8  UNL     1     -32.466   6.483   3.345  1.00 20.00    -0.174 SA
HETATM    5  H11 UNL     1     -32.713   7.665   2.762  1.00 20.00     0.102 HD
ENDBRANCH   3   4
ENDBRANCH   1   3
BRANCH   1   6
HETATM    6  C3  UNL     1     -34.717   4.439   5.684  1.00 20.00     0.451 C 
HETATM    7  F5  UNL     1     -35.678   4.454   6.640  1.00 20.00    -0.163 F 
HETATM    8  F6  UNL     1     -35.247   3.820   4.599  1.00 20.00    -0.163 F 
HETATM    9  F7  UNL     1     -33.718   3.643   6.142  1.00 20.00    -0.163 F 
ENDBRANCH   1   6
TORSDOF 3
ENDMDL
MODEL 2
REMARK VINA RESULT:      -4.4      0.007      1.334
REMARK  3 active torsions:
REMARK  status: ('A' for Active; 'I' for Inactive)
REMARK    1  A    between atoms: C1_1  and  C2_2 
REMARK    2  A    between atoms: C1_1  and  C3_3 
REMARK    3  A    between atoms: C2_2  and  S8_8 
ROOT
HETATM    1  C1  UNL     1     -34.240   5.825   5.353  1.00 20.00     0.241 C 
HETATM    2  O4  UNL     1     -33.934   6.609   6.251  1.00 20.00    -0.287 OA
ENDROOT
BRANCH   1   3
HETATM    3  C2  UNL     1     -34.166   6.160   3.879  1.00 20.00     0.158 C 
BRANCH   3   4
HETATM    4  S8  UNL     1     -32.470   6.484   3.344  1.00 20.00    -0.174 SA
HETATM    5  H11 UNL     1     -32.555   7.822   3.380  1.00 20.00     0.102 HD
ENDBRANCH   3   4
ENDBRANCH   1   3
BRANCH   1   6
HETATM    6  C3  UNL     1     -34.725   4.440   5.685  1.00 20.00     0.451 C 
HETATM    7  F5  UNL     1     -35.253   3.820   4.601  1.00 20.00    -0.163 F 
HETATM    8  F6  UNL     1     -33.720   3.652   6.142  1.00 20.00    -0.163 F 
HETATM    9  F7  UNL     1     -35.685   4.448   6.643  1.00 20.00    -0.163 F 
ENDBRANCH   1   6
TORSDOF 3
ENDMDL
MODEL 3
REMARK VINA RESULT:      -4.4      0.045      1.335
REMARK  3 active torsions:
REMARK  status: ('A' for Active; 'I' for Inactive)
REMARK    1  A    between atoms: C1_1  and  C2_2 
REMARK    2  A    between atoms: C1_1  and  C3_3 
REMARK    3  A    between atoms: C2_2  and  S8_8 
ROOT
HETATM    1  C1  UNL     1     -34.246   5.849   5.382  1.00 20.00     0.241 C 
HETATM    2  O4  UNL     1     -33.947   6.617   6.296  1.00 20.00    -0.287 OA
ENDROOT
BRANCH   1   3
HETATM    3  C2  UNL     1     -34.178   6.215   3.915  1.00 20.00     0.158 C 
BRANCH   3   4
HETATM    4  S8  UNL     1     -32.474   6.401   3.342  1.00 20.00    -0.174 SA
HETATM    5  H11 UNL     1     -32.536   7.721   3.114  1.00 20.00     0.102 HD
ENDBRANCH   3   4
ENDBRANCH   1   3
BRANCH   1   6
HETATM    6  C3  UNL     1     -34.713   4.452   5.685  1.00 20.00     0.451 C 
HETATM    7  F5  UNL     1     -33.701   3.669   6.133  1.00 20.00    -0.163 F 
HETATM    8  F6  UNL     1     -35.676   4.439   6.641  1.00 20.00    -0.163 F 
HETATM    9  F7  UNL     1     -35.234   3.837   4.594  1.00 20.00    -0.163 F 
ENDBRANCH   1   6
TORSDOF 3
ENDMDL
MODEL 4
REMARK VINA RESULT:      -4.1      1.775      2.052
REMARK  3 active torsions:
REMARK  status: ('A' for Active; 'I' for Inactive)
REMARK    1  A    between atoms: C1_1  and  C2_2 
REMARK    2  A    between atoms: C1_1  and  C3_3 
REMARK    3  A    between atoms: C2_2  and  S8_8 
ROOT
HETATM    1  C1  UNL     1     -34.844   4.816   4.832  1.00 20.00     0.241 C 
HETATM    2  O4  UNL     1     -35.140   3.656   4.549  1.00 20.00    -0.287 OA
ENDROOT
BRANCH   1   3
HETATM    3  C2  UNL     1     -34.648   5.912   3.806  1.00 20.00     0.158 C 
BRANCH   3   4
HETATM    4  S8  UNL     1     -32.902   6.171   3.419  1.00 20.00    -0.174 SA
HETATM    5  H11 UNL     1     -33.094   6.681   2.194  1.00 20.00     0.102 HD
ENDBRANCH   3   4
ENDBRANCH   1   3
BRANCH   1   6
HETATM    6  C3  UNL     1     -34.655   5.224   6.267  1.00 20.00     0.451 C 
HETATM    7  F5  UNL     1     -35.779   5.028   6.999  1.00 20.00    -0.163 F 
HETATM    8  F6  UNL     1     -33.665   4.514   6.865  1.00 20.00    -0.163 F 
HETATM    9  F7  UNL     1     -34.328   6.535   6.389  1.00 20.00    -0.163 F 
ENDBRANCH   1   6
TORSDOF 3
ENDMDL
MODEL 5
REMARK VINA RESULT:      -4.1      1.343      1.896
REMARK  3 active torsions:
REMARK  status: ('A' for Active; 'I' for Inactive)
REMARK    1  A    between atoms: C1_1  and  C2_2 
REMARK    2  A    between atoms: C1_1  and  C3_3 
REMARK    3  A    between atoms: C2_2  and  S8_8 
ROOT
HETATM    1  C1  UNL     1     -34.654   5.478   4.594  1.00 20.00     0.241 C 
HETATM    2  O4  UNL     1     -35.474   5.432   3.678  1.00 20.00    -0.287 OA
ENDROOT
BRANCH   1   3
HETATM    3  C2  UNL     1     -33.518   6.477   4.661  1.00 20.00     0.158 C 
BRANCH   3   4
HETATM    4  S8  UNL     1     -32.458   6.395   3.200  1.00 20.00    -0.174 SA
HETATM    5  H11 UNL     1     -31.535   5.579   3.730  1.00 20.00     0.102 HD
ENDBRANCH   3   4
ENDBRANCH   1   3
BRANCH   1   6
HETATM    6  C3  UNL     1     -34.736   4.507   5.739  1.00 20.00     0.451 C 
HETATM    7  F5  UNL     1     -34.910   3.234   5.308  1.00 20.00    -0.163 F 
HETATM    8  F6  UNL     1     -33.608   4.520   6.492  1.00 20.00    -0.163 F 
HETATM    9  F7  UNL     1     -35.770   4.785   6.574  1.00 20.00    -0.163 F 
ENDBRANCH   1   6
TORSDOF 3
ENDMDL
MODEL 6
REMARK VINA RESULT:      -4.1      1.654      2.155
REMARK  3 active torsions:
REMARK  status: ('A' for Active; 'I' for Inactive)
REMARK    1  A    between atoms: C1_1  and  C2_2 
REMARK    2  A    between atoms: C1_1  and  C3_3 
REMARK    3  A    between atoms: C2_2  and  S8_8 
ROOT
HETATM    1  C1  UNL     1     -34.620   5.349   4.735  1.00 20.00     0.241 C 
HETATM    2  O4  UNL     1     -35.175   4.400   4.183  1.00 20.00    -0.287 OA
ENDROOT
BRANCH   1   3
HETATM    3  C2  UNL     1     -34.092   6.563   4.000  1.00 20.00     0.158 C 
BRANCH   3   4
HETATM    4  S8  UNL     1     -32.454   6.267   3.295  1.00 20.00    -0.174 SA
HETATM    5  H11 UNL     1     -32.872   5.547   2.243  1.00 20.00     0.102 HD
ENDBRANCH   3   4
ENDBRANCH   1   3
BRANCH   1   6
HETATM    6  C3  UNL     1     -34.428   5.356   6.227  1.00 20.00     0.451 C 
HETATM    7  F5  UNL     1     -33.700   4.291   6.645  1.00 20.00    -0.163 F 
HETATM    8  F6  UNL     1     -33.776   6.469   6.646  1.00 20.00    -0.163 F 
HETATM    9  F7  UNL     1     -35.607   5.315   6.896  1.00 20.00    -0.163 F 
ENDBRANCH   1   6
TORSDOF 3
ENDMDL
MODEL 7
REMARK VINA RESULT:      -3.9      1.910      2.089
REMARK  3 active torsions:
REMARK  status: ('A' for Active; 'I' for Inactive)
REMARK    1  A    between atoms: C1_1  and  C2_2 
REMARK    2  A    between atoms: C1_1  and  C3_3 
REMARK    3  A    between atoms: C2_2  and  S8_8 
ROOT
HETATM    1  C1  UNL     1     -34.110   5.537   3.574  1.00 20.00     0.241 C 
HETATM    2  O4  UNL     1     -34.089   5.165   2.402  1.00 20.00    -0.287 OA
ENDROOT
BRANCH   1   3
HETATM    3  C2  UNL     1     -33.118   6.514   4.168  1.00 20.00     0.158 C 
BRANCH   3   4
HETATM    4  S8  UNL     1     -32.139   7.342   2.894  1.00 20.00    -0.174 SA
HETATM    5  H11 UNL     1     -32.843   8.483   2.881  1.00 20.00     0.102 HD
ENDBRANCH   3   4
ENDBRANCH   1   3
BRANCH   1   6
HETATM    6  C3  UNL     1     -35.162   5.022   4.517  1.00 20.00     0.451 C 
HETATM    7  F5  UNL     1     -35.026   5.548   5.759  1.00 20.00    -0.163 F 
HETATM    8  F6  UNL     1     -36.413   5.328   4.092  1.00 20.00    -0.163 F 
HETATM    9  F7  UNL     1     -35.113   3.673   4.653  1.00 20.00    -0.163 F 
ENDBRANCH   1   6
TORSDOF 3
ENDMDL
MODEL 8
REMARK VINA RESULT:      -3.9      3.470      3.910
REMARK  3 active torsions:
REMARK  status: ('A' for Active; 'I' for Inactive)
REMARK    1  A    between atoms: C1_1  and  C2_2 
REMARK    2  A    between atoms: C1_1  and  C3_3 
REMARK    3  A    between atoms: C2_2  and  S8_8 
ROOT
HETATM    1  C1  UNL     1     -33.864   5.970   3.868  1.00 20.00     0.241 C 
HETATM    2  O4  UNL     1     -34.659   5.429   3.102  1.00 20.00    -0.287 OA
ENDROOT
BRANCH   1   3
HETATM    3  C2  UNL     1     -34.082   6.094   5.361  1.00 20.00     0.158 C 
BRANCH   3   4
HETATM    4  S8  UNL     1     -34.864   4.621   6.056  1.00 20.00    -0.174 SA
HETATM    5  H11 UNL     1     -35.827   5.266   6.730  1.00 20.00     0.102 HD
ENDBRANCH   3   4
ENDBRANCH   1   3
BRANCH   1   6
HETATM    6  C3  UNL     1     -32.584   6.561   3.344  1.00 20.00     0.451 C 
HETATM    7  F5  UNL     1     -31.748   5.607   2.866  1.00 20.00    -0.163 F 
HETATM    8  F6  UNL     1     -32.811   7.434   2.330  1.00 20.00    -0.163 F 
HETATM    9  F7  UNL     1     -31.902   7.240   4.301  1.00 20.00    -0.163 F 
ENDBRANCH   1   6
TORSDOF 3
ENDMDL
MODEL 9
REMARK VINA RESULT:      -3.8      3.090      3.563
REMARK  3 active torsions:
REMARK  status: ('A' for Active; 'I' for Inactive)
REMARK    1  A    between atoms: C1_1  and  C2_2 
REMARK    2  A    between atoms: C1_1  and  C3_3 
REMARK    3  A    between atoms: C2_2  and  S8_8 
ROOT
HETATM    1  C1  UNL     1     -33.774   6.146   4.477  1.00 20.00     0.241 C 
HETATM    2  O4  UNL     1     -33.425   6.779   5.472  1.00 20.00    -0.287 OA
ENDROOT
BRANCH   1   3
HETATM    3  C2  UNL     1     -34.986   5.241   4.433  1.00 20.00     0.158 C 
BRANCH   3   4
HETATM    4  S8  UNL     1     -35.036   4.109   5.841  1.00 20.00    -0.174 SA
HETATM    5  H11 UNL     1     -35.763   4.900   6.644  1.00 20.00     0.102 HD
ENDBRANCH   3   4
ENDBRANCH   1   3
BRANCH   1   6
HETATM    6  C3  UNL     1     -32.983   6.239   3.200  1.00 20.00     0.451 C 
HETATM    7  F5  UNL     1     -31.723   5.763   3.353  1.00 20.00    -0.163 F 
HETATM    8  F6  UNL     1     -33.558   5.527   2.199  1.00 20.00    -0.163 F 
HETATM    9  F7  UNL     1     -32.871   7.517   2.759  1.00 20.00    -0.163 F 
ENDBRANCH   1   6
TORSDOF 3
ENDMDL
