MODEL 1
REMARK VINA RESULT:      -3.8      0.000      0.000
REMARK  3 active torsions:
REMARK  status: ('A' for Active; 'I' for Inactive)
REMARK    1  A    between atoms: C2_2  and  O8_8 
REMARK    2  A    between atoms: C4_4  and  C6_6 
REMARK    3  A    between atoms: C6_6  and  O8_8 
ROOT
HETATM    1  C6  UNL     1     -34.608  14.868  -3.162  1.00 20.00     0.208 C 
ENDROOT
BRANCH   1   2
HETATM    2  C4  UNL     1     -34.108  13.813  -4.126  1.00 20.00     0.169 A 
HETATM    3  C3  UNL     1     -34.800  13.565  -5.437  1.00 20.00     0.202 A 
HETATM    4  O7  UNL     1     -34.994  12.703  -4.305  1.00 20.00    -0.379 OA
ENDBRANCH   1   2
BRANCH   1   5
HETATM    5  O8  UNL     1     -33.678  15.930  -3.121  1.00 20.00    -0.361 OA
BRANCH   5   6
HETATM    6  C2  UNL     1     -33.781  16.689  -1.988  1.00 20.00     0.130 C 
HETATM    7  C1  UNL     1     -34.726  16.493  -1.064  1.00 20.00    -0.007 C 
HETATM    8  C5  UNL     1     -34.853  17.312   0.176  1.00 20.00     0.038 C 
ENDBRANCH   5   6
ENDBRANCH   1   5
TORSDOF 3
ENDMDL
MODEL 2
REMARK VINA RESULT:      -3.7     10.481     10.936
REMARK  3 active torsions:
REMARK  status: ('A' for Active; 'I' for Inactive)
REMARK    1  A    between atoms: C2_2  and  O8_8 
REMARK    2  A    between atoms: C4_4  and  C6_6 
REMARK    3  A    between atoms: C6_6  and  O8_8 
ROOT
HETATM    1  C6  UNL     1     -32.536   6.959   2.672  1.00 20.00     0.208 C 
ENDROOT
BRANCH   1   2
HETATM    2  C4  UNL     1     -31.854   8.277   2.379  1.00 20.00     0.169 A 
HETATM    3  C3  UNL     1     -32.536   9.343   1.567  1.00 20.00     0.202 A 
HETATM    4  O7  UNL     1     -31.532   8.487   1.000  1.00 20.00    -0.379 OA
ENDBRANCH   1   2
BRANCH   1   5
HETATM    5  O8  UNL     1     -32.804   6.877   4.056  1.00 20.00    -0.361 OA
BRANCH   5   6
HETATM    6  C2  UNL     1     -33.670   5.869   4.377  1.00 20.00     0.130 C 
HETATM    7  C1  UNL     1     -34.171   5.704   5.603  1.00 20.00    -0.007 C 
HETATM    8  C5  UNL     1     -35.117   4.609   5.971  1.00 20.00     0.038 C 
ENDBRANCH   5   6
ENDBRANCH   1   5
TORSDOF 3
ENDMDL
MODEL 3
REMARK VINA RESULT:      -3.7     11.025     11.622
REMARK  3 active torsions:
REMARK  status: ('A' for Active; 'I' for Inactive)
REMARK    1  A    between atoms: C2_2  and  O8_8 
REMARK    2  A    between atoms: C4_4  and  C6_6 
REMARK    3  A    between atoms: C6_6  and  O8_8 
ROOT
HETATM    1  C6  UNL     1     -33.908   6.274   4.176  1.00 20.00     0.208 C 
ENDROOT
BRANCH   1   2
HETATM    2  C4  UNL     1     -33.942   5.271   5.308  1.00 20.00     0.169 A 
HETATM    3  C3  UNL     1     -35.215   4.566   5.685  1.00 20.00     0.202 A 
HETATM    4  O7  UNL     1     -34.716   5.679   6.442  1.00 20.00    -0.379 OA
ENDBRANCH   1   2
BRANCH   1   5
HETATM    5  O8  UNL     1     -32.580   6.720   3.997  1.00 20.00    -0.361 OA
BRANCH   5   6
HETATM    6  C2  UNL     1     -32.300   7.068   2.704  1.00 20.00     0.130 C 
HETATM    7  C1  UNL     1     -32.196   8.336   2.299  1.00 20.00    -0.007 C 
HETATM    8  C5  UNL     1     -31.893   8.734   0.893  1.00 20.00     0.038 C 
ENDBRANCH   5   6
ENDBRANCH   1   5
TORSDOF 3
ENDMDL
MODEL 4
REMARK VINA RESULT:      -3.5     11.171     11.755
REMARK  3 active torsions:
REMARK  status: ('A' for Active; 'I' for Inactive)
REMARK    1  A    between atoms: C2_2  and  O8_8 
REMARK    2  A    between atoms: C4_4  and  C6_6 
REMARK    3  A    between atoms: C6_6  and  O8_8 
ROOT
HETATM    1  C6  UNL     1     -32.895   5.742   2.997  1.00 20.00     0.208 C 
ENDROOT
BRANCH   1   2
HETATM    2  C4  UNL     1     -32.782   7.243   3.161  1.00 20.00     0.169 A 
HETATM    3  C3  UNL     1     -32.001   8.076   2.184  1.00 20.00     0.202 A 
HETATM    4  O7  UNL     1     -31.463   7.711   3.465  1.00 20.00    -0.379 OA
ENDBRANCH   1   2
BRANCH   1   5
HETATM    5  O8  UNL     1     -34.255   5.399   2.834  1.00 20.00    -0.361 OA
BRANCH   5   6
HETATM    6  C2  UNL     1     -34.936   5.326   4.017  1.00 20.00     0.130 C 
HETATM    7  C1  UNL     1     -34.446   4.722   5.103  1.00 20.00    -0.007 C 
HETATM    8  C5  UNL     1     -35.176   4.633   6.402  1.00 20.00     0.038 C 
ENDBRANCH   5   6
ENDBRANCH   1   5
TORSDOF 3
ENDMDL
MODEL 5
REMARK VINA RESULT:      -3.4     11.624     12.250
REMARK  3 active torsions:
REMARK  status: ('A' for Active; 'I' for Inactive)
REMARK    1  A    between atoms: C2_2  and  O8_8 
REMARK    2  A    between atoms: C4_4  and  C6_6 
REMARK    3  A    between atoms: C6_6  and  O8_8 
ROOT
HETATM    1  C6  UNL     1     -35.141   5.329   3.882  1.00 20.00     0.208 C 
ENDROOT
BRANCH   1   2
HETATM    2  C4  UNL     1     -34.411   4.930   5.146  1.00 20.00     0.169 A 
HETATM    3  C3  UNL     1     -35.141   4.308   6.303  1.00 20.00     0.202 A 
HETATM    4  O7  UNL     1     -34.767   5.694   6.304  1.00 20.00    -0.379 OA
ENDBRANCH   1   2
BRANCH   1   5
HETATM    5  O8  UNL     1     -34.209   5.436   2.827  1.00 20.00    -0.361 OA
BRANCH   5   6
HETATM    6  C2  UNL     1     -33.007   5.953   3.223  1.00 20.00     0.130 C 
HETATM    7  C1  UNL     1     -32.608   7.189   2.908  1.00 20.00    -0.007 C 
HETATM    8  C5  UNL     1     -31.300   7.769   3.331  1.00 20.00     0.038 C 
ENDBRANCH   5   6
ENDBRANCH   1   5
TORSDOF 3
ENDMDL
MODEL 6
REMARK VINA RESULT:      -3.2      2.159      2.226
REMARK  3 active torsions:
REMARK  status: ('A' for Active; 'I' for Inactive)
REMARK    1  A    between atoms: C2_2  and  O8_8 
REMARK    2  A    between atoms: C4_4  and  C6_6 
REMARK    3  A    between atoms: C6_6  and  O8_8 
ROOT
HETATM    1  C6  UNL     1     -36.201  15.634  -3.060  1.00 20.00     0.208 C 
ENDROOT
BRANCH   1   2
HETATM    2  C4  UNL     1     -36.815  14.638  -4.020  1.00 20.00     0.169 A 
HETATM    3  C3  UNL     1     -37.999  15.005  -4.870  1.00 20.00     0.202 A 
HETATM    4  O7  UNL     1     -38.141  14.220  -3.677  1.00 20.00    -0.379 OA
ENDBRANCH   1   2
BRANCH   1   5
HETATM    5  O8  UNL     1     -34.843  15.302  -2.860  1.00 20.00    -0.361 OA
BRANCH   5   6
HETATM    6  C2  UNL     1     -34.181  16.203  -2.073  1.00 20.00     0.130 C 
HETATM    7  C1  UNL     1     -34.716  16.737  -0.972  1.00 20.00    -0.007 C 
HETATM    8  C5  UNL     1     -34.008  17.722  -0.102  1.00 20.00     0.038 C 
ENDBRANCH   5   6
ENDBRANCH   1   5
TORSDOF 3
ENDMDL
MODEL 7
REMARK VINA RESULT:      -3.2      1.775      2.240
REMARK  3 active torsions:
REMARK  status: ('A' for Active; 'I' for Inactive)
REMARK    1  A    between atoms: C2_2  and  O8_8 
REMARK    2  A    between atoms: C4_4  and  C6_6 
REMARK    3  A    between atoms: C6_6  and  O8_8 
ROOT
HETATM    1  C6  UNL     1     -34.462  15.153  -3.492  1.00 20.00     0.208 C 
ENDROOT
BRANCH   1   2
HETATM    2  C4  UNL     1     -33.907  16.400  -4.144  1.00 20.00     0.169 A 
HETATM    3  C3  UNL     1     -33.748  16.494  -5.636  1.00 20.00     0.202 A 
HETATM    4  O7  UNL     1     -32.632  16.227  -4.773  1.00 20.00    -0.379 OA
ENDBRANCH   1   2
BRANCH   1   5
HETATM    5  O8  UNL     1     -35.039  15.501  -2.251  1.00 20.00    -0.361 OA
BRANCH   5   6
HETATM    6  C2  UNL     1     -34.349  16.482  -1.595  1.00 20.00     0.130 C 
HETATM    7  C1  UNL     1     -34.727  16.968  -0.409  1.00 20.00    -0.007 C 
HETATM    8  C5  UNL     1     -33.988  18.039   0.320  1.00 20.00     0.038 C 
ENDBRANCH   5   6
ENDBRANCH   1   5
TORSDOF 3
ENDMDL
MODEL 8
REMARK VINA RESULT:      -3.1      2.743      3.451
REMARK  3 active torsions:
REMARK  status: ('A' for Active; 'I' for Inactive)
REMARK    1  A    between atoms: C2_2  and  O8_8 
REMARK    2  A    between atoms: C4_4  and  C6_6 
REMARK    3  A    between atoms: C6_6  and  O8_8 
ROOT
HETATM    1  C6  UNL     1     -33.572  15.370  -3.603  1.00 20.00     0.208 C 
ENDROOT
BRANCH   1   2
HETATM    2  C4  UNL     1     -33.867  14.076  -4.330  1.00 20.00     0.169 A 
HETATM    3  C3  UNL     1     -35.245  13.475  -4.322  1.00 20.00     0.202 A 
HETATM    4  O7  UNL     1     -34.198  12.975  -3.476  1.00 20.00    -0.379 OA
ENDBRANCH   1   2
BRANCH   1   5
HETATM    5  O8  UNL     1     -32.782  16.194  -4.434  1.00 20.00    -0.361 OA
BRANCH   5   6
HETATM    6  C2  UNL     1     -33.483  16.740  -5.472  1.00 20.00     0.130 C 
HETATM    7  C1  UNL     1     -33.574  18.057  -5.677  1.00 20.00    -0.007 C 
HETATM    8  C5  UNL     1     -34.335  18.669  -6.805  1.00 20.00     0.038 C 
ENDBRANCH   5   6
ENDBRANCH   1   5
TORSDOF 3
ENDMDL
MODEL 9
REMARK VINA RESULT:      -3.1      1.989      2.262
REMARK  3 active torsions:
REMARK  status: ('A' for Active; 'I' for Inactive)
REMARK    1  A    between atoms: C2_2  and  O8_8 
REMARK    2  A    between atoms: C4_4  and  C6_6 
REMARK    3  A    between atoms: C6_6  and  O8_8 
ROOT
HETATM    1  C6  UNL     1     -33.721  16.340  -5.912  1.00 20.00     0.208 C 
ENDROOT
BRANCH   1   2
HETATM    2  C4  UNL     1     -34.392  14.985  -5.971  1.00 20.00     0.169 A 
HETATM    3  C3  UNL     1     -35.146  14.542  -7.194  1.00 20.00     0.202 A 
HETATM    4  O7  UNL     1     -35.822  15.030  -6.025  1.00 20.00    -0.379 OA
ENDBRANCH   1   2
BRANCH   1   5
HETATM    5  O8  UNL     1     -32.953  16.421  -4.730  1.00 20.00    -0.361 OA
BRANCH   5   6
HETATM    6  C2  UNL     1     -33.682  16.812  -3.641  1.00 20.00     0.130 C 
HETATM    7  C1  UNL     1     -33.776  16.080  -2.528  1.00 20.00    -0.007 C 
HETATM    8  C5  UNL     1     -34.568  16.491  -1.332  1.00 20.00     0.038 C 
ENDBRANCH   5   6
ENDBRANCH   1   5
TORSDOF 3
ENDMDL
