MODEL 1
REMARK VINA RESULT:      -4.3      0.000      0.000
REMARK  0 active torsions:
REMARK  status: ('A' for Active; 'I' for Inactive)
ROOT
HETATM    1  C1  UNL     1     -33.795   6.654   5.542  1.00 20.00     0.066 C 
HETATM    2  C2  UNL     1     -34.879   5.403   3.635  1.00 20.00     0.066 C 
HETATM    3  C3  UNL     1     -34.158   5.465   6.427  1.00 20.00     0.170 C 
HETATM    4  C4  UNL     1     -35.176   4.290   4.637  1.00 20.00     0.170 C 
HETATM    5  C5  UNL     1     -32.366   6.095   3.424  1.00 20.00     0.207 A 
HETATM    6  C6  UNL     1     -33.702   6.194   4.119  1.00 20.00     0.086 A 
HETATM    7  O7  UNL     1     -35.352   4.832   5.951  1.00 20.00    -0.391 OA
HETATM    8  O8  UNL     1     -33.253   7.201   3.203  1.00 20.00    -0.375 OA
ENDROOT
TORSDOF 0
ENDMDL
MODEL 2
REMARK VINA RESULT:      -4.0     11.982     13.322
REMARK  0 active torsions:
REMARK  status: ('A' for Active; 'I' for Inactive)
ROOT
HETATM    1  C1  UNL     1     -33.304  14.345  -3.804  1.00 20.00     0.066 C 
HETATM    2  C2  UNL     1     -34.317  14.728  -6.085  1.00 20.00     0.066 C 
HETATM    3  C3  UNL     1     -33.077  15.852  -3.737  1.00 20.00     0.170 C 
HETATM    4  C4  UNL     1     -34.028  16.212  -5.879  1.00 20.00     0.170 C 
HETATM    5  C5  UNL     1     -35.771  13.591  -4.233  1.00 20.00     0.207 A 
HETATM    6  C6  UNL     1     -34.434  14.063  -4.748  1.00 20.00     0.086 A 
HETATM    7  O7  UNL     1     -32.872  16.388  -5.050  1.00 20.00    -0.391 OA
HETATM    8  O8  UNL     1     -34.819  12.684  -4.808  1.00 20.00    -0.375 OA
ENDROOT
TORSDOF 0
ENDMDL
MODEL 3
REMARK VINA RESULT:      -3.8     11.836     12.450
REMARK  0 active torsions:
REMARK  status: ('A' for Active; 'I' for Inactive)
ROOT
HETATM    1  C1  UNL     1     -33.525  13.956  -3.769  1.00 20.00     0.066 C 
HETATM    2  C2  UNL     1     -35.644  15.170  -3.123  1.00 20.00     0.066 C 
HETATM    3  C3  UNL     1     -34.367  13.188  -4.785  1.00 20.00     0.170 C 
HETATM    4  C4  UNL     1     -36.356  14.328  -4.178  1.00 20.00     0.170 C 
HETATM    5  C5  UNL     1     -33.601  16.562  -3.976  1.00 20.00     0.207 A 
HETATM    6  C6  UNL     1     -34.190  15.267  -3.475  1.00 20.00     0.086 A 
HETATM    7  O7  UNL     1     -35.715  13.054  -4.320  1.00 20.00    -0.391 OA
HETATM    8  O8  UNL     1     -33.433  16.131  -2.618  1.00 20.00    -0.375 OA
ENDROOT
TORSDOF 0
ENDMDL
MODEL 4
REMARK VINA RESULT:      -3.8     11.704     12.519
REMARK  0 active torsions:
REMARK  status: ('A' for Active; 'I' for Inactive)
ROOT
HETATM    1  C1  UNL     1     -35.526  14.839  -3.423  1.00 20.00     0.066 C 
HETATM    2  C2  UNL     1     -33.200  13.889  -3.681  1.00 20.00     0.066 C 
HETATM    3  C3  UNL     1     -34.872  16.216  -3.353  1.00 20.00     0.170 C 
HETATM    4  C4  UNL     1     -32.688  15.325  -3.595  1.00 20.00     0.170 C 
HETATM    5  C5  UNL     1     -34.967  13.428  -5.553  1.00 20.00     0.207 A 
HETATM    6  C6  UNL     1     -34.618  13.904  -4.164  1.00 20.00     0.086 A 
HETATM    7  O7  UNL     1     -33.561  16.120  -2.784  1.00 20.00    -0.391 OA
HETATM    8  O8  UNL     1     -35.175  12.604  -4.397  1.00 20.00    -0.375 OA
ENDROOT
TORSDOF 0
ENDMDL
MODEL 5
REMARK VINA RESULT:      -3.8     12.025     13.275
REMARK  0 active torsions:
REMARK  status: ('A' for Active; 'I' for Inactive)
ROOT
HETATM    1  C1  UNL     1     -34.281  14.924  -6.075  1.00 20.00     0.066 C 
HETATM    2  C2  UNL     1     -33.206  14.643  -3.807  1.00 20.00     0.066 C 
HETATM    3  C3  UNL     1     -35.228  13.794  -5.681  1.00 20.00     0.170 C 
HETATM    4  C4  UNL     1     -34.219  13.530  -3.552  1.00 20.00     0.170 C 
HETATM    5  C5  UNL     1     -34.217  16.969  -4.445  1.00 20.00     0.207 A 
HETATM    6  C6  UNL     1     -33.762  15.583  -4.833  1.00 20.00     0.086 A 
HETATM    7  O7  UNL     1     -34.580  12.888  -4.780  1.00 20.00    -0.391 OA
HETATM    8  O8  UNL     1     -32.949  16.738  -5.075  1.00 20.00    -0.375 OA
ENDROOT
TORSDOF 0
ENDMDL
MODEL 6
REMARK VINA RESULT:      -3.6      0.928      3.355
REMARK  0 active torsions:
REMARK  status: ('A' for Active; 'I' for Inactive)
ROOT
HETATM    1  C1  UNL     1     -35.254   5.271   3.865  1.00 20.00     0.066 C 
HETATM    2  C2  UNL     1     -33.623   6.476   5.371  1.00 20.00     0.066 C 
HETATM    3  C3  UNL     1     -34.220   5.421   2.754  1.00 20.00     0.170 C 
HETATM    4  C4  UNL     1     -32.688   6.552   4.167  1.00 20.00     0.170 C 
HETATM    5  C5  UNL     1     -34.417   4.074   6.036  1.00 20.00     0.207 A 
HETATM    6  C6  UNL     1     -34.556   5.318   5.192  1.00 20.00     0.086 A 
HETATM    7  O7  UNL     1     -33.442   6.607   2.949  1.00 20.00    -0.391 OA
HETATM    8  O8  UNL     1     -35.412   5.071   6.315  1.00 20.00    -0.375 OA
ENDROOT
TORSDOF 0
ENDMDL
MODEL 7
REMARK VINA RESULT:      -3.6     11.974     12.602
REMARK  0 active torsions:
REMARK  status: ('A' for Active; 'I' for Inactive)
ROOT
HETATM    1  C1  UNL     1     -34.120  15.424  -2.931  1.00 20.00     0.066 C 
HETATM    2  C2  UNL     1     -35.734  13.881  -4.112  1.00 20.00     0.066 C 
HETATM    3  C3  UNL     1     -33.002  14.683  -3.657  1.00 20.00     0.170 C 
HETATM    4  C4  UNL     1     -34.516  13.235  -4.766  1.00 20.00     0.170 C 
HETATM    5  C5  UNL     1     -35.970  16.463  -4.462  1.00 20.00     0.207 A 
HETATM    6  C6  UNL     1     -35.389  15.285  -3.717  1.00 20.00     0.086 A 
HETATM    7  O7  UNL     1     -33.377  13.323  -3.902  1.00 20.00    -0.391 OA
HETATM    8  O8  UNL     1     -36.491  16.038  -3.194  1.00 20.00    -0.375 OA
ENDROOT
TORSDOF 0
ENDMDL
MODEL 8
REMARK VINA RESULT:      -3.4      9.643     10.692
REMARK  0 active torsions:
REMARK  status: ('A' for Active; 'I' for Inactive)
ROOT
HETATM    1  C1  UNL     1     -41.850   6.645  -2.316  1.00 20.00     0.066 C 
HETATM    2  C2  UNL     1     -41.766   4.123  -2.214  1.00 20.00     0.066 C 
HETATM    3  C3  UNL     1     -43.243   6.497  -2.921  1.00 20.00     0.170 C 
HETATM    4  C4  UNL     1     -43.165   4.129  -2.825  1.00 20.00     0.170 C 
HETATM    5  C5  UNL     1     -41.494   5.486   0.002  1.00 20.00     0.207 A 
HETATM    6  C6  UNL     1     -41.537   5.423  -1.506  1.00 20.00     0.086 A 
HETATM    7  O7  UNL     1     -43.340   5.277  -3.665  1.00 20.00    -0.391 OA
HETATM    8  O8  UNL     1     -40.298   5.494  -0.790  1.00 20.00    -0.375 OA
ENDROOT
TORSDOF 0
ENDMDL
MODEL 9
REMARK VINA RESULT:      -3.4      1.313      2.314
REMARK  0 active torsions:
REMARK  status: ('A' for Active; 'I' for Inactive)
ROOT
HETATM    1  C1  UNL     1     -34.856   4.084   4.791  1.00 20.00     0.066 C 
HETATM    2  C2  UNL     1     -33.666   6.312   4.753  1.00 20.00     0.066 C 
HETATM    3  C3  UNL     1     -35.173   4.366   6.257  1.00 20.00     0.170 C 
HETATM    4  C4  UNL     1     -34.056   6.457   6.222  1.00 20.00     0.170 C 
HETATM    5  C5  UNL     1     -35.645   5.909   3.092  1.00 20.00     0.207 A 
HETATM    6  C6  UNL     1     -34.633   5.385   4.081  1.00 20.00     0.086 A 
HETATM    7  O7  UNL     1     -34.145   5.171   6.847  1.00 20.00    -0.391 OA
HETATM    8  O8  UNL     1     -34.440   5.257   2.666  1.00 20.00    -0.375 OA
ENDROOT
TORSDOF 0
ENDMDL
