MODEL 1
REMARK VINA RESULT:      -5.3      0.000      0.000
REMARK  2 active torsions:
REMARK  status: ('A' for Active; 'I' for Inactive)
REMARK    1  A    between atoms: C1_1  and  C2_2 
REMARK    2  A    between atoms: C2_2  and  C3_3 
ROOT
HETATM    1  C2  UNL     1     -34.911   4.977   4.537  1.00 20.00     0.428 C 
HETATM    2  F6  UNL     1     -36.196   5.380   4.358  1.00 20.00    -0.184 F 
HETATM    3  F7  UNL     1     -34.873   3.654   4.229  1.00 20.00    -0.184 F 
ENDROOT
BRANCH   1   4
HETATM    4  C1  UNL     1     -34.476   5.213   5.951  1.00 20.00     0.379 C 
HETATM    5  O4  UNL     1     -34.465   6.298   6.511  1.00 20.00    -0.253 OA
HETATM    6  F5  UNL     1     -34.102   4.145   6.670  1.00 20.00    -0.157 F 
ENDBRANCH   1   4
BRANCH   1   7
HETATM    7  C3  UNL     1     -34.028   5.729   3.575  1.00 20.00     0.465 C 
HETATM    8  F8  UNL     1     -34.353   7.041   3.555  1.00 20.00    -0.165 F 
HETATM    9  F9  UNL     1     -34.157   5.256   2.317  1.00 20.00    -0.165 F 
HETATM   10  F10 UNL     1     -32.728   5.634   3.923  1.00 20.00    -0.165 F 
ENDBRANCH   1   7
TORSDOF 2
ENDMDL
MODEL 2
REMARK VINA RESULT:      -5.3      0.011      1.194
REMARK  2 active torsions:
REMARK  status: ('A' for Active; 'I' for Inactive)
REMARK    1  A    between atoms: C1_1  and  C2_2 
REMARK    2  A    between atoms: C2_2  and  C3_3 
ROOT
HETATM    1  C2  UNL     1     -34.908   4.975   4.532  1.00 20.00     0.428 C 
HETATM    2  F6  UNL     1     -36.194   5.375   4.353  1.00 20.00    -0.184 F 
HETATM    3  F7  UNL     1     -34.866   3.654   4.215  1.00 20.00    -0.184 F 
ENDROOT
BRANCH   1   4
HETATM    4  C1  UNL     1     -34.478   5.203   5.948  1.00 20.00     0.379 C 
HETATM    5  O4  UNL     1     -34.469   6.284   6.516  1.00 20.00    -0.253 OA
HETATM    6  F5  UNL     1     -34.104   4.131   6.662  1.00 20.00    -0.157 F 
ENDBRANCH   1   4
BRANCH   1   7
HETATM    7  C3  UNL     1     -34.026   5.737   3.577  1.00 20.00     0.465 C 
HETATM    8  F8  UNL     1     -34.157   5.257   2.321  1.00 20.00    -0.165 F 
HETATM    9  F9  UNL     1     -32.724   5.633   3.921  1.00 20.00    -0.165 F 
HETATM   10  F10 UNL     1     -34.346   7.047   3.551  1.00 20.00    -0.165 F 
ENDBRANCH   1   7
TORSDOF 2
ENDMDL
MODEL 3
REMARK VINA RESULT:      -5.3      0.007      1.195
REMARK  2 active torsions:
REMARK  status: ('A' for Active; 'I' for Inactive)
REMARK    1  A    between atoms: C1_1  and  C2_2 
REMARK    2  A    between atoms: C2_2  and  C3_3 
ROOT
HETATM    1  C2  UNL     1     -34.912   4.979   4.537  1.00 20.00     0.428 C 
HETATM    2  F6  UNL     1     -36.197   5.380   4.359  1.00 20.00    -0.184 F 
HETATM    3  F7  UNL     1     -34.872   3.657   4.228  1.00 20.00    -0.184 F 
ENDROOT
BRANCH   1   4
HETATM    4  C1  UNL     1     -34.476   5.215   5.950  1.00 20.00     0.379 C 
HETATM    5  O4  UNL     1     -34.465   6.300   6.511  1.00 20.00    -0.253 OA
HETATM    6  F5  UNL     1     -34.102   4.147   6.669  1.00 20.00    -0.157 F 
ENDBRANCH   1   4
BRANCH   1   7
HETATM    7  C3  UNL     1     -34.031   5.734   3.574  1.00 20.00     0.465 C 
HETATM    8  F8  UNL     1     -32.732   5.625   3.931  1.00 20.00    -0.165 F 
HETATM    9  F9  UNL     1     -34.341   7.048   3.550  1.00 20.00    -0.165 F 
HETATM   10  F10 UNL     1     -34.152   5.255   2.318  1.00 20.00    -0.165 F 
ENDBRANCH   1   7
TORSDOF 2
ENDMDL
MODEL 4
REMARK VINA RESULT:      -5.3      0.849      2.332
REMARK  2 active torsions:
REMARK  status: ('A' for Active; 'I' for Inactive)
REMARK    1  A    between atoms: C1_1  and  C2_2 
REMARK    2  A    between atoms: C2_2  and  C3_3 
ROOT
HETATM    1  C2  UNL     1     -33.989   6.141   4.390  1.00 20.00     0.428 C 
HETATM    2  F6  UNL     1     -32.710   5.790   4.095  1.00 20.00    -0.184 F 
HETATM    3  F7  UNL     1     -34.183   7.377   3.861  1.00 20.00    -0.184 F 
ENDROOT
BRANCH   1   4
HETATM    4  C1  UNL     1     -34.204   6.151   5.872  1.00 20.00     0.379 C 
HETATM    5  O4  UNL     1     -33.638   6.893   6.660  1.00 20.00    -0.253 OA
HETATM    6  F5  UNL     1     -35.115   5.303   6.371  1.00 20.00    -0.157 F 
ENDBRANCH   1   4
BRANCH   1   7
HETATM    7  C3  UNL     1     -34.926   5.169   3.721  1.00 20.00     0.465 C 
HETATM    8  F8  UNL     1     -34.545   4.941   2.445  1.00 20.00    -0.165 F 
HETATM    9  F9  UNL     1     -36.190   5.644   3.694  1.00 20.00    -0.165 F 
HETATM   10  F10 UNL     1     -34.942   3.982   4.363  1.00 20.00    -0.165 F 
ENDBRANCH   1   7
TORSDOF 2
ENDMDL
MODEL 5
REMARK VINA RESULT:      -5.2      1.533      3.175
REMARK  2 active torsions:
REMARK  status: ('A' for Active; 'I' for Inactive)
REMARK    1  A    between atoms: C1_1  and  C2_2 
REMARK    2  A    between atoms: C2_2  and  C3_3 
ROOT
HETATM    1  C2  UNL     1     -34.884   5.030   4.548  1.00 20.00     0.428 C 
HETATM    2  F6  UNL     1     -34.675   3.779   4.062  1.00 20.00    -0.184 F 
HETATM    3  F7  UNL     1     -36.170   5.352   4.250  1.00 20.00    -0.184 F 
ENDROOT
BRANCH   1   4
HETATM    4  C1  UNL     1     -33.928   6.003   3.930  1.00 20.00     0.379 C 
HETATM    5  O4  UNL     1     -32.803   5.733   3.540  1.00 20.00    -0.253 OA
HETATM    6  F5  UNL     1     -34.352   7.264   3.758  1.00 20.00    -0.157 F 
ENDBRANCH   1   4
BRANCH   1   7
HETATM    7  C3  UNL     1     -34.721   5.002   6.047  1.00 20.00     0.465 C 
HETATM    8  F8  UNL     1     -33.672   4.227   6.398  1.00 20.00    -0.165 F 
HETATM    9  F9  UNL     1     -35.821   4.503   6.651  1.00 20.00    -0.165 F 
HETATM   10  F10 UNL     1     -34.501   6.239   6.540  1.00 20.00    -0.165 F 
ENDBRANCH   1   7
TORSDOF 2
ENDMDL
MODEL 6
REMARK VINA RESULT:      -5.1      1.966      3.030
REMARK  2 active torsions:
REMARK  status: ('A' for Active; 'I' for Inactive)
REMARK    1  A    between atoms: C1_1  and  C2_2 
REMARK    2  A    between atoms: C2_2  and  C3_3 
ROOT
HETATM    1  C2  UNL     1     -33.904   6.471   4.039  1.00 20.00     0.428 C 
HETATM    2  F6  UNL     1     -34.623   7.621   3.972  1.00 20.00    -0.184 F 
HETATM    3  F7  UNL     1     -33.626   6.264   5.353  1.00 20.00    -0.184 F 
ENDROOT
BRANCH   1   4
HETATM    4  C1  UNL     1     -32.645   6.589   3.236  1.00 20.00     0.379 C 
HETATM    5  O4  UNL     1     -32.368   7.520   2.496  1.00 20.00    -0.253 OA
HETATM    6  F5  UNL     1     -31.735   5.613   3.364  1.00 20.00    -0.157 F 
ENDBRANCH   1   4
BRANCH   1   7
HETATM    7  C3  UNL     1     -34.755   5.336   3.533  1.00 20.00     0.465 C 
HETATM    8  F8  UNL     1     -34.304   4.897   2.337  1.00 20.00    -0.165 F 
HETATM    9  F9  UNL     1     -36.040   5.719   3.371  1.00 20.00    -0.165 F 
HETATM   10  F10 UNL     1     -34.738   4.290   4.386  1.00 20.00    -0.165 F 
ENDBRANCH   1   7
TORSDOF 2
ENDMDL
MODEL 7
REMARK VINA RESULT:      -5.1      1.787      3.304
REMARK  2 active torsions:
REMARK  status: ('A' for Active; 'I' for Inactive)
REMARK    1  A    between atoms: C1_1  and  C2_2 
REMARK    2  A    between atoms: C2_2  and  C3_3 
ROOT
HETATM    1  C2  UNL     1     -34.192   5.596   4.900  1.00 20.00     0.428 C 
HETATM    2  F6  UNL     1     -34.441   6.795   5.490  1.00 20.00    -0.184 F 
HETATM    3  F7  UNL     1     -32.847   5.522   4.726  1.00 20.00    -0.184 F 
ENDROOT
BRANCH   1   4
HETATM    4  C1  UNL     1     -34.911   5.494   3.590  1.00 20.00     0.379 C 
HETATM    5  O4  UNL     1     -34.383   5.254   2.515  1.00 20.00    -0.253 OA
HETATM    6  F5  UNL     1     -36.243   5.642   3.602  1.00 20.00    -0.157 F 
ENDBRANCH   1   4
BRANCH   1   7
HETATM    7  C3  UNL     1     -34.627   4.496   5.835  1.00 20.00     0.465 C 
HETATM    8  F8  UNL     1     -35.684   4.891   6.577  1.00 20.00    -0.165 F 
HETATM    9  F9  UNL     1     -33.635   4.152   6.684  1.00 20.00    -0.165 F 
HETATM   10  F10 UNL     1     -34.993   3.390   5.155  1.00 20.00    -0.165 F 
ENDBRANCH   1   7
TORSDOF 2
ENDMDL
MODEL 8
REMARK VINA RESULT:      -5.1      1.678      3.176
REMARK  2 active torsions:
REMARK  status: ('A' for Active; 'I' for Inactive)
REMARK    1  A    between atoms: C1_1  and  C2_2 
REMARK    2  A    between atoms: C2_2  and  C3_3 
ROOT
HETATM    1  C2  UNL     1     -34.146   5.824   4.820  1.00 20.00     0.428 C 
HETATM    2  F6  UNL     1     -34.385   7.088   4.383  1.00 20.00    -0.184 F 
HETATM    3  F7  UNL     1     -32.942   5.458   4.309  1.00 20.00    -0.184 F 
ENDROOT
BRANCH   1   4
HETATM    4  C1  UNL     1     -35.229   4.895   4.364  1.00 20.00     0.379 C 
HETATM    5  O4  UNL     1     -35.273   3.697   4.599  1.00 20.00    -0.253 OA
HETATM    6  F5  UNL     1     -36.249   5.424   3.673  1.00 20.00    -0.157 F 
ENDBRANCH   1   4
BRANCH   1   7
HETATM    7  C3  UNL     1     -34.055   5.839   6.324  1.00 20.00     0.465 C 
HETATM    8  F8  UNL     1     -33.409   4.741   6.774  1.00 20.00    -0.165 F 
HETATM    9  F9  UNL     1     -35.280   5.855   6.891  1.00 20.00    -0.165 F 
HETATM   10  F10 UNL     1     -33.380   6.922   6.765  1.00 20.00    -0.165 F 
ENDBRANCH   1   7
TORSDOF 2
ENDMDL
MODEL 9
REMARK VINA RESULT:      -5.0      1.540      3.120
REMARK  2 active torsions:
REMARK  status: ('A' for Active; 'I' for Inactive)
REMARK    1  A    between atoms: C1_1  and  C2_2 
REMARK    2  A    between atoms: C2_2  and  C3_3 
ROOT
HETATM    1  C2  UNL     1     -34.725   5.690   4.605  1.00 20.00     0.428 C 
HETATM    2  F6  UNL     1     -35.956   5.911   4.074  1.00 20.00    -0.184 F 
HETATM    3  F7  UNL     1     -34.477   6.723   5.451  1.00 20.00    -0.184 F 
ENDROOT
BRANCH   1   4
HETATM    4  C1  UNL     1     -33.690   5.619   3.524  1.00 20.00     0.379 C 
HETATM    5  O4  UNL     1     -32.547   6.037   3.617  1.00 20.00    -0.253 OA
HETATM    6  F5  UNL     1     -34.034   5.018   2.376  1.00 20.00    -0.157 F 
ENDBRANCH   1   4
BRANCH   1   7
HETATM    7  C3  UNL     1     -34.761   4.407   5.395  1.00 20.00     0.465 C 
HETATM    8  F8  UNL     1     -35.144   3.375   4.612  1.00 20.00    -0.165 F 
HETATM    9  F9  UNL     1     -35.632   4.487   6.423  1.00 20.00    -0.165 F 
HETATM   10  F10 UNL     1     -33.546   4.109   5.902  1.00 20.00    -0.165 F 
ENDBRANCH   1   7
TORSDOF 2
ENDMDL
