MODEL 1
REMARK VINA RESULT:      -5.0      0.000      0.000
REMARK  3 active torsions:
REMARK  status: ('A' for Active; 'I' for Inactive)
REMARK    1  A    between atoms: C1_1  and  C7_7 
REMARK    2  A    between atoms: C8_8  and  C10_10 
REMARK    3  A    between atoms: C9_9  and  C11_11 
ROOT
HETATM    1  C2  UNL     1     -33.773  15.677  -3.096  1.00 20.00     0.012 C 
HETATM    2  C3  UNL     1     -33.678  17.099  -3.748  1.00 20.00     0.006 C 
HETATM    3  C7  UNL     1     -33.911  14.650  -4.275  1.00 20.00     0.052 C 
HETATM    4  C10 UNL     1     -33.289  16.709  -5.146  1.00 20.00    -0.005 C 
HETATM    5  C11 UNL     1     -34.294  15.580  -5.400  1.00 20.00     0.004 C 
ENDROOT
BRANCH   3   6
HETATM    6  C1  UNL     1     -34.973  13.640  -3.987  1.00 20.00     0.236 C 
HETATM    7  O12 UNL     1     -35.002  12.526  -4.496  1.00 20.00    -0.306 OA
ENDBRANCH   3   6
BRANCH   5   8
HETATM    8  C9  UNL     1     -34.209  15.421  -6.928  1.00 20.00    -0.009 C 
HETATM    9  C5  UNL     1     -35.333  14.409  -7.275  1.00 20.00     0.005 C 
HETATM   10  C4  UNL     1     -36.611  15.170  -6.839  1.00 20.00     0.005 C 
HETATM   11  C8  UNL     1     -36.105  16.598  -6.552  1.00 20.00    -0.010 C 
HETATM   12  C6  UNL     1     -34.886  16.678  -7.507  1.00 20.00     0.010 C 
ENDBRANCH   5   8
TORSDOF 3
ENDMDL
MODEL 2
REMARK VINA RESULT:      -4.7      1.154      3.381
REMARK  3 active torsions:
REMARK  status: ('A' for Active; 'I' for Inactive)
REMARK    1  A    between atoms: C1_1  and  C7_7 
REMARK    2  A    between atoms: C8_8  and  C10_10 
REMARK    3  A    between atoms: C9_9  and  C11_11 
ROOT
HETATM    1  C2  UNL     1     -34.641  14.822  -7.168  1.00 20.00     0.012 C 
HETATM    2  C3  UNL     1     -34.581  16.380  -7.321  1.00 20.00     0.006 C 
HETATM    3  C7  UNL     1     -35.270  14.533  -5.759  1.00 20.00     0.052 C 
HETATM    4  C10 UNL     1     -35.579  16.775  -6.269  1.00 20.00    -0.005 C 
HETATM    5  C11 UNL     1     -35.114  15.887  -5.110  1.00 20.00     0.004 C 
ENDROOT
BRANCH   3   6
HETATM    6  C1  UNL     1     -34.510  13.467  -5.040  1.00 20.00     0.236 C 
HETATM    7  O12 UNL     1     -35.044  12.604  -4.352  1.00 20.00    -0.306 OA
ENDBRANCH   3   6
BRANCH   5   8
HETATM    8  C9  UNL     1     -35.832  16.531  -3.913  1.00 20.00    -0.009 C 
HETATM    9  C5  UNL     1     -35.312  15.744  -2.681  1.00 20.00     0.005 C 
HETATM   10  C4  UNL     1     -33.796  16.068  -2.695  1.00 20.00     0.005 C 
HETATM   11  C8  UNL     1     -33.673  17.190  -3.745  1.00 20.00    -0.010 C 
HETATM   12  C6  UNL     1     -35.074  17.846  -3.643  1.00 20.00     0.010 C 
ENDBRANCH   5   8
TORSDOF 3
ENDMDL
MODEL 3
REMARK VINA RESULT:      -4.7      2.105      3.783
REMARK  3 active torsions:
REMARK  status: ('A' for Active; 'I' for Inactive)
REMARK    1  A    between atoms: C1_1  and  C7_7 
REMARK    2  A    between atoms: C8_8  and  C10_10 
REMARK    3  A    between atoms: C9_9  and  C11_11 
ROOT
HETATM    1  C2  UNL     1     -34.711  13.338  -4.502  1.00 20.00     0.012 C 
HETATM    2  C3  UNL     1     -33.424  13.495  -3.622  1.00 20.00     0.006 C 
HETATM    3  C7  UNL     1     -35.260  14.787  -4.756  1.00 20.00     0.052 C 
HETATM    4  C10 UNL     1     -33.117  14.943  -3.880  1.00 20.00    -0.005 C 
HETATM    5  C11 UNL     1     -34.511  15.551  -3.691  1.00 20.00     0.004 C 
ENDROOT
BRANCH   3   6
HETATM    6  C1  UNL     1     -36.740  14.843  -4.561  1.00 20.00     0.236 C 
HETATM    7  O12 UNL     1     -37.339  14.158  -3.740  1.00 20.00    -0.306 OA
ENDBRANCH   3   6
BRANCH   5   8
HETATM    8  C9  UNL     1     -34.185  17.047  -3.549  1.00 20.00    -0.009 C 
HETATM    9  C5  UNL     1     -35.563  17.723  -3.320  1.00 20.00     0.005 C 
HETATM   10  C4  UNL     1     -36.021  17.097  -1.978  1.00 20.00     0.005 C 
HETATM   11  C8  UNL     1     -34.765  16.359  -1.473  1.00 20.00    -0.010 C 
HETATM   12  C6  UNL     1     -33.641  17.211  -2.117  1.00 20.00     0.010 C 
ENDBRANCH   5   8
TORSDOF 3
ENDMDL
MODEL 4
REMARK VINA RESULT:      -4.7      2.061      2.768
REMARK  3 active torsions:
REMARK  status: ('A' for Active; 'I' for Inactive)
REMARK    1  A    between atoms: C1_1  and  C7_7 
REMARK    2  A    between atoms: C8_8  and  C10_10 
REMARK    3  A    between atoms: C9_9  and  C11_11 
ROOT
HETATM    1  C2  UNL     1     -33.741  17.959  -3.239  1.00 20.00     0.012 C 
HETATM    2  C3  UNL     1     -33.734  18.046  -4.804  1.00 20.00     0.006 C 
HETATM    3  C7  UNL     1     -33.758  16.432  -2.874  1.00 20.00     0.052 C 
HETATM    4  C10 UNL     1     -33.267  16.656  -5.131  1.00 20.00    -0.005 C 
HETATM    5  C11 UNL     1     -34.173  15.842  -4.200  1.00 20.00     0.004 C 
ENDROOT
BRANCH   3   6
HETATM    6  C1  UNL     1     -34.748  16.149  -1.792  1.00 20.00     0.236 C 
HETATM    7  O12 UNL     1     -34.596  16.502  -0.628  1.00 20.00    -0.306 OA
ENDBRANCH   3   6
BRANCH   5   8
HETATM    8  C9  UNL     1     -34.022  14.424  -4.776  1.00 20.00    -0.009 C 
HETATM    9  C5  UNL     1     -34.990  13.557  -3.929  1.00 20.00     0.005 C 
HETATM   10  C4  UNL     1     -36.371  14.178  -4.263  1.00 20.00     0.005 C 
HETATM   11  C8  UNL     1     -36.068  15.127  -5.440  1.00 20.00    -0.010 C 
HETATM   12  C6  UNL     1     -34.843  14.424  -6.080  1.00 20.00     0.010 C 
ENDBRANCH   5   8
TORSDOF 3
ENDMDL
MODEL 5
REMARK VINA RESULT:      -4.6      1.549      1.754
REMARK  3 active torsions:
REMARK  status: ('A' for Active; 'I' for Inactive)
REMARK    1  A    between atoms: C1_1  and  C7_7 
REMARK    2  A    between atoms: C8_8  and  C10_10 
REMARK    3  A    between atoms: C9_9  and  C11_11 
ROOT
HETATM    1  C2  UNL     1     -34.998  15.705  -2.365  1.00 20.00     0.012 C 
HETATM    2  C3  UNL     1     -33.678  16.279  -2.986  1.00 20.00     0.006 C 
HETATM    3  C7  UNL     1     -35.666  14.815  -3.473  1.00 20.00     0.052 C 
HETATM    4  C10 UNL     1     -33.494  15.313  -4.123  1.00 20.00    -0.005 C 
HETATM    5  C11 UNL     1     -34.917  15.295  -4.692  1.00 20.00     0.004 C 
ENDROOT
BRANCH   3   6
HETATM    6  C1  UNL     1     -37.132  15.083  -3.565  1.00 20.00     0.236 C 
HETATM    7  O12 UNL     1     -37.969  14.204  -3.741  1.00 20.00    -0.306 OA
ENDBRANCH   3   6
BRANCH   5   8
HETATM    8  C9  UNL     1     -34.695  14.650  -6.071  1.00 20.00    -0.009 C 
HETATM    9  C5  UNL     1     -36.093  14.681  -6.742  1.00 20.00     0.005 C 
HETATM   10  C4  UNL     1     -36.377  16.201  -6.849  1.00 20.00     0.005 C 
HETATM   11  C8  UNL     1     -35.026  16.850  -6.484  1.00 20.00    -0.010 C 
HETATM   12  C6  UNL     1     -34.036  15.745  -6.932  1.00 20.00     0.010 C 
ENDBRANCH   5   8
TORSDOF 3
ENDMDL
MODEL 6
REMARK VINA RESULT:      -4.5      1.864      4.051
REMARK  3 active torsions:
REMARK  status: ('A' for Active; 'I' for Inactive)
REMARK    1  A    between atoms: C1_1  and  C7_7 
REMARK    2  A    between atoms: C8_8  and  C10_10 
REMARK    3  A    between atoms: C9_9  and  C11_11 
ROOT
HETATM    1  C2  UNL     1     -34.799  13.932  -5.668  1.00 20.00     0.012 C 
HETATM    2  C3  UNL     1     -35.133  13.290  -4.278  1.00 20.00     0.006 C 
HETATM    3  C7  UNL     1     -34.024  15.265  -5.372  1.00 20.00     0.052 C 
HETATM    4  C10 UNL     1     -34.138  14.018  -3.418  1.00 20.00    -0.005 C 
HETATM    5  C11 UNL     1     -34.356  15.452  -3.911  1.00 20.00     0.004 C 
ENDROOT
BRANCH   3   6
HETATM    6  C1  UNL     1     -34.536  16.384  -6.218  1.00 20.00     0.236 C 
HETATM    7  O12 UNL     1     -35.728  16.587  -6.421  1.00 20.00    -0.306 OA
ENDBRANCH   3   6
BRANCH   5   8
HETATM    8  C9  UNL     1     -33.668  16.272  -2.806  1.00 20.00    -0.009 C 
HETATM    9  C5  UNL     1     -33.879  17.749  -3.232  1.00 20.00     0.005 C 
HETATM   10  C4  UNL     1     -35.422  17.890  -3.186  1.00 20.00     0.005 C 
HETATM   11  C8  UNL     1     -35.886  16.591  -2.497  1.00 20.00    -0.010 C 
HETATM   12  C6  UNL     1     -34.651  16.263  -1.620  1.00 20.00     0.010 C 
ENDBRANCH   5   8
TORSDOF 3
ENDMDL
MODEL 7
REMARK VINA RESULT:      -4.5     12.199     14.162
REMARK  3 active torsions:
REMARK  status: ('A' for Active; 'I' for Inactive)
REMARK    1  A    between atoms: C1_1  and  C7_7 
REMARK    2  A    between atoms: C8_8  and  C10_10 
REMARK    3  A    between atoms: C9_9  and  C11_11 
ROOT
HETATM    1  C2  UNL     1     -34.603   4.892   6.709  1.00 20.00     0.012 C 
HETATM    2  C3  UNL     1     -34.804   3.809   5.594  1.00 20.00     0.006 C 
HETATM    3  C7  UNL     1     -34.438   6.269   5.973  1.00 20.00     0.052 C 
HETATM    4  C10 UNL     1     -35.211   4.696   4.452  1.00 20.00    -0.005 C 
HETATM    5  C11 UNL     1     -34.147   5.792   4.570  1.00 20.00     0.004 C 
ENDROOT
BRANCH   3   6
HETATM    6  C1  UNL     1     -33.308   7.056   6.551  1.00 20.00     0.236 C 
HETATM    7  O12 UNL     1     -33.451   7.897   7.431  1.00 20.00    -0.306 OA
ENDBRANCH   3   6
BRANCH   5   8
HETATM    8  C9  UNL     1     -34.269   6.497   3.208  1.00 20.00    -0.009 C 
HETATM    9  C5  UNL     1     -33.200   7.620   3.257  1.00 20.00     0.005 C 
HETATM   10  C4  UNL     1     -31.880   6.818   3.382  1.00 20.00     0.005 C 
HETATM   11  C8  UNL     1     -32.314   5.361   3.123  1.00 20.00    -0.010 C 
HETATM   12  C6  UNL     1     -33.545   5.577   2.207  1.00 20.00     0.010 C 
ENDBRANCH   5   8
TORSDOF 3
ENDMDL
MODEL 8
REMARK VINA RESULT:      -4.5      1.997      4.013
REMARK  3 active torsions:
REMARK  status: ('A' for Active; 'I' for Inactive)
REMARK    1  A    between atoms: C1_1  and  C7_7 
REMARK    2  A    between atoms: C8_8  and  C10_10 
REMARK    3  A    between atoms: C9_9  and  C11_11 
ROOT
HETATM    1  C2  UNL     1     -35.016  16.446  -7.663  1.00 20.00     0.012 C 
HETATM    2  C3  UNL     1     -35.719  15.048  -7.742  1.00 20.00     0.006 C 
HETATM    3  C7  UNL     1     -34.086  16.410  -6.398  1.00 20.00     0.052 C 
HETATM    4  C10 UNL     1     -34.794  14.250  -6.867  1.00 20.00    -0.005 C 
HETATM    5  C11 UNL     1     -34.654  15.210  -5.680  1.00 20.00     0.004 C 
ENDROOT
BRANCH   3   6
HETATM    6  C1  UNL     1     -34.219  17.665  -5.598  1.00 20.00     0.236 C 
HETATM    7  O12 UNL     1     -33.301  18.149  -4.945  1.00 20.00    -0.306 OA
ENDBRANCH   3   6
BRANCH   5   8
HETATM    8  C9  UNL     1     -34.055  14.291  -4.602  1.00 20.00    -0.009 C 
HETATM    9  C5  UNL     1     -34.057  15.154  -3.313  1.00 20.00     0.005 C 
HETATM   10  C4  UNL     1     -35.569  15.410  -3.086  1.00 20.00     0.005 C 
HETATM   11  C8  UNL     1     -36.253  14.462  -4.092  1.00 20.00    -0.010 C 
HETATM   12  C6  UNL     1     -35.195  13.334  -4.203  1.00 20.00     0.010 C 
ENDBRANCH   5   8
TORSDOF 3
ENDMDL
MODEL 9
REMARK VINA RESULT:      -4.4      2.154      3.235
REMARK  3 active torsions:
REMARK  status: ('A' for Active; 'I' for Inactive)
REMARK    1  A    between atoms: C1_1  and  C7_7 
REMARK    2  A    between atoms: C8_8  and  C10_10 
REMARK    3  A    between atoms: C9_9  and  C11_11 
ROOT
HETATM    1  C2  UNL     1     -36.754  17.230  -2.670  1.00 20.00     0.012 C 
HETATM    2  C3  UNL     1     -35.275  17.739  -2.581  1.00 20.00     0.006 C 
HETATM    3  C7  UNL     1     -36.683  15.673  -2.858  1.00 20.00     0.052 C 
HETATM    4  C10 UNL     1     -34.584  16.449  -2.241  1.00 20.00    -0.005 C 
HETATM    5  C11 UNL     1     -35.238  15.516  -3.267  1.00 20.00     0.004 C 
ENDROOT
BRANCH   3   6
HETATM    6  C1  UNL     1     -37.627  15.215  -3.921  1.00 20.00     0.236 C 
HETATM    7  O12 UNL     1     -38.270  14.174  -3.850  1.00 20.00    -0.306 OA
ENDBRANCH   3   6
BRANCH   5   8
HETATM    8  C9  UNL     1     -34.295  14.302  -3.233  1.00 20.00    -0.009 C 
HETATM    9  C5  UNL     1     -34.808  13.382  -4.373  1.00 20.00     0.005 C 
HETATM   10  C4  UNL     1     -34.585  14.258  -5.632  1.00 20.00     0.005 C 
HETATM   11  C8  UNL     1     -33.742  15.439  -5.110  1.00 20.00    -0.010 C 
HETATM   12  C6  UNL     1     -33.001  14.772  -3.924  1.00 20.00     0.010 C 
ENDBRANCH   5   8
TORSDOF 3
ENDMDL
