MODEL 1
REMARK VINA RESULT:      -4.7      0.000      0.000
REMARK  0 active torsions:
REMARK  status: ('A' for Active; 'I' for Inactive)
ROOT
HETATM    1  C1  UNL     1     -34.654  13.537  -4.229  1.00 20.00     0.127 C 
HETATM    2  C2  UNL     1     -35.816  14.410  -3.791  1.00 20.00     0.082 C 
HETATM    3  C3  UNL     1     -33.277  13.872  -3.686  1.00 20.00     0.082 C 
HETATM    4  C4  UNL     1     -34.791  16.486  -4.828  1.00 20.00     0.005 C 
HETATM    5  C5  UNL     1     -33.291  16.167  -4.768  1.00 20.00     0.005 C 
HETATM    6  C6  UNL     1     -34.219  15.910  -2.580  1.00 20.00     0.010 C 
HETATM    7  C7  UNL     1     -35.389  15.864  -3.558  1.00 20.00    -0.007 C 
HETATM    8  C8  UNL     1     -33.095  15.379  -3.464  1.00 20.00    -0.007 C 
HETATM    9  O9  UNL     1     -34.838  12.531  -4.914  1.00 20.00    -0.298 OA
ENDROOT
TORSDOF 0
ENDMDL
MODEL 2
REMARK VINA RESULT:      -4.6      0.663      2.142
REMARK  0 active torsions:
REMARK  status: ('A' for Active; 'I' for Inactive)
ROOT
HETATM    1  C1  UNL     1     -34.523  13.607  -4.567  1.00 20.00     0.127 C 
HETATM    2  C2  UNL     1     -33.283  13.885  -3.736  1.00 20.00     0.082 C 
HETATM    3  C3  UNL     1     -34.981  14.684  -5.532  1.00 20.00     0.082 C 
HETATM    4  C4  UNL     1     -34.360  15.881  -2.598  1.00 20.00     0.005 C 
HETATM    5  C5  UNL     1     -35.364  16.352  -3.659  1.00 20.00     0.005 C 
HETATM    6  C6  UNL     1     -33.198  16.210  -4.661  1.00 20.00     0.010 C 
HETATM    7  C7  UNL     1     -33.144  15.372  -3.387  1.00 20.00    -0.007 C 
HETATM    8  C8  UNL     1     -34.679  16.094  -5.010  1.00 20.00    -0.007 C 
HETATM    9  O9  UNL     1     -35.074  12.507  -4.536  1.00 20.00    -0.298 OA
ENDROOT
TORSDOF 0
ENDMDL
MODEL 3
REMARK VINA RESULT:      -4.4      1.755      2.731
REMARK  0 active torsions:
REMARK  status: ('A' for Active; 'I' for Inactive)
ROOT
HETATM    1  C1  UNL     1     -34.082  15.833  -5.817  1.00 20.00     0.127 C 
HETATM    2  C2  UNL     1     -34.592  14.415  -5.997  1.00 20.00     0.082 C 
HETATM    3  C3  UNL     1     -33.166  16.109  -4.639  1.00 20.00     0.082 C 
HETATM    4  C4  UNL     1     -35.790  14.445  -3.760  1.00 20.00     0.005 C 
HETATM    5  C5  UNL     1     -34.947  15.447  -2.959  1.00 20.00     0.005 C 
HETATM    6  C6  UNL     1     -33.500  13.761  -3.841  1.00 20.00     0.010 C 
HETATM    7  C7  UNL     1     -34.789  13.698  -4.655  1.00 20.00    -0.007 C 
HETATM    8  C8  UNL     1     -33.501  15.230  -3.428  1.00 20.00    -0.007 C 
HETATM    9  O9  UNL     1     -34.318  16.703  -6.655  1.00 20.00    -0.298 OA
ENDROOT
TORSDOF 0
ENDMDL
MODEL 4
REMARK VINA RESULT:      -4.4      1.483      2.029
REMARK  0 active torsions:
REMARK  status: ('A' for Active; 'I' for Inactive)
ROOT
HETATM    1  C1  UNL     1     -33.706  13.757  -3.998  1.00 20.00     0.127 C 
HETATM    2  C2  UNL     1     -34.825  13.278  -4.905  1.00 20.00     0.082 C 
HETATM    3  C3  UNL     1     -33.806  15.163  -3.437  1.00 20.00     0.082 C 
HETATM    4  C4  UNL     1     -34.362  15.093  -6.617  1.00 20.00     0.005 C 
HETATM    5  C5  UNL     1     -33.759  16.205  -5.749  1.00 20.00     0.005 C 
HETATM    6  C6  UNL     1     -35.860  15.556  -4.812  1.00 20.00     0.010 C 
HETATM    7  C7  UNL     1     -35.424  14.421  -5.734  1.00 20.00    -0.007 C 
HETATM    8  C8  UNL     1     -34.503  16.124  -4.408  1.00 20.00    -0.007 C 
HETATM    9  O9  UNL     1     -32.805  12.996  -3.646  1.00 20.00    -0.298 OA
ENDROOT
TORSDOF 0
ENDMDL
MODEL 5
REMARK VINA RESULT:      -4.3      1.972      3.000
REMARK  0 active torsions:
REMARK  status: ('A' for Active; 'I' for Inactive)
ROOT
HETATM    1  C1  UNL     1     -33.491  16.005  -5.047  1.00 20.00     0.127 C 
HETATM    2  C2  UNL     1     -34.168  15.325  -6.224  1.00 20.00     0.082 C 
HETATM    3  C3  UNL     1     -33.271  15.183  -3.790  1.00 20.00     0.082 C 
HETATM    4  C4  UNL     1     -36.290  14.899  -4.901  1.00 20.00     0.005 C 
HETATM    5  C5  UNL     1     -35.759  14.817  -3.463  1.00 20.00     0.005 C 
HETATM    6  C6  UNL     1     -34.530  13.282  -4.822  1.00 20.00     0.010 C 
HETATM    7  C7  UNL     1     -35.191  14.275  -5.774  1.00 20.00    -0.007 C 
HETATM    8  C8  UNL     1     -34.382  14.148  -3.575  1.00 20.00    -0.007 C 
HETATM    9  O9  UNL     1     -33.044  17.147  -5.146  1.00 20.00    -0.298 OA
ENDROOT
TORSDOF 0
ENDMDL
MODEL 6
REMARK VINA RESULT:      -4.3     11.174     12.473
REMARK  0 active torsions:
REMARK  status: ('A' for Active; 'I' for Inactive)
ROOT
HETATM    1  C1  UNL     1     -41.873   4.664  -2.249  1.00 20.00     0.127 C 
HETATM    2  C2  UNL     1     -40.830   4.612  -1.148  1.00 20.00     0.082 C 
HETATM    3  C3  UNL     1     -42.398   6.027  -2.660  1.00 20.00     0.082 C 
HETATM    4  C4  UNL     1     -42.407   5.649   0.547  1.00 20.00     0.005 C 
HETATM    5  C5  UNL     1     -43.335   6.484  -0.347  1.00 20.00     0.005 C 
HETATM    6  C6  UNL     1     -41.069   7.083  -0.821  1.00 20.00     0.010 C 
HETATM    7  C7  UNL     1     -41.024   5.730  -0.116  1.00 20.00    -0.007 C 
HETATM    8  C8  UNL     1     -42.442   7.008  -1.482  1.00 20.00    -0.007 C 
HETATM    9  O9  UNL     1     -42.203   3.646  -2.859  1.00 20.00    -0.298 OA
ENDROOT
TORSDOF 0
ENDMDL
MODEL 7
REMARK VINA RESULT:      -4.3      1.505      2.586
REMARK  0 active torsions:
REMARK  status: ('A' for Active; 'I' for Inactive)
ROOT
HETATM    1  C1  UNL     1     -34.373  15.058  -6.034  1.00 20.00     0.127 C 
HETATM    2  C2  UNL     1     -33.885  16.264  -5.252  1.00 20.00     0.082 C 
HETATM    3  C3  UNL     1     -35.199  14.023  -5.292  1.00 20.00     0.082 C 
HETATM    4  C4  UNL     1     -32.525  14.823  -3.667  1.00 20.00     0.005 C 
HETATM    5  C5  UNL     1     -33.301  13.499  -3.693  1.00 20.00     0.005 C 
HETATM    6  C6  UNL     1     -34.817  15.266  -3.153  1.00 20.00     0.010 C 
HETATM    7  C7  UNL     1     -33.592  15.921  -3.786  1.00 20.00    -0.007 C 
HETATM    8  C8  UNL     1     -34.779  13.896  -3.822  1.00 20.00    -0.007 C 
HETATM    9  O9  UNL     1     -34.197  14.976  -7.250  1.00 20.00    -0.298 OA
ENDROOT
TORSDOF 0
ENDMDL
MODEL 8
REMARK VINA RESULT:      -4.3      1.511      2.952
REMARK  0 active torsions:
REMARK  status: ('A' for Active; 'I' for Inactive)
ROOT
HETATM    1  C1  UNL     1     -34.311  15.871  -5.683  1.00 20.00     0.127 C 
HETATM    2  C2  UNL     1     -33.171  16.119  -4.711  1.00 20.00     0.082 C 
HETATM    3  C3  UNL     1     -35.673  15.540  -5.103  1.00 20.00     0.082 C 
HETATM    4  C4  UNL     1     -33.329  13.774  -3.756  1.00 20.00     0.005 C 
HETATM    5  C5  UNL     1     -34.807  13.432  -3.989  1.00 20.00     0.005 C 
HETATM    6  C6  UNL     1     -34.677  15.505  -2.807  1.00 20.00     0.010 C 
HETATM    7  C7  UNL     1     -33.306  15.276  -3.437  1.00 20.00    -0.007 C 
HETATM    8  C8  UNL     1     -35.566  14.752  -3.791  1.00 20.00    -0.007 C 
HETATM    9  O9  UNL     1     -34.160  16.036  -6.893  1.00 20.00    -0.298 OA
ENDROOT
TORSDOF 0
ENDMDL
MODEL 9
REMARK VINA RESULT:      -4.3      0.867      2.049
REMARK  0 active torsions:
REMARK  status: ('A' for Active; 'I' for Inactive)
ROOT
HETATM    1  C1  UNL     1     -35.002  13.742  -4.810  1.00 20.00     0.127 C 
HETATM    2  C2  UNL     1     -34.490  14.591  -5.961  1.00 20.00     0.082 C 
HETATM    3  C3  UNL     1     -35.809  14.435  -3.728  1.00 20.00     0.082 C 
HETATM    4  C4  UNL     1     -33.090  16.037  -4.415  1.00 20.00     0.005 C 
HETATM    5  C5  UNL     1     -33.869  15.943  -3.096  1.00 20.00     0.005 C 
HETATM    6  C6  UNL     1     -35.367  16.641  -4.823  1.00 20.00     0.010 C 
HETATM    7  C7  UNL     1     -34.158  16.021  -5.519  1.00 20.00    -0.007 C 
HETATM    8  C8  UNL     1     -35.349  15.880  -3.501  1.00 20.00    -0.007 C 
HETATM    9  O9  UNL     1     -34.858  12.519  -4.811  1.00 20.00    -0.298 OA
ENDROOT
TORSDOF 0
ENDMDL
