MODEL 1
REMARK VINA RESULT:      -5.1      0.000      0.000
REMARK  2 active torsions:
REMARK  status: ('A' for Active; 'I' for Inactive)
REMARK    1  A    between atoms: C5_5  and  C6_6 
REMARK    2  A    between atoms: C6_6  and  O7_7 
ROOT
HETATM    1  C1  UNL     1     -34.392   5.390   6.375  1.00 20.00    -0.004 A 
HETATM    2  C2  UNL     1     -35.092   4.439   5.551  1.00 20.00    -0.004 A 
HETATM    3  C3  UNL     1     -33.943   6.398   5.615  1.00 20.00    -0.016 A 
HETATM    4  C4  UNL     1     -35.080   4.855   4.277  1.00 20.00    -0.016 A 
HETATM    5  C5  UNL     1     -34.338   6.164   4.179  1.00 20.00     0.054 A 
ENDROOT
BRANCH   5   6
HETATM    6  C6  UNL     1     -33.131   6.075   3.255  1.00 20.00     0.176 C 
BRANCH   6   7
HETATM    7  O7  UNL     1     -32.122   6.940   3.743  1.00 20.00    -0.400 OA
HETATM    8  H15 UNL     1     -31.377   6.889   3.120  1.00 20.00     0.209 HD
ENDBRANCH   6   7
ENDBRANCH   5   6
TORSDOF 2
ENDMDL
MODEL 2
REMARK VINA RESULT:      -4.7      2.020      3.258
REMARK  2 active torsions:
REMARK  status: ('A' for Active; 'I' for Inactive)
REMARK    1  A    between atoms: C5_5  and  C6_6 
REMARK    2  A    between atoms: C6_6  and  O7_7 
ROOT
HETATM    1  C1  UNL     1     -33.709   5.751   2.898  1.00 20.00    -0.004 A 
HETATM    2  C2  UNL     1     -32.862   6.434   3.842  1.00 20.00    -0.004 A 
HETATM    3  C3  UNL     1     -34.841   5.369   3.506  1.00 20.00    -0.016 A 
HETATM    4  C4  UNL     1     -33.466   6.480   5.036  1.00 20.00    -0.016 A 
HETATM    5  C5  UNL     1     -34.809   5.798   4.951  1.00 20.00     0.054 A 
ENDROOT
BRANCH   5   6
HETATM    6  C6  UNL     1     -34.919   4.618   5.906  1.00 20.00     0.176 C 
BRANCH   6   7
HETATM    7  O7  UNL     1     -35.326   3.477   5.172  1.00 20.00    -0.400 OA
HETATM    8  H15 UNL     1     -35.724   3.797   4.345  1.00 20.00     0.209 HD
ENDBRANCH   6   7
ENDBRANCH   5   6
TORSDOF 2
ENDMDL
MODEL 3
REMARK VINA RESULT:      -4.5      1.501      2.405
REMARK  2 active torsions:
REMARK  status: ('A' for Active; 'I' for Inactive)
REMARK    1  A    between atoms: C5_5  and  C6_6 
REMARK    2  A    between atoms: C6_6  and  O7_7 
ROOT
HETATM    1  C1  UNL     1     -34.932   5.385   3.735  1.00 20.00    -0.004 A 
HETATM    2  C2  UNL     1     -35.368   4.423   4.715  1.00 20.00    -0.004 A 
HETATM    3  C3  UNL     1     -34.007   6.189   4.277  1.00 20.00    -0.016 A 
HETATM    4  C4  UNL     1     -34.715   4.628   5.867  1.00 20.00    -0.016 A 
HETATM    5  C5  UNL     1     -33.765   5.789   5.711  1.00 20.00     0.054 A 
ENDROOT
BRANCH   5   6
HETATM    6  C6  UNL     1     -34.070   6.918   6.685  1.00 20.00     0.176 C 
BRANCH   6   7
HETATM    7  O7  UNL     1     -32.855   7.559   7.030  1.00 20.00    -0.400 OA
HETATM    8  H15 UNL     1     -32.171   7.216   6.430  1.00 20.00     0.209 HD
ENDBRANCH   6   7
ENDBRANCH   5   6
TORSDOF 2
ENDMDL
MODEL 4
REMARK VINA RESULT:      -4.2      1.842      2.327
REMARK  2 active torsions:
REMARK  status: ('A' for Active; 'I' for Inactive)
REMARK    1  A    between atoms: C5_5  and  C6_6 
REMARK    2  A    between atoms: C6_6  and  O7_7 
ROOT
HETATM    1  C1  UNL     1     -34.813   5.200   6.582  1.00 20.00    -0.004 A 
HETATM    2  C2  UNL     1     -34.111   6.444   6.398  1.00 20.00    -0.004 A 
HETATM    3  C3  UNL     1     -34.747   4.476   5.457  1.00 20.00    -0.016 A 
HETATM    4  C4  UNL     1     -33.607   6.495   5.158  1.00 20.00    -0.016 A 
HETATM    5  C5  UNL     1     -33.962   5.231   4.415  1.00 20.00     0.054 A 
ENDROOT
BRANCH   5   6
HETATM    6  C6  UNL     1     -34.782   5.508   3.162  1.00 20.00     0.176 C 
BRANCH   6   7
HETATM    7  O7  UNL     1     -36.139   5.663   3.534  1.00 20.00    -0.400 OA
HETATM    8  H15 UNL     1     -36.220   6.531   3.964  1.00 20.00     0.209 HD
ENDBRANCH   6   7
ENDBRANCH   5   6
TORSDOF 2
ENDMDL
MODEL 5
REMARK VINA RESULT:      -4.1      0.743      1.637
REMARK  2 active torsions:
REMARK  status: ('A' for Active; 'I' for Inactive)
REMARK    1  A    between atoms: C5_5  and  C6_6 
REMARK    2  A    between atoms: C6_6  and  O7_7 
ROOT
HETATM    1  C1  UNL     1     -35.256   4.492   5.706  1.00 20.00    -0.004 A 
HETATM    2  C2  UNL     1     -34.757   5.531   6.570  1.00 20.00    -0.004 A 
HETATM    3  C3  UNL     1     -34.632   4.556   4.522  1.00 20.00    -0.016 A 
HETATM    4  C4  UNL     1     -33.824   6.242   5.924  1.00 20.00    -0.016 A 
HETATM    5  C5  UNL     1     -33.640   5.691   4.533  1.00 20.00     0.054 A 
ENDROOT
BRANCH   5   6
HETATM    6  C6  UNL     1     -33.937   6.728   3.458  1.00 20.00     0.176 C 
BRANCH   6   7
HETATM    7  O7  UNL     1     -32.717   7.108   2.846  1.00 20.00    -0.400 OA
HETATM    8  H15 UNL     1     -32.795   8.050   2.617  1.00 20.00     0.209 HD
ENDBRANCH   6   7
ENDBRANCH   5   6
TORSDOF 2
ENDMDL
MODEL 6
REMARK VINA RESULT:      -3.9      1.037      1.977
REMARK  2 active torsions:
REMARK  status: ('A' for Active; 'I' for Inactive)
REMARK    1  A    between atoms: C5_5  and  C6_6 
REMARK    2  A    between atoms: C6_6  and  O7_7 
ROOT
HETATM    1  C1  UNL     1     -35.246   5.333   3.871  1.00 20.00    -0.004 A 
HETATM    2  C2  UNL     1     -34.726   5.795   5.132  1.00 20.00    -0.004 A 
HETATM    3  C3  UNL     1     -34.286   5.399   2.938  1.00 20.00    -0.016 A 
HETATM    4  C4  UNL     1     -33.441   6.147   4.986  1.00 20.00    -0.016 A 
HETATM    5  C5  UNL     1     -33.017   5.930   3.555  1.00 20.00     0.054 A 
ENDROOT
BRANCH   5   6
HETATM    6  C6  UNL     1     -32.546   7.217   2.891  1.00 20.00     0.176 C 
BRANCH   6   7
HETATM    7  O7  UNL     1     -31.410   7.697   3.586  1.00 20.00    -0.400 OA
HETATM    8  H15 UNL     1     -31.637   8.577   3.931  1.00 20.00     0.209 HD
ENDBRANCH   6   7
ENDBRANCH   5   6
TORSDOF 2
ENDMDL
MODEL 7
REMARK VINA RESULT:      -3.8     12.047     12.494
REMARK  2 active torsions:
REMARK  status: ('A' for Active; 'I' for Inactive)
REMARK    1  A    between atoms: C5_5  and  C6_6 
REMARK    2  A    between atoms: C6_6  and  O7_7 
ROOT
HETATM    1  C1  UNL     1     -33.654  16.128  -2.636  1.00 20.00    -0.004 A 
HETATM    2  C2  UNL     1     -35.032  15.832  -2.339  1.00 20.00    -0.004 A 
HETATM    3  C3  UNL     1     -33.315  15.563  -3.803  1.00 20.00    -0.016 A 
HETATM    4  C4  UNL     1     -35.552  15.084  -3.321  1.00 20.00    -0.016 A 
HETATM    5  C5  UNL     1     -34.502  14.829  -4.374  1.00 20.00     0.054 A 
ENDROOT
BRANCH   5   6
HETATM    6  C6  UNL     1     -34.225  13.344  -4.565  1.00 20.00     0.176 C 
BRANCH   6   7
HETATM    7  O7  UNL     1     -35.354  12.612  -4.123  1.00 20.00    -0.400 OA
HETATM    8  H15 UNL     1     -35.077  11.684  -4.039  1.00 20.00     0.209 HD
ENDBRANCH   6   7
ENDBRANCH   5   6
TORSDOF 2
ENDMDL
MODEL 8
REMARK VINA RESULT:      -3.8     12.173     12.648
REMARK  2 active torsions:
REMARK  status: ('A' for Active; 'I' for Inactive)
REMARK    1  A    between atoms: C5_5  and  C6_6 
REMARK    2  A    between atoms: C6_6  and  O7_7 
ROOT
HETATM    1  C1  UNL     1     -34.800  13.224  -4.440  1.00 20.00    -0.004 A 
HETATM    2  C2  UNL     1     -35.958  14.022  -4.129  1.00 20.00    -0.004 A 
HETATM    3  C3  UNL     1     -33.703  13.813  -3.944  1.00 20.00    -0.016 A 
HETATM    4  C4  UNL     1     -35.583  15.108  -3.440  1.00 20.00    -0.016 A 
HETATM    5  C5  UNL     1     -34.088  15.092  -3.244  1.00 20.00     0.054 A 
ENDROOT
BRANCH   5   6
HETATM    6  C6  UNL     1     -33.412  16.311  -3.856  1.00 20.00     0.176 C 
BRANCH   6   7
HETATM    7  O7  UNL     1     -32.484  15.872  -4.832  1.00 20.00    -0.400 OA
HETATM    8  H15 UNL     1     -32.023  15.100  -4.461  1.00 20.00     0.209 HD
ENDBRANCH   6   7
ENDBRANCH   5   6
TORSDOF 2
ENDMDL
MODEL 9
REMARK VINA RESULT:      -3.7     12.193     13.029
REMARK  2 active torsions:
REMARK  status: ('A' for Active; 'I' for Inactive)
REMARK    1  A    between atoms: C5_5  and  C6_6 
REMARK    2  A    between atoms: C6_6  and  O7_7 
ROOT
HETATM    1  C1  UNL     1     -33.213  16.321  -4.356  1.00 20.00    -0.004 A 
HETATM    2  C2  UNL     1     -33.637  15.878  -3.053  1.00 20.00    -0.004 A 
HETATM    3  C3  UNL     1     -33.948  15.714  -5.298  1.00 20.00    -0.016 A 
HETATM    4  C4  UNL     1     -34.638  14.997  -3.183  1.00 20.00    -0.016 A 
HETATM    5  C5  UNL     1     -34.948  14.794  -4.644  1.00 20.00     0.054 A 
ENDROOT
BRANCH   5   6
HETATM    6  C6  UNL     1     -34.769  13.346  -5.077  1.00 20.00     0.176 C 
BRANCH   6   7
HETATM    7  O7  UNL     1     -35.358  12.505  -4.102  1.00 20.00    -0.400 OA
HETATM    8  H15 UNL     1     -34.863  12.637  -3.276  1.00 20.00     0.209 HD
ENDBRANCH   6   7
ENDBRANCH   5   6
TORSDOF 2
ENDMDL
