MODEL 1
REMARK VINA RESULT:      -2.9      0.000      0.000
REMARK  1 active torsions:
REMARK  status: ('A' for Active; 'I' for Inactive)
REMARK    1  A    between atoms: C1_1  and  S5_5 
ROOT
HETATM    1  C1  UNL     1     -34.418   5.396   5.247  1.00 20.00     0.041 C 
HETATM    2  C2  UNL     1     -34.969   4.070   5.704  1.00 20.00     0.069 C 
HETATM    3  S4  UNL     1     -33.927   6.561   6.345  1.00 20.00    -0.078 SA
ENDROOT
BRANCH   1   4
HETATM    4  S5  UNL     1     -34.343   5.651   3.507  1.00 20.00    -0.128 SA
HETATM    5  C3  UNL     1     -32.661   6.299   3.361  1.00 20.00     0.096 C 
ENDBRANCH   1   4
TORSDOF 1
ENDMDL
MODEL 2
REMARK VINA RESULT:      -2.9      1.654      2.752
REMARK  1 active torsions:
REMARK  status: ('A' for Active; 'I' for Inactive)
REMARK    1  A    between atoms: C1_1  and  S5_5 
ROOT
HETATM    1  C1  UNL     1     -33.780   6.174   4.650  1.00 20.00     0.041 C 
HETATM    2  C2  UNL     1     -33.720   6.700   6.060  1.00 20.00     0.069 C 
HETATM    3  S4  UNL     1     -32.661   6.644   3.496  1.00 20.00    -0.078 SA
ENDROOT
BRANCH   1   4
HETATM    4  S5  UNL     1     -35.097   5.064   4.287  1.00 20.00    -0.128 SA
HETATM    5  C3  UNL     1     -35.048   4.029   5.768  1.00 20.00     0.096 C 
ENDBRANCH   1   4
TORSDOF 1
ENDMDL
MODEL 3
REMARK VINA RESULT:      -2.9      1.512      2.907
REMARK  1 active torsions:
REMARK  status: ('A' for Active; 'I' for Inactive)
REMARK    1  A    between atoms: C1_1  and  S5_5 
ROOT
HETATM    1  C1  UNL     1     -33.778   6.093   4.152  1.00 20.00     0.041 C 
HETATM    2  C2  UNL     1     -34.876   5.431   3.361  1.00 20.00     0.069 C 
HETATM    3  S4  UNL     1     -32.400   6.683   3.406  1.00 20.00    -0.078 SA
ENDROOT
BRANCH   1   4
HETATM    4  S5  UNL     1     -34.019   6.188   5.893  1.00 20.00    -0.128 SA
HETATM    5  C3  UNL     1     -34.929   4.650   6.167  1.00 20.00     0.096 C 
ENDBRANCH   1   4
TORSDOF 1
ENDMDL
MODEL 4
REMARK VINA RESULT:      -2.8      1.457      1.783
REMARK  1 active torsions:
REMARK  status: ('A' for Active; 'I' for Inactive)
REMARK    1  A    between atoms: C1_1  and  S5_5 
ROOT
HETATM    1  C1  UNL     1     -34.299   5.603   5.288  1.00 20.00     0.041 C 
HETATM    2  C2  UNL     1     -33.850   6.654   6.270  1.00 20.00     0.069 C 
HETATM    3  S4  UNL     1     -34.934   4.142   5.805  1.00 20.00    -0.078 SA
ENDROOT
BRANCH   1   4
HETATM    4  S5  UNL     1     -34.098   5.991   3.583  1.00 20.00    -0.128 SA
HETATM    5  C3  UNL     1     -32.418   6.658   3.611  1.00 20.00     0.096 C 
ENDBRANCH   1   4
TORSDOF 1
ENDMDL
MODEL 5
REMARK VINA RESULT:      -2.6      0.775      2.627
REMARK  1 active torsions:
REMARK  status: ('A' for Active; 'I' for Inactive)
REMARK    1  A    between atoms: C1_1  and  S5_5 
ROOT
HETATM    1  C1  UNL     1     -33.790   6.222   4.674  1.00 20.00     0.041 C 
HETATM    2  C2  UNL     1     -32.802   6.637   3.615  1.00 20.00     0.069 C 
HETATM    3  S4  UNL     1     -33.672   6.789   6.246  1.00 20.00    -0.078 SA
ENDROOT
BRANCH   1   4
HETATM    4  S5  UNL     1     -35.050   5.102   4.170  1.00 20.00    -0.128 SA
HETATM    5  C3  UNL     1     -35.058   3.984   5.590  1.00 20.00     0.096 C 
ENDBRANCH   1   4
TORSDOF 1
ENDMDL
MODEL 6
REMARK VINA RESULT:      -2.4      0.871      3.300
REMARK  1 active torsions:
REMARK  status: ('A' for Active; 'I' for Inactive)
REMARK    1  A    between atoms: C1_1  and  S5_5 
ROOT
HETATM    1  C1  UNL     1     -33.629   6.205   4.234  1.00 20.00     0.041 C 
HETATM    2  C2  UNL     1     -32.384   6.797   3.625  1.00 20.00     0.069 C 
HETATM    3  S4  UNL     1     -34.771   5.420   3.294  1.00 20.00    -0.078 SA
ENDROOT
BRANCH   1   4
HETATM    4  S5  UNL     1     -33.819   6.406   5.972  1.00 20.00    -0.128 SA
HETATM    5  C3  UNL     1     -34.855   4.971   6.340  1.00 20.00     0.096 C 
ENDBRANCH   1   4
TORSDOF 1
ENDMDL
MODEL 7
REMARK VINA RESULT:      -2.3     12.409     12.626
REMARK  1 active torsions:
REMARK  status: ('A' for Active; 'I' for Inactive)
REMARK    1  A    between atoms: C1_1  and  S5_5 
ROOT
HETATM    1  C1  UNL     1     -34.976  15.261  -3.039  1.00 20.00     0.041 C 
HETATM    2  C2  UNL     1     -34.587  16.131  -1.871  1.00 20.00     0.069 C 
HETATM    3  S4  UNL     1     -36.561  15.175  -3.572  1.00 20.00    -0.078 SA
ENDROOT
BRANCH   1   4
HETATM    4  S5  UNL     1     -33.680  14.335  -3.788  1.00 20.00    -0.128 SA
HETATM    5  C3  UNL     1     -34.653  13.232  -4.839  1.00 20.00     0.096 C 
ENDBRANCH   1   4
TORSDOF 1
ENDMDL
MODEL 8
REMARK VINA RESULT:      -2.3      1.651      1.857
REMARK  1 active torsions:
REMARK  status: ('A' for Active; 'I' for Inactive)
REMARK    1  A    between atoms: C1_1  and  S5_5 
ROOT
HETATM    1  C1  UNL     1     -34.561   5.428   4.695  1.00 20.00     0.041 C 
HETATM    2  C2  UNL     1     -35.462   5.490   3.489  1.00 20.00     0.069 C 
HETATM    3  S4  UNL     1     -34.819   4.313   5.919  1.00 20.00    -0.078 SA
ENDROOT
BRANCH   1   4
HETATM    4  S5  UNL     1     -33.248   6.597   4.749  1.00 20.00    -0.128 SA
HETATM    5  C3  UNL     1     -32.492   6.293   3.136  1.00 20.00     0.096 C 
ENDBRANCH   1   4
TORSDOF 1
ENDMDL
MODEL 9
REMARK VINA RESULT:      -2.3     12.402     12.952
REMARK  1 active torsions:
REMARK  status: ('A' for Active; 'I' for Inactive)
REMARK    1  A    between atoms: C1_1  and  S5_5 
ROOT
HETATM    1  C1  UNL     1     -34.656  15.750  -3.189  1.00 20.00     0.041 C 
HETATM    2  C2  UNL     1     -34.696  16.202  -1.753  1.00 20.00     0.069 C 
HETATM    3  S4  UNL     1     -33.397  16.184  -4.205  1.00 20.00    -0.078 SA
ENDROOT
BRANCH   1   4
HETATM    4  S5  UNL     1     -36.008  14.765  -3.736  1.00 20.00    -0.128 SA
HETATM    5  C3  UNL     1     -35.112  13.324  -4.359  1.00 20.00     0.096 C 
ENDBRANCH   1   4
TORSDOF 1
ENDMDL
