MODEL 1
REMARK VINA RESULT:      -5.5      0.000      0.000
REMARK  0 active torsions:
REMARK  status: ('A' for Active; 'I' for Inactive)
ROOT
HETATM    1  C1  UNL     1     -34.930   4.998   4.192  1.00 20.00     0.374 C 
HETATM    2  C2  UNL     1     -33.882   6.114   4.235  1.00 20.00     0.398 C 
HETATM    3  C3  UNL     1     -34.626   4.862   5.687  1.00 20.00     0.398 C 
HETATM    4  O4  UNL     1     -33.915   6.125   5.685  1.00 20.00    -0.252 OA
HETATM    5  F5  UNL     1     -36.187   5.382   3.881  1.00 20.00    -0.231 F 
HETATM    6  F6  UNL     1     -34.247   7.297   3.697  1.00 20.00    -0.172 F 
HETATM    7  F7  UNL     1     -32.662   5.807   3.747  1.00 20.00    -0.172 F 
HETATM    8  F8  UNL     1     -33.837   3.825   6.043  1.00 20.00    -0.172 F 
HETATM    9  F9  UNL     1     -35.690   4.863   6.517  1.00 20.00    -0.172 F 
ENDROOT
TORSDOF 0
ENDMDL
MODEL 2
REMARK VINA RESULT:      -5.5      1.254      2.394
REMARK  0 active torsions:
REMARK  status: ('A' for Active; 'I' for Inactive)
ROOT
HETATM    1  C1  UNL     1     -34.256   6.026   4.847  1.00 20.00     0.374 C 
HETATM    2  C2  UNL     1     -35.050   5.305   3.754  1.00 20.00     0.398 C 
HETATM    3  C3  UNL     1     -34.660   4.832   5.717  1.00 20.00     0.398 C 
HETATM    4  O4  UNL     1     -35.092   4.092   4.548  1.00 20.00    -0.252 OA
HETATM    5  F5  UNL     1     -32.932   6.165   4.617  1.00 20.00    -0.231 F 
HETATM    6  F6  UNL     1     -34.420   5.132   2.572  1.00 20.00    -0.172 F 
HETATM    7  F7  UNL     1     -36.280   5.793   3.489  1.00 20.00    -0.172 F 
HETATM    8  F8  UNL     1     -35.664   5.047   6.594  1.00 20.00    -0.172 F 
HETATM    9  F9  UNL     1     -33.664   4.215   6.386  1.00 20.00    -0.172 F 
ENDROOT
TORSDOF 0
ENDMDL
MODEL 3
REMARK VINA RESULT:      -5.3      1.363      3.102
REMARK  0 active torsions:
REMARK  status: ('A' for Active; 'I' for Inactive)
ROOT
HETATM    1  C1  UNL     1     -33.833   5.610   5.483  1.00 20.00     0.374 C 
HETATM    2  C2  UNL     1     -34.948   4.563   5.541  1.00 20.00     0.398 C 
HETATM    3  C3  UNL     1     -34.379   5.894   4.080  1.00 20.00     0.398 C 
HETATM    4  O4  UNL     1     -35.577   5.129   4.363  1.00 20.00    -0.252 OA
HETATM    5  F5  UNL     1     -33.932   6.626   6.369  1.00 20.00    -0.231 F 
HETATM    6  F6  UNL     1     -35.748   4.602   6.628  1.00 20.00    -0.172 F 
HETATM    7  F7  UNL     1     -34.573   3.279   5.361  1.00 20.00    -0.172 F 
HETATM    8  F8  UNL     1     -33.670   5.383   3.050  1.00 20.00    -0.172 F 
HETATM    9  F9  UNL     1     -34.640   7.185   3.789  1.00 20.00    -0.172 F 
ENDROOT
TORSDOF 0
ENDMDL
MODEL 4
REMARK VINA RESULT:      -5.3      1.139      2.981
REMARK  0 active torsions:
REMARK  status: ('A' for Active; 'I' for Inactive)
ROOT
HETATM    1  C1  UNL     1     -35.268   4.988   4.725  1.00 20.00     0.374 C 
HETATM    2  C2  UNL     1     -34.346   5.299   5.907  1.00 20.00     0.398 C 
HETATM    3  C3  UNL     1     -34.300   5.873   3.933  1.00 20.00     0.398 C 
HETATM    4  O4  UNL     1     -33.335   5.830   5.014  1.00 20.00    -0.252 OA
HETATM    5  F5  UNL     1     -35.323   3.692   4.346  1.00 20.00    -0.231 F 
HETATM    6  F6  UNL     1     -33.907   4.238   6.618  1.00 20.00    -0.172 F 
HETATM    7  F7  UNL     1     -34.794   6.218   6.789  1.00 20.00    -0.172 F 
HETATM    8  F8  UNL     1     -34.723   7.128   3.666  1.00 20.00    -0.172 F 
HETATM    9  F9  UNL     1     -33.820   5.355   2.783  1.00 20.00    -0.172 F 
ENDROOT
TORSDOF 0
ENDMDL
MODEL 5
REMARK VINA RESULT:      -5.3      1.430      2.448
REMARK  0 active torsions:
REMARK  status: ('A' for Active; 'I' for Inactive)
ROOT
HETATM    1  C1  UNL     1     -33.919   5.652   4.723  1.00 20.00     0.374 C 
HETATM    2  C2  UNL     1     -34.205   5.609   6.227  1.00 20.00     0.398 C 
HETATM    3  C3  UNL     1     -35.227   4.864   4.606  1.00 20.00     0.398 C 
HETATM    4  O4  UNL     1     -35.563   5.165   5.983  1.00 20.00    -0.252 OA
HETATM    5  F5  UNL     1     -33.920   6.880   4.160  1.00 20.00    -0.231 F 
HETATM    6  F6  UNL     1     -34.151   6.789   6.881  1.00 20.00    -0.172 F 
HETATM    7  F7  UNL     1     -33.489   4.716   6.945  1.00 20.00    -0.172 F 
HETATM    8  F8  UNL     1     -35.106   3.538   4.380  1.00 20.00    -0.172 F 
HETATM    9  F9  UNL     1     -36.137   5.341   3.730  1.00 20.00    -0.172 F 
ENDROOT
TORSDOF 0
ENDMDL
MODEL 6
REMARK VINA RESULT:      -4.9      1.600      2.552
REMARK  0 active torsions:
REMARK  status: ('A' for Active; 'I' for Inactive)
ROOT
HETATM    1  C1  UNL     1     -34.169   6.204   4.768  1.00 20.00     0.374 C 
HETATM    2  C2  UNL     1     -33.284   6.323   3.523  1.00 20.00     0.398 C 
HETATM    3  C3  UNL     1     -35.030   5.297   3.883  1.00 20.00     0.398 C 
HETATM    4  O4  UNL     1     -33.973   5.212   2.895  1.00 20.00    -0.252 OA
HETATM    5  F5  UNL     1     -33.599   5.610   5.840  1.00 20.00    -0.231 F 
HETATM    6  F6  UNL     1     -31.967   6.086   3.701  1.00 20.00    -0.172 F 
HETATM    7  F7  UNL     1     -33.398   7.468   2.817  1.00 20.00    -0.172 F 
HETATM    8  F8  UNL     1     -36.159   5.847   3.387  1.00 20.00    -0.172 F 
HETATM    9  F9  UNL     1     -35.359   4.095   4.400  1.00 20.00    -0.172 F 
ENDROOT
TORSDOF 0
ENDMDL
MODEL 7
REMARK VINA RESULT:      -4.9      1.403      2.896
REMARK  0 active torsions:
REMARK  status: ('A' for Active; 'I' for Inactive)
ROOT
HETATM    1  C1  UNL     1     -35.241   5.544   4.685  1.00 20.00     0.374 C 
HETATM    2  C2  UNL     1     -34.952   4.278   5.496  1.00 20.00     0.398 C 
HETATM    3  C3  UNL     1     -33.993   6.094   5.384  1.00 20.00     0.398 C 
HETATM    4  O4  UNL     1     -33.630   4.766   5.837  1.00 20.00    -0.252 OA
HETATM    5  F5  UNL     1     -35.154   5.416   3.342  1.00 20.00    -0.231 F 
HETATM    6  F6  UNL     1     -34.917   3.119   4.804  1.00 20.00    -0.172 F 
HETATM    7  F7  UNL     1     -35.727   4.076   6.583  1.00 20.00    -0.172 F 
HETATM    8  F8  UNL     1     -34.211   6.949   6.406  1.00 20.00    -0.172 F 
HETATM    9  F9  UNL     1     -33.056   6.648   4.587  1.00 20.00    -0.172 F 
ENDROOT
TORSDOF 0
ENDMDL
MODEL 8
REMARK VINA RESULT:      -4.8      1.475      2.285
REMARK  0 active torsions:
REMARK  status: ('A' for Active; 'I' for Inactive)
ROOT
HETATM    1  C1  UNL     1     -34.419   4.981   5.188  1.00 20.00     0.374 C 
HETATM    2  C2  UNL     1     -35.037   5.478   3.877  1.00 20.00     0.398 C 
HETATM    3  C3  UNL     1     -33.860   6.403   5.288  1.00 20.00     0.398 C 
HETATM    4  O4  UNL     1     -34.744   6.853   4.231  1.00 20.00    -0.252 OA
HETATM    5  F5  UNL     1     -35.295   4.624   6.152  1.00 20.00    -0.231 F 
HETATM    6  F6  UNL     1     -36.358   5.252   3.715  1.00 20.00    -0.172 F 
HETATM    7  F7  UNL     1     -34.418   5.092   2.741  1.00 20.00    -0.172 F 
HETATM    8  F8  UNL     1     -32.556   6.554   4.972  1.00 20.00    -0.172 F 
HETATM    9  F9  UNL     1     -34.071   7.048   6.454  1.00 20.00    -0.172 F 
ENDROOT
TORSDOF 0
ENDMDL
MODEL 9
REMARK VINA RESULT:      -4.8      1.206      2.863
REMARK  0 active torsions:
REMARK  status: ('A' for Active; 'I' for Inactive)
ROOT
HETATM    1  C1  UNL     1     -35.252   6.093   4.310  1.00 20.00     0.374 C 
HETATM    2  C2  UNL     1     -34.651   5.495   5.585  1.00 20.00     0.398 C 
HETATM    3  C3  UNL     1     -33.849   5.882   3.731  1.00 20.00     0.398 C 
HETATM    4  O4  UNL     1     -33.484   5.042   4.854  1.00 20.00    -0.252 OA
HETATM    5  F5  UNL     1     -36.240   5.376   3.732  1.00 20.00    -0.231 F 
HETATM    6  F6  UNL     1     -35.338   4.480   6.151  1.00 20.00    -0.172 F 
HETATM    7  F7  UNL     1     -34.341   6.369   6.566  1.00 20.00    -0.172 F 
HETATM    8  F8  UNL     1     -33.073   6.983   3.634  1.00 20.00    -0.172 F 
HETATM    9  F9  UNL     1     -33.780   5.234   2.550  1.00 20.00    -0.172 F 
ENDROOT
TORSDOF 0
ENDMDL
