MODEL 1
REMARK VINA RESULT:      -4.3      0.000      0.000
REMARK  0 active torsions:
REMARK  status: ('A' for Active; 'I' for Inactive)
ROOT
HETATM    1  C1  UNL     1     -34.091   5.296   6.378  1.00 20.00     0.029 C 
HETATM    2  C2  UNL     1     -33.785   6.547   5.559  1.00 20.00     0.044 C 
HETATM    3  C3  UNL     1     -35.276   4.541   5.784  1.00 20.00     0.167 C 
HETATM    4  C4  UNL     1     -34.846   5.345   3.590  1.00 20.00     0.207 C 
HETATM    5  C5  UNL     1     -32.939   7.062   3.151  1.00 20.00     0.209 A 
HETATM    6  C6  UNL     1     -33.728   6.198   4.103  1.00 20.00     0.103 A 
HETATM    7  O7  UNL     1     -35.013   4.193   4.423  1.00 20.00    -0.388 OA
HETATM    8  O8  UNL     1     -32.428   5.811   3.638  1.00 20.00    -0.373 OA
ENDROOT
TORSDOF 0
ENDMDL
MODEL 2
REMARK VINA RESULT:      -3.7      0.990      3.301
REMARK  0 active torsions:
REMARK  status: ('A' for Active; 'I' for Inactive)
ROOT
HETATM    1  C1  UNL     1     -34.094   5.440   2.861  1.00 20.00     0.029 C 
HETATM    2  C2  UNL     1     -35.186   5.213   3.903  1.00 20.00     0.044 C 
HETATM    3  C3  UNL     1     -33.286   6.691   3.193  1.00 20.00     0.167 C 
HETATM    4  C4  UNL     1     -33.710   6.494   5.523  1.00 20.00     0.207 C 
HETATM    5  C5  UNL     1     -35.279   4.629   6.438  1.00 20.00     0.209 A 
HETATM    6  C6  UNL     1     -34.604   5.319   5.279  1.00 20.00     0.103 A 
HETATM    7  O7  UNL     1     -32.714   6.582   4.499  1.00 20.00    -0.388 OA
HETATM    8  O8  UNL     1     -34.110   4.082   5.809  1.00 20.00    -0.373 OA
ENDROOT
TORSDOF 0
ENDMDL
MODEL 3
REMARK VINA RESULT:      -3.7     12.229     13.397
REMARK  0 active torsions:
REMARK  status: ('A' for Active; 'I' for Inactive)
ROOT
HETATM    1  C1  UNL     1     -33.685  13.649  -3.791  1.00 20.00     0.029 C 
HETATM    2  C2  UNL     1     -33.886  15.096  -3.348  1.00 20.00     0.044 C 
HETATM    3  C3  UNL     1     -34.728  13.256  -4.833  1.00 20.00     0.167 C 
HETATM    4  C4  UNL     1     -34.974  15.489  -5.608  1.00 20.00     0.207 C 
HETATM    5  C5  UNL     1     -33.707  17.447  -4.451  1.00 20.00     0.209 A 
HETATM    6  C6  UNL     1     -34.036  15.978  -4.549  1.00 20.00     0.103 A 
HETATM    7  O7  UNL     1     -34.664  14.136  -5.958  1.00 20.00    -0.388 OA
HETATM    8  O8  UNL     1     -32.802  16.507  -5.052  1.00 20.00    -0.373 OA
ENDROOT
TORSDOF 0
ENDMDL
MODEL 4
REMARK VINA RESULT:      -3.6     11.920     12.546
REMARK  0 active torsions:
REMARK  status: ('A' for Active; 'I' for Inactive)
ROOT
HETATM    1  C1  UNL     1     -35.950  14.105  -4.209  1.00 20.00     0.029 C 
HETATM    2  C2  UNL     1     -35.508  15.562  -4.110  1.00 20.00     0.044 C 
HETATM    3  C3  UNL     1     -34.779  13.214  -4.614  1.00 20.00     0.167 C 
HETATM    4  C4  UNL     1     -33.174  14.675  -3.647  1.00 20.00     0.207 C 
HETATM    5  C5  UNL     1     -33.901  16.945  -2.600  1.00 20.00     0.209 A 
HETATM    6  C6  UNL     1     -34.250  15.657  -3.302  1.00 20.00     0.103 A 
HETATM    7  O7  UNL     1     -33.707  13.347  -3.679  1.00 20.00    -0.388 OA
HETATM    8  O8  UNL     1     -34.464  15.828  -1.894  1.00 20.00    -0.373 OA
ENDROOT
TORSDOF 0
ENDMDL
MODEL 5
REMARK VINA RESULT:      -3.5     11.829     13.229
REMARK  0 active torsions:
REMARK  status: ('A' for Active; 'I' for Inactive)
ROOT
HETATM    1  C1  UNL     1     -33.209  16.465  -5.033  1.00 20.00     0.029 C 
HETATM    2  C2  UNL     1     -34.213  15.377  -5.408  1.00 20.00     0.044 C 
HETATM    3  C3  UNL     1     -33.634  17.168  -3.748  1.00 20.00     0.167 C 
HETATM    4  C4  UNL     1     -34.788  15.255  -2.938  1.00 20.00     0.207 C 
HETATM    5  C5  UNL     1     -34.998  13.110  -4.398  1.00 20.00     0.209 A 
HETATM    6  C6  UNL     1     -34.504  14.523  -4.212  1.00 20.00     0.103 A 
HETATM    7  O7  UNL     1     -33.764  16.224  -2.683  1.00 20.00    -0.388 OA
HETATM    8  O8  UNL     1     -33.631  13.396  -4.063  1.00 20.00    -0.373 OA
ENDROOT
TORSDOF 0
ENDMDL
MODEL 6
REMARK VINA RESULT:      -3.5      9.069     10.268
REMARK  0 active torsions:
REMARK  status: ('A' for Active; 'I' for Inactive)
ROOT
HETATM    1  C1  UNL     1     -40.836   5.914  -0.125  1.00 20.00     0.029 C 
HETATM    2  C2  UNL     1     -40.688   4.704  -1.044  1.00 20.00     0.044 C 
HETATM    3  C3  UNL     1     -41.217   7.155  -0.926  1.00 20.00     0.167 C 
HETATM    4  C4  UNL     1     -42.296   5.881  -2.617  1.00 20.00     0.207 C 
HETATM    5  C5  UNL     1     -42.261   3.279  -2.550  1.00 20.00     0.209 A 
HETATM    6  C6  UNL     1     -41.876   4.608  -1.951  1.00 20.00     0.103 A 
HETATM    7  O7  UNL     1     -42.429   6.928  -1.649  1.00 20.00    -0.388 OA
HETATM    8  O8  UNL     1     -42.960   3.832  -1.424  1.00 20.00    -0.373 OA
ENDROOT
TORSDOF 0
ENDMDL
MODEL 7
REMARK VINA RESULT:      -3.4     11.917     12.627
REMARK  0 active torsions:
REMARK  status: ('A' for Active; 'I' for Inactive)
ROOT
HETATM    1  C1  UNL     1     -33.429  15.339  -3.311  1.00 20.00     0.029 C 
HETATM    2  C2  UNL     1     -34.865  15.430  -2.800  1.00 20.00     0.044 C 
HETATM    3  C3  UNL     1     -33.090  13.906  -3.708  1.00 20.00     0.167 C 
HETATM    4  C4  UNL     1     -35.350  13.383  -4.221  1.00 20.00     0.207 C 
HETATM    5  C5  UNL     1     -37.246  15.118  -3.805  1.00 20.00     0.209 A 
HETATM    6  C6  UNL     1     -35.787  14.736  -3.754  1.00 20.00     0.103 A 
HETATM    7  O7  UNL     1     -34.003  13.435  -4.702  1.00 20.00    -0.388 OA
HETATM    8  O8  UNL     1     -36.308  15.578  -4.791  1.00 20.00    -0.373 OA
ENDROOT
TORSDOF 0
ENDMDL
MODEL 8
REMARK VINA RESULT:      -3.4     11.720     13.157
REMARK  0 active torsions:
REMARK  status: ('A' for Active; 'I' for Inactive)
ROOT
HETATM    1  C1  UNL     1     -37.306  14.883  -4.251  1.00 20.00     0.029 C 
HETATM    2  C2  UNL     1     -35.932  14.810  -3.590  1.00 20.00     0.044 C 
HETATM    3  C3  UNL     1     -37.195  15.461  -5.659  1.00 20.00     0.167 C 
HETATM    4  C4  UNL     1     -34.968  14.682  -5.936  1.00 20.00     0.207 C 
HETATM    5  C5  UNL     1     -33.720  13.495  -3.983  1.00 20.00     0.209 A 
HETATM    6  C6  UNL     1     -34.952  14.174  -4.528  1.00 20.00     0.103 A 
HETATM    7  O7  UNL     1     -36.303  14.674  -6.451  1.00 20.00    -0.388 OA
HETATM    8  O8  UNL     1     -34.868  12.747  -4.416  1.00 20.00    -0.373 OA
ENDROOT
TORSDOF 0
ENDMDL
MODEL 9
REMARK VINA RESULT:      -3.4     12.074     12.533
REMARK  0 active torsions:
REMARK  status: ('A' for Active; 'I' for Inactive)
ROOT
HETATM    1  C1  UNL     1     -34.128  16.033  -2.369  1.00 20.00     0.029 C 
HETATM    2  C2  UNL     1     -33.666  15.349  -3.653  1.00 20.00     0.044 C 
HETATM    3  C3  UNL     1     -35.548  16.568  -2.526  1.00 20.00     0.167 C 
HETATM    4  C4  UNL     1     -36.121  14.921  -4.140  1.00 20.00     0.207 C 
HETATM    5  C5  UNL     1     -34.341  13.230  -5.006  1.00 20.00     0.209 A 
HETATM    6  C6  UNL     1     -34.719  14.395  -4.126  1.00 20.00     0.103 A 
HETATM    7  O7  UNL     1     -36.442  15.509  -2.875  1.00 20.00    -0.388 OA
HETATM    8  O8  UNL     1     -34.592  13.067  -3.602  1.00 20.00    -0.373 OA
ENDROOT
TORSDOF 0
ENDMDL
