MODEL 1
REMARK VINA RESULT:      -4.3      0.000      0.000
REMARK  0 active torsions:
REMARK  status: ('A' for Active; 'I' for Inactive)
ROOT
HETATM    1  C1  UNL     1     -34.090   5.270   6.411  1.00 20.00     0.029 C 
HETATM    2  C2  UNL     1     -33.797   6.516   5.578  1.00 20.00     0.044 C 
HETATM    3  C3  UNL     1     -35.281   4.509   5.833  1.00 20.00     0.167 C 
HETATM    4  C4  UNL     1     -34.874   5.307   3.632  1.00 20.00     0.207 C 
HETATM    5  C5  UNL     1     -32.415   6.149   3.392  1.00 20.00     0.209 A 
HETATM    6  C6  UNL     1     -33.733   6.136   4.131  1.00 20.00     0.103 A 
HETATM    7  O7  UNL     1     -35.040   4.156   4.467  1.00 20.00    -0.388 OA
HETATM    8  O8  UNL     1     -33.368   7.214   3.258  1.00 20.00    -0.373 OA
ENDROOT
TORSDOF 0
ENDMDL
MODEL 2
REMARK VINA RESULT:      -3.8      1.218      3.352
REMARK  0 active torsions:
REMARK  status: ('A' for Active; 'I' for Inactive)
ROOT
HETATM    1  C1  UNL     1     -34.078   5.494   2.789  1.00 20.00     0.029 C 
HETATM    2  C2  UNL     1     -35.166   5.257   3.833  1.00 20.00     0.044 C 
HETATM    3  C3  UNL     1     -33.253   6.729   3.147  1.00 20.00     0.167 C 
HETATM    4  C4  UNL     1     -33.675   6.481   5.473  1.00 20.00     0.207 C 
HETATM    5  C5  UNL     1     -34.424   4.042   6.023  1.00 20.00     0.209 A 
HETATM    6  C6  UNL     1     -34.555   5.301   5.199  1.00 20.00     0.103 A 
HETATM    7  O7  UNL     1     -32.679   6.591   4.451  1.00 20.00    -0.388 OA
HETATM    8  O8  UNL     1     -35.469   4.996   6.260  1.00 20.00    -0.373 OA
ENDROOT
TORSDOF 0
ENDMDL
MODEL 3
REMARK VINA RESULT:      -3.8     11.984     13.423
REMARK  0 active torsions:
REMARK  status: ('A' for Active; 'I' for Inactive)
ROOT
HETATM    1  C1  UNL     1     -33.294  16.014  -3.750  1.00 20.00     0.029 C 
HETATM    2  C2  UNL     1     -33.372  14.490  -3.803  1.00 20.00     0.044 C 
HETATM    3  C3  UNL     1     -33.239  16.596  -5.161  1.00 20.00     0.167 C 
HETATM    4  C4  UNL     1     -34.419  14.755  -6.093  1.00 20.00     0.207 C 
HETATM    5  C5  UNL     1     -35.735  13.467  -4.243  1.00 20.00     0.209 A 
HETATM    6  C6  UNL     1     -34.456  14.086  -4.755  1.00 20.00     0.103 A 
HETATM    7  O7  UNL     1     -34.375  16.177  -5.924  1.00 20.00    -0.388 OA
HETATM    8  O8  UNL     1     -34.686  12.673  -4.815  1.00 20.00    -0.373 OA
ENDROOT
TORSDOF 0
ENDMDL
MODEL 4
REMARK VINA RESULT:      -3.8     11.854     12.613
REMARK  0 active torsions:
REMARK  status: ('A' for Active; 'I' for Inactive)
ROOT
HETATM    1  C1  UNL     1     -35.186  16.214  -3.204  1.00 20.00     0.029 C 
HETATM    2  C2  UNL     1     -35.685  14.784  -3.393  1.00 20.00     0.044 C 
HETATM    3  C3  UNL     1     -33.760  16.216  -2.658  1.00 20.00     0.167 C 
HETATM    4  C4  UNL     1     -33.256  14.111  -3.639  1.00 20.00     0.207 C 
HETATM    5  C5  UNL     1     -34.921  13.570  -5.576  1.00 20.00     0.209 A 
HETATM    6  C6  UNL     1     -34.658  14.001  -4.152  1.00 20.00     0.103 A 
HETATM    7  O7  UNL     1     -32.886  15.489  -3.527  1.00 20.00    -0.388 OA
HETATM    8  O8  UNL     1     -35.060  12.663  -4.473  1.00 20.00    -0.373 OA
ENDROOT
TORSDOF 0
ENDMDL
MODEL 5
REMARK VINA RESULT:      -3.7     12.028     12.588
REMARK  0 active torsions:
REMARK  status: ('A' for Active; 'I' for Inactive)
ROOT
HETATM    1  C1  UNL     1     -33.947  15.550  -3.282  1.00 20.00     0.029 C 
HETATM    2  C2  UNL     1     -35.399  15.282  -2.893  1.00 20.00     0.044 C 
HETATM    3  C3  UNL     1     -33.251  14.249  -3.680  1.00 20.00     0.167 C 
HETATM    4  C4  UNL     1     -35.284  13.242  -4.388  1.00 20.00     0.207 C 
HETATM    5  C5  UNL     1     -37.101  15.056  -4.862  1.00 20.00     0.209 A 
HETATM    6  C6  UNL     1     -36.049  14.455  -3.959  1.00 20.00     0.103 A 
HETATM    7  O7  UNL     1     -33.950  13.612  -4.754  1.00 20.00    -0.388 OA
HETATM    8  O8  UNL     1     -37.447  14.220  -3.748  1.00 20.00    -0.373 OA
ENDROOT
TORSDOF 0
ENDMDL
MODEL 6
REMARK VINA RESULT:      -3.6     11.943     12.600
REMARK  0 active torsions:
REMARK  status: ('A' for Active; 'I' for Inactive)
ROOT
HETATM    1  C1  UNL     1     -35.866  14.055  -4.238  1.00 20.00     0.029 C 
HETATM    2  C2  UNL     1     -35.475  15.526  -4.116  1.00 20.00     0.044 C 
HETATM    3  C3  UNL     1     -34.660  13.214  -4.648  1.00 20.00     0.167 C 
HETATM    4  C4  UNL     1     -33.118  14.725  -3.653  1.00 20.00     0.207 C 
HETATM    5  C5  UNL     1     -34.310  16.234  -1.887  1.00 20.00     0.209 A 
HETATM    6  C6  UNL     1     -34.241  15.639  -3.274  1.00 20.00     0.103 A 
HETATM    7  O7  UNL     1     -33.590  13.374  -3.711  1.00 20.00    -0.388 OA
HETATM    8  O8  UNL     1     -33.833  16.988  -3.011  1.00 20.00    -0.373 OA
ENDROOT
TORSDOF 0
ENDMDL
MODEL 7
REMARK VINA RESULT:      -3.5     12.198     13.530
REMARK  0 active torsions:
REMARK  status: ('A' for Active; 'I' for Inactive)
ROOT
HETATM    1  C1  UNL     1     -35.043  15.851  -6.337  1.00 20.00     0.029 C 
HETATM    2  C2  UNL     1     -34.861  14.353  -6.108  1.00 20.00     0.044 C 
HETATM    3  C3  UNL     1     -36.412  16.307  -5.837  1.00 20.00     0.167 C 
HETATM    4  C4  UNL     1     -36.525  14.575  -4.213  1.00 20.00     0.207 C 
HETATM    5  C5  UNL     1     -34.147  13.628  -3.702  1.00 20.00     0.209 A 
HETATM    6  C6  UNL     1     -35.218  14.025  -4.691  1.00 20.00     0.103 A 
HETATM    7  O7  UNL     1     -36.575  15.986  -4.452  1.00 20.00    -0.388 OA
HETATM    8  O8  UNL     1     -34.994  12.656  -4.332  1.00 20.00    -0.373 OA
ENDROOT
TORSDOF 0
ENDMDL
MODEL 8
REMARK VINA RESULT:      -3.5     12.198     13.536
REMARK  0 active torsions:
REMARK  status: ('A' for Active; 'I' for Inactive)
ROOT
HETATM    1  C1  UNL     1     -35.232  14.116  -5.811  1.00 20.00     0.029 C 
HETATM    2  C2  UNL     1     -34.238  15.233  -6.121  1.00 20.00     0.044 C 
HETATM    3  C3  UNL     1     -34.669  13.182  -4.741  1.00 20.00     0.167 C 
HETATM    4  C4  UNL     1     -33.330  14.895  -3.782  1.00 20.00     0.207 C 
HETATM    5  C5  UNL     1     -34.215  17.254  -4.466  1.00 20.00     0.209 A 
HETATM    6  C6  UNL     1     -33.781  15.855  -4.837  1.00 20.00     0.103 A 
HETATM    7  O7  UNL     1     -34.346  13.912  -3.554  1.00 20.00    -0.388 OA
HETATM    8  O8  UNL     1     -32.915  16.984  -5.009  1.00 20.00    -0.373 OA
ENDROOT
TORSDOF 0
ENDMDL
MODEL 9
REMARK VINA RESULT:      -3.5      8.986     10.236
REMARK  0 active torsions:
REMARK  status: ('A' for Active; 'I' for Inactive)
ROOT
HETATM    1  C1  UNL     1     -40.827   5.927  -0.119  1.00 20.00     0.029 C 
HETATM    2  C2  UNL     1     -40.707   4.708  -1.031  1.00 20.00     0.044 C 
HETATM    3  C3  UNL     1     -41.192   7.169  -0.931  1.00 20.00     0.167 C 
HETATM    4  C4  UNL     1     -42.299   5.893  -2.604  1.00 20.00     0.207 C 
HETATM    5  C5  UNL     1     -42.944   3.534  -1.693  1.00 20.00     0.209 A 
HETATM    6  C6  UNL     1     -41.922   4.626  -1.903  1.00 20.00     0.103 A 
HETATM    7  O7  UNL     1     -42.409   6.959  -1.654  1.00 20.00    -0.388 OA
HETATM    8  O8  UNL     1     -41.964   3.462  -2.739  1.00 20.00    -0.373 OA
ENDROOT
TORSDOF 0
ENDMDL
