MODEL 1
REMARK VINA RESULT:      -4.8      0.000      0.000
REMARK  1 active torsions:
REMARK  status: ('A' for Active; 'I' for Inactive)
REMARK    1  A    between atoms: C2_2  and  C3_3 
ROOT
HETATM    1  C1  UNL     1     -33.501   6.464   5.356  1.00 20.00    -0.012 C 
HETATM    2  C2  UNL     1     -33.588   6.210   4.043  1.00 20.00    -0.001 C 
HETATM    3  C4  UNL     1     -34.416   5.779   6.327  1.00 20.00     0.054 C 
HETATM    4  C5  UNL     1     -34.604   5.271   3.470  1.00 20.00     0.209 C 
HETATM    5  C6  UNL     1     -35.122   4.588   5.682  1.00 20.00     0.171 C 
HETATM    6  O8  UNL     1     -35.646   4.967   4.409  1.00 20.00    -0.386 OA
ENDROOT
BRANCH   2   7
HETATM    7  C3  UNL     1     -32.666   6.899   3.140  1.00 20.00     0.267 C 
HETATM    8  O7  UNL     1     -31.638   7.439   3.531  1.00 20.00    -0.302 OA
ENDBRANCH   2   7
TORSDOF 1
ENDMDL
MODEL 2
REMARK VINA RESULT:      -4.1      1.112      1.798
REMARK  1 active torsions:
REMARK  status: ('A' for Active; 'I' for Inactive)
REMARK    1  A    between atoms: C2_2  and  C3_3 
ROOT
HETATM    1  C1  UNL     1     -34.392   5.085   3.823  1.00 20.00    -0.012 C 
HETATM    2  C2  UNL     1     -33.681   6.144   4.233  1.00 20.00    -0.001 C 
HETATM    3  C4  UNL     1     -35.153   4.249   4.809  1.00 20.00     0.054 C 
HETATM    4  C5  UNL     1     -33.576   6.534   5.675  1.00 20.00     0.209 C 
HETATM    5  C6  UNL     1     -35.282   4.957   6.156  1.00 20.00     0.171 C 
HETATM    6  O8  UNL     1     -34.014   5.484   6.550  1.00 20.00    -0.386 OA
ENDROOT
BRANCH   2   7
HETATM    7  C3  UNL     1     -32.964   6.930   3.229  1.00 20.00     0.267 C 
HETATM    8  O7  UNL     1     -31.813   7.319   3.392  1.00 20.00    -0.302 OA
ENDBRANCH   2   7
TORSDOF 1
ENDMDL
MODEL 3
REMARK VINA RESULT:      -4.0     11.583     12.296
REMARK  1 active torsions:
REMARK  status: ('A' for Active; 'I' for Inactive)
REMARK    1  A    between atoms: C2_2  and  C3_3 
ROOT
HETATM    1  C1  UNL     1     -35.225  15.698  -3.123  1.00 20.00    -0.012 C 
HETATM    2  C2  UNL     1     -35.944  14.759  -3.752  1.00 20.00    -0.001 C 
HETATM    3  C4  UNL     1     -33.755  15.506  -2.892  1.00 20.00     0.054 C 
HETATM    4  C5  UNL     1     -35.347  13.469  -4.225  1.00 20.00     0.209 C 
HETATM    5  C6  UNL     1     -33.203  14.362  -3.741  1.00 20.00     0.171 C 
HETATM    6  O8  UNL     1     -34.061  13.224  -3.638  1.00 20.00    -0.386 OA
ENDROOT
BRANCH   2   7
HETATM    7  C3  UNL     1     -37.372  15.000  -3.960  1.00 20.00     0.267 C 
HETATM    8  O7  UNL     1     -38.224  14.144  -3.751  1.00 20.00    -0.302 OA
ENDBRANCH   2   7
TORSDOF 1
ENDMDL
MODEL 4
REMARK VINA RESULT:      -3.9     11.806     13.097
REMARK  1 active torsions:
REMARK  status: ('A' for Active; 'I' for Inactive)
REMARK    1  A    between atoms: C2_2  and  C3_3 
ROOT
HETATM    1  C1  UNL     1     -34.237  14.969  -3.142  1.00 20.00    -0.012 C 
HETATM    2  C2  UNL     1     -34.222  14.822  -4.474  1.00 20.00    -0.001 C 
HETATM    3  C4  UNL     1     -33.816  16.263  -2.512  1.00 20.00     0.054 C 
HETATM    4  C5  UNL     1     -33.762  15.907  -5.398  1.00 20.00     0.209 C 
HETATM    5  C6  UNL     1     -33.744  17.387  -3.543  1.00 20.00     0.171 C 
HETATM    6  O8  UNL     1     -33.042  16.937  -4.703  1.00 20.00    -0.386 OA
ENDROOT
BRANCH   2   7
HETATM    7  C3  UNL     1     -34.652  13.543  -5.038  1.00 20.00     0.267 C 
HETATM    8  O7  UNL     1     -35.048  12.614  -4.342  1.00 20.00    -0.302 OA
ENDBRANCH   2   7
TORSDOF 1
ENDMDL
MODEL 5
REMARK VINA RESULT:      -3.7      1.886      2.715
REMARK  1 active torsions:
REMARK  status: ('A' for Active; 'I' for Inactive)
REMARK    1  A    between atoms: C2_2  and  C3_3 
ROOT
HETATM    1  C1  UNL     1     -33.767   6.439   4.483  1.00 20.00    -0.012 C 
HETATM    2  C2  UNL     1     -33.919   6.287   5.806  1.00 20.00    -0.001 C 
HETATM    3  C4  UNL     1     -34.440   5.502   3.525  1.00 20.00     0.054 C 
HETATM    4  C5  UNL     1     -34.728   5.175   6.401  1.00 20.00     0.209 C 
HETATM    5  C6  UNL     1     -35.519   4.675   4.220  1.00 20.00     0.171 C 
HETATM    6  O8  UNL     1     -35.009   4.143   5.444  1.00 20.00    -0.386 OA
ENDROOT
BRANCH   2   7
HETATM    7  C3  UNL     1     -33.248   7.233   6.696  1.00 20.00     0.267 C 
HETATM    8  O7  UNL     1     -33.859   7.949   7.482  1.00 20.00    -0.302 OA
ENDBRANCH   2   7
TORSDOF 1
ENDMDL
MODEL 6
REMARK VINA RESULT:      -3.6     11.698     12.062
REMARK  1 active torsions:
REMARK  status: ('A' for Active; 'I' for Inactive)
REMARK    1  A    between atoms: C2_2  and  C3_3 
ROOT
HETATM    1  C1  UNL     1     -33.837  14.746  -3.168  1.00 20.00    -0.012 C 
HETATM    2  C2  UNL     1     -34.998  15.365  -2.914  1.00 20.00    -0.001 C 
HETATM    3  C4  UNL     1     -33.780  13.595  -4.129  1.00 20.00     0.054 C 
HETATM    4  C5  UNL     1     -36.292  14.935  -3.535  1.00 20.00     0.209 C 
HETATM    5  C6  UNL     1     -35.053  13.506  -4.967  1.00 20.00     0.171 C 
HETATM    6  O8  UNL     1     -36.199  13.630  -4.123  1.00 20.00    -0.386 OA
ENDROOT
BRANCH   2   7
HETATM    7  C3  UNL     1     -34.997  16.487  -1.977  1.00 20.00     0.267 C 
HETATM    8  O7  UNL     1     -34.687  16.363  -0.797  1.00 20.00    -0.302 OA
ENDBRANCH   2   7
TORSDOF 1
ENDMDL
MODEL 7
REMARK VINA RESULT:      -3.6     11.859     13.691
REMARK  1 active torsions:
REMARK  status: ('A' for Active; 'I' for Inactive)
REMARK    1  A    between atoms: C2_2  and  C3_3 
ROOT
HETATM    1  C1  UNL     1     -34.392  15.122  -5.797  1.00 20.00    -0.012 C 
HETATM    2  C2  UNL     1     -33.986  14.819  -4.556  1.00 20.00    -0.001 C 
HETATM    3  C4  UNL     1     -34.327  16.534  -6.297  1.00 20.00     0.054 C 
HETATM    4  C5  UNL     1     -33.484  15.855  -3.598  1.00 20.00     0.209 C 
HETATM    5  C6  UNL     1     -33.459  17.406  -5.393  1.00 20.00     0.171 C 
HETATM    6  O8  UNL     1     -33.809  17.186  -4.025  1.00 20.00    -0.386 OA
ENDROOT
BRANCH   2   7
HETATM    7  C3  UNL     1     -34.062  13.425  -4.121  1.00 20.00     0.267 C 
HETATM    8  O7  UNL     1     -34.993  12.687  -4.425  1.00 20.00    -0.302 OA
ENDBRANCH   2   7
TORSDOF 1
ENDMDL
MODEL 8
REMARK VINA RESULT:      -3.5      9.085     10.410
REMARK  1 active torsions:
REMARK  status: ('A' for Active; 'I' for Inactive)
REMARK    1  A    between atoms: C2_2  and  C3_3 
ROOT
HETATM    1  C1  UNL     1     -40.957   4.644  -1.075  1.00 20.00    -0.012 C 
HETATM    2  C2  UNL     1     -41.797   4.585  -2.117  1.00 20.00    -0.001 C 
HETATM    3  C4  UNL     1     -40.626   5.959  -0.436  1.00 20.00     0.054 C 
HETATM    4  C5  UNL     1     -42.420   5.806  -2.720  1.00 20.00     0.209 C 
HETATM    5  C6  UNL     1     -41.597   7.053  -0.876  1.00 20.00     0.171 C 
HETATM    6  O8  UNL     1     -41.764   7.010  -2.294  1.00 20.00    -0.386 OA
ENDROOT
BRANCH   2   7
HETATM    7  C3  UNL     1     -42.094   3.275  -2.697  1.00 20.00     0.267 C 
HETATM    8  O7  UNL     1     -41.231   2.565  -3.202  1.00 20.00    -0.302 OA
ENDBRANCH   2   7
TORSDOF 1
ENDMDL
MODEL 9
REMARK VINA RESULT:      -3.5     11.516     13.045
REMARK  1 active torsions:
REMARK  status: ('A' for Active; 'I' for Inactive)
REMARK    1  A    between atoms: C2_2  and  C3_3 
ROOT
HETATM    1  C1  UNL     1     -33.948  15.594  -5.062  1.00 20.00    -0.012 C 
HETATM    2  C2  UNL     1     -34.622  14.558  -5.579  1.00 20.00    -0.001 C 
HETATM    3  C4  UNL     1     -33.131  15.426  -3.815  1.00 20.00     0.054 C 
HETATM    4  C5  UNL     1     -34.630  13.203  -4.941  1.00 20.00     0.209 C 
HETATM    5  C6  UNL     1     -32.910  13.951  -3.489  1.00 20.00     0.171 C 
HETATM    6  O8  UNL     1     -34.145  13.241  -3.591  1.00 20.00    -0.386 OA
ENDROOT
BRANCH   2   7
HETATM    7  C3  UNL     1     -35.396  14.773  -6.801  1.00 20.00     0.267 C 
HETATM    8  O7  UNL     1     -34.889  14.753  -7.918  1.00 20.00    -0.302 OA
ENDBRANCH   2   7
TORSDOF 1
ENDMDL
