MODEL 1
REMARK VINA RESULT:      -3.0      0.000      0.000
REMARK  0 active torsions:
REMARK  status: ('A' for Active; 'I' for Inactive)
ROOT
HETATM    1  C1  UNL     1     -34.974   4.427   5.809  1.00 20.00     0.178 C 
HETATM    2  C2  UNL     1     -35.138   4.877   4.369  1.00 20.00     0.102 C 
HETATM    3  C3  UNL     1     -33.859   6.442   6.000  1.00 20.00     0.241 C 
HETATM    4  O4  UNL     1     -34.829   5.596   6.624  1.00 20.00    -0.381 OA
HETATM    5  S5  UNL     1     -33.908   6.183   4.216  1.00 20.00    -0.141 SA
ENDROOT
TORSDOF 0
ENDMDL
MODEL 2
REMARK VINA RESULT:      -2.8      1.008      1.896
REMARK  0 active torsions:
REMARK  status: ('A' for Active; 'I' for Inactive)
ROOT
HETATM    1  C1  UNL     1     -34.163   6.115   6.236  1.00 20.00     0.178 C 
HETATM    2  C2  UNL     1     -33.807   6.391   4.787  1.00 20.00     0.102 C 
HETATM    3  C3  UNL     1     -35.120   4.217   5.329  1.00 20.00     0.241 C 
HETATM    4  O4  UNL     1     -34.298   4.698   6.396  1.00 20.00    -0.381 OA
HETATM    5  S5  UNL     1     -34.900   5.278   3.887  1.00 20.00    -0.141 SA
ENDROOT
TORSDOF 0
ENDMDL
MODEL 3
REMARK VINA RESULT:      -2.7      1.754      1.991
REMARK  0 active torsions:
REMARK  status: ('A' for Active; 'I' for Inactive)
ROOT
HETATM    1  C1  UNL     1     -35.385   4.802   4.443  1.00 20.00     0.178 C 
HETATM    2  C2  UNL     1     -34.961   4.651   5.892  1.00 20.00     0.102 C 
HETATM    3  C3  UNL     1     -33.777   6.462   4.456  1.00 20.00     0.241 C 
HETATM    4  O4  UNL     1     -34.278   5.347   3.713  1.00 20.00    -0.381 OA
HETATM    5  S5  UNL     1     -34.077   6.187   6.213  1.00 20.00    -0.141 SA
ENDROOT
TORSDOF 0
ENDMDL
MODEL 4
REMARK VINA RESULT:      -2.7      1.873      2.678
REMARK  0 active torsions:
REMARK  status: ('A' for Active; 'I' for Inactive)
ROOT
HETATM    1  C1  UNL     1     -33.627   6.333   4.461  1.00 20.00     0.178 C 
HETATM    2  C2  UNL     1     -33.975   6.318   5.938  1.00 20.00     0.102 C 
HETATM    3  C3  UNL     1     -35.232   4.674   4.370  1.00 20.00     0.241 C 
HETATM    4  O4  UNL     1     -34.769   5.867   3.732  1.00 20.00    -0.381 OA
HETATM    5  S5  UNL     1     -34.842   4.751   6.129  1.00 20.00    -0.141 SA
ENDROOT
TORSDOF 0
ENDMDL
MODEL 5
REMARK VINA RESULT:      -2.5     12.534     12.753
REMARK  0 active torsions:
REMARK  status: ('A' for Active; 'I' for Inactive)
ROOT
HETATM    1  C1  UNL     1     -35.838  13.800  -4.407  1.00 20.00     0.178 C 
HETATM    2  C2  UNL     1     -35.771  14.966  -3.440  1.00 20.00     0.102 C 
HETATM    3  C3  UNL     1     -33.590  13.634  -3.899  1.00 20.00     0.241 C 
HETATM    4  O4  UNL     1     -34.794  12.880  -4.065  1.00 20.00    -0.381 OA
HETATM    5  S5  UNL     1     -34.003  15.295  -3.330  1.00 20.00    -0.141 SA
ENDROOT
TORSDOF 0
ENDMDL
MODEL 6
REMARK VINA RESULT:      -2.5     12.815     12.824
REMARK  0 active torsions:
REMARK  status: ('A' for Active; 'I' for Inactive)
ROOT
HETATM    1  C1  UNL     1     -34.766  13.201  -4.916  1.00 20.00     0.178 C 
HETATM    2  C2  UNL     1     -35.781  14.015  -4.135  1.00 20.00     0.102 C 
HETATM    3  C3  UNL     1     -33.262  14.408  -3.642  1.00 20.00     0.241 C 
HETATM    4  O4  UNL     1     -33.578  13.098  -4.122  1.00 20.00    -0.381 OA
HETATM    5  S5  UNL     1     -34.785  15.356  -3.460  1.00 20.00    -0.141 SA
ENDROOT
TORSDOF 0
ENDMDL
MODEL 7
REMARK VINA RESULT:      -2.4     12.652     12.940
REMARK  0 active torsions:
REMARK  status: ('A' for Active; 'I' for Inactive)
ROOT
HETATM    1  C1  UNL     1     -33.128  13.778  -3.646  1.00 20.00     0.178 C 
HETATM    2  C2  UNL     1     -33.548  15.233  -3.741  1.00 20.00     0.102 C 
HETATM    3  C3  UNL     1     -35.324  13.414  -4.268  1.00 20.00     0.241 C 
HETATM    4  O4  UNL     1     -33.972  13.017  -4.518  1.00 20.00    -0.381 OA
HETATM    5  S5  UNL     1     -35.346  15.134  -3.725  1.00 20.00    -0.141 SA
ENDROOT
TORSDOF 0
ENDMDL
MODEL 8
REMARK VINA RESULT:      -2.4      9.280      9.888
REMARK  0 active torsions:
REMARK  status: ('A' for Active; 'I' for Inactive)
ROOT
HETATM    1  C1  UNL     1     -40.759   5.843  -0.461  1.00 20.00     0.178 C 
HETATM    2  C2  UNL     1     -41.323   6.828  -1.467  1.00 20.00     0.102 C 
HETATM    3  C3  UNL     1     -41.575   4.293  -1.968  1.00 20.00     0.241 C 
HETATM    4  O4  UNL     1     -40.446   4.630  -1.158  1.00 20.00    -0.381 OA
HETATM    5  S5  UNL     1     -42.431   5.805  -2.452  1.00 20.00    -0.141 SA
ENDROOT
TORSDOF 0
ENDMDL
MODEL 9
REMARK VINA RESULT:      -2.3      9.190      9.789
REMARK  0 active torsions:
REMARK  status: ('A' for Active; 'I' for Inactive)
ROOT
HETATM    1  C1  UNL     1     -41.965   6.061  -2.296  1.00 20.00     0.178 C 
HETATM    2  C2  UNL     1     -42.045   4.614  -1.847  1.00 20.00     0.102 C 
HETATM    3  C3  UNL     1     -40.868   6.316  -0.278  1.00 20.00     0.241 C 
HETATM    4  O4  UNL     1     -40.824   6.657  -1.666  1.00 20.00    -0.381 OA
HETATM    5  S5  UNL     1     -41.689   4.721  -0.084  1.00 20.00    -0.141 SA
ENDROOT
TORSDOF 0
ENDMDL
