MODEL 1
REMARK VINA RESULT:      -3.4      0.000      0.000
REMARK  1 active torsions:
REMARK  status: ('A' for Active; 'I' for Inactive)
REMARK    1  A    between atoms: N5_5  and  N6_6 
ROOT
HETATM    1  C1  UNL     1     -33.184   6.379   4.133  1.00 20.00     0.101 C 
HETATM    2  C2  UNL     1     -32.406   6.776   2.918  1.00 20.00     0.058 C 
HETATM    3  N5  UNL     1     -34.264   5.678   4.021  1.00 20.00    -0.217 NA
ENDROOT
BRANCH   3   4
HETATM    4  N6  UNL     1     -34.843   5.416   5.221  1.00 20.00    -0.217 NA
HETATM    5  C3  UNL     1     -34.238   6.150   6.336  1.00 20.00     0.138 C 
HETATM    6  C4  UNL     1     -34.918   3.992   5.577  1.00 20.00     0.138 C 
ENDBRANCH   3   4
TORSDOF 1
ENDMDL
MODEL 2
REMARK VINA RESULT:      -3.3      0.872      1.544
REMARK  1 active torsions:
REMARK  status: ('A' for Active; 'I' for Inactive)
REMARK    1  A    between atoms: N5_5  and  N6_6 
ROOT
HETATM    1  C1  UNL     1     -32.641   6.543   3.580  1.00 20.00     0.101 C 
HETATM    2  C2  UNL     1     -32.180   7.550   2.574  1.00 20.00     0.058 C 
HETATM    3  N5  UNL     1     -33.861   6.552   4.007  1.00 20.00    -0.217 NA
ENDROOT
BRANCH   3   4
HETATM    4  N6  UNL     1     -34.101   5.574   4.919  1.00 20.00    -0.217 NA
HETATM    5  C3  UNL     1     -35.242   4.721   4.574  1.00 20.00     0.138 C 
HETATM    6  C4  UNL     1     -34.259   6.040   6.303  1.00 20.00     0.138 C 
ENDBRANCH   3   4
TORSDOF 1
ENDMDL
MODEL 3
REMARK VINA RESULT:      -3.1      1.218      3.385
REMARK  1 active torsions:
REMARK  status: ('A' for Active; 'I' for Inactive)
REMARK    1  A    between atoms: N5_5  and  N6_6 
ROOT
HETATM    1  C1  UNL     1     -34.669   5.098   5.012  1.00 20.00     0.101 C 
HETATM    2  C2  UNL     1     -35.093   4.564   6.345  1.00 20.00     0.058 C 
HETATM    3  N5  UNL     1     -33.884   6.122   4.935  1.00 20.00    -0.217 NA
ENDROOT
BRANCH   3   4
HETATM    4  N6  UNL     1     -33.610   6.474   3.652  1.00 20.00    -0.217 NA
HETATM    5  C3  UNL     1     -34.062   5.489   2.666  1.00 20.00     0.138 C 
HETATM    6  C4  UNL     1     -32.203   6.800   3.384  1.00 20.00     0.138 C 
ENDBRANCH   3   4
TORSDOF 1
ENDMDL
MODEL 4
REMARK VINA RESULT:      -2.8      9.971     10.230
REMARK  1 active torsions:
REMARK  status: ('A' for Active; 'I' for Inactive)
REMARK    1  A    between atoms: N5_5  and  N6_6 
ROOT
HETATM    1  C1  UNL     1     -42.211   6.506  -2.629  1.00 20.00     0.101 C 
HETATM    2  C2  UNL     1     -42.676   7.593  -3.546  1.00 20.00     0.058 C 
HETATM    3  N5  UNL     1     -41.102   6.625  -1.977  1.00 20.00    -0.217 NA
ENDROOT
BRANCH   3   4
HETATM    4  N6  UNL     1     -40.834   5.544  -1.200  1.00 20.00    -0.217 NA
HETATM    5  C3  UNL     1     -41.287   4.278  -1.782  1.00 20.00     0.138 C 
HETATM    6  C4  UNL     1     -41.326   5.635   0.182  1.00 20.00     0.138 C 
ENDBRANCH   3   4
TORSDOF 1
ENDMDL
MODEL 5
REMARK VINA RESULT:      -2.8      1.824      2.430
REMARK  1 active torsions:
REMARK  status: ('A' for Active; 'I' for Inactive)
REMARK    1  A    between atoms: N5_5  and  N6_6 
ROOT
HETATM    1  C1  UNL     1     -34.049   6.375   6.333  1.00 20.00     0.101 C 
HETATM    2  C2  UNL     1     -33.400   7.525   7.039  1.00 20.00     0.058 C 
HETATM    3  N5  UNL     1     -33.814   6.156   5.081  1.00 20.00    -0.217 NA
ENDROOT
BRANCH   3   4
HETATM    4  N6  UNL     1     -34.489   5.079   4.604  1.00 20.00    -0.217 NA
HETATM    5  C3  UNL     1     -35.629   5.432   3.754  1.00 20.00     0.138 C 
HETATM    6  C4  UNL     1     -34.938   4.124   5.626  1.00 20.00     0.138 C 
ENDBRANCH   3   4
TORSDOF 1
ENDMDL
MODEL 6
REMARK VINA RESULT:      -2.7      9.644     10.085
REMARK  1 active torsions:
REMARK  status: ('A' for Active; 'I' for Inactive)
REMARK    1  A    between atoms: N5_5  and  N6_6 
ROOT
HETATM    1  C1  UNL     1     -41.757   4.002  -2.310  1.00 20.00     0.101 C 
HETATM    2  C2  UNL     1     -41.791   2.673  -2.997  1.00 20.00     0.058 C 
HETATM    3  N5  UNL     1     -40.696   4.391  -1.682  1.00 20.00    -0.217 NA
ENDROOT
BRANCH   3   4
HETATM    4  N6  UNL     1     -40.845   5.615  -1.114  1.00 20.00    -0.217 NA
HETATM    5  C3  UNL     1     -41.495   5.576   0.199  1.00 20.00     0.138 C 
HETATM    6  C4  UNL     1     -41.527   6.611  -1.951  1.00 20.00     0.138 C 
ENDBRANCH   3   4
TORSDOF 1
ENDMDL
MODEL 7
REMARK VINA RESULT:      -2.7     12.326     13.064
REMARK  1 active torsions:
REMARK  status: ('A' for Active; 'I' for Inactive)
REMARK    1  A    between atoms: N5_5  and  N6_6 
ROOT
HETATM    1  C1  UNL     1     -34.037  16.226  -2.404  1.00 20.00     0.101 C 
HETATM    2  C2  UNL     1     -34.620  16.536  -1.061  1.00 20.00     0.058 C 
HETATM    3  N5  UNL     1     -34.289  15.099  -2.985  1.00 20.00    -0.217 NA
ENDROOT
BRANCH   3   4
HETATM    4  N6  UNL     1     -33.674  14.984  -4.190  1.00 20.00    -0.217 NA
HETATM    5  C3  UNL     1     -33.229  16.266  -4.745  1.00 20.00     0.138 C 
HETATM    6  C4  UNL     1     -34.444  14.265  -5.215  1.00 20.00     0.138 C 
ENDBRANCH   3   4
TORSDOF 1
ENDMDL
MODEL 8
REMARK VINA RESULT:      -2.7     12.090     12.470
REMARK  1 active torsions:
REMARK  status: ('A' for Active; 'I' for Inactive)
REMARK    1  A    between atoms: N5_5  and  N6_6 
ROOT
HETATM    1  C1  UNL     1     -35.134  16.014  -2.292  1.00 20.00     0.101 C 
HETATM    2  C2  UNL     1     -34.512  16.607  -1.067  1.00 20.00     0.058 C 
HETATM    3  N5  UNL     1     -34.549  15.051  -2.925  1.00 20.00    -0.217 NA
ENDROOT
BRANCH   3   4
HETATM    4  N6  UNL     1     -35.249  14.640  -4.014  1.00 20.00    -0.217 NA
HETATM    5  C3  UNL     1     -36.702  14.729  -3.843  1.00 20.00     0.138 C 
HETATM    6  C4  UNL     1     -34.910  13.297  -4.501  1.00 20.00     0.138 C 
ENDBRANCH   3   4
TORSDOF 1
ENDMDL
MODEL 9
REMARK VINA RESULT:      -2.5      1.935      3.753
REMARK  1 active torsions:
REMARK  status: ('A' for Active; 'I' for Inactive)
REMARK    1  A    between atoms: N5_5  and  N6_6 
ROOT
HETATM    1  C1  UNL     1     -33.483   6.094   4.100  1.00 20.00     0.101 C 
HETATM    2  C2  UNL     1     -34.722   5.328   4.443  1.00 20.00     0.058 C 
HETATM    3  N5  UNL     1     -33.263   6.479   2.886  1.00 20.00    -0.217 NA
ENDROOT
BRANCH   3   4
HETATM    4  N6  UNL     1     -32.091   7.154   2.757  1.00 20.00    -0.217 NA
HETATM    5  C3  UNL     1     -31.500   7.551   4.038  1.00 20.00     0.138 C 
HETATM    6  C4  UNL     1     -32.143   8.327   1.874  1.00 20.00     0.138 C 
ENDBRANCH   3   4
TORSDOF 1
ENDMDL
