MODEL 1
REMARK VINA RESULT:      -4.4      0.000      0.000
REMARK  0 active torsions:
REMARK  status: ('A' for Active; 'I' for Inactive)
ROOT
HETATM    1  C1  UNL     1     -34.409   5.803   6.329  1.00 20.00    -0.025 A 
HETATM    2  C2  UNL     1     -35.108   4.723   5.943  1.00 20.00     0.003 A 
HETATM    3  C3  UNL     1     -33.856   6.511   5.114  1.00 20.00     0.061 A 
HETATM    4  C4  UNL     1     -35.153   4.553   4.483  1.00 20.00     0.173 A 
HETATM    5  C5  UNL     1     -34.258   5.649   3.940  1.00 20.00     0.158 A 
HETATM    6  O6  UNL     1     -35.645   5.583   3.610  1.00 20.00    -0.371 OA
ENDROOT
TORSDOF 0
ENDMDL
MODEL 2
REMARK VINA RESULT:      -4.3      1.040      1.858
REMARK  0 active torsions:
REMARK  status: ('A' for Active; 'I' for Inactive)
ROOT
HETATM    1  C1  UNL     1     -34.735   4.967   6.172  1.00 20.00    -0.025 A 
HETATM    2  C2  UNL     1     -34.108   6.139   5.981  1.00 20.00     0.003 A 
HETATM    3  C3  UNL     1     -35.166   4.398   4.840  1.00 20.00     0.061 A 
HETATM    4  C4  UNL     1     -34.004   6.516   4.563  1.00 20.00     0.173 A 
HETATM    5  C5  UNL     1     -34.777   5.444   3.821  1.00 20.00     0.158 A 
HETATM    6  O6  UNL     1     -33.386   5.659   3.589  1.00 20.00    -0.371 OA
ENDROOT
TORSDOF 0
ENDMDL
MODEL 3
REMARK VINA RESULT:      -4.3      1.206      2.005
REMARK  0 active torsions:
REMARK  status: ('A' for Active; 'I' for Inactive)
ROOT
HETATM    1  C1  UNL     1     -33.756   6.435   4.747  1.00 20.00    -0.025 A 
HETATM    2  C2  UNL     1     -34.437   5.627   3.917  1.00 20.00     0.003 A 
HETATM    3  C3  UNL     1     -34.082   6.081   6.179  1.00 20.00     0.061 A 
HETATM    4  C4  UNL     1     -35.268   4.640   4.621  1.00 20.00     0.173 A 
HETATM    5  C5  UNL     1     -35.125   4.991   6.089  1.00 20.00     0.158 A 
HETATM    6  O6  UNL     1     -34.715   3.722   5.580  1.00 20.00    -0.371 OA
ENDROOT
TORSDOF 0
ENDMDL
MODEL 4
REMARK VINA RESULT:      -4.1      0.714      1.343
REMARK  0 active torsions:
REMARK  status: ('A' for Active; 'I' for Inactive)
ROOT
HETATM    1  C1  UNL     1     -35.080   4.735   6.064  1.00 20.00    -0.025 A 
HETATM    2  C2  UNL     1     -35.112   4.415   4.760  1.00 20.00     0.003 A 
HETATM    3  C3  UNL     1     -34.207   5.951   6.268  1.00 20.00     0.061 A 
HETATM    4  C4  UNL     1     -34.326   5.330   3.920  1.00 20.00     0.173 A 
HETATM    5  C5  UNL     1     -33.651   6.270   4.899  1.00 20.00     0.158 A 
HETATM    6  O6  UNL     1     -34.560   6.748   3.908  1.00 20.00    -0.371 OA
ENDROOT
TORSDOF 0
ENDMDL
MODEL 5
REMARK VINA RESULT:      -4.0      1.434      2.601
REMARK  0 active torsions:
REMARK  status: ('A' for Active; 'I' for Inactive)
ROOT
HETATM    1  C1  UNL     1     -35.260   5.017   4.140  1.00 20.00    -0.025 A 
HETATM    2  C2  UNL     1     -34.365   6.004   3.974  1.00 20.00     0.003 A 
HETATM    3  C3  UNL     1     -35.182   4.492   5.555  1.00 20.00     0.061 A 
HETATM    4  C4  UNL     1     -33.597   6.300   5.193  1.00 20.00     0.173 A 
HETATM    5  C5  UNL     1     -34.047   5.257   6.196  1.00 20.00     0.158 A 
HETATM    6  O6  UNL     1     -34.236   6.652   6.431  1.00 20.00    -0.371 OA
ENDROOT
TORSDOF 0
ENDMDL
MODEL 6
REMARK VINA RESULT:      -3.4     12.400     12.476
REMARK  0 active torsions:
REMARK  status: ('A' for Active; 'I' for Inactive)
ROOT
HETATM    1  C1  UNL     1     -34.207  15.205  -2.980  1.00 20.00    -0.025 A 
HETATM    2  C2  UNL     1     -33.406  14.445  -3.745  1.00 20.00     0.003 A 
HETATM    3  C3  UNL     1     -35.650  14.953  -3.350  1.00 20.00     0.061 A 
HETATM    4  C4  UNL     1     -34.144  13.589  -4.685  1.00 20.00     0.173 A 
HETATM    5  C5  UNL     1     -35.597  13.986  -4.509  1.00 20.00     0.158 A 
HETATM    6  O6  UNL     1     -35.146  12.658  -4.244  1.00 20.00    -0.371 OA
ENDROOT
TORSDOF 0
ENDMDL
MODEL 7
REMARK VINA RESULT:      -3.2      8.336      9.071
REMARK  0 active torsions:
REMARK  status: ('A' for Active; 'I' for Inactive)
ROOT
HETATM    1  C1  UNL     1     -41.150   7.132  -1.057  1.00 20.00    -0.025 A 
HETATM    2  C2  UNL     1     -41.714   6.483  -2.088  1.00 20.00     0.003 A 
HETATM    3  C3  UNL     1     -40.741   6.140   0.006  1.00 20.00     0.061 A 
HETATM    4  C4  UNL     1     -41.753   5.025  -1.903  1.00 20.00     0.173 A 
HETATM    5  C5  UNL     1     -41.217   4.799  -0.503  1.00 20.00     0.158 A 
HETATM    6  O6  UNL     1     -40.565   4.256  -1.651  1.00 20.00    -0.371 OA
ENDROOT
TORSDOF 0
ENDMDL
MODEL 8
REMARK VINA RESULT:      -3.2     12.377     12.507
REMARK  0 active torsions:
REMARK  status: ('A' for Active; 'I' for Inactive)
ROOT
HETATM    1  C1  UNL     1     -35.529  15.004  -3.242  1.00 20.00    -0.025 A 
HETATM    2  C2  UNL     1     -34.243  15.348  -3.062  1.00 20.00     0.003 A 
HETATM    3  C3  UNL     1     -35.614  13.842  -4.204  1.00 20.00     0.061 A 
HETATM    4  C4  UNL     1     -33.306  14.503  -3.817  1.00 20.00     0.173 A 
HETATM    5  C5  UNL     1     -34.190  13.588  -4.642  1.00 20.00     0.158 A 
HETATM    6  O6  UNL     1     -33.280  13.073  -3.671  1.00 20.00    -0.371 OA
ENDROOT
TORSDOF 0
ENDMDL
MODEL 9
REMARK VINA RESULT:      -3.2     12.218     12.727
REMARK  0 active torsions:
REMARK  status: ('A' for Active; 'I' for Inactive)
ROOT
HETATM    1  C1  UNL     1     -35.573  15.160  -3.473  1.00 20.00    -0.025 A 
HETATM    2  C2  UNL     1     -34.389  14.577  -3.228  1.00 20.00     0.003 A 
HETATM    3  C3  UNL     1     -36.099  14.699  -4.812  1.00 20.00     0.061 A 
HETATM    4  C4  UNL     1     -33.961  13.662  -4.296  1.00 20.00     0.173 A 
HETATM    5  C5  UNL     1     -35.014  13.811  -5.377  1.00 20.00     0.158 A 
HETATM    6  O6  UNL     1     -34.777  12.561  -4.730  1.00 20.00    -0.371 OA
ENDROOT
TORSDOF 0
ENDMDL
