MODEL 1
REMARK VINA RESULT:      -4.6      0.000      0.000
REMARK  1 active torsions:
REMARK  status: ('A' for Active; 'I' for Inactive)
REMARK    1  A    between atoms: C1_1  and  C6_6 
ROOT
HETATM    1  C2  UNL     1     -34.239  13.558  -4.737  1.00 20.00     0.002 C 
HETATM    2  C3  UNL     1     -33.474  14.146  -3.555  1.00 20.00     0.012 C 
HETATM    3  C4  UNL     1     -35.744  13.546  -4.485  1.00 20.00     0.009 C 
HETATM    4  C5  UNL     1     -35.510  15.584  -2.992  1.00 20.00     0.021 C 
HETATM    5  C6  UNL     1     -33.983  15.521  -3.128  1.00 20.00     0.055 C 
HETATM    6  C7  UNL     1     -36.318  14.937  -4.144  1.00 20.00    -0.047 C 
HETATM    7  C9  UNL     1     -36.330  15.838  -5.394  1.00 20.00     0.015 C 
HETATM    8  C10 UNL     1     -37.781  14.771  -3.685  1.00 20.00     0.015 C 
ENDROOT
BRANCH   5   9
HETATM    9  C1  UNL     1     -33.467  16.609  -4.023  1.00 20.00     0.127 C 
HETATM   10  C8  UNL     1     -33.868  18.017  -3.676  1.00 20.00     0.091 C 
HETATM   11  O11 UNL     1     -32.749  16.363  -4.990  1.00 20.00    -0.298 OA
ENDBRANCH   5   9
TORSDOF 1
ENDMDL
MODEL 2
REMARK VINA RESULT:      -4.4      1.714      3.692
REMARK  1 active torsions:
REMARK  status: ('A' for Active; 'I' for Inactive)
REMARK    1  A    between atoms: C1_1  and  C6_6 
ROOT
HETATM    1  C2  UNL     1     -35.038  16.976  -5.247  1.00 20.00     0.002 C 
HETATM    2  C3  UNL     1     -36.282  16.092  -5.225  1.00 20.00     0.012 C 
HETATM    3  C4  UNL     1     -34.600  17.369  -3.839  1.00 20.00     0.009 C 
HETATM    4  C5  UNL     1     -35.576  15.211  -2.933  1.00 20.00     0.021 C 
HETATM    5  C6  UNL     1     -36.142  14.872  -4.317  1.00 20.00     0.055 C 
HETATM    6  C7  UNL     1     -34.351  16.158  -2.915  1.00 20.00    -0.047 C 
HETATM    7  C9  UNL     1     -33.065  15.418  -3.327  1.00 20.00     0.015 C 
HETATM    8  C10 UNL     1     -34.145  16.668  -1.474  1.00 20.00     0.015 C 
ENDROOT
BRANCH   5   9
HETATM    9  C1  UNL     1     -35.358  13.776  -4.977  1.00 20.00     0.127 C 
HETATM   10  C8  UNL     1     -35.015  13.970  -6.430  1.00 20.00     0.091 C 
HETATM   11  O11 UNL     1     -35.010  12.770  -4.362  1.00 20.00    -0.298 OA
ENDBRANCH   5   9
TORSDOF 1
ENDMDL
MODEL 3
REMARK VINA RESULT:      -4.4      1.684      2.671
REMARK  1 active torsions:
REMARK  status: ('A' for Active; 'I' for Inactive)
REMARK    1  A    between atoms: C1_1  and  C6_6 
ROOT
HETATM    1  C2  UNL     1     -34.515  16.718  -5.816  1.00 20.00     0.002 C 
HETATM    2  C3  UNL     1     -33.388  17.121  -4.869  1.00 20.00     0.012 C 
HETATM    3  C4  UNL     1     -34.614  15.203  -5.963  1.00 20.00     0.009 C 
HETATM    4  C5  UNL     1     -33.697  14.916  -3.615  1.00 20.00     0.021 C 
HETATM    5  C6  UNL     1     -33.464  16.428  -3.510  1.00 20.00     0.055 C 
HETATM    6  C7  UNL     1     -34.791  14.468  -4.617  1.00 20.00    -0.047 C 
HETATM    7  C9  UNL     1     -36.202  14.709  -4.050  1.00 20.00     0.015 C 
HETATM    8  C10 UNL     1     -34.646  12.952  -4.857  1.00 20.00     0.015 C 
ENDROOT
BRANCH   5   9
HETATM    9  C1  UNL     1     -34.473  17.078  -2.609  1.00 20.00     0.127 C 
HETATM   10  C8  UNL     1     -34.647  16.473  -1.242  1.00 20.00     0.091 C 
HETATM   11  O11 UNL     1     -35.123  18.056  -2.969  1.00 20.00    -0.298 OA
ENDBRANCH   5   9
TORSDOF 1
ENDMDL
MODEL 4
REMARK VINA RESULT:      -4.4      1.818      3.359
REMARK  1 active torsions:
REMARK  status: ('A' for Active; 'I' for Inactive)
REMARK    1  A    between atoms: C1_1  and  C6_6 
ROOT
HETATM    1  C2  UNL     1     -36.977  15.326  -5.111  1.00 20.00     0.002 C 
HETATM    2  C3  UNL     1     -36.676  14.973  -3.657  1.00 20.00     0.012 C 
HETATM    3  C4  UNL     1     -36.317  16.640  -5.521  1.00 20.00     0.009 C 
HETATM    4  C5  UNL     1     -34.458  16.228  -3.844  1.00 20.00     0.021 C 
HETATM    5  C6  UNL     1     -35.184  14.979  -3.329  1.00 20.00     0.055 C 
HETATM    6  C7  UNL     1     -34.790  16.653  -5.296  1.00 20.00    -0.047 C 
HETATM    7  C9  UNL     1     -34.084  15.745  -6.321  1.00 20.00     0.015 C 
HETATM    8  C10 UNL     1     -34.269  18.087  -5.520  1.00 20.00     0.015 C 
ENDROOT
BRANCH   5   9
HETATM    9  C1  UNL     1     -34.508  13.722  -3.790  1.00 20.00     0.127 C 
HETATM   10  C8  UNL     1     -33.020  13.639  -3.579  1.00 20.00     0.091 C 
HETATM   11  O11 UNL     1     -35.137  12.804  -4.311  1.00 20.00    -0.298 OA
ENDBRANCH   5   9
TORSDOF 1
ENDMDL
MODEL 5
REMARK VINA RESULT:      -4.3      1.358      1.769
REMARK  1 active torsions:
REMARK  status: ('A' for Active; 'I' for Inactive)
REMARK    1  A    between atoms: C1_1  and  C6_6 
ROOT
HETATM    1  C2  UNL     1     -34.662  14.387  -6.181  1.00 20.00     0.002 C 
HETATM    2  C3  UNL     1     -34.418  13.567  -4.918  1.00 20.00     0.012 C 
HETATM    3  C4  UNL     1     -36.127  14.789  -6.318  1.00 20.00     0.009 C 
HETATM    4  C5  UNL     1     -36.366  14.778  -3.793  1.00 20.00     0.021 C 
HETATM    5  C6  UNL     1     -34.937  14.240  -3.649  1.00 20.00     0.055 C 
HETATM    6  C7  UNL     1     -36.666  15.561  -5.095  1.00 20.00    -0.047 C 
HETATM    7  C9  UNL     1     -36.071  16.980  -5.045  1.00 20.00     0.015 C 
HETATM    8  C10 UNL     1     -38.195  15.709  -5.237  1.00 20.00     0.015 C 
ENDROOT
BRANCH   5   9
HETATM    9  C1  UNL     1     -33.997  15.302  -3.159  1.00 20.00     0.127 C 
HETATM   10  C8  UNL     1     -34.440  16.094  -1.958  1.00 20.00     0.091 C 
HETATM   11  O11 UNL     1     -32.918  15.513  -3.708  1.00 20.00    -0.298 OA
ENDBRANCH   5   9
TORSDOF 1
ENDMDL
MODEL 6
REMARK VINA RESULT:      -4.3      1.989      2.953
REMARK  1 active torsions:
REMARK  status: ('A' for Active; 'I' for Inactive)
REMARK    1  A    between atoms: C1_1  and  C6_6 
ROOT
HETATM    1  C2  UNL     1     -33.319  16.579  -5.122  1.00 20.00     0.002 C 
HETATM    2  C3  UNL     1     -33.092  15.481  -4.087  1.00 20.00     0.012 C 
HETATM    3  C4  UNL     1     -33.834  16.011  -6.442  1.00 20.00     0.009 C 
HETATM    4  C5  UNL     1     -34.937  14.101  -5.190  1.00 20.00     0.021 C 
HETATM    5  C6  UNL     1     -34.310  14.585  -3.877  1.00 20.00     0.055 C 
HETATM    6  C7  UNL     1     -35.123  15.177  -6.288  1.00 20.00    -0.047 C 
HETATM    7  C9  UNL     1     -36.325  16.090  -5.979  1.00 20.00     0.015 C 
HETATM    8  C10 UNL     1     -35.418  14.469  -7.626  1.00 20.00     0.015 C 
ENDROOT
BRANCH   5   9
HETATM    9  C1  UNL     1     -35.330  15.232  -2.987  1.00 20.00     0.127 C 
HETATM   10  C8  UNL     1     -34.807  16.159  -1.923  1.00 20.00     0.091 C 
HETATM   11  O11 UNL     1     -36.533  15.019  -3.122  1.00 20.00    -0.298 OA
ENDBRANCH   5   9
TORSDOF 1
ENDMDL
MODEL 7
REMARK VINA RESULT:      -4.3      1.831      3.167
REMARK  1 active torsions:
REMARK  status: ('A' for Active; 'I' for Inactive)
REMARK    1  A    between atoms: C1_1  and  C6_6 
ROOT
HETATM    1  C2  UNL     1     -34.782  16.777  -4.615  1.00 20.00     0.002 C 
HETATM    2  C3  UNL     1     -33.895  15.923  -5.517  1.00 20.00     0.012 C 
HETATM    3  C4  UNL     1     -36.199  16.899  -5.169  1.00 20.00     0.009 C 
HETATM    4  C5  UNL     1     -35.963  14.625  -6.270  1.00 20.00     0.021 C 
HETATM    5  C6  UNL     1     -34.494  14.555  -5.836  1.00 20.00     0.055 C 
HETATM    6  C7  UNL     1     -36.879  15.535  -5.413  1.00 20.00    -0.047 C 
HETATM    7  C9  UNL     1     -37.243  14.863  -4.076  1.00 20.00     0.015 C 
HETATM    8  C10 UNL     1     -38.196  15.769  -6.181  1.00 20.00     0.015 C 
ENDROOT
BRANCH   5   9
HETATM    9  C1  UNL     1     -34.301  13.587  -4.706  1.00 20.00     0.127 C 
HETATM   10  C8  UNL     1     -33.237  13.928  -3.697  1.00 20.00     0.091 C 
HETATM   11  O11 UNL     1     -34.980  12.567  -4.607  1.00 20.00    -0.298 OA
ENDBRANCH   5   9
TORSDOF 1
ENDMDL
MODEL 8
REMARK VINA RESULT:      -4.3      1.729      3.729
REMARK  1 active torsions:
REMARK  status: ('A' for Active; 'I' for Inactive)
REMARK    1  A    between atoms: C1_1  and  C6_6 
ROOT
HETATM    1  C2  UNL     1     -35.989  15.718  -3.195  1.00 20.00     0.002 C 
HETATM    2  C3  UNL     1     -36.610  14.536  -3.935  1.00 20.00     0.012 C 
HETATM    3  C4  UNL     1     -34.538  15.444  -2.812  1.00 20.00     0.009 C 
HETATM    4  C5  UNL     1     -34.295  13.915  -4.822  1.00 20.00     0.021 C 
HETATM    5  C6  UNL     1     -35.788  14.075  -5.137  1.00 20.00     0.055 C 
HETATM    6  C7  UNL     1     -33.648  15.068  -4.015  1.00 20.00    -0.047 C 
HETATM    7  C9  UNL     1     -33.391  16.299  -4.904  1.00 20.00     0.015 C 
HETATM    8  C10 UNL     1     -32.279  14.590  -3.489  1.00 20.00     0.015 C 
ENDROOT
BRANCH   5   9
HETATM    9  C1  UNL     1     -36.006  14.956  -6.331  1.00 20.00     0.127 C 
HETATM   10  C8  UNL     1     -35.221  14.620  -7.571  1.00 20.00     0.091 C 
HETATM   11  O11 UNL     1     -36.788  15.903  -6.301  1.00 20.00    -0.298 OA
ENDBRANCH   5   9
TORSDOF 1
ENDMDL
MODEL 9
REMARK VINA RESULT:      -4.1      1.742      2.182
REMARK  1 active torsions:
REMARK  status: ('A' for Active; 'I' for Inactive)
REMARK    1  A    between atoms: C1_1  and  C6_6 
ROOT
HETATM    1  C2  UNL     1     -33.310  16.278  -5.064  1.00 20.00     0.002 C 
HETATM    2  C3  UNL     1     -32.933  15.485  -3.816  1.00 20.00     0.012 C 
HETATM    3  C4  UNL     1     -34.659  15.837  -5.627  1.00 20.00     0.009 C 
HETATM    4  C5  UNL     1     -35.416  15.181  -3.296  1.00 20.00     0.021 C 
HETATM    5  C6  UNL     1     -34.019  15.491  -2.743  1.00 20.00     0.055 C 
HETATM    6  C7  UNL     1     -35.807  15.921  -4.599  1.00 20.00    -0.047 C 
HETATM    7  C9  UNL     1     -36.177  17.390  -4.320  1.00 20.00     0.015 C 
HETATM    8  C10 UNL     1     -37.056  15.239  -5.195  1.00 20.00     0.015 C 
ENDROOT
BRANCH   5   9
HETATM    9  C1  UNL     1     -34.013  16.766  -1.952  1.00 20.00     0.127 C 
HETATM   10  C8  UNL     1     -34.714  16.739  -0.621  1.00 20.00     0.091 C 
HETATM   11  O11 UNL     1     -33.460  17.782  -2.369  1.00 20.00    -0.298 OA
ENDBRANCH   5   9
TORSDOF 1
ENDMDL
