MODEL 1
REMARK VINA RESULT:      -3.7      0.000      0.000
REMARK  4 active torsions:
REMARK  status: ('A' for Active; 'I' for Inactive)
REMARK    1  A    between atoms: C5_5  and  C7_7 
REMARK    2  A    between atoms: C5_5  and  C8_8 
REMARK    3  A    between atoms: C6_6  and  C7_7 
REMARK    4  A    between atoms: C6_6  and  S9_9 
ROOT
HETATM    1  C5  UNL     1     -34.980  15.557  -3.036  1.00 20.00     0.013 C 
ENDROOT
BRANCH   1   2
HETATM    2  C7  UNL     1     -34.112  16.467  -2.131  1.00 20.00    -0.009 C 
HETATM    3  C1  UNL     1     -34.666  16.648  -0.717  1.00 20.00     0.011 C 
BRANCH   2   4
HETATM    4  C6  UNL     1     -33.847  17.837  -2.802  1.00 20.00     0.075 C 
BRANCH   4   5
HETATM    5  S9  UNL     1     -33.329  19.177  -1.683  1.00 20.00    -0.182 SA
HETATM    6  H27 UNL     1     -34.293  18.977  -0.775  1.00 20.00     0.101 HD
ENDBRANCH   4   5
ENDBRANCH   2   4
ENDBRANCH   1   2
BRANCH   1   7
HETATM    7  C8  UNL     1     -34.283  14.621  -4.068  1.00 20.00    -0.051 C 
HETATM    8  C2  UNL     1     -34.173  15.270  -5.457  1.00 20.00     0.014 C 
HETATM    9  C3  UNL     1     -32.889  14.175  -3.595  1.00 20.00     0.014 C 
HETATM   10  C4  UNL     1     -35.148  13.345  -4.200  1.00 20.00     0.014 C 
ENDBRANCH   1   7
TORSDOF 4
ENDMDL
MODEL 2
REMARK VINA RESULT:      -3.7      0.215      1.416
REMARK  4 active torsions:
REMARK  status: ('A' for Active; 'I' for Inactive)
REMARK    1  A    between atoms: C5_5  and  C7_7 
REMARK    2  A    between atoms: C5_5  and  C8_8 
REMARK    3  A    between atoms: C6_6  and  C7_7 
REMARK    4  A    between atoms: C6_6  and  S9_9 
ROOT
HETATM    1  C5  UNL     1     -34.899  15.623  -2.957  1.00 20.00     0.013 C 
ENDROOT
BRANCH   1   2
HETATM    2  C7  UNL     1     -34.090  16.572  -2.039  1.00 20.00    -0.009 C 
HETATM    3  C1  UNL     1     -34.640  16.678  -0.615  1.00 20.00     0.011 C 
BRANCH   2   4
HETATM    4  C6  UNL     1     -33.930  17.973  -2.677  1.00 20.00     0.075 C 
BRANCH   4   5
HETATM    5  S9  UNL     1     -33.245  19.263  -1.590  1.00 20.00    -0.182 SA
HETATM    6  H27 UNL     1     -33.840  20.291  -2.208  1.00 20.00     0.101 HD
ENDBRANCH   4   5
ENDBRANCH   2   4
ENDBRANCH   1   2
BRANCH   1   7
HETATM    7  C8  UNL     1     -34.142  14.708  -3.966  1.00 20.00    -0.051 C 
HETATM    8  C2  UNL     1     -32.681  14.475  -3.553  1.00 20.00     0.014 C 
HETATM    9  C3  UNL     1     -34.847  13.353  -4.156  1.00 20.00     0.014 C 
HETATM   10  C4  UNL     1     -34.149  15.421  -5.339  1.00 20.00     0.014 C 
ENDBRANCH   1   7
TORSDOF 4
ENDMDL
MODEL 3
REMARK VINA RESULT:      -3.7      0.189      1.494
REMARK  4 active torsions:
REMARK  status: ('A' for Active; 'I' for Inactive)
REMARK    1  A    between atoms: C5_5  and  C7_7 
REMARK    2  A    between atoms: C5_5  and  C8_8 
REMARK    3  A    between atoms: C6_6  and  C7_7 
REMARK    4  A    between atoms: C6_6  and  S9_9 
ROOT
HETATM    1  C5  UNL     1     -34.961  15.578  -3.016  1.00 20.00     0.013 C 
ENDROOT
BRANCH   1   2
HETATM    2  C7  UNL     1     -34.129  16.555  -2.149  1.00 20.00    -0.009 C 
HETATM    3  C1  UNL     1     -34.602  16.658  -0.698  1.00 20.00     0.011 C 
BRANCH   2   4
HETATM    4  C6  UNL     1     -34.044  17.955  -2.804  1.00 20.00     0.075 C 
BRANCH   4   5
HETATM    5  S9  UNL     1     -33.298  19.263  -1.780  1.00 20.00    -0.182 SA
HETATM    6  H27 UNL     1     -32.107  19.253  -2.394  1.00 20.00     0.101 HD
ENDBRANCH   4   5
ENDBRANCH   2   4
ENDBRANCH   1   2
BRANCH   1   7
HETATM    7  C8  UNL     1     -34.239  14.695  -4.077  1.00 20.00    -0.051 C 
HETATM    8  C2  UNL     1     -34.868  13.298  -4.194  1.00 20.00     0.014 C 
HETATM    9  C3  UNL     1     -34.209  15.366  -5.462  1.00 20.00     0.014 C 
HETATM   10  C4  UNL     1     -32.770  14.526  -3.623  1.00 20.00     0.014 C 
ENDBRANCH   1   7
TORSDOF 4
ENDMDL
MODEL 4
REMARK VINA RESULT:      -3.4      2.461      4.574
REMARK  4 active torsions:
REMARK  status: ('A' for Active; 'I' for Inactive)
REMARK    1  A    between atoms: C5_5  and  C7_7 
REMARK    2  A    between atoms: C5_5  and  C8_8 
REMARK    3  A    between atoms: C6_6  and  C7_7 
REMARK    4  A    between atoms: C6_6  and  S9_9 
ROOT
HETATM    1  C5  UNL     1     -34.644  16.329  -1.106  1.00 20.00     0.013 C 
ENDROOT
BRANCH   1   2
HETATM    2  C7  UNL     1     -34.762  16.259  -2.649  1.00 20.00    -0.009 C 
HETATM    3  C1  UNL     1     -36.025  15.553  -3.144  1.00 20.00     0.011 C 
BRANCH   2   4
HETATM    4  C6  UNL     1     -33.494  15.636  -3.282  1.00 20.00     0.075 C 
BRANCH   4   5
HETATM    5  S9  UNL     1     -33.669  13.925  -3.880  1.00 20.00    -0.182 SA
HETATM    6  H27 UNL     1     -32.579  13.453  -3.262  1.00 20.00     0.101 HD
ENDBRANCH   4   5
ENDBRANCH   2   4
ENDBRANCH   1   2
BRANCH   1   7
HETATM    7  C8  UNL     1     -34.554  17.721  -0.410  1.00 20.00    -0.051 C 
HETATM    8  C2  UNL     1     -35.094  17.686   1.028  1.00 20.00     0.014 C 
HETATM    9  C3  UNL     1     -33.119  18.274  -0.410  1.00 20.00     0.014 C 
HETATM   10  C4  UNL     1     -35.422  18.707  -1.227  1.00 20.00     0.014 C 
ENDBRANCH   1   7
TORSDOF 4
ENDMDL
MODEL 5
REMARK VINA RESULT:      -3.3      2.380      4.176
REMARK  4 active torsions:
REMARK  status: ('A' for Active; 'I' for Inactive)
REMARK    1  A    between atoms: C5_5  and  C7_7 
REMARK    2  A    between atoms: C5_5  and  C8_8 
REMARK    3  A    between atoms: C6_6  and  C7_7 
REMARK    4  A    between atoms: C6_6  and  S9_9 
ROOT
HETATM    1  C5  UNL     1     -33.793  16.016  -2.547  1.00 20.00     0.013 C 
ENDROOT
BRANCH   1   2
HETATM    2  C7  UNL     1     -34.398  15.289  -3.773  1.00 20.00    -0.009 C 
HETATM    3  C1  UNL     1     -34.304  13.764  -3.701  1.00 20.00     0.011 C 
BRANCH   2   4
HETATM    4  C6  UNL     1     -33.794  15.820  -5.096  1.00 20.00     0.075 C 
BRANCH   4   5
HETATM    5  S9  UNL     1     -34.513  15.137  -6.623  1.00 20.00    -0.182 SA
HETATM    6  H27 UNL     1     -35.555  15.976  -6.670  1.00 20.00     0.101 HD
ENDBRANCH   4   5
ENDBRANCH   2   4
ENDBRANCH   1   2
BRANCH   1   7
HETATM    7  C8  UNL     1     -34.610  17.146  -1.850  1.00 20.00    -0.051 C 
HETATM    8  C2  UNL     1     -36.018  17.294  -2.445  1.00 20.00     0.014 C 
HETATM    9  C3  UNL     1     -34.710  16.932  -0.330  1.00 20.00     0.014 C 
HETATM   10  C4  UNL     1     -33.850  18.475  -2.073  1.00 20.00     0.014 C 
ENDBRANCH   1   7
TORSDOF 4
ENDMDL
MODEL 6
REMARK VINA RESULT:      -3.3      2.669      4.229
REMARK  4 active torsions:
REMARK  status: ('A' for Active; 'I' for Inactive)
REMARK    1  A    between atoms: C5_5  and  C7_7 
REMARK    2  A    between atoms: C5_5  and  C8_8 
REMARK    3  A    between atoms: C6_6  and  C7_7 
REMARK    4  A    between atoms: C6_6  and  S9_9 
ROOT
HETATM    1  C5  UNL     1     -34.472  15.544  -5.212  1.00 20.00     0.013 C 
ENDROOT
BRANCH   1   2
HETATM    2  C7  UNL     1     -35.521  14.873  -6.134  1.00 20.00    -0.009 C 
HETATM    3  C1  UNL     1     -35.049  14.681  -7.576  1.00 20.00     0.011 C 
BRANCH   2   4
HETATM    4  C6  UNL     1     -36.872  15.626  -6.088  1.00 20.00     0.075 C 
BRANCH   4   5
HETATM    5  S9  UNL     1     -37.983  15.174  -4.717  1.00 20.00    -0.182 SA
HETATM    6  H27 UNL     1     -37.422  13.982  -4.475  1.00 20.00     0.101 HD
ENDBRANCH   4   5
ENDBRANCH   2   4
ENDBRANCH   1   2
BRANCH   1   7
HETATM    7  C8  UNL     1     -34.086  14.856  -3.868  1.00 20.00    -0.051 C 
HETATM    8  C2  UNL     1     -32.564  14.768  -3.677  1.00 20.00     0.014 C 
HETATM    9  C3  UNL     1     -34.719  15.562  -2.656  1.00 20.00     0.014 C 
HETATM   10  C4  UNL     1     -34.652  13.417  -3.902  1.00 20.00     0.014 C 
ENDBRANCH   1   7
TORSDOF 4
ENDMDL
MODEL 7
REMARK VINA RESULT:      -3.3      2.917      4.100
REMARK  4 active torsions:
REMARK  status: ('A' for Active; 'I' for Inactive)
REMARK    1  A    between atoms: C5_5  and  C7_7 
REMARK    2  A    between atoms: C5_5  and  C8_8 
REMARK    3  A    between atoms: C6_6  and  C7_7 
REMARK    4  A    between atoms: C6_6  and  S9_9 
ROOT
HETATM    1  C5  UNL     1     -34.919  16.046  -4.778  1.00 20.00     0.013 C 
ENDROOT
BRANCH   1   2
HETATM    2  C7  UNL     1     -33.961  16.571  -5.876  1.00 20.00    -0.009 C 
HETATM    3  C1  UNL     1     -33.665  18.069  -5.779  1.00 20.00     0.011 C 
BRANCH   2   4
HETATM    4  C6  UNL     1     -34.468  16.197  -7.290  1.00 20.00     0.075 C 
BRANCH   4   5
HETATM    5  S9  UNL     1     -35.360  14.615  -7.417  1.00 20.00    -0.182 SA
HETATM    6  H27 UNL     1     -36.084  14.952  -8.491  1.00 20.00     0.101 HD
ENDBRANCH   4   5
ENDBRANCH   2   4
ENDBRANCH   1   2
BRANCH   1   7
HETATM    7  C8  UNL     1     -34.349  15.165  -3.626  1.00 20.00    -0.051 C 
HETATM    8  C2  UNL     1     -34.734  15.703  -2.240  1.00 20.00     0.014 C 
HETATM    9  C3  UNL     1     -34.790  13.696  -3.751  1.00 20.00     0.014 C 
HETATM   10  C4  UNL     1     -32.806  15.187  -3.741  1.00 20.00     0.014 C 
ENDBRANCH   1   7
TORSDOF 4
ENDMDL
MODEL 8
REMARK VINA RESULT:      -3.3      2.666      4.343
REMARK  4 active torsions:
REMARK  status: ('A' for Active; 'I' for Inactive)
REMARK    1  A    between atoms: C5_5  and  C7_7 
REMARK    2  A    between atoms: C5_5  and  C8_8 
REMARK    3  A    between atoms: C6_6  and  C7_7 
REMARK    4  A    between atoms: C6_6  and  S9_9 
ROOT
HETATM    1  C5  UNL     1     -34.403  15.527  -5.265  1.00 20.00     0.013 C 
ENDROOT
BRANCH   1   2
HETATM    2  C7  UNL     1     -35.477  14.927  -6.207  1.00 20.00    -0.009 C 
HETATM    3  C1  UNL     1     -35.017  14.774  -7.657  1.00 20.00     0.011 C 
BRANCH   2   4
HETATM    4  C6  UNL     1     -36.803  15.723  -6.127  1.00 20.00     0.075 C 
BRANCH   4   5
HETATM    5  S9  UNL     1     -37.953  15.212  -4.811  1.00 20.00    -0.182 SA
HETATM    6  H27 UNL     1     -38.320  16.452  -4.463  1.00 20.00     0.101 HD
ENDBRANCH   4   5
ENDBRANCH   2   4
ENDBRANCH   1   2
BRANCH   1   7
HETATM    7  C8  UNL     1     -34.114  14.836  -3.900  1.00 20.00    -0.051 C 
HETATM    8  C2  UNL     1     -34.725  15.605  -2.719  1.00 20.00     0.014 C 
HETATM    9  C3  UNL     1     -34.604  13.377  -3.875  1.00 20.00     0.014 C 
HETATM   10  C4  UNL     1     -32.579  14.802  -3.710  1.00 20.00     0.014 C 
ENDBRANCH   1   7
TORSDOF 4
ENDMDL
MODEL 9
REMARK VINA RESULT:      -3.2      1.959      3.714
REMARK  4 active torsions:
REMARK  status: ('A' for Active; 'I' for Inactive)
REMARK    1  A    between atoms: C5_5  and  C7_7 
REMARK    2  A    between atoms: C5_5  and  C8_8 
REMARK    3  A    between atoms: C6_6  and  C7_7 
REMARK    4  A    between atoms: C6_6  and  S9_9 
ROOT
HETATM    1  C5  UNL     1     -33.731  15.822  -5.135  1.00 20.00     0.013 C 
ENDROOT
BRANCH   1   2
HETATM    2  C7  UNL     1     -34.738  15.989  -6.299  1.00 20.00    -0.009 C 
HETATM    3  C1  UNL     1     -34.586  14.945  -7.408  1.00 20.00     0.011 C 
BRANCH   2   4
HETATM    4  C6  UNL     1     -34.696  17.423  -6.880  1.00 20.00     0.075 C 
BRANCH   4   5
HETATM    5  S9  UNL     1     -33.763  18.644  -5.902  1.00 20.00    -0.182 SA
HETATM    6  H27 UNL     1     -33.040  19.115  -6.926  1.00 20.00     0.101 HD
ENDBRANCH   4   5
ENDBRANCH   2   4
ENDBRANCH   1   2
BRANCH   1   7
HETATM    7  C8  UNL     1     -34.163  15.042  -3.858  1.00 20.00    -0.051 C 
HETATM    8  C2  UNL     1     -35.667  14.730  -3.850  1.00 20.00     0.014 C 
HETATM    9  C3  UNL     1     -33.364  13.739  -3.679  1.00 20.00     0.014 C 
HETATM   10  C4  UNL     1     -33.850  15.938  -2.636  1.00 20.00     0.014 C 
ENDBRANCH   1   7
TORSDOF 4
ENDMDL
