MODEL 1
REMARK VINA RESULT:      -4.2      0.000      0.000
REMARK  3 active torsions:
REMARK  status: ('A' for Active; 'I' for Inactive)
REMARK    1  A    between atoms: C1_1  and  C2_2 
REMARK    2  A    between atoms: C3_3  and  C8_8 
REMARK    3  A    between atoms: C8_8  and  C9_9 
ROOT
HETATM    1  C1  UNL     1     -34.252  14.398  -3.237  1.00 20.00     0.043 C 
HETATM    2  C3  UNL     1     -33.843  15.680  -3.270  1.00 20.00    -0.080 C 
HETATM    3  C4  UNL     1     -33.886  16.604  -2.084  1.00 20.00     0.043 C 
ENDROOT
BRANCH   2   4
HETATM    4  C8  UNL     1     -33.222  16.236  -4.541  1.00 20.00     0.042 C 
BRANCH   4   5
HETATM    5  C9  UNL     1     -34.172  16.938  -5.555  1.00 20.00    -0.048 C 
HETATM    6  C5  UNL     1     -34.242  16.161  -6.880  1.00 20.00     0.015 C 
HETATM    7  C6  UNL     1     -35.594  17.103  -4.992  1.00 20.00     0.015 C 
HETATM    8  C7  UNL     1     -33.604  18.343  -5.844  1.00 20.00     0.015 C 
ENDBRANCH   4   5
ENDBRANCH   2   4
BRANCH   1   9
HETATM    9  C2  UNL     1     -34.210  13.488  -4.402  1.00 20.00     0.259 C 
HETATM   10  O10 UNL     1     -35.016  12.574  -4.534  1.00 20.00    -0.302 OA
ENDBRANCH   1   9
TORSDOF 3
ENDMDL
MODEL 2
REMARK VINA RESULT:      -4.2      0.077      1.368
REMARK  3 active torsions:
REMARK  status: ('A' for Active; 'I' for Inactive)
REMARK    1  A    between atoms: C1_1  and  C2_2 
REMARK    2  A    between atoms: C3_3  and  C8_8 
REMARK    3  A    between atoms: C8_8  and  C9_9 
ROOT
HETATM    1  C1  UNL     1     -34.310  14.368  -3.237  1.00 20.00     0.043 C 
HETATM    2  C3  UNL     1     -33.920  15.656  -3.259  1.00 20.00    -0.080 C 
HETATM    3  C4  UNL     1     -33.999  16.576  -2.071  1.00 20.00     0.043 C 
ENDROOT
BRANCH   2   4
HETATM    4  C8  UNL     1     -33.284  16.224  -4.517  1.00 20.00     0.042 C 
BRANCH   4   5
HETATM    5  C9  UNL     1     -34.210  16.997  -5.501  1.00 20.00    -0.048 C 
HETATM    6  C5  UNL     1     -35.638  17.117  -4.941  1.00 20.00     0.015 C 
HETATM    7  C6  UNL     1     -33.673  18.403  -5.814  1.00 20.00     0.015 C 
HETATM    8  C7  UNL     1     -34.271  16.201  -6.821  1.00 20.00     0.015 C 
ENDBRANCH   4   5
ENDBRANCH   2   4
BRANCH   1   9
HETATM    9  C2  UNL     1     -34.234  13.462  -4.403  1.00 20.00     0.259 C 
HETATM   10  O10 UNL     1     -35.034  12.548  -4.561  1.00 20.00    -0.302 OA
ENDBRANCH   1   9
TORSDOF 3
ENDMDL
MODEL 3
REMARK VINA RESULT:      -4.1      1.277      3.062
REMARK  3 active torsions:
REMARK  status: ('A' for Active; 'I' for Inactive)
REMARK    1  A    between atoms: C1_1  and  C2_2 
REMARK    2  A    between atoms: C3_3  and  C8_8 
REMARK    3  A    between atoms: C8_8  and  C9_9 
ROOT
HETATM    1  C1  UNL     1     -34.663  14.856  -4.918  1.00 20.00     0.043 C 
HETATM    2  C3  UNL     1     -33.913  15.868  -4.444  1.00 20.00    -0.080 C 
HETATM    3  C4  UNL     1     -33.351  16.969  -5.303  1.00 20.00     0.043 C 
ENDROOT
BRANCH   2   4
HETATM    4  C8  UNL     1     -33.669  15.982  -2.949  1.00 20.00     0.042 C 
BRANCH   4   5
HETATM    5  C9  UNL     1     -34.446  17.091  -2.179  1.00 20.00    -0.048 C 
HETATM    6  C5  UNL     1     -33.666  18.417  -2.180  1.00 20.00     0.015 C 
HETATM    7  C6  UNL     1     -35.845  17.329  -2.769  1.00 20.00     0.015 C 
HETATM    8  C7  UNL     1     -34.614  16.626  -0.717  1.00 20.00     0.015 C 
ENDBRANCH   4   5
ENDBRANCH   2   4
BRANCH   1   9
HETATM    9  C2  UNL     1     -35.217  13.774  -4.077  1.00 20.00     0.259 C 
HETATM   10  O10 UNL     1     -35.036  12.592  -4.347  1.00 20.00    -0.302 OA
ENDBRANCH   1   9
TORSDOF 3
ENDMDL
MODEL 4
REMARK VINA RESULT:      -4.1      0.070      1.373
REMARK  3 active torsions:
REMARK  status: ('A' for Active; 'I' for Inactive)
REMARK    1  A    between atoms: C1_1  and  C2_2 
REMARK    2  A    between atoms: C3_3  and  C8_8 
REMARK    3  A    between atoms: C8_8  and  C9_9 
ROOT
HETATM    1  C1  UNL     1     -34.211  14.374  -3.283  1.00 20.00     0.043 C 
HETATM    2  C3  UNL     1     -33.806  15.657  -3.319  1.00 20.00    -0.080 C 
HETATM    3  C4  UNL     1     -33.849  16.583  -2.135  1.00 20.00     0.043 C 
ENDROOT
BRANCH   2   4
HETATM    4  C8  UNL     1     -33.189  16.211  -4.592  1.00 20.00     0.042 C 
BRANCH   4   5
HETATM    5  C9  UNL     1     -34.139  16.930  -5.594  1.00 20.00    -0.048 C 
HETATM    6  C5  UNL     1     -33.655  18.360  -5.889  1.00 20.00     0.015 C 
HETATM    7  C6  UNL     1     -34.269  16.161  -6.919  1.00 20.00     0.015 C 
HETATM    8  C7  UNL     1     -35.537  17.013  -4.947  1.00 20.00     0.015 C 
ENDBRANCH   4   5
ENDBRANCH   2   4
BRANCH   1   9
HETATM    9  C2  UNL     1     -34.169  13.461  -4.445  1.00 20.00     0.259 C 
HETATM   10  O10 UNL     1     -34.995  12.568  -4.592  1.00 20.00    -0.302 OA
ENDBRANCH   1   9
TORSDOF 3
ENDMDL
MODEL 5
REMARK VINA RESULT:      -4.0      1.134      2.772
REMARK  3 active torsions:
REMARK  status: ('A' for Active; 'I' for Inactive)
REMARK    1  A    between atoms: C1_1  and  C2_2 
REMARK    2  A    between atoms: C3_3  and  C8_8 
REMARK    3  A    between atoms: C8_8  and  C9_9 
ROOT
HETATM    1  C1  UNL     1     -34.569  14.368  -5.858  1.00 20.00     0.043 C 
HETATM    2  C3  UNL     1     -34.137  15.639  -5.947  1.00 20.00    -0.080 C 
HETATM    3  C4  UNL     1     -34.449  16.551  -7.102  1.00 20.00     0.043 C 
ENDROOT
BRANCH   2   4
HETATM    4  C8  UNL     1     -33.354  16.246  -4.795  1.00 20.00     0.042 C 
BRANCH   4   5
HETATM    5  C9  UNL     1     -34.162  17.006  -3.702  1.00 20.00    -0.048 C 
HETATM    6  C5  UNL     1     -33.779  18.495  -3.663  1.00 20.00     0.015 C 
HETATM    7  C6  UNL     1     -35.679  16.882  -3.917  1.00 20.00     0.015 C 
HETATM    8  C7  UNL     1     -33.818  16.379  -2.335  1.00 20.00     0.015 C 
ENDBRANCH   4   5
ENDBRANCH   2   4
BRANCH   1   9
HETATM    9  C2  UNL     1     -34.264  13.469  -4.724  1.00 20.00     0.259 C 
HETATM   10  O10 UNL     1     -35.076  12.647  -4.318  1.00 20.00    -0.302 OA
ENDBRANCH   1   9
TORSDOF 3
ENDMDL
MODEL 6
REMARK VINA RESULT:      -3.9      2.082      3.340
REMARK  3 active torsions:
REMARK  status: ('A' for Active; 'I' for Inactive)
REMARK    1  A    between atoms: C1_1  and  C2_2 
REMARK    2  A    between atoms: C3_3  and  C8_8 
REMARK    3  A    between atoms: C8_8  and  C9_9 
ROOT
HETATM    1  C1  UNL     1     -35.889  14.294  -4.169  1.00 20.00     0.043 C 
HETATM    2  C3  UNL     1     -34.795  14.523  -3.419  1.00 20.00    -0.080 C 
HETATM    3  C4  UNL     1     -33.440  13.939  -3.712  1.00 20.00     0.043 C 
ENDROOT
BRANCH   2   4
HETATM    4  C8  UNL     1     -34.880  15.486  -2.246  1.00 20.00     0.042 C 
BRANCH   4   5
HETATM    5  C9  UNL     1     -34.445  16.960  -2.497  1.00 20.00    -0.048 C 
HETATM    6  C5  UNL     1     -33.546  17.474  -1.360  1.00 20.00     0.015 C 
HETATM    7  C6  UNL     1     -33.705  17.122  -3.835  1.00 20.00     0.015 C 
HETATM    8  C7  UNL     1     -35.718  17.829  -2.543  1.00 20.00     0.015 C 
ENDBRANCH   4   5
ENDBRANCH   2   4
BRANCH   1   9
HETATM    9  C2  UNL     1     -37.222  14.866  -3.884  1.00 20.00     0.259 C 
HETATM   10  O10 UNL     1     -38.214  14.158  -3.759  1.00 20.00    -0.302 OA
ENDBRANCH   1   9
TORSDOF 3
ENDMDL
MODEL 7
REMARK VINA RESULT:      -3.9      1.687      2.268
REMARK  3 active torsions:
REMARK  status: ('A' for Active; 'I' for Inactive)
REMARK    1  A    between atoms: C1_1  and  C2_2 
REMARK    2  A    between atoms: C3_3  and  C8_8 
REMARK    3  A    between atoms: C8_8  and  C9_9 
ROOT
HETATM    1  C1  UNL     1     -34.144  14.193  -3.286  1.00 20.00     0.043 C 
HETATM    2  C3  UNL     1     -34.701  15.408  -3.128  1.00 20.00    -0.080 C 
HETATM    3  C4  UNL     1     -34.735  16.151  -1.820  1.00 20.00     0.043 C 
ENDROOT
BRANCH   2   4
HETATM    4  C8  UNL     1     -35.265  16.136  -4.337  1.00 20.00     0.042 C 
BRANCH   4   5
HETATM    5  C9  UNL     1     -36.787  15.975  -4.624  1.00 20.00    -0.048 C 
HETATM    6  C5  UNL     1     -37.034  15.555  -6.083  1.00 20.00     0.015 C 
HETATM    7  C6  UNL     1     -37.444  14.950  -3.687  1.00 20.00     0.015 C 
HETATM    8  C7  UNL     1     -37.462  17.342  -4.390  1.00 20.00     0.015 C 
ENDBRANCH   4   5
ENDBRANCH   2   4
BRANCH   1   9
HETATM    9  C2  UNL     1     -34.108  13.461  -4.571  1.00 20.00     0.259 C 
HETATM   10  O10 UNL     1     -34.897  12.557  -4.818  1.00 20.00    -0.302 OA
ENDBRANCH   1   9
TORSDOF 3
ENDMDL
MODEL 8
REMARK VINA RESULT:      -3.9      2.023      3.749
REMARK  3 active torsions:
REMARK  status: ('A' for Active; 'I' for Inactive)
REMARK    1  A    between atoms: C1_1  and  C2_2 
REMARK    2  A    between atoms: C3_3  and  C8_8 
REMARK    3  A    between atoms: C8_8  and  C9_9 
ROOT
HETATM    1  C1  UNL     1     -36.981  14.870  -5.758  1.00 20.00     0.043 C 
HETATM    2  C3  UNL     1     -35.685  15.232  -5.795  1.00 20.00    -0.080 C 
HETATM    3  C4  UNL     1     -34.778  14.979  -6.968  1.00 20.00     0.043 C 
ENDROOT
BRANCH   2   4
HETATM    4  C8  UNL     1     -35.093  16.016  -4.636  1.00 20.00     0.042 C 
BRANCH   4   5
HETATM    5  C9  UNL     1     -34.246  15.225  -3.595  1.00 20.00    -0.048 C 
HETATM    6  C5  UNL     1     -34.563  13.721  -3.652  1.00 20.00     0.015 C 
HETATM    7  C6  UNL     1     -32.737  15.430  -3.806  1.00 20.00     0.015 C 
HETATM    8  C7  UNL     1     -34.611  15.748  -2.191  1.00 20.00     0.015 C 
ENDBRANCH   4   5
ENDBRANCH   2   4
BRANCH   1   9
HETATM    9  C2  UNL     1     -37.875  15.118  -4.606  1.00 20.00     0.259 C 
HETATM   10  O10 UNL     1     -38.087  14.259  -3.759  1.00 20.00    -0.302 OA
ENDBRANCH   1   9
TORSDOF 3
ENDMDL
MODEL 9
REMARK VINA RESULT:      -3.8      2.135      3.457
REMARK  3 active torsions:
REMARK  status: ('A' for Active; 'I' for Inactive)
REMARK    1  A    between atoms: C1_1  and  C2_2 
REMARK    2  A    between atoms: C3_3  and  C8_8 
REMARK    3  A    between atoms: C8_8  and  C9_9 
ROOT
HETATM    1  C1  UNL     1     -34.134  17.250  -2.737  1.00 20.00     0.043 C 
HETATM    2  C3  UNL     1     -33.793  16.931  -3.999  1.00 20.00    -0.080 C 
HETATM    3  C4  UNL     1     -33.533  17.946  -5.079  1.00 20.00     0.043 C 
ENDROOT
BRANCH   2   4
HETATM    4  C8  UNL     1     -33.571  15.474  -4.370  1.00 20.00     0.042 C 
BRANCH   4   5
HETATM    5  C9  UNL     1     -34.672  14.775  -5.220  1.00 20.00    -0.048 C 
HETATM    6  C5  UNL     1     -36.065  15.345  -4.900  1.00 20.00     0.015 C 
HETATM    7  C6  UNL     1     -34.408  14.911  -6.728  1.00 20.00     0.015 C 
HETATM    8  C7  UNL     1     -34.666  13.274  -4.864  1.00 20.00     0.015 C 
ENDBRANCH   4   5
ENDBRANCH   2   4
BRANCH   1   9
HETATM    9  C2  UNL     1     -34.391  16.255  -1.674  1.00 20.00     0.259 C 
HETATM   10  O10 UNL     1     -34.668  16.592  -0.530  1.00 20.00    -0.302 OA
ENDBRANCH   1   9
TORSDOF 3
ENDMDL
