MODEL 1
REMARK VINA RESULT:      -3.3      0.000      0.000
REMARK  1 active torsions:
REMARK  status: ('A' for Active; 'I' for Inactive)
REMARK    1  A    between atoms: C2_2  and  C4_4 
ROOT
HETATM    1  C3  UNL     1     -33.040   6.292   3.499  1.00 20.00     0.204 A 
HETATM    2  C4  UNL     1     -34.342   6.112   4.201  1.00 20.00     0.167 A 
HETATM    3  O5  UNL     1     -34.050   5.405   3.009  1.00 20.00    -0.377 OA
ENDROOT
BRANCH   2   4
HETATM    4  C2  UNL     1     -34.316   5.431   5.529  1.00 20.00    -0.003 C 
HETATM    5  C1  UNL     1     -35.035   4.344   5.825  1.00 20.00     0.009 C 
ENDBRANCH   2   4
TORSDOF 1
ENDMDL
MODEL 2
REMARK VINA RESULT:      -3.2      1.581      2.459
REMARK  1 active torsions:
REMARK  status: ('A' for Active; 'I' for Inactive)
REMARK    1  A    between atoms: C2_2  and  C4_4 
ROOT
HETATM    1  C3  UNL     1     -35.100   3.932   5.179  1.00 20.00     0.204 A 
HETATM    2  C4  UNL     1     -34.357   5.224   5.166  1.00 20.00     0.167 A 
HETATM    3  O5  UNL     1     -35.549   5.057   4.418  1.00 20.00    -0.377 OA
ENDROOT
BRANCH   2   4
HETATM    4  C2  UNL     1     -34.344   6.020   6.428  1.00 20.00    -0.003 C 
HETATM    5  C1  UNL     1     -33.595   7.112   6.616  1.00 20.00     0.009 C 
ENDBRANCH   2   4
TORSDOF 1
ENDMDL
MODEL 3
REMARK VINA RESULT:      -3.1      1.592      2.854
REMARK  1 active torsions:
REMARK  status: ('A' for Active; 'I' for Inactive)
REMARK    1  A    between atoms: C2_2  and  C4_4 
ROOT
HETATM    1  C3  UNL     1     -34.875   4.044   5.646  1.00 20.00     0.204 A 
HETATM    2  C4  UNL     1     -35.232   5.185   4.757  1.00 20.00     0.167 A 
HETATM    3  O5  UNL     1     -34.822   5.402   6.095  1.00 20.00    -0.377 OA
ENDROOT
BRANCH   2   4
HETATM    4  C2  UNL     1     -34.318   5.475   3.613  1.00 20.00    -0.003 C 
HETATM    5  C1  UNL     1     -33.391   6.439   3.623  1.00 20.00     0.009 C 
ENDBRANCH   2   4
TORSDOF 1
ENDMDL
MODEL 4
REMARK VINA RESULT:      -3.1      1.441      2.890
REMARK  1 active torsions:
REMARK  status: ('A' for Active; 'I' for Inactive)
REMARK    1  A    between atoms: C2_2  and  C4_4 
ROOT
HETATM    1  C3  UNL     1     -35.094   4.900   4.502  1.00 20.00     0.204 A 
HETATM    2  C4  UNL     1     -34.306   6.138   4.246  1.00 20.00     0.167 A 
HETATM    3  O5  UNL     1     -34.245   5.478   5.498  1.00 20.00    -0.377 OA
ENDROOT
BRANCH   2   4
HETATM    4  C2  UNL     1     -33.181   6.045   3.270  1.00 20.00    -0.003 C 
HETATM    5  C1  UNL     1     -32.156   6.903   3.226  1.00 20.00     0.009 C 
ENDBRANCH   2   4
TORSDOF 1
ENDMDL
MODEL 5
REMARK VINA RESULT:      -3.0      1.898      2.846
REMARK  1 active torsions:
REMARK  status: ('A' for Active; 'I' for Inactive)
REMARK    1  A    between atoms: C2_2  and  C4_4 
ROOT
HETATM    1  C3  UNL     1     -34.472   5.752   6.399  1.00 20.00     0.204 A 
HETATM    2  C4  UNL     1     -34.432   4.848   5.215  1.00 20.00     0.167 A 
HETATM    3  O5  UNL     1     -35.307   4.594   6.300  1.00 20.00    -0.377 OA
ENDROOT
BRANCH   2   4
HETATM    4  C2  UNL     1     -34.944   5.389   3.922  1.00 20.00    -0.003 C 
HETATM    5  C1  UNL     1     -34.214   5.469   2.804  1.00 20.00     0.009 C 
ENDBRANCH   2   4
TORSDOF 1
ENDMDL
MODEL 6
REMARK VINA RESULT:      -2.9     11.950     12.137
REMARK  1 active torsions:
REMARK  status: ('A' for Active; 'I' for Inactive)
REMARK    1  A    between atoms: C2_2  and  C4_4 
ROOT
HETATM    1  C3  UNL     1     -34.852  13.645  -5.347  1.00 20.00     0.204 A 
HETATM    2  C4  UNL     1     -35.286  14.058  -3.983  1.00 20.00     0.167 A 
HETATM    3  O5  UNL     1     -35.013  12.701  -4.283  1.00 20.00    -0.377 OA
ENDROOT
BRANCH   2   4
HETATM    4  C2  UNL     1     -34.333  14.878  -3.179  1.00 20.00    -0.003 C 
HETATM    5  C1  UNL     1     -34.708  15.810  -2.297  1.00 20.00     0.009 C 
ENDBRANCH   2   4
TORSDOF 1
ENDMDL
MODEL 7
REMARK VINA RESULT:      -2.8      1.575      3.555
REMARK  1 active torsions:
REMARK  status: ('A' for Active; 'I' for Inactive)
REMARK    1  A    between atoms: C2_2  and  C4_4 
ROOT
HETATM    1  C3  UNL     1     -33.558   6.077   4.206  1.00 20.00     0.204 A 
HETATM    2  C4  UNL     1     -32.413   6.259   3.270  1.00 20.00     0.167 A 
HETATM    3  O5  UNL     1     -33.666   5.784   2.810  1.00 20.00    -0.377 OA
ENDROOT
BRANCH   2   4
HETATM    4  C2  UNL     1     -31.969   7.656   2.994  1.00 20.00    -0.003 C 
HETATM    5  C1  UNL     1     -32.013   8.231   1.787  1.00 20.00     0.009 C 
ENDBRANCH   2   4
TORSDOF 1
ENDMDL
MODEL 8
REMARK VINA RESULT:      -2.8     12.083     13.348
REMARK  1 active torsions:
REMARK  status: ('A' for Active; 'I' for Inactive)
REMARK    1  A    between atoms: C2_2  and  C4_4 
ROOT
HETATM    1  C3  UNL     1     -35.591  13.793  -4.064  1.00 20.00     0.204 A 
HETATM    2  C4  UNL     1     -34.603  13.848  -5.177  1.00 20.00     0.167 A 
HETATM    3  O5  UNL     1     -34.967  12.615  -4.583  1.00 20.00    -0.377 OA
ENDROOT
BRANCH   2   4
HETATM    4  C2  UNL     1     -35.111  14.235  -6.526  1.00 20.00    -0.003 C 
HETATM    5  C1  UNL     1     -34.472  15.065  -7.357  1.00 20.00     0.009 C 
ENDBRANCH   2   4
TORSDOF 1
ENDMDL
MODEL 9
REMARK VINA RESULT:      -2.6     12.375     12.847
REMARK  1 active torsions:
REMARK  status: ('A' for Active; 'I' for Inactive)
REMARK    1  A    between atoms: C2_2  and  C4_4 
ROOT
HETATM    1  C3  UNL     1     -33.289  16.203  -4.374  1.00 20.00     0.204 A 
HETATM    2  C4  UNL     1     -33.885  15.748  -3.087  1.00 20.00     0.167 A 
HETATM    3  O5  UNL     1     -32.703  15.155  -3.595  1.00 20.00    -0.377 OA
ENDROOT
BRANCH   2   4
HETATM    4  C2  UNL     1     -33.839  16.698  -1.937  1.00 20.00    -0.003 C 
HETATM    5  C1  UNL     1     -34.631  16.610  -0.863  1.00 20.00     0.009 C 
ENDBRANCH   2   4
TORSDOF 1
ENDMDL
