MODEL 1
REMARK VINA RESULT:      -5.0      0.000      0.000
REMARK  5 active torsions:
REMARK  status: ('A' for Active; 'I' for Inactive)
REMARK    1  A    between atoms: C1_1  and  C4_4 
REMARK    2  A    between atoms: C2_2  and  C7_7 
REMARK    3  A    between atoms: C7_7  and  C9_9 
REMARK    4  A    between atoms: C8_8  and  C9_9 
REMARK    5  A    between atoms: C9_9  and  O10_10 
ROOT
HETATM    1  C7  UNL     1     -35.010   5.147   3.661  1.00 20.00     0.126 C 
ENDROOT
BRANCH   1   2
HETATM    2  C2  UNL     1     -33.905   6.068   3.355  1.00 20.00    -0.099 C 
HETATM    3  C1  UNL     1     -33.002   6.820   3.105  1.00 20.00    -0.072 C 
BRANCH   3   4
HETATM    4  C4  UNL     1     -31.929   7.714   2.814  1.00 20.00    -0.018 C 
HETATM    5  C3  UNL     1     -30.963   7.898   3.725  1.00 20.00     0.028 C 
HETATM    6  C5  UNL     1     -31.916   8.426   1.492  1.00 20.00     0.057 C 
ENDBRANCH   3   4
ENDBRANCH   1   2
BRANCH   1   7
HETATM    7  C9  UNL     1     -35.191   4.901   5.165  1.00 20.00     0.129 C 
BRANCH   7   8
HETATM    8  C8  UNL     1     -33.957   5.277   5.995  1.00 20.00     0.028 C 
HETATM    9  C6  UNL     1     -34.088   6.659   6.622  1.00 20.00     0.007 C 
ENDBRANCH   7   8
BRANCH   7  10
HETATM   10  O10 UNL     1     -35.519   3.533   5.397  1.00 20.00    -0.395 OA
HETATM   11  H24 UNL     1     -36.085   3.258   4.659  1.00 20.00     0.210 HD
ENDBRANCH   7  10
ENDBRANCH   1   7
TORSDOF 5
ENDMDL
MODEL 2
REMARK VINA RESULT:      -4.9      1.360      2.132
REMARK  5 active torsions:
REMARK  status: ('A' for Active; 'I' for Inactive)
REMARK    1  A    between atoms: C1_1  and  C4_4 
REMARK    2  A    between atoms: C2_2  and  C7_7 
REMARK    3  A    between atoms: C7_7  and  C9_9 
REMARK    4  A    between atoms: C8_8  and  C9_9 
REMARK    5  A    between atoms: C9_9  and  O10_10 
ROOT
HETATM    1  C7  UNL     1     -33.047   5.845   3.969  1.00 20.00     0.126 C 
ENDROOT
BRANCH   1   2
HETATM    2  C2  UNL     1     -32.688   6.917   3.028  1.00 20.00    -0.099 C 
HETATM    3  C1  UNL     1     -32.393   7.792   2.260  1.00 20.00    -0.072 C 
BRANCH   3   4
HETATM    4  C4  UNL     1     -32.049   8.833   1.346  1.00 20.00    -0.018 C 
HETATM    5  C3  UNL     1     -31.286   8.547   0.282  1.00 20.00     0.028 C 
HETATM    6  C5  UNL     1     -32.552  10.223   1.608  1.00 20.00     0.057 C 
ENDBRANCH   3   4
ENDBRANCH   1   2
BRANCH   1   7
HETATM    7  C9  UNL     1     -34.429   6.043   4.606  1.00 20.00     0.129 C 
BRANCH   7   8
HETATM    8  C8  UNL     1     -34.538   5.451   6.017  1.00 20.00     0.028 C 
HETATM    9  C6  UNL     1     -34.908   3.974   5.991  1.00 20.00     0.007 C 
ENDBRANCH   7   8
BRANCH   7  10
HETATM   10  O10 UNL     1     -35.433   5.468   3.772  1.00 20.00    -0.395 OA
HETATM   11  H24 UNL     1     -35.999   6.199   3.481  1.00 20.00     0.210 HD
ENDBRANCH   7  10
ENDBRANCH   1   7
TORSDOF 5
ENDMDL
MODEL 3
REMARK VINA RESULT:      -4.9      1.104      1.625
REMARK  5 active torsions:
REMARK  status: ('A' for Active; 'I' for Inactive)
REMARK    1  A    between atoms: C1_1  and  C4_4 
REMARK    2  A    between atoms: C2_2  and  C7_7 
REMARK    3  A    between atoms: C7_7  and  C9_9 
REMARK    4  A    between atoms: C8_8  and  C9_9 
REMARK    5  A    between atoms: C9_9  and  O10_10 
ROOT
HETATM    1  C7  UNL     1     -33.287   5.495   3.982  1.00 20.00     0.126 C 
ENDROOT
BRANCH   1   2
HETATM    2  C2  UNL     1     -32.907   6.649   3.154  1.00 20.00    -0.099 C 
HETATM    3  C1  UNL     1     -32.595   7.592   2.478  1.00 20.00    -0.072 C 
BRANCH   3   4
HETATM    4  C4  UNL     1     -32.230   8.714   1.675  1.00 20.00    -0.018 C 
HETATM    5  C3  UNL     1     -31.442   8.528   0.606  1.00 20.00     0.028 C 
HETATM    6  C5  UNL     1     -32.739  10.074   2.056  1.00 20.00     0.057 C 
ENDBRANCH   3   4
ENDBRANCH   1   2
BRANCH   1   7
HETATM    7  C9  UNL     1     -34.592   5.716   4.760  1.00 20.00     0.129 C 
BRANCH   7   8
HETATM    8  C8  UNL     1     -34.386   5.816   6.276  1.00 20.00     0.028 C 
HETATM    9  C6  UNL     1     -33.660   7.095   6.672  1.00 20.00     0.007 C 
ENDBRANCH   7   8
BRANCH   7  10
HETATM   10  O10 UNL     1     -35.510   4.663   4.474  1.00 20.00    -0.395 OA
HETATM   11  H24 UNL     1     -36.201   4.711   5.152  1.00 20.00     0.210 HD
ENDBRANCH   7  10
ENDBRANCH   1   7
TORSDOF 5
ENDMDL
MODEL 4
REMARK VINA RESULT:      -4.8     11.264     12.364
REMARK  5 active torsions:
REMARK  status: ('A' for Active; 'I' for Inactive)
REMARK    1  A    between atoms: C1_1  and  C4_4 
REMARK    2  A    between atoms: C2_2  and  C7_7 
REMARK    3  A    between atoms: C7_7  and  C9_9 
REMARK    4  A    between atoms: C8_8  and  C9_9 
REMARK    5  A    between atoms: C9_9  and  O10_10 
ROOT
HETATM    1  C7  UNL     1     -33.472  13.969  -3.888  1.00 20.00     0.126 C 
ENDROOT
BRANCH   1   2
HETATM    2  C2  UNL     1     -34.058  15.017  -3.039  1.00 20.00    -0.099 C 
HETATM    3  C1  UNL     1     -34.537  15.874  -2.346  1.00 20.00    -0.072 C 
BRANCH   3   4
HETATM    4  C4  UNL     1     -35.101  16.890  -1.518  1.00 20.00    -0.018 C 
HETATM    5  C3  UNL     1     -34.679  17.014  -0.252  1.00 20.00     0.028 C 
HETATM    6  C5  UNL     1     -36.157  17.790  -2.092  1.00 20.00     0.057 C 
ENDBRANCH   3   4
ENDBRANCH   1   2
BRANCH   1   7
HETATM    7  C9  UNL     1     -34.489  13.331  -4.843  1.00 20.00     0.129 C 
BRANCH   7   8
HETATM    8  C8  UNL     1     -35.268  14.356  -5.676  1.00 20.00     0.028 C 
HETATM    9  C6  UNL     1     -34.435  14.916  -6.821  1.00 20.00     0.007 C 
ENDBRANCH   7   8
BRANCH   7  10
HETATM   10  O10 UNL     1     -35.405  12.523  -4.107  1.00 20.00    -0.395 OA
HETATM   11  H24 UNL     1     -36.266  12.967  -4.160  1.00 20.00     0.210 HD
ENDBRANCH   7  10
ENDBRANCH   1   7
TORSDOF 5
ENDMDL
MODEL 5
REMARK VINA RESULT:      -4.6      2.328      5.204
REMARK  5 active torsions:
REMARK  status: ('A' for Active; 'I' for Inactive)
REMARK    1  A    between atoms: C1_1  and  C4_4 
REMARK    2  A    between atoms: C2_2  and  C7_7 
REMARK    3  A    between atoms: C7_7  and  C9_9 
REMARK    4  A    between atoms: C8_8  and  C9_9 
REMARK    5  A    between atoms: C9_9  and  O10_10 
ROOT
HETATM    1  C7  UNL     1     -32.568   6.582   2.293  1.00 20.00     0.126 C 
ENDROOT
BRANCH   1   2
HETATM    2  C2  UNL     1     -33.251   6.116   3.509  1.00 20.00    -0.099 C 
HETATM    3  C1  UNL     1     -33.810   5.736   4.503  1.00 20.00    -0.072 C 
BRANCH   3   4
HETATM    4  C4  UNL     1     -34.471   5.279   5.682  1.00 20.00    -0.018 C 
HETATM    5  C3  UNL     1     -34.485   6.060   6.771  1.00 20.00     0.028 C 
HETATM    6  C5  UNL     1     -35.131   3.931   5.667  1.00 20.00     0.057 C 
ENDBRANCH   3   4
ENDBRANCH   1   2
BRANCH   1   7
HETATM    7  C9  UNL     1     -32.124   8.049   2.377  1.00 20.00     0.129 C 
BRANCH   7   8
HETATM    8  C8  UNL     1     -31.556   8.588   1.059  1.00 20.00     0.028 C 
HETATM    9  C6  UNL     1     -32.609   9.322   0.239  1.00 20.00     0.007 C 
ENDBRANCH   7   8
BRANCH   7  10
HETATM   10  O10 UNL     1     -31.154   8.203   3.410  1.00 20.00    -0.395 OA
HETATM   11  H24 UNL     1     -30.814   7.316   3.603  1.00 20.00     0.210 HD
ENDBRANCH   7  10
ENDBRANCH   1   7
TORSDOF 5
ENDMDL
MODEL 6
REMARK VINA RESULT:      -4.5     11.527     12.214
REMARK  5 active torsions:
REMARK  status: ('A' for Active; 'I' for Inactive)
REMARK    1  A    between atoms: C1_1  and  C4_4 
REMARK    2  A    between atoms: C2_2  and  C7_7 
REMARK    3  A    between atoms: C7_7  and  C9_9 
REMARK    4  A    between atoms: C8_8  and  C9_9 
REMARK    5  A    between atoms: C9_9  and  O10_10 
ROOT
HETATM    1  C7  UNL     1     -33.729  14.457  -3.962  1.00 20.00     0.126 C 
ENDROOT
BRANCH   1   2
HETATM    2  C2  UNL     1     -33.845  15.497  -2.929  1.00 20.00    -0.099 C 
HETATM    3  C1  UNL     1     -33.941  16.346  -2.084  1.00 20.00    -0.072 C 
BRANCH   3   4
HETATM    4  C4  UNL     1     -34.053  17.358  -1.085  1.00 20.00    -0.018 C 
HETATM    5  C3  UNL     1     -34.831  17.141  -0.015  1.00 20.00     0.028 C 
HETATM    6  C5  UNL     1     -33.296  18.642  -1.265  1.00 20.00     0.057 C 
ENDBRANCH   3   4
ENDBRANCH   1   2
BRANCH   1   7
HETATM    7  C9  UNL     1     -35.089  13.940  -4.451  1.00 20.00     0.129 C 
BRANCH   7   8
HETATM    8  C8  UNL     1     -36.279  14.698  -3.850  1.00 20.00     0.028 C 
HETATM    9  C6  UNL     1     -37.052  15.479  -4.904  1.00 20.00     0.007 C 
ENDBRANCH   7   8
BRANCH   7  10
HETATM   10  O10 UNL     1     -35.213  12.551  -4.156  1.00 20.00    -0.395 OA
HETATM   11  H24 UNL     1     -34.879  12.431  -3.254  1.00 20.00     0.210 HD
ENDBRANCH   7  10
ENDBRANCH   1   7
TORSDOF 5
ENDMDL
MODEL 7
REMARK VINA RESULT:      -4.4     11.942     12.774
REMARK  5 active torsions:
REMARK  status: ('A' for Active; 'I' for Inactive)
REMARK    1  A    between atoms: C1_1  and  C4_4 
REMARK    2  A    between atoms: C2_2  and  C7_7 
REMARK    3  A    between atoms: C7_7  and  C9_9 
REMARK    4  A    between atoms: C8_8  and  C9_9 
REMARK    5  A    between atoms: C9_9  and  O10_10 
ROOT
HETATM    1  C7  UNL     1     -34.455  15.096  -3.254  1.00 20.00     0.126 C 
ENDROOT
BRANCH   1   2
HETATM    2  C2  UNL     1     -34.369  16.005  -2.102  1.00 20.00    -0.099 C 
HETATM    3  C1  UNL     1     -34.297  16.748  -1.160  1.00 20.00    -0.072 C 
BRANCH   3   4
HETATM    4  C4  UNL     1     -34.218  17.629  -0.041  1.00 20.00    -0.018 C 
HETATM    5  C3  UNL     1     -33.207  18.507   0.033  1.00 20.00     0.028 C 
HETATM    6  C5  UNL     1     -35.272  17.545   1.025  1.00 20.00     0.057 C 
ENDBRANCH   3   4
ENDBRANCH   1   2
BRANCH   1   7
HETATM    7  C9  UNL     1     -33.926  15.719  -4.553  1.00 20.00     0.129 C 
BRANCH   7   8
HETATM    8  C8  UNL     1     -34.416  14.999  -5.815  1.00 20.00     0.028 C 
HETATM    9  C6  UNL     1     -34.906  13.588  -5.517  1.00 20.00     0.007 C 
ENDBRANCH   7   8
BRANCH   7  10
HETATM   10  O10 UNL     1     -32.500  15.732  -4.538  1.00 20.00    -0.395 OA
HETATM   11  H24 UNL     1     -32.213  14.952  -5.037  1.00 20.00     0.210 HD
ENDBRANCH   7  10
ENDBRANCH   1   7
TORSDOF 5
ENDMDL
MODEL 8
REMARK VINA RESULT:      -4.4     11.902     13.017
REMARK  5 active torsions:
REMARK  status: ('A' for Active; 'I' for Inactive)
REMARK    1  A    between atoms: C1_1  and  C4_4 
REMARK    2  A    between atoms: C2_2  and  C7_7 
REMARK    3  A    between atoms: C7_7  and  C9_9 
REMARK    4  A    between atoms: C8_8  and  C9_9 
REMARK    5  A    between atoms: C9_9  and  O10_10 
ROOT
HETATM    1  C7  UNL     1     -34.359  14.897  -3.289  1.00 20.00     0.126 C 
ENDROOT
BRANCH   1   2
HETATM    2  C2  UNL     1     -34.332  15.854  -2.172  1.00 20.00    -0.099 C 
HETATM    3  C1  UNL     1     -34.312  16.636  -1.260  1.00 20.00    -0.072 C 
BRANCH   3   4
HETATM    4  C4  UNL     1     -34.284  17.568  -0.180  1.00 20.00    -0.018 C 
HETATM    5  C3  UNL     1     -35.277  17.557   0.721  1.00 20.00     0.028 C 
HETATM    6  C5  UNL     1     -33.142  18.537  -0.087  1.00 20.00     0.057 C 
ENDBRANCH   3   4
ENDBRANCH   1   2
BRANCH   1   7
HETATM    7  C9  UNL     1     -34.027  15.541  -4.641  1.00 20.00     0.129 C 
BRANCH   7   8
HETATM    8  C8  UNL     1     -34.421  14.672  -5.842  1.00 20.00     0.028 C 
HETATM    9  C6  UNL     1     -34.424  15.461  -7.144  1.00 20.00     0.007 C 
ENDBRANCH   7   8
BRANCH   7  10
HETATM   10  O10 UNL     1     -32.634  15.839  -4.708  1.00 20.00    -0.395 OA
HETATM   11  H24 UNL     1     -32.306  15.820  -3.796  1.00 20.00     0.210 HD
ENDBRANCH   7  10
ENDBRANCH   1   7
TORSDOF 5
ENDMDL
MODEL 9
REMARK VINA RESULT:      -4.2     11.562     12.559
REMARK  5 active torsions:
REMARK  status: ('A' for Active; 'I' for Inactive)
REMARK    1  A    between atoms: C1_1  and  C4_4 
REMARK    2  A    between atoms: C2_2  and  C7_7 
REMARK    3  A    between atoms: C7_7  and  C9_9 
REMARK    4  A    between atoms: C8_8  and  C9_9 
REMARK    5  A    between atoms: C9_9  and  O10_10 
ROOT
HETATM    1  C7  UNL     1     -34.857  17.117  -0.063  1.00 20.00     0.126 C 
ENDROOT
BRANCH   1   2
HETATM    2  C2  UNL     1     -34.447  16.486  -1.326  1.00 20.00    -0.099 C 
HETATM    3  C1  UNL     1     -34.110  15.970  -2.358  1.00 20.00    -0.072 C 
BRANCH   3   4
HETATM    4  C4  UNL     1     -33.716  15.360  -3.586  1.00 20.00    -0.018 C 
HETATM    5  C3  UNL     1     -33.804  14.029  -3.716  1.00 20.00     0.028 C 
HETATM    6  C5  UNL     1     -33.209  16.231  -4.699  1.00 20.00     0.057 C 
ENDBRANCH   3   4
ENDBRANCH   1   2
BRANCH   1   7
HETATM    7  C9  UNL     1     -34.208  18.489   0.162  1.00 20.00     0.129 C 
BRANCH   7   8
HETATM    8  C8  UNL     1     -32.746  18.553  -0.297  1.00 20.00     0.028 C 
HETATM    9  C6  UNL     1     -31.814  19.006   0.819  1.00 20.00     0.007 C 
ENDBRANCH   7   8
BRANCH   7  10
HETATM   10  O10 UNL     1     -34.287  18.842   1.542  1.00 20.00    -0.395 OA
HETATM   11  H24 UNL     1     -34.358  19.808   1.575  1.00 20.00     0.210 HD
ENDBRANCH   7  10
ENDBRANCH   1   7
TORSDOF 5
ENDMDL
