MODEL 1
REMARK VINA RESULT:      -4.3      0.000      0.000
REMARK  2 active torsions:
REMARK  status: ('A' for Active; 'I' for Inactive)
REMARK    1  A    between atoms: C2_2  and  C3_3 
REMARK    2  A    between atoms: N7_7  and  N8_8 
ROOT
HETATM    1  C2  UNL     1     -33.322   6.785   4.031  1.00 20.00     0.138 C 
HETATM    2  N7  UNL     1     -32.612   6.640   2.958  1.00 20.00    -0.214 NA
ENDROOT
BRANCH   1   3
HETATM    3  C3  UNL     1     -34.360   5.801   4.460  1.00 20.00    -0.047 C 
HETATM    4  C1  UNL     1     -34.248   5.355   5.723  1.00 20.00    -0.023 C 
HETATM    5  C4  UNL     1     -35.134   4.375   6.423  1.00 20.00     0.036 C 
HETATM    6  C5  UNL     1     -35.397   5.420   3.450  1.00 20.00     0.049 C 
ENDBRANCH   1   3
BRANCH   2   7
HETATM    7  N8  UNL     1     -31.731   7.644   2.765  1.00 20.00    -0.222 NA
HETATM    8  C6  UNL     1     -32.030   8.538   1.659  1.00 20.00     0.135 C 
HETATM    9  H20 UNL     1     -30.777   7.292   2.687  1.00 20.00     0.148 HD
ENDBRANCH   2   7
TORSDOF 2
ENDMDL
MODEL 2
REMARK VINA RESULT:      -3.9     11.265     11.853
REMARK  2 active torsions:
REMARK  status: ('A' for Active; 'I' for Inactive)
REMARK    1  A    between atoms: C2_2  and  C3_3 
REMARK    2  A    between atoms: N7_7  and  N8_8 
ROOT
HETATM    1  C2  UNL     1     -34.272  15.105  -3.223  1.00 20.00     0.138 C 
HETATM    2  N7  UNL     1     -33.206  14.456  -3.567  1.00 20.00    -0.214 NA
ENDROOT
BRANCH   1   3
HETATM    3  C3  UNL     1     -34.233  16.402  -2.485  1.00 20.00    -0.047 C 
HETATM    4  C1  UNL     1     -34.611  16.347  -1.197  1.00 20.00    -0.023 C 
HETATM    5  C4  UNL     1     -34.672  17.476  -0.218  1.00 20.00     0.036 C 
HETATM    6  C5  UNL     1     -33.784  17.608  -3.249  1.00 20.00     0.049 C 
ENDBRANCH   1   3
BRANCH   2   7
HETATM    7  N8  UNL     1     -33.473  13.310  -4.229  1.00 20.00    -0.222 NA
HETATM    8  C6  UNL     1     -34.792  13.226  -4.834  1.00 20.00     0.135 C 
HETATM    9  H20 UNL     1     -33.301  12.493  -3.643  1.00 20.00     0.148 HD
ENDBRANCH   2   7
TORSDOF 2
ENDMDL
MODEL 3
REMARK VINA RESULT:      -3.8     11.315     12.115
REMARK  2 active torsions:
REMARK  status: ('A' for Active; 'I' for Inactive)
REMARK    1  A    between atoms: C2_2  and  C3_3 
REMARK    2  A    between atoms: N7_7  and  N8_8 
ROOT
HETATM    1  C2  UNL     1     -36.649  15.151  -3.308  1.00 20.00     0.138 C 
HETATM    2  N7  UNL     1     -37.317  14.143  -3.772  1.00 20.00    -0.214 NA
ENDROOT
BRANCH   1   3
HETATM    3  C3  UNL     1     -35.181  15.100  -3.041  1.00 20.00    -0.047 C 
HETATM    4  C1  UNL     1     -34.503  14.152  -3.712  1.00 20.00    -0.023 C 
HETATM    5  C4  UNL     1     -33.037  13.867  -3.649  1.00 20.00     0.036 C 
HETATM    6  C5  UNL     1     -34.630  16.094  -2.068  1.00 20.00     0.049 C 
ENDBRANCH   1   3
BRANCH   2   7
HETATM    7  N8  UNL     1     -38.629  14.410  -3.942  1.00 20.00    -0.222 NA
HETATM    8  C6  UNL     1     -39.087  15.680  -3.405  1.00 20.00     0.135 C 
HETATM    9  H20 UNL     1     -39.212  13.649  -3.594  1.00 20.00     0.148 HD
ENDBRANCH   2   7
TORSDOF 2
ENDMDL
MODEL 4
REMARK VINA RESULT:      -3.8     11.780     12.231
REMARK  2 active torsions:
REMARK  status: ('A' for Active; 'I' for Inactive)
REMARK    1  A    between atoms: C2_2  and  C3_3 
REMARK    2  A    between atoms: N7_7  and  N8_8 
ROOT
HETATM    1  C2  UNL     1     -35.712  14.751  -3.550  1.00 20.00     0.138 C 
HETATM    2  N7  UNL     1     -36.948  14.985  -3.242  1.00 20.00    -0.214 NA
ENDROOT
BRANCH   1   3
HETATM    3  C3  UNL     1     -34.567  15.483  -2.932  1.00 20.00    -0.047 C 
HETATM    4  C1  UNL     1     -34.875  16.248  -1.870  1.00 20.00    -0.023 C 
HETATM    5  C4  UNL     1     -33.944  17.087  -1.054  1.00 20.00     0.036 C 
HETATM    6  C5  UNL     1     -33.219  15.290  -3.553  1.00 20.00     0.049 C 
ENDBRANCH   1   3
BRANCH   2   7
HETATM    7  N8  UNL     1     -37.819  14.206  -3.918  1.00 20.00    -0.222 NA
HETATM    8  C6  UNL     1     -39.133  14.784  -4.144  1.00 20.00     0.135 C 
HETATM    9  H20 UNL     1     -37.907  13.286  -3.487  1.00 20.00     0.148 HD
ENDBRANCH   2   7
TORSDOF 2
ENDMDL
MODEL 5
REMARK VINA RESULT:      -3.7     11.410     12.171
REMARK  2 active torsions:
REMARK  status: ('A' for Active; 'I' for Inactive)
REMARK    1  A    between atoms: C2_2  and  C3_3 
REMARK    2  A    between atoms: N7_7  and  N8_8 
ROOT
HETATM    1  C2  UNL     1     -33.885  15.946  -2.748  1.00 20.00     0.138 C 
HETATM    2  N7  UNL     1     -33.293  16.121  -3.886  1.00 20.00    -0.214 NA
ENDROOT
BRANCH   1   3
HETATM    3  C3  UNL     1     -34.076  17.043  -1.753  1.00 20.00    -0.047 C 
HETATM    4  C1  UNL     1     -34.666  16.682  -0.601  1.00 20.00    -0.023 C 
HETATM    5  C4  UNL     1     -34.984  17.556   0.570  1.00 20.00     0.036 C 
HETATM    6  C5  UNL     1     -33.599  18.407  -2.141  1.00 20.00     0.049 C 
ENDBRANCH   1   3
BRANCH   2   7
HETATM    7  N8  UNL     1     -33.234  14.997  -4.631  1.00 20.00    -0.222 NA
HETATM    8  C6  UNL     1     -33.686  13.783  -3.975  1.00 20.00     0.135 C 
HETATM    9  H20 UNL     1     -32.303  14.860  -5.025  1.00 20.00     0.148 HD
ENDBRANCH   2   7
TORSDOF 2
ENDMDL
MODEL 6
REMARK VINA RESULT:      -3.6     11.518     13.007
REMARK  2 active torsions:
REMARK  status: ('A' for Active; 'I' for Inactive)
REMARK    1  A    between atoms: C2_2  and  C3_3 
REMARK    2  A    between atoms: N7_7  and  N8_8 
ROOT
HETATM    1  C2  UNL     1     -36.637  14.879  -3.884  1.00 20.00     0.138 C 
HETATM    2  N7  UNL     1     -37.813  14.346  -3.792  1.00 20.00    -0.214 NA
ENDROOT
BRANCH   1   3
HETATM    3  C3  UNL     1     -35.605  14.410  -4.856  1.00 20.00    -0.047 C 
HETATM    4  C1  UNL     1     -35.556  15.085  -6.018  1.00 20.00    -0.023 C 
HETATM    5  C4  UNL     1     -34.633  14.845  -7.170  1.00 20.00     0.036 C 
HETATM    6  C5  UNL     1     -34.749  13.256  -4.439  1.00 20.00     0.049 C 
ENDBRANCH   1   3
BRANCH   2   7
HETATM    7  N8  UNL     1     -38.587  14.927  -2.852  1.00 20.00    -0.222 NA
HETATM    8  C6  UNL     1     -39.722  15.684  -3.351  1.00 20.00     0.135 C 
HETATM    9  H20 UNL     1     -38.033  15.501  -2.216  1.00 20.00     0.148 HD
ENDBRANCH   2   7
TORSDOF 2
ENDMDL
MODEL 7
REMARK VINA RESULT:      -3.6      1.766      4.752
REMARK  2 active torsions:
REMARK  status: ('A' for Active; 'I' for Inactive)
REMARK    1  A    between atoms: C2_2  and  C3_3 
REMARK    2  A    between atoms: N7_7  and  N8_8 
ROOT
HETATM    1  C2  UNL     1     -33.139   6.122   3.443  1.00 20.00     0.138 C 
HETATM    2  N7  UNL     1     -34.043   6.223   4.364  1.00 20.00    -0.214 NA
ENDROOT
BRANCH   1   3
HETATM    3  C3  UNL     1     -32.250   7.255   3.047  1.00 20.00    -0.047 C 
HETATM    4  C1  UNL     1     -32.476   7.769   1.826  1.00 20.00    -0.023 C 
HETATM    5  C4  UNL     1     -31.751   8.899   1.167  1.00 20.00     0.036 C 
HETATM    6  C5  UNL     1     -31.215   7.688   4.038  1.00 20.00     0.049 C 
ENDBRANCH   1   3
BRANCH   2   7
HETATM    7  N8  UNL     1     -34.728   5.078   4.562  1.00 20.00    -0.222 NA
HETATM    8  C6  UNL     1     -34.965   4.719   5.950  1.00 20.00     0.135 C 
HETATM    9  H20 UNL     1     -34.301   4.297   4.064  1.00 20.00     0.148 HD
ENDBRANCH   2   7
TORSDOF 2
ENDMDL
MODEL 8
REMARK VINA RESULT:      -3.5     11.305     12.087
REMARK  2 active torsions:
REMARK  status: ('A' for Active; 'I' for Inactive)
REMARK    1  A    between atoms: C2_2  and  C3_3 
REMARK    2  A    between atoms: N7_7  and  N8_8 
ROOT
HETATM    1  C2  UNL     1     -33.833  16.413  -2.295  1.00 20.00     0.138 C 
HETATM    2  N7  UNL     1     -34.700  16.196  -1.358  1.00 20.00    -0.214 NA
ENDROOT
BRANCH   1   3
HETATM    3  C3  UNL     1     -33.786  15.619  -3.559  1.00 20.00    -0.047 C 
HETATM    4  C1  UNL     1     -34.273  14.368  -3.475  1.00 20.00    -0.023 C 
HETATM    5  C4  UNL     1     -34.356  13.351  -4.567  1.00 20.00     0.036 C 
HETATM    6  C5  UNL     1     -33.208  16.290  -4.765  1.00 20.00     0.049 C 
ENDBRANCH   1   3
BRANCH   2   7
HETATM    7  N8  UNL     1     -34.565  17.032  -0.307  1.00 20.00    -0.222 NA
HETATM    8  C6  UNL     1     -33.515  18.029  -0.429  1.00 20.00     0.135 C 
HETATM    9  H20 UNL     1     -34.464  16.518   0.567  1.00 20.00     0.148 HD
ENDBRANCH   2   7
TORSDOF 2
ENDMDL
MODEL 9
REMARK VINA RESULT:      -3.5      2.087      4.274
REMARK  2 active torsions:
REMARK  status: ('A' for Active; 'I' for Inactive)
REMARK    1  A    between atoms: C2_2  and  C3_3 
REMARK    2  A    between atoms: N7_7  and  N8_8 
ROOT
HETATM    1  C2  UNL     1     -33.932   5.633   4.495  1.00 20.00     0.138 C 
HETATM    2  N7  UNL     1     -33.994   6.390   5.543  1.00 20.00    -0.214 NA
ENDROOT
BRANCH   1   3
HETATM    3  C3  UNL     1     -33.373   6.095   3.190  1.00 20.00    -0.047 C 
HETATM    4  C1  UNL     1     -32.626   7.211   3.243  1.00 20.00    -0.023 C 
HETATM    5  C4  UNL     1     -31.943   7.902   2.107  1.00 20.00     0.036 C 
HETATM    6  C5  UNL     1     -33.701   5.278   1.980  1.00 20.00     0.049 C 
ENDBRANCH   1   3
BRANCH   2   7
HETATM    7  N8  UNL     1     -34.531   5.769   6.615  1.00 20.00    -0.222 NA
HETATM    8  C6  UNL     1     -35.091   4.453   6.363  1.00 20.00     0.135 C 
HETATM    9  H20 UNL     1     -35.217   6.361   7.083  1.00 20.00     0.148 HD
ENDBRANCH   2   7
TORSDOF 2
ENDMDL
