MODEL 1
REMARK VINA RESULT:      -4.9      0.000      0.000
REMARK  4 active torsions:
REMARK  status: ('A' for Active; 'I' for Inactive)
REMARK    1  A    between atoms: C1_1  and  C7_7 
REMARK    2  A    between atoms: C2_2  and  C9_9 
REMARK    3  A    between atoms: C9_9  and  C11_11 
REMARK    4  A    between atoms: C10_10  and  C11_11 
ROOT
HETATM    1  C3  UNL     1     -34.371  13.314  -4.874  1.00 20.00     0.006 C 
HETATM    2  C4  UNL     1     -34.834  14.241  -5.992  1.00 20.00     0.026 C 
HETATM    3  C5  UNL     1     -34.584  13.967  -3.512  1.00 20.00     0.045 C 
HETATM    4  C6  UNL     1     -34.220  15.626  -5.831  1.00 20.00     0.169 C 
HETATM    5  C7  UNL     1     -33.976  15.371  -3.482  1.00 20.00     0.200 C 
HETATM    6  O12 UNL     1     -34.517  16.164  -4.543  1.00 20.00    -0.374 OA
ENDROOT
BRANCH   5   7
HETATM    7  C1  UNL     1     -34.267  16.032  -2.204  1.00 20.00    -0.074 C 
HETATM    8  C2  UNL     1     -34.505  16.573  -1.158  1.00 20.00    -0.104 C 
BRANCH   8   9
HETATM    9  C9  UNL     1     -34.798  17.236   0.121  1.00 20.00     0.094 C 
BRANCH   9  10
HETATM   10  C11 UNL     1     -34.246  18.662   0.139  1.00 20.00     0.012 C 
BRANCH  10  11
HETATM   11  C10 UNL     1     -32.793  18.703  -0.329  1.00 20.00    -0.004 C 
HETATM   12  C8  UNL     1     -31.841  18.973   0.826  1.00 20.00     0.005 C 
ENDBRANCH  10  11
ENDBRANCH   9  10
ENDBRANCH   8   9
ENDBRANCH   5   7
TORSDOF 4
ENDMDL
MODEL 2
REMARK VINA RESULT:      -4.8      0.979      1.377
REMARK  4 active torsions:
REMARK  status: ('A' for Active; 'I' for Inactive)
REMARK    1  A    between atoms: C1_1  and  C7_7 
REMARK    2  A    between atoms: C2_2  and  C9_9 
REMARK    3  A    between atoms: C9_9  and  C11_11 
REMARK    4  A    between atoms: C10_10  and  C11_11 
ROOT
HETATM    1  C3  UNL     1     -34.415  13.389  -4.911  1.00 20.00     0.006 C 
HETATM    2  C4  UNL     1     -34.795  14.356  -6.025  1.00 20.00     0.026 C 
HETATM    3  C5  UNL     1     -34.667  14.018  -3.544  1.00 20.00     0.045 C 
HETATM    4  C6  UNL     1     -34.140  15.715  -5.804  1.00 20.00     0.169 C 
HETATM    5  C7  UNL     1     -34.011  15.398  -3.454  1.00 20.00     0.200 C 
HETATM    6  O12 UNL     1     -34.476  16.233  -4.518  1.00 20.00    -0.374 OA
ENDROOT
BRANCH   5   7
HETATM    7  C1  UNL     1     -34.336  16.040  -2.174  1.00 20.00    -0.074 C 
HETATM    8  C2  UNL     1     -34.602  16.566  -1.127  1.00 20.00    -0.104 C 
BRANCH   8   9
HETATM    9  C9  UNL     1     -34.927  17.211   0.153  1.00 20.00     0.094 C 
BRANCH   9  10
HETATM   10  C11 UNL     1     -33.855  18.228   0.544  1.00 20.00     0.012 C 
BRANCH  10  11
HETATM   11  C10 UNL     1     -33.920  18.562   2.033  1.00 20.00    -0.004 C 
HETATM   12  C8  UNL     1     -35.073  17.844   2.717  1.00 20.00     0.005 C 
ENDBRANCH  10  11
ENDBRANCH   9  10
ENDBRANCH   8   9
ENDBRANCH   5   7
TORSDOF 4
ENDMDL
MODEL 3
REMARK VINA RESULT:      -4.7      1.455      1.691
REMARK  4 active torsions:
REMARK  status: ('A' for Active; 'I' for Inactive)
REMARK    1  A    between atoms: C1_1  and  C7_7 
REMARK    2  A    between atoms: C2_2  and  C9_9 
REMARK    3  A    between atoms: C9_9  and  C11_11 
REMARK    4  A    between atoms: C10_10  and  C11_11 
ROOT
HETATM    1  C3  UNL     1     -33.853  13.831  -4.307  1.00 20.00     0.006 C 
HETATM    2  C4  UNL     1     -35.258  13.256  -4.440  1.00 20.00     0.026 C 
HETATM    3  C5  UNL     1     -33.726  14.648  -3.025  1.00 20.00     0.045 C 
HETATM    4  C6  UNL     1     -36.306  14.347  -4.259  1.00 20.00     0.169 C 
HETATM    5  C7  UNL     1     -34.858  15.674  -2.922  1.00 20.00     0.200 C 
HETATM    6  O12 UNL     1     -36.126  15.017  -3.012  1.00 20.00    -0.374 OA
ENDROOT
BRANCH   5   7
HETATM    7  C1  UNL     1     -34.788  16.392  -1.643  1.00 20.00    -0.074 C 
HETATM    8  C2  UNL     1     -34.731  16.979  -0.596  1.00 20.00    -0.104 C 
BRANCH   8   9
HETATM    9  C9  UNL     1     -34.664  17.698   0.683  1.00 20.00     0.094 C 
BRANCH   9  10
HETATM   10  C11 UNL     1     -33.357  18.482   0.805  1.00 20.00     0.012 C 
BRANCH  10  11
HETATM   11  C10 UNL     1     -32.996  18.739   2.267  1.00 20.00    -0.004 C 
HETATM   12  C8  UNL     1     -31.501  18.957   2.443  1.00 20.00     0.005 C 
ENDBRANCH  10  11
ENDBRANCH   9  10
ENDBRANCH   8   9
ENDBRANCH   5   7
TORSDOF 4
ENDMDL
MODEL 4
REMARK VINA RESULT:      -4.7     13.165     16.156
REMARK  4 active torsions:
REMARK  status: ('A' for Active; 'I' for Inactive)
REMARK    1  A    between atoms: C1_1  and  C7_7 
REMARK    2  A    between atoms: C2_2  and  C9_9 
REMARK    3  A    between atoms: C9_9  and  C11_11 
REMARK    4  A    between atoms: C10_10  and  C11_11 
ROOT
HETATM    1  C3  UNL     1     -40.832   5.989  -0.085  1.00 20.00     0.006 C 
HETATM    2  C4  UNL     1     -41.146   7.167  -0.999  1.00 20.00     0.026 C 
HETATM    3  C5  UNL     1     -40.706   4.700  -0.892  1.00 20.00     0.045 C 
HETATM    4  C6  UNL     1     -42.331   6.846  -1.902  1.00 20.00     0.169 C 
HETATM    5  C7  UNL     1     -41.923   4.508  -1.800  1.00 20.00     0.200 C 
HETATM    6  O12 UNL     1     -42.092   5.651  -2.644  1.00 20.00    -0.374 OA
ENDROOT
BRANCH   5   7
HETATM    7  C1  UNL     1     -41.754   3.319  -2.644  1.00 20.00    -0.074 C 
HETATM    8  C2  UNL     1     -41.615   2.346  -3.335  1.00 20.00    -0.104 C 
BRANCH   8   9
HETATM    9  C9  UNL     1     -41.444   1.157  -4.182  1.00 20.00     0.094 C 
BRANCH   9  10
HETATM   10  C11 UNL     1     -42.139  -0.059  -3.569  1.00 20.00     0.012 C 
BRANCH  10  11
HETATM   11  C10 UNL     1     -41.881  -1.321  -4.390  1.00 20.00    -0.004 C 
HETATM   12  C8  UNL     1     -40.452  -1.814  -4.223  1.00 20.00     0.005 C 
ENDBRANCH  10  11
ENDBRANCH   9  10
ENDBRANCH   8   9
ENDBRANCH   5   7
TORSDOF 4
ENDMDL
MODEL 5
REMARK VINA RESULT:      -4.6      1.763      6.190
REMARK  4 active torsions:
REMARK  status: ('A' for Active; 'I' for Inactive)
REMARK    1  A    between atoms: C1_1  and  C7_7 
REMARK    2  A    between atoms: C2_2  and  C9_9 
REMARK    3  A    between atoms: C9_9  and  C11_11 
REMARK    4  A    between atoms: C10_10  and  C11_11 
ROOT
HETATM    1  C3  UNL     1     -35.086  18.098   1.399  1.00 20.00     0.006 C 
HETATM    2  C4  UNL     1     -33.737  18.624   1.872  1.00 20.00     0.026 C 
HETATM    3  C5  UNL     1     -34.910  17.149   0.219  1.00 20.00     0.045 C 
HETATM    4  C6  UNL     1     -32.937  19.183   0.702  1.00 20.00     0.169 C 
HETATM    5  C7  UNL     1     -34.048  17.793  -0.870  1.00 20.00     0.200 C 
HETATM    6  O12 UNL     1     -32.791  18.203  -0.324  1.00 20.00    -0.374 OA
ENDROOT
BRANCH   5   7
HETATM    7  C1  UNL     1     -33.800  16.842  -1.962  1.00 20.00    -0.074 C 
HETATM    8  C2  UNL     1     -33.598  16.064  -2.854  1.00 20.00    -0.104 C 
BRANCH   8   9
HETATM    9  C9  UNL     1     -33.347  15.112  -3.946  1.00 20.00     0.094 C 
BRANCH   9  10
HETATM   10  C11 UNL     1     -33.889  13.725  -3.601  1.00 20.00     0.012 C 
BRANCH  10  11
HETATM   11  C10 UNL     1     -35.000  13.306  -4.562  1.00 20.00    -0.004 C 
HETATM   12  C8  UNL     1     -34.987  14.144  -5.831  1.00 20.00     0.005 C 
ENDBRANCH  10  11
ENDBRANCH   9  10
ENDBRANCH   8   9
ENDBRANCH   5   7
TORSDOF 4
ENDMDL
MODEL 6
REMARK VINA RESULT:      -4.6      2.363      6.564
REMARK  4 active torsions:
REMARK  status: ('A' for Active; 'I' for Inactive)
REMARK    1  A    between atoms: C1_1  and  C7_7 
REMARK    2  A    between atoms: C2_2  and  C9_9 
REMARK    3  A    between atoms: C9_9  and  C11_11 
REMARK    4  A    between atoms: C10_10  and  C11_11 
ROOT
HETATM    1  C3  UNL     1     -35.025  18.263   3.183  1.00 20.00     0.006 C 
HETATM    2  C4  UNL     1     -33.554  18.618   3.359  1.00 20.00     0.026 C 
HETATM    3  C5  UNL     1     -35.226  17.401   1.941  1.00 20.00     0.045 C 
HETATM    4  C6  UNL     1     -32.981  19.192   2.070  1.00 20.00     0.169 C 
HETATM    5  C7  UNL     1     -34.565  18.047   0.721  1.00 20.00     0.200 C 
HETATM    6  O12 UNL     1     -33.180  18.290   0.983  1.00 20.00    -0.374 OA
ENDROOT
BRANCH   5   7
HETATM    7  C1  UNL     1     -34.677  17.169  -0.451  1.00 20.00    -0.074 C 
HETATM    8  C2  UNL     1     -34.768  16.451  -1.410  1.00 20.00    -0.104 C 
BRANCH   8   9
HETATM    9  C9  UNL     1     -34.882  15.575  -2.584  1.00 20.00     0.094 C 
BRANCH   9  10
HETATM   10  C11 UNL     1     -33.515  15.338  -3.228  1.00 20.00     0.012 C 
BRANCH  10  11
HETATM   11  C10 UNL     1     -33.378  13.904  -3.735  1.00 20.00    -0.004 C 
HETATM   12  C8  UNL     1     -34.685  13.390  -4.318  1.00 20.00     0.005 C 
ENDBRANCH  10  11
ENDBRANCH   9  10
ENDBRANCH   8   9
ENDBRANCH   5   7
TORSDOF 4
ENDMDL
MODEL 7
REMARK VINA RESULT:      -4.5      1.455      1.979
REMARK  4 active torsions:
REMARK  status: ('A' for Active; 'I' for Inactive)
REMARK    1  A    between atoms: C1_1  and  C7_7 
REMARK    2  A    between atoms: C2_2  and  C9_9 
REMARK    3  A    between atoms: C9_9  and  C11_11 
REMARK    4  A    between atoms: C10_10  and  C11_11 
ROOT
HETATM    1  C3  UNL     1     -35.836  15.111  -5.665  1.00 20.00     0.006 C 
HETATM    2  C4  UNL     1     -34.802  13.999  -5.797  1.00 20.00     0.026 C 
HETATM    3  C5  UNL     1     -35.523  15.995  -4.461  1.00 20.00     0.045 C 
HETATM    4  C6  UNL     1     -34.634  13.261  -4.474  1.00 20.00     0.169 C 
HETATM    5  C7  UNL     1     -35.322  15.145  -3.203  1.00 20.00     0.200 C 
HETATM    6  O12 UNL     1     -34.299  14.170  -3.427  1.00 20.00    -0.374 OA
ENDROOT
BRANCH   5   7
HETATM    7  C1  UNL     1     -34.927  15.990  -2.068  1.00 20.00    -0.074 C 
HETATM    8  C2  UNL     1     -34.604  16.681  -1.141  1.00 20.00    -0.104 C 
BRANCH   8   9
HETATM    9  C9  UNL     1     -34.207  17.527  -0.006  1.00 20.00     0.094 C 
BRANCH   9  10
HETATM   10  C11 UNL     1     -35.299  17.559   1.064  1.00 20.00     0.012 C 
BRANCH  10  11
HETATM   11  C10 UNL     1     -34.764  18.100   2.389  1.00 20.00    -0.004 C 
HETATM   12  C8  UNL     1     -33.429  18.805   2.207  1.00 20.00     0.005 C 
ENDBRANCH  10  11
ENDBRANCH   9  10
ENDBRANCH   8   9
ENDBRANCH   5   7
TORSDOF 4
ENDMDL
MODEL 8
REMARK VINA RESULT:      -4.5     10.588     12.043
REMARK  4 active torsions:
REMARK  status: ('A' for Active; 'I' for Inactive)
REMARK    1  A    between atoms: C1_1  and  C7_7 
REMARK    2  A    between atoms: C2_2  and  C9_9 
REMARK    3  A    between atoms: C9_9  and  C11_11 
REMARK    4  A    between atoms: C10_10  and  C11_11 
ROOT
HETATM    1  C3  UNL     1     -35.372   4.212   4.737  1.00 20.00     0.006 C 
HETATM    2  C4  UNL     1     -34.813   4.292   6.152  1.00 20.00     0.026 C 
HETATM    3  C5  UNL     1     -34.473   4.965   3.761  1.00 20.00     0.045 C 
HETATM    4  C6  UNL     1     -34.510   5.737   6.530  1.00 20.00     0.169 C 
HETATM    5  C7  UNL     1     -34.191   6.382   4.266  1.00 20.00     0.200 C 
HETATM    6  O12 UNL     1     -33.627   6.332   5.579  1.00 20.00    -0.374 OA
ENDROOT
BRANCH   5   7
HETATM    7  C1  UNL     1     -33.250   7.070   3.373  1.00 20.00    -0.074 C 
HETATM    8  C2  UNL     1     -32.479   7.632   2.643  1.00 20.00    -0.104 C 
BRANCH   8   9
HETATM    9  C9  UNL     1     -31.537   8.323   1.751  1.00 20.00     0.094 C 
BRANCH   9  10
HETATM   10  C11 UNL     1     -32.116   9.650   1.262  1.00 20.00     0.012 C 
BRANCH  10  11
HETATM   11  C10 UNL     1     -32.988   9.454   0.022  1.00 20.00    -0.004 C 
HETATM   12  C8  UNL     1     -32.444   8.355  -0.876  1.00 20.00     0.005 C 
ENDBRANCH  10  11
ENDBRANCH   9  10
ENDBRANCH   8   9
ENDBRANCH   5   7
TORSDOF 4
ENDMDL
MODEL 9
REMARK VINA RESULT:      -4.4      1.279      5.888
REMARK  4 active torsions:
REMARK  status: ('A' for Active; 'I' for Inactive)
REMARK    1  A    between atoms: C1_1  and  C7_7 
REMARK    2  A    between atoms: C2_2  and  C9_9 
REMARK    3  A    between atoms: C9_9  and  C11_11 
REMARK    4  A    between atoms: C10_10  and  C11_11 
ROOT
HETATM    1  C3  UNL     1     -34.278  18.008   0.405  1.00 20.00     0.006 C 
HETATM    2  C4  UNL     1     -33.081  18.721  -0.212  1.00 20.00     0.026 C 
HETATM    3  C5  UNL     1     -34.650  16.775  -0.413  1.00 20.00     0.045 C 
HETATM    4  C6  UNL     1     -33.312  18.971  -1.697  1.00 20.00     0.169 C 
HETATM    5  C7  UNL     1     -34.803  17.133  -1.893  1.00 20.00     0.200 C 
HETATM    6  O12 UNL     1     -33.606  17.751  -2.375  1.00 20.00    -0.374 OA
ENDROOT
BRANCH   5   7
HETATM    7  C1  UNL     1     -35.066  15.928  -2.691  1.00 20.00    -0.074 C 
HETATM    8  C2  UNL     1     -35.281  14.943  -3.343  1.00 20.00    -0.104 C 
BRANCH   8   9
HETATM    9  C9  UNL     1     -35.543  13.735  -4.139  1.00 20.00     0.094 C 
BRANCH   9  10
HETATM   10  C11 UNL     1     -34.577  13.635  -5.319  1.00 20.00     0.012 C 
BRANCH  10  11
HETATM   11  C10 UNL     1     -34.636  14.884  -6.196  1.00 20.00    -0.004 C 
HETATM   12  C8  UNL     1     -35.194  14.571  -7.576  1.00 20.00     0.005 C 
ENDBRANCH  10  11
ENDBRANCH   9  10
ENDBRANCH   8   9
ENDBRANCH   5   7
TORSDOF 4
ENDMDL
