MODEL 1
REMARK VINA RESULT:      -5.0      0.000      0.000
REMARK  2 active torsions:
REMARK  status: ('A' for Active; 'I' for Inactive)
REMARK    1  A    between atoms: C6_6  and  O8_8 
REMARK    2  A    between atoms: N7_7  and  O8_8 
ROOT
HETATM    1  C1  UNL     1     -32.005   8.771   1.467  1.00 20.00     0.014 C 
HETATM    2  C2  UNL     1     -32.153   7.826   2.191  1.00 20.00    -0.089 C 
HETATM    3  C6  UNL     1     -32.330   6.672   3.074  1.00 20.00     0.296 C 
ENDROOT
BRANCH   3   4
HETATM    4  O8  UNL     1     -33.446   6.868   3.930  1.00 20.00    -0.244 OA
BRANCH   4   5
HETATM    5  N7  UNL     1     -34.086   5.634   4.101  1.00 20.00    -0.143 NA
HETATM    6  C3  UNL     1     -34.377   5.429   5.349  1.00 20.00     0.032 C 
HETATM    7  C4  UNL     1     -35.069   4.191   5.865  1.00 20.00     0.067 C 
HETATM    8  C5  UNL     1     -33.996   6.483   6.354  1.00 20.00     0.067 C 
ENDBRANCH   4   5
ENDBRANCH   3   4
TORSDOF 2
ENDMDL
MODEL 2
REMARK VINA RESULT:      -4.8      0.976      1.325
REMARK  2 active torsions:
REMARK  status: ('A' for Active; 'I' for Inactive)
REMARK    1  A    between atoms: C6_6  and  O8_8 
REMARK    2  A    between atoms: N7_7  and  O8_8 
ROOT
HETATM    1  C1  UNL     1     -32.152   9.130   1.099  1.00 20.00     0.014 C 
HETATM    2  C2  UNL     1     -32.077   8.299   1.961  1.00 20.00    -0.089 C 
HETATM    3  C6  UNL     1     -31.983   7.285   3.013  1.00 20.00     0.296 C 
ENDROOT
BRANCH   3   4
HETATM    4  O8  UNL     1     -33.261   6.730   3.284  1.00 20.00    -0.244 OA
BRANCH   4   5
HETATM    5  N7  UNL     1     -33.301   6.369   4.637  1.00 20.00    -0.143 NA
HETATM    6  C3  UNL     1     -34.350   5.650   4.896  1.00 20.00     0.032 C 
HETATM    7  C4  UNL     1     -34.684   5.103   6.262  1.00 20.00     0.067 C 
HETATM    8  C5  UNL     1     -35.302   5.344   3.771  1.00 20.00     0.067 C 
ENDBRANCH   4   5
ENDBRANCH   3   4
TORSDOF 2
ENDMDL
MODEL 3
REMARK VINA RESULT:      -4.1      1.209      4.557
REMARK  2 active torsions:
REMARK  status: ('A' for Active; 'I' for Inactive)
REMARK    1  A    between atoms: C6_6  and  O8_8 
REMARK    2  A    between atoms: N7_7  and  O8_8 
ROOT
HETATM    1  C1  UNL     1     -35.050   4.583   6.335  1.00 20.00     0.014 C 
HETATM    2  C2  UNL     1     -34.838   4.966   5.218  1.00 20.00    -0.089 C 
HETATM    3  C6  UNL     1     -34.583   5.432   3.854  1.00 20.00     0.296 C 
ENDROOT
BRANCH   3   4
HETATM    4  O8  UNL     1     -33.266   5.952   3.746  1.00 20.00    -0.244 OA
BRANCH   4   5
HETATM    5  N7  UNL     1     -33.190   6.701   2.565  1.00 20.00    -0.143 NA
HETATM    6  C3  UNL     1     -32.233   7.576   2.629  1.00 20.00     0.032 C 
HETATM    7  C4  UNL     1     -31.890   8.539   1.519  1.00 20.00     0.067 C 
HETATM    8  C5  UNL     1     -31.412   7.645   3.889  1.00 20.00     0.067 C 
ENDBRANCH   4   5
ENDBRANCH   3   4
TORSDOF 2
ENDMDL
MODEL 4
REMARK VINA RESULT:      -3.8      1.545      4.335
REMARK  2 active torsions:
REMARK  status: ('A' for Active; 'I' for Inactive)
REMARK    1  A    between atoms: C6_6  and  O8_8 
REMARK    2  A    between atoms: N7_7  and  O8_8 
ROOT
HETATM    1  C1  UNL     1     -34.516   4.669   6.525  1.00 20.00     0.014 C 
HETATM    2  C2  UNL     1     -34.985   4.880   5.441  1.00 20.00    -0.089 C 
HETATM    3  C6  UNL     1     -35.559   5.137   4.120  1.00 20.00     0.296 C 
ENDROOT
BRANCH   3   4
HETATM    4  O8  UNL     1     -34.540   5.478   3.192  1.00 20.00    -0.244 OA
BRANCH   4   5
HETATM    5  N7  UNL     1     -33.888   6.625   3.663  1.00 20.00    -0.143 NA
HETATM    6  C3  UNL     1     -32.625   6.599   3.367  1.00 20.00     0.032 C 
HETATM    7  C4  UNL     1     -31.646   7.686   3.734  1.00 20.00     0.067 C 
HETATM    8  C5  UNL     1     -32.093   5.407   2.615  1.00 20.00     0.067 C 
ENDBRANCH   4   5
ENDBRANCH   3   4
TORSDOF 2
ENDMDL
MODEL 5
REMARK VINA RESULT:      -3.6     11.610     12.470
REMARK  2 active torsions:
REMARK  status: ('A' for Active; 'I' for Inactive)
REMARK    1  A    between atoms: C6_6  and  O8_8 
REMARK    2  A    between atoms: N7_7  and  O8_8 
ROOT
HETATM    1  C1  UNL     1     -34.801  16.942  -0.348  1.00 20.00     0.014 C 
HETATM    2  C2  UNL     1     -34.328  16.586  -1.392  1.00 20.00    -0.089 C 
HETATM    3  C6  UNL     1     -33.749  16.154  -2.665  1.00 20.00     0.296 C 
ENDROOT
BRANCH   3   4
HETATM    4  O8  UNL     1     -34.623  15.253  -3.328  1.00 20.00    -0.244 OA
BRANCH   4   5
HETATM    5  N7  UNL     1     -34.700  15.631  -4.674  1.00 20.00    -0.143 NA
HETATM    6  C3  UNL     1     -34.725  14.590  -5.450  1.00 20.00     0.032 C 
HETATM    7  C4  UNL     1     -34.805  14.658  -6.955  1.00 20.00     0.067 C 
HETATM    8  C5  UNL     1     -34.665  13.226  -4.816  1.00 20.00     0.067 C 
ENDBRANCH   4   5
ENDBRANCH   3   4
TORSDOF 2
ENDMDL
MODEL 6
REMARK VINA RESULT:      -3.6     11.364     11.736
REMARK  2 active torsions:
REMARK  status: ('A' for Active; 'I' for Inactive)
REMARK    1  A    between atoms: C6_6  and  O8_8 
REMARK    2  A    between atoms: N7_7  and  O8_8 
ROOT
HETATM    1  C1  UNL     1     -35.032  17.468   0.668  1.00 20.00     0.014 C 
HETATM    2  C2  UNL     1     -34.644  17.089  -0.403  1.00 20.00    -0.089 C 
HETATM    3  C6  UNL     1     -34.170  16.628  -1.708  1.00 20.00     0.296 C 
ENDROOT
BRANCH   3   4
HETATM    4  O8  UNL     1     -35.091  15.709  -2.276  1.00 20.00    -0.244 OA
BRANCH   4   5
HETATM    5  N7  UNL     1     -34.373  14.811  -3.076  1.00 20.00    -0.143 NA
HETATM    6  C3  UNL     1     -35.156  14.204  -3.914  1.00 20.00     0.032 C 
HETATM    7  C4  UNL     1     -34.691  13.175  -4.914  1.00 20.00     0.067 C 
HETATM    8  C5  UNL     1     -36.624  14.538  -3.889  1.00 20.00     0.067 C 
ENDBRANCH   4   5
ENDBRANCH   3   4
TORSDOF 2
ENDMDL
MODEL 7
REMARK VINA RESULT:      -3.5      1.270      1.997
REMARK  2 active torsions:
REMARK  status: ('A' for Active; 'I' for Inactive)
REMARK    1  A    between atoms: C6_6  and  O8_8 
REMARK    2  A    between atoms: N7_7  and  O8_8 
ROOT
HETATM    1  C1  UNL     1     -31.884   7.057   2.895  1.00 20.00     0.014 C 
HETATM    2  C2  UNL     1     -32.795   6.291   2.740  1.00 20.00    -0.089 C 
HETATM    3  C6  UNL     1     -33.905   5.357   2.549  1.00 20.00     0.296 C 
ENDROOT
BRANCH   3   4
HETATM    4  O8  UNL     1     -34.695   5.276   3.726  1.00 20.00    -0.244 OA
BRANCH   4   5
HETATM    5  N7  UNL     1     -34.348   6.348   4.558  1.00 20.00    -0.143 NA
HETATM    6  C3  UNL     1     -34.283   5.973   5.799  1.00 20.00     0.032 C 
HETATM    7  C4  UNL     1     -33.934   6.892   6.944  1.00 20.00     0.067 C 
HETATM    8  C5  UNL     1     -34.578   4.534   6.126  1.00 20.00     0.067 C 
ENDBRANCH   4   5
ENDBRANCH   3   4
TORSDOF 2
ENDMDL
MODEL 8
REMARK VINA RESULT:      -3.5     11.483     12.185
REMARK  2 active torsions:
REMARK  status: ('A' for Active; 'I' for Inactive)
REMARK    1  A    between atoms: C6_6  and  O8_8 
REMARK    2  A    between atoms: N7_7  and  O8_8 
ROOT
HETATM    1  C1  UNL     1     -35.300  14.733  -7.351  1.00 20.00     0.014 C 
HETATM    2  C2  UNL     1     -35.051  14.094  -6.366  1.00 20.00    -0.089 C 
HETATM    3  C6  UNL     1     -34.750  13.313  -5.166  1.00 20.00     0.296 C 
ENDROOT
BRANCH   3   4
HETATM    4  O8  UNL     1     -33.771  13.972  -4.376  1.00 20.00    -0.244 OA
BRANCH   4   5
HETATM    5  N7  UNL     1     -34.359  14.318  -3.153  1.00 20.00    -0.143 NA
HETATM    6  C3  UNL     1     -34.189  15.578  -2.893  1.00 20.00     0.032 C 
HETATM    7  C4  UNL     1     -34.702  16.264  -1.651  1.00 20.00     0.067 C 
HETATM    8  C5  UNL     1     -33.427  16.415  -3.886  1.00 20.00     0.067 C 
ENDBRANCH   4   5
ENDBRANCH   3   4
TORSDOF 2
ENDMDL
MODEL 9
REMARK VINA RESULT:      -3.4     11.819     13.055
REMARK  2 active torsions:
REMARK  status: ('A' for Active; 'I' for Inactive)
REMARK    1  A    between atoms: C6_6  and  O8_8 
REMARK    2  A    between atoms: N7_7  and  O8_8 
ROOT
HETATM    1  C1  UNL     1     -34.718  14.823  -7.523  1.00 20.00     0.014 C 
HETATM    2  C2  UNL     1     -34.282  15.726  -6.863  1.00 20.00    -0.089 C 
HETATM    3  C6  UNL     1     -33.753  16.829  -6.060  1.00 20.00     0.296 C 
ENDROOT
BRANCH   3   4
HETATM    4  O8  UNL     1     -32.983  16.329  -4.976  1.00 20.00    -0.244 OA
BRANCH   4   5
HETATM    5  N7  UNL     1     -33.481  16.891  -3.794  1.00 20.00    -0.143 NA
HETATM    6  C3  UNL     1     -33.898  15.971  -2.979  1.00 20.00     0.032 C 
HETATM    7  C4  UNL     1     -34.492  16.248  -1.620  1.00 20.00     0.067 C 
HETATM    8  C5  UNL     1     -33.792  14.533  -3.413  1.00 20.00     0.067 C 
ENDBRANCH   4   5
ENDBRANCH   3   4
TORSDOF 2
ENDMDL
