MODEL 1
REMARK VINA RESULT:      -4.1      0.000      0.000
REMARK  1 active torsions:
REMARK  status: ('A' for Active; 'I' for Inactive)
REMARK    1  A    between atoms: C3_3  and  C8_8 
ROOT
HETATM    1  C1  UNL     1     -35.937  14.305  -3.916  1.00 20.00     0.048 A 
HETATM    2  C2  UNL     1     -35.298  13.165  -4.438  1.00 20.00     0.141 A 
HETATM    3  C3  UNL     1     -34.909  15.114  -3.497  1.00 20.00     0.039 A 
HETATM    4  C7  UNL     1     -32.408  14.874  -3.528  1.00 20.00     0.179 C 
HETATM    5  N9  UNL     1     -33.966  13.240  -4.358  1.00 20.00    -0.185 NA
HETATM    6  N10 UNL     1     -33.761  14.436  -3.782  1.00 20.00    -0.278 N 
ENDROOT
BRANCH   3   7
HETATM    7  C8  UNL     1     -34.921  16.502  -2.835  1.00 20.00    -0.007 C 
HETATM    8  C4  UNL     1     -34.558  16.368  -1.340  1.00 20.00     0.021 C 
HETATM    9  C5  UNL     1     -36.327  17.126  -2.962  1.00 20.00     0.021 C 
HETATM   10  C6  UNL     1     -33.921  17.502  -3.459  1.00 20.00     0.021 C 
ENDBRANCH   3   7
TORSDOF 1
ENDMDL
MODEL 2
REMARK VINA RESULT:      -4.0     11.344     12.593
REMARK  1 active torsions:
REMARK  status: ('A' for Active; 'I' for Inactive)
REMARK    1  A    between atoms: C3_3  and  C8_8 
ROOT
HETATM    1  C1  UNL     1     -42.138   7.520  -2.206  1.00 20.00     0.048 A 
HETATM    2  C2  UNL     1     -42.903   7.682  -3.377  1.00 20.00     0.141 A 
HETATM    3  C3  UNL     1     -42.156   6.167  -1.969  1.00 20.00     0.039 A 
HETATM    4  C7  UNL     1     -43.212   4.224  -3.161  1.00 20.00     0.179 C 
HETATM    5  N9  UNL     1     -43.372   6.524  -3.849  1.00 20.00    -0.185 NA
HETATM    6  N10 UNL     1     -42.901   5.622  -2.972  1.00 20.00    -0.278 N 
ENDROOT
BRANCH   3   7
HETATM    7  C8  UNL     1     -41.515   5.329  -0.850  1.00 20.00    -0.007 C 
HETATM    8  C4  UNL     1     -42.619   4.722   0.042  1.00 20.00     0.021 C 
HETATM    9  C5  UNL     1     -40.602   6.226   0.014  1.00 20.00     0.021 C 
HETATM   10  C6  UNL     1     -40.648   4.157  -1.363  1.00 20.00     0.021 C 
ENDBRANCH   3   7
TORSDOF 1
ENDMDL
MODEL 3
REMARK VINA RESULT:      -3.9      2.412      3.301
REMARK  1 active torsions:
REMARK  status: ('A' for Active; 'I' for Inactive)
REMARK    1  A    between atoms: C3_3  and  C8_8 
ROOT
HETATM    1  C1  UNL     1     -34.808  14.728  -6.541  1.00 20.00     0.048 A 
HETATM    2  C2  UNL     1     -34.793  15.740  -7.518  1.00 20.00     0.141 A 
HETATM    3  C3  UNL     1     -34.328  15.338  -5.407  1.00 20.00     0.039 A 
HETATM    4  C7  UNL     1     -33.543  17.672  -4.910  1.00 20.00     0.179 C 
HETATM    5  N9  UNL     1     -34.340  16.905  -7.047  1.00 20.00    -0.185 NA
HETATM    6  N10 UNL     1     -34.066  16.628  -5.761  1.00 20.00    -0.278 N 
ENDROOT
BRANCH   3   7
HETATM    7  C8  UNL     1     -34.092  14.792  -3.989  1.00 20.00    -0.007 C 
HETATM    8  C4  UNL     1     -32.581  14.808  -3.672  1.00 20.00     0.021 C 
HETATM    9  C5  UNL     1     -34.614  13.342  -3.896  1.00 20.00     0.021 C 
HETATM   10  C6  UNL     1     -34.799  15.603  -2.880  1.00 20.00     0.021 C 
ENDBRANCH   3   7
TORSDOF 1
ENDMDL
MODEL 4
REMARK VINA RESULT:      -3.8      1.041      2.295
REMARK  1 active torsions:
REMARK  status: ('A' for Active; 'I' for Inactive)
REMARK    1  A    between atoms: C3_3  and  C8_8 
ROOT
HETATM    1  C1  UNL     1     -33.545  14.424  -3.812  1.00 20.00     0.048 A 
HETATM    2  C2  UNL     1     -34.033  13.235  -4.386  1.00 20.00     0.141 A 
HETATM    3  C3  UNL     1     -34.673  15.138  -3.489  1.00 20.00     0.039 A 
HETATM    4  C7  UNL     1     -37.130  14.681  -3.744  1.00 20.00     0.179 C 
HETATM    5  N9  UNL     1     -35.367  13.193  -4.427  1.00 20.00    -0.185 NA
HETATM    6  N10 UNL     1     -35.727  14.363  -3.875  1.00 20.00    -0.278 N 
ENDROOT
BRANCH   3   7
HETATM    7  C8  UNL     1     -34.842  16.518  -2.834  1.00 20.00    -0.007 C 
HETATM    8  C4  UNL     1     -33.729  17.468  -3.330  1.00 20.00     0.021 C 
HETATM    9  C5  UNL     1     -34.745  16.382  -1.300  1.00 20.00     0.021 C 
HETATM   10  C6  UNL     1     -36.194  17.199  -3.147  1.00 20.00     0.021 C 
ENDBRANCH   3   7
TORSDOF 1
ENDMDL
MODEL 5
REMARK VINA RESULT:      -3.8      1.941      3.741
REMARK  1 active torsions:
REMARK  status: ('A' for Active; 'I' for Inactive)
REMARK    1  A    between atoms: C3_3  and  C8_8 
ROOT
HETATM    1  C1  UNL     1     -33.873  17.038  -5.466  1.00 20.00     0.048 A 
HETATM    2  C2  UNL     1     -33.573  18.221  -4.765  1.00 20.00     0.141 A 
HETATM    3  C3  UNL     1     -34.209  16.134  -4.487  1.00 20.00     0.039 A 
HETATM    4  C7  UNL     1     -34.345  16.281  -1.983  1.00 20.00     0.179 C 
HETATM    5  N9  UNL     1     -33.708  18.085  -3.443  1.00 20.00    -0.185 NA
HETATM    6  N10 UNL     1     -34.095  16.806  -3.306  1.00 20.00    -0.278 N 
ENDROOT
BRANCH   3   7
HETATM    7  C8  UNL     1     -34.637  14.661  -4.577  1.00 20.00    -0.007 C 
HETATM    8  C4  UNL     1     -34.727  14.235  -6.059  1.00 20.00     0.021 C 
HETATM    9  C5  UNL     1     -36.019  14.479  -3.913  1.00 20.00     0.021 C 
HETATM   10  C6  UNL     1     -33.665  13.682  -3.880  1.00 20.00     0.021 C 
ENDBRANCH   3   7
TORSDOF 1
ENDMDL
MODEL 6
REMARK VINA RESULT:      -3.8      1.693      2.535
REMARK  1 active torsions:
REMARK  status: ('A' for Active; 'I' for Inactive)
REMARK    1  A    between atoms: C3_3  and  C8_8 
ROOT
HETATM    1  C1  UNL     1     -36.503  16.187  -3.410  1.00 20.00     0.048 A 
HETATM    2  C2  UNL     1     -37.495  15.191  -3.472  1.00 20.00     0.141 A 
HETATM    3  C3  UNL     1     -35.379  15.584  -3.920  1.00 20.00     0.039 A 
HETATM    4  C7  UNL     1     -34.918  13.283  -4.817  1.00 20.00     0.179 C 
HETATM    5  N9  UNL     1     -37.042  14.043  -3.981  1.00 20.00    -0.185 NA
HETATM    6  N10 UNL     1     -35.752  14.313  -4.243  1.00 20.00    -0.278 N 
ENDROOT
BRANCH   3   7
HETATM    7  C8  UNL     1     -33.953  16.118  -4.131  1.00 20.00    -0.007 C 
HETATM    8  C4  UNL     1     -32.931  15.113  -3.556  1.00 20.00     0.021 C 
HETATM    9  C5  UNL     1     -33.793  17.473  -3.408  1.00 20.00     0.021 C 
HETATM   10  C6  UNL     1     -33.582  16.346  -5.614  1.00 20.00     0.021 C 
ENDBRANCH   3   7
TORSDOF 1
ENDMDL
MODEL 7
REMARK VINA RESULT:      -3.8      1.937      2.478
REMARK  1 active torsions:
REMARK  status: ('A' for Active; 'I' for Inactive)
REMARK    1  A    between atoms: C3_3  and  C8_8 
ROOT
HETATM    1  C1  UNL     1     -34.792  14.047  -5.732  1.00 20.00     0.048 A 
HETATM    2  C2  UNL     1     -34.573  13.079  -4.734  1.00 20.00     0.141 A 
HETATM    3  C3  UNL     1     -34.594  15.248  -5.096  1.00 20.00     0.039 A 
HETATM    4  C7  UNL     1     -33.982  15.866  -2.738  1.00 20.00     0.179 C 
HETATM    5  N9  UNL     1     -34.259  13.619  -3.553  1.00 20.00    -0.185 NA
HETATM    6  N10 UNL     1     -34.280  14.938  -3.805  1.00 20.00    -0.278 N 
ENDROOT
BRANCH   3   7
HETATM    7  C8  UNL     1     -34.679  16.692  -5.615  1.00 20.00    -0.007 C 
HETATM    8  C4  UNL     1     -35.934  17.380  -5.035  1.00 20.00     0.021 C 
HETATM    9  C5  UNL     1     -34.770  16.687  -7.156  1.00 20.00     0.021 C 
HETATM   10  C6  UNL     1     -33.463  17.568  -5.233  1.00 20.00     0.021 C 
ENDBRANCH   3   7
TORSDOF 1
ENDMDL
MODEL 8
REMARK VINA RESULT:      -3.8      2.466      3.355
REMARK  1 active torsions:
REMARK  status: ('A' for Active; 'I' for Inactive)
REMARK    1  A    between atoms: C3_3  and  C8_8 
ROOT
HETATM    1  C1  UNL     1     -37.060  16.159  -4.790  1.00 20.00     0.048 A 
HETATM    2  C2  UNL     1     -37.755  15.216  -4.010  1.00 20.00     0.141 A 
HETATM    3  C3  UNL     1     -35.870  15.544  -5.093  1.00 20.00     0.039 A 
HETATM    4  C7  UNL     1     -34.902  13.295  -4.528  1.00 20.00     0.179 C 
HETATM    5  N9  UNL     1     -37.064  14.087  -3.829  1.00 20.00    -0.185 NA
HETATM    6  N10 UNL     1     -35.922  14.318  -4.499  1.00 20.00    -0.278 N 
ENDROOT
BRANCH   3   7
HETATM    7  C8  UNL     1     -34.663  16.028  -5.912  1.00 20.00    -0.007 C 
HETATM    8  C4  UNL     1     -34.963  17.421  -6.507  1.00 20.00     0.021 C 
HETATM    9  C5  UNL     1     -34.382  15.036  -7.062  1.00 20.00     0.021 C 
HETATM   10  C6  UNL     1     -33.359  16.155  -5.092  1.00 20.00     0.021 C 
ENDBRANCH   3   7
TORSDOF 1
ENDMDL
MODEL 9
REMARK VINA RESULT:      -3.8      2.506      3.268
REMARK  1 active torsions:
REMARK  status: ('A' for Active; 'I' for Inactive)
REMARK    1  A    between atoms: C3_3  and  C8_8 
ROOT
HETATM    1  C1  UNL     1     -37.075  16.177  -4.778  1.00 20.00     0.048 A 
HETATM    2  C2  UNL     1     -37.747  15.250  -3.960  1.00 20.00     0.141 A 
HETATM    3  C3  UNL     1     -35.904  15.547  -5.122  1.00 20.00     0.039 A 
HETATM    4  C7  UNL     1     -34.938  13.293  -4.574  1.00 20.00     0.179 C 
HETATM    5  N9  UNL     1     -37.060  14.116  -3.795  1.00 20.00    -0.185 NA
HETATM    6  N10 UNL     1     -35.945  14.327  -4.514  1.00 20.00    -0.278 N 
ENDROOT
BRANCH   3   7
HETATM    7  C8  UNL     1     -34.726  16.009  -5.996  1.00 20.00    -0.007 C 
HETATM    8  C4  UNL     1     -33.466  16.182  -5.120  1.00 20.00     0.021 C 
HETATM    9  C5  UNL     1     -35.071  17.360  -6.660  1.00 20.00     0.021 C 
HETATM   10  C6  UNL     1     -34.361  15.024  -7.129  1.00 20.00     0.021 C 
ENDBRANCH   3   7
TORSDOF 1
ENDMDL
