MODEL 1
REMARK VINA RESULT:      -4.7      0.000      0.000
REMARK  3 active torsions:
REMARK  status: ('A' for Active; 'I' for Inactive)
REMARK    1  A    between atoms: C3_3  and  C9_9 
REMARK    2  A    between atoms: C8_8  and  C10_10 
REMARK    3  A    between atoms: C9_9  and  C10_10 
ROOT
HETATM    1  C1  UNL     1     -34.493   4.747   5.588  1.00 20.00    -0.026 C 
HETATM    2  C2  UNL     1     -34.110   6.031   5.617  1.00 20.00    -0.025 C 
HETATM    3  C4  UNL     1     -35.782   5.870   4.034  1.00 20.00     0.017 C 
HETATM    4  C5  UNL     1     -34.001   4.536   3.177  1.00 20.00     0.013 C 
HETATM    5  C6  UNL     1     -35.126   4.501   4.238  1.00 20.00     0.009 C 
HETATM    6  C7  UNL     1     -34.480   6.641   4.284  1.00 20.00     0.012 C 
HETATM    7  C8  UNL     1     -33.586   6.041   3.166  1.00 20.00    -0.006 C 
ENDROOT
BRANCH   7   8
HETATM    8  C10 UNL     1     -32.092   6.261   3.345  1.00 20.00     0.012 C 
BRANCH   8   9
HETATM    9  C9  UNL     1     -31.727   7.735   3.224  1.00 20.00     0.070 C 
BRANCH   9  10
HETATM   10  C3  UNL     1     -32.102   8.317   1.883  1.00 20.00     0.231 C 
HETATM   11  O11 UNL     1     -32.468   9.472   1.699  1.00 20.00    -0.307 OA
ENDBRANCH   9  10
ENDBRANCH   8   9
ENDBRANCH   7   8
TORSDOF 3
ENDMDL
MODEL 2
REMARK VINA RESULT:      -4.4     11.084     12.045
REMARK  3 active torsions:
REMARK  status: ('A' for Active; 'I' for Inactive)
REMARK    1  A    between atoms: C3_3  and  C9_9 
REMARK    2  A    between atoms: C8_8  and  C10_10 
REMARK    3  A    between atoms: C9_9  and  C10_10 
ROOT
HETATM    1  C1  UNL     1     -34.228  15.434  -5.476  1.00 20.00    -0.026 C 
HETATM    2  C2  UNL     1     -33.372  15.934  -4.575  1.00 20.00    -0.025 C 
HETATM    3  C4  UNL     1     -33.600  13.687  -4.101  1.00 20.00     0.017 C 
HETATM    4  C5  UNL     1     -35.767  14.611  -3.729  1.00 20.00     0.013 C 
HETATM    5  C6  UNL     1     -34.824  14.181  -4.877  1.00 20.00     0.009 C 
HETATM    6  C7  UNL     1     -33.403  15.021  -3.370  1.00 20.00     0.012 C 
HETATM    7  C8  UNL     1     -34.772  15.146  -2.651  1.00 20.00    -0.006 C 
ENDROOT
BRANCH   7   8
HETATM    8  C10 UNL     1     -35.113  16.541  -2.148  1.00 20.00     0.012 C 
BRANCH   8   9
HETATM    9  C9  UNL     1     -34.542  16.787  -0.758  1.00 20.00     0.070 C 
BRANCH   9  10
HETATM   10  C3  UNL     1     -33.516  17.895  -0.741  1.00 20.00     0.231 C 
HETATM   11  O11 UNL     1     -33.268  18.633  -1.688  1.00 20.00    -0.307 OA
ENDBRANCH   9  10
ENDBRANCH   8   9
ENDBRANCH   7   8
TORSDOF 3
ENDMDL
MODEL 3
REMARK VINA RESULT:      -4.4     11.327     12.396
REMARK  3 active torsions:
REMARK  status: ('A' for Active; 'I' for Inactive)
REMARK    1  A    between atoms: C3_3  and  C9_9 
REMARK    2  A    between atoms: C8_8  and  C10_10 
REMARK    3  A    between atoms: C9_9  and  C10_10 
ROOT
HETATM    1  C1  UNL     1     -35.177  18.657  -2.213  1.00 20.00    -0.026 C 
HETATM    2  C2  UNL     1     -35.815  17.736  -1.476  1.00 20.00    -0.025 C 
HETATM    3  C4  UNL     1     -33.573  17.573  -0.951  1.00 20.00     0.017 C 
HETATM    4  C5  UNL     1     -33.705  16.969  -3.254  1.00 20.00     0.013 C 
HETATM    5  C6  UNL     1     -33.738  18.212  -2.334  1.00 20.00     0.009 C 
HETATM    6  C7  UNL     1     -34.804  16.673  -1.113  1.00 20.00     0.012 C 
HETATM    7  C8  UNL     1     -34.399  15.877  -2.382  1.00 20.00    -0.006 C 
ENDROOT
BRANCH   7   8
HETATM    8  C10 UNL     1     -35.541  15.167  -3.092  1.00 20.00     0.012 C 
BRANCH   8   9
HETATM    9  C9  UNL     1     -35.232  14.951  -4.567  1.00 20.00     0.070 C 
BRANCH   9  10
HETATM   10  C3  UNL     1     -34.508  13.652  -4.825  1.00 20.00     0.231 C 
HETATM   11  O11 UNL     1     -34.936  12.542  -4.528  1.00 20.00    -0.307 OA
ENDBRANCH   9  10
ENDBRANCH   8   9
ENDBRANCH   7   8
TORSDOF 3
ENDMDL
MODEL 4
REMARK VINA RESULT:      -4.3     11.059     11.997
REMARK  3 active torsions:
REMARK  status: ('A' for Active; 'I' for Inactive)
REMARK    1  A    between atoms: C3_3  and  C9_9 
REMARK    2  A    between atoms: C8_8  and  C10_10 
REMARK    3  A    between atoms: C9_9  and  C10_10 
ROOT
HETATM    1  C1  UNL     1     -34.194  15.519  -5.508  1.00 20.00    -0.026 C 
HETATM    2  C2  UNL     1     -33.343  15.951  -4.567  1.00 20.00    -0.025 C 
HETATM    3  C4  UNL     1     -33.693  13.704  -4.168  1.00 20.00     0.017 C 
HETATM    4  C5  UNL     1     -35.823  14.722  -3.832  1.00 20.00     0.013 C 
HETATM    5  C6  UNL     1     -34.868  14.280  -4.965  1.00 20.00     0.009 C 
HETATM    6  C7  UNL     1     -33.455  15.006  -3.393  1.00 20.00     0.012 C 
HETATM    7  C8  UNL     1     -34.838  15.176  -2.710  1.00 20.00    -0.006 C 
ENDROOT
BRANCH   7   8
HETATM    8  C10 UNL     1     -35.127  16.570  -2.175  1.00 20.00     0.012 C 
BRANCH   8   9
HETATM    9  C9  UNL     1     -34.189  16.935  -1.032  1.00 20.00     0.070 C 
BRANCH   9  10
HETATM   10  C3  UNL     1     -34.929  17.294   0.234  1.00 20.00     0.231 C 
HETATM   11  O11 UNL     1     -34.459  17.951   1.156  1.00 20.00    -0.307 OA
ENDBRANCH   9  10
ENDBRANCH   8   9
ENDBRANCH   7   8
TORSDOF 3
ENDMDL
MODEL 5
REMARK VINA RESULT:      -4.3     10.776     11.949
REMARK  3 active torsions:
REMARK  status: ('A' for Active; 'I' for Inactive)
REMARK    1  A    between atoms: C3_3  and  C9_9 
REMARK    2  A    between atoms: C8_8  and  C10_10 
REMARK    3  A    between atoms: C9_9  and  C10_10 
ROOT
HETATM    1  C1  UNL     1     -36.472  14.344  -4.216  1.00 20.00    -0.026 C 
HETATM    2  C2  UNL     1     -36.184  15.541  -4.746  1.00 20.00    -0.025 C 
HETATM    3  C4  UNL     1     -34.707  14.029  -5.674  1.00 20.00     0.017 C 
HETATM    4  C5  UNL     1     -34.178  14.049  -3.349  1.00 20.00     0.013 C 
HETATM    5  C6  UNL     1     -35.229  13.493  -4.338  1.00 20.00     0.009 C 
HETATM    6  C7  UNL     1     -34.748  15.492  -5.214  1.00 20.00     0.012 C 
HETATM    7  C8  UNL     1     -33.798  15.421  -3.989  1.00 20.00    -0.006 C 
ENDROOT
BRANCH   7   8
HETATM    8  C10 UNL     1     -33.901  16.591  -3.023  1.00 20.00     0.012 C 
BRANCH   8   9
HETATM    9  C9  UNL     1     -34.448  16.153  -1.671  1.00 20.00     0.070 C 
BRANCH   9  10
HETATM   10  C3  UNL     1     -34.295  17.215  -0.610  1.00 20.00     0.231 C 
HETATM   11  O11 UNL     1     -33.280  17.879  -0.426  1.00 20.00    -0.307 OA
ENDBRANCH   9  10
ENDBRANCH   8   9
ENDBRANCH   7   8
TORSDOF 3
ENDMDL
MODEL 6
REMARK VINA RESULT:      -4.3     11.040     12.515
REMARK  3 active torsions:
REMARK  status: ('A' for Active; 'I' for Inactive)
REMARK    1  A    between atoms: C3_3  and  C9_9 
REMARK    2  A    between atoms: C8_8  and  C10_10 
REMARK    3  A    between atoms: C9_9  and  C10_10 
ROOT
HETATM    1  C1  UNL     1     -33.713  15.973  -2.668  1.00 20.00    -0.026 C 
HETATM    2  C2  UNL     1     -34.896  15.342  -2.652  1.00 20.00    -0.025 C 
HETATM    3  C4  UNL     1     -33.423  13.971  -3.784  1.00 20.00     0.017 C 
HETATM    4  C5  UNL     1     -33.593  15.929  -5.134  1.00 20.00     0.013 C 
HETATM    5  C6  UNL     1     -32.928  15.420  -3.834  1.00 20.00     0.009 C 
HETATM    6  C7  UNL     1     -34.903  14.373  -3.812  1.00 20.00     0.012 C 
HETATM    7  C8  UNL     1     -34.949  15.157  -5.151  1.00 20.00    -0.006 C 
ENDROOT
BRANCH   7   8
HETATM    8  C10 UNL     1     -36.161  16.059  -5.330  1.00 20.00     0.012 C 
BRANCH   8   9
HETATM    9  C9  UNL     1     -37.399  15.260  -5.714  1.00 20.00     0.070 C 
BRANCH   9  10
HETATM   10  C3  UNL     1     -38.389  15.145  -4.580  1.00 20.00     0.231 C 
HETATM   11  O11 UNL     1     -38.404  14.240  -3.752  1.00 20.00    -0.307 OA
ENDBRANCH   9  10
ENDBRANCH   8   9
ENDBRANCH   7   8
TORSDOF 3
ENDMDL
MODEL 7
REMARK VINA RESULT:      -4.3      9.499     10.982
REMARK  3 active torsions:
REMARK  status: ('A' for Active; 'I' for Inactive)
REMARK    1  A    between atoms: C3_3  and  C9_9 
REMARK    2  A    between atoms: C8_8  and  C10_10 
REMARK    3  A    between atoms: C9_9  and  C10_10 
ROOT
HETATM    1  C1  UNL     1     -42.924   5.775   0.143  1.00 20.00    -0.026 C 
HETATM    2  C2  UNL     1     -42.248   4.636   0.345  1.00 20.00    -0.025 C 
HETATM    3  C4  UNL     1     -40.768   6.131  -0.606  1.00 20.00     0.017 C 
HETATM    4  C5  UNL     1     -42.431   5.772  -2.277  1.00 20.00     0.013 C 
HETATM    5  C6  UNL     1     -42.205   6.533  -0.949  1.00 20.00     0.009 C 
HETATM    6  C7  UNL     1     -41.082   4.629  -0.617  1.00 20.00     0.012 C 
HETATM    7  C8  UNL     1     -41.601   4.467  -2.070  1.00 20.00    -0.006 C 
ENDROOT
BRANCH   7   8
HETATM    8  C10 UNL     1     -42.391   3.195  -2.336  1.00 20.00     0.012 C 
BRANCH   8   9
HETATM    9  C9  UNL     1     -41.772   2.380  -3.464  1.00 20.00     0.070 C 
BRANCH   9  10
HETATM   10  C3  UNL     1     -42.801   1.876  -4.448  1.00 20.00     0.231 C 
HETATM   11  O11 UNL     1     -42.739   2.025  -5.663  1.00 20.00    -0.307 OA
ENDBRANCH   9  10
ENDBRANCH   8   9
ENDBRANCH   7   8
TORSDOF 3
ENDMDL
MODEL 8
REMARK VINA RESULT:      -4.3      9.072     10.413
REMARK  3 active torsions:
REMARK  status: ('A' for Active; 'I' for Inactive)
REMARK    1  A    between atoms: C3_3  and  C9_9 
REMARK    2  A    between atoms: C8_8  and  C10_10 
REMARK    3  A    between atoms: C9_9  and  C10_10 
ROOT
HETATM    1  C1  UNL     1     -42.460   5.479   0.343  1.00 20.00    -0.026 C 
HETATM    2  C2  UNL     1     -43.061   5.183  -0.818  1.00 20.00    -0.025 C 
HETATM    3  C4  UNL     1     -40.810   4.759  -1.105  1.00 20.00     0.017 C 
HETATM    4  C5  UNL     1     -40.944   7.109  -0.724  1.00 20.00     0.013 C 
HETATM    5  C6  UNL     1     -41.009   5.763   0.035  1.00 20.00     0.009 C 
HETATM    6  C7  UNL     1     -42.012   5.279  -1.903  1.00 20.00     0.012 C 
HETATM    7  C8  UNL     1     -41.593   6.760  -2.099  1.00 20.00    -0.006 C 
ENDROOT
BRANCH   7   8
HETATM    8  C10 UNL     1     -42.718   7.703  -2.498  1.00 20.00     0.012 C 
BRANCH   8   9
HETATM    9  C9  UNL     1     -43.018   7.615  -3.988  1.00 20.00     0.070 C 
BRANCH   9  10
HETATM   10  C3  UNL     1     -42.558   8.836  -4.746  1.00 20.00     0.231 C 
HETATM   11  O11 UNL     1     -41.478   8.940  -5.317  1.00 20.00    -0.307 OA
ENDBRANCH   9  10
ENDBRANCH   8   9
ENDBRANCH   7   8
TORSDOF 3
ENDMDL
MODEL 9
REMARK VINA RESULT:      -4.3      9.423     10.931
REMARK  3 active torsions:
REMARK  status: ('A' for Active; 'I' for Inactive)
REMARK    1  A    between atoms: C3_3  and  C9_9 
REMARK    2  A    between atoms: C8_8  and  C10_10 
REMARK    3  A    between atoms: C9_9  and  C10_10 
ROOT
HETATM    1  C1  UNL     1     -41.368   6.855  -1.649  1.00 20.00    -0.026 C 
HETATM    2  C2  UNL     1     -42.641   6.511  -1.892  1.00 20.00    -0.025 C 
HETATM    3  C4  UNL     1     -42.156   5.807   0.253  1.00 20.00     0.017 C 
HETATM    4  C5  UNL     1     -40.714   4.527  -1.150  1.00 20.00     0.013 C 
HETATM    5  C6  UNL     1     -40.862   5.946  -0.554  1.00 20.00     0.009 C 
HETATM    6  C7  UNL     1     -42.981   5.368  -0.964  1.00 20.00     0.012 C 
HETATM    7  C8  UNL     1     -42.196   4.097  -1.385  1.00 20.00    -0.006 C 
ENDROOT
BRANCH   7   8
HETATM    8  C10 UNL     1     -42.470   3.607  -2.798  1.00 20.00     0.012 C 
BRANCH   8   9
HETATM    9  C9  UNL     1     -41.457   2.554  -3.229  1.00 20.00     0.070 C 
BRANCH   9  10
HETATM   10  C3  UNL     1     -42.066   1.489  -4.109  1.00 20.00     0.231 C 
HETATM   11  O11 UNL     1     -42.232   1.592  -5.319  1.00 20.00    -0.307 OA
ENDBRANCH   9  10
ENDBRANCH   8   9
ENDBRANCH   7   8
TORSDOF 3
ENDMDL
