MODEL 1
REMARK VINA RESULT:      -4.7      0.000      0.000
REMARK  2 active torsions:
REMARK  status: ('A' for Active; 'I' for Inactive)
REMARK    1  A    between atoms: C6_6  and  C8_8 
REMARK    2  A    between atoms: C7_7  and  C8_8 
ROOT
HETATM    1  C1  UNL     1     -34.329  16.735  -1.206  1.00 20.00     0.075 C 
HETATM    2  C8  UNL     1     -33.706  16.529  -2.536  1.00 20.00     0.186 C 
HETATM    3  N9  UNL     1     -34.823  16.881  -0.166  1.00 20.00    -0.196 NA
ENDROOT
BRANCH   2   4
HETATM    4  C6  UNL     1     -34.190  15.287  -3.205  1.00 20.00    -0.031 A 
HETATM    5  C2  UNL     1     -33.281  14.328  -3.637  1.00 20.00     0.028 A 
HETATM    6  C4  UNL     1     -33.780  13.192  -4.253  1.00 20.00     0.116 A 
HETATM    7  N10 UNL     1     -35.095  12.959  -4.459  1.00 20.00    -0.273 NA
HETATM    8  C5  UNL     1     -35.949  13.914  -4.026  1.00 20.00     0.116 A 
HETATM    9  C3  UNL     1     -35.551  15.084  -3.400  1.00 20.00     0.028 A 
ENDBRANCH   2   4
BRANCH   2  10
HETATM   10  C7  UNL     1     -33.890  17.758  -3.421  1.00 20.00     0.255 C 
HETATM   11  O11 UNL     1     -33.481  17.871  -4.572  1.00 20.00    -0.305 OA
ENDBRANCH   2  10
TORSDOF 2
ENDMDL
MODEL 2
REMARK VINA RESULT:      -4.7      0.024      1.418
REMARK  2 active torsions:
REMARK  status: ('A' for Active; 'I' for Inactive)
REMARK    1  A    between atoms: C6_6  and  C8_8 
REMARK    2  A    between atoms: C7_7  and  C8_8 
ROOT
HETATM    1  C1  UNL     1     -34.339  16.744  -1.188  1.00 20.00     0.075 C 
HETATM    2  C8  UNL     1     -33.717  16.545  -2.519  1.00 20.00     0.186 C 
HETATM    3  N9  UNL     1     -34.832  16.886  -0.147  1.00 20.00    -0.196 NA
ENDROOT
BRANCH   2   4
HETATM    4  C6  UNL     1     -34.196  15.302  -3.191  1.00 20.00    -0.031 A 
HETATM    5  C2  UNL     1     -35.557  15.093  -3.385  1.00 20.00     0.028 A 
HETATM    6  C4  UNL     1     -35.950  13.924  -4.015  1.00 20.00     0.116 A 
HETATM    7  N10 UNL     1     -35.094  12.975  -4.453  1.00 20.00    -0.273 NA
HETATM    8  C5  UNL     1     -33.779  13.212  -4.247  1.00 20.00     0.116 A 
HETATM    9  C3  UNL     1     -33.283  14.349  -3.628  1.00 20.00     0.028 A 
ENDBRANCH   2   4
BRANCH   2  10
HETATM   10  C7  UNL     1     -33.908  17.774  -3.401  1.00 20.00     0.255 C 
HETATM   11  O11 UNL     1     -33.484  17.901  -4.545  1.00 20.00    -0.305 OA
ENDBRANCH   2  10
TORSDOF 2
ENDMDL
MODEL 3
REMARK VINA RESULT:      -4.6      2.212      4.211
REMARK  2 active torsions:
REMARK  status: ('A' for Active; 'I' for Inactive)
REMARK    1  A    between atoms: C6_6  and  C8_8 
REMARK    2  A    between atoms: C7_7  and  C8_8 
ROOT
HETATM    1  C1  UNL     1     -36.794  14.609  -3.932  1.00 20.00     0.075 C 
HETATM    2  C8  UNL     1     -35.377  14.921  -4.239  1.00 20.00     0.186 C 
HETATM    3  N9  UNL     1     -37.904  14.379  -3.681  1.00 20.00    -0.196 NA
ENDROOT
BRANCH   2   4
HETATM    4  C6  UNL     1     -34.821  15.982  -3.350  1.00 20.00    -0.031 A 
HETATM    5  C2  UNL     1     -34.294  17.145  -3.898  1.00 20.00     0.028 A 
HETATM    6  C4  UNL     1     -33.790  18.101  -3.030  1.00 20.00     0.116 A 
HETATM    7  N10 UNL     1     -33.781  17.971  -1.685  1.00 20.00    -0.273 NA
HETATM    8  C5  UNL     1     -34.301  16.827  -1.189  1.00 20.00     0.116 A 
HETATM    9  C3  UNL     1     -34.829  15.811  -1.970  1.00 20.00     0.028 A 
ENDBRANCH   2   4
BRANCH   2  10
HETATM   10  C7  UNL     1     -34.523  13.657  -4.214  1.00 20.00     0.255 C 
HETATM   11  O11 UNL     1     -34.892  12.544  -4.575  1.00 20.00    -0.305 OA
ENDBRANCH   2  10
TORSDOF 2
ENDMDL
MODEL 4
REMARK VINA RESULT:      -4.5      2.271      4.385
REMARK  2 active torsions:
REMARK  status: ('A' for Active; 'I' for Inactive)
REMARK    1  A    between atoms: C6_6  and  C8_8 
REMARK    2  A    between atoms: C7_7  and  C8_8 
ROOT
HETATM    1  C1  UNL     1     -35.077  13.544  -4.181  1.00 20.00     0.075 C 
HETATM    2  C8  UNL     1     -35.825  14.529  -3.364  1.00 20.00     0.186 C 
HETATM    3  N9  UNL     1     -34.478  12.782  -4.819  1.00 20.00    -0.196 NA
ENDROOT
BRANCH   2   4
HETATM    4  C6  UNL     1     -35.042  15.773  -3.111  1.00 20.00    -0.031 A 
HETATM    5  C2  UNL     1     -34.727  16.147  -1.810  1.00 20.00     0.028 A 
HETATM    6  C4  UNL     1     -33.997  17.311  -1.629  1.00 20.00     0.116 A 
HETATM    7  N10 UNL     1     -33.572  18.102  -2.638  1.00 20.00    -0.273 NA
HETATM    8  C5  UNL     1     -33.897  17.707  -3.889  1.00 20.00     0.116 A 
HETATM    9  C3  UNL     1     -34.623  16.562  -4.176  1.00 20.00     0.028 A 
ENDBRANCH   2   4
BRANCH   2  10
HETATM   10  C7  UNL     1     -37.185  14.833  -3.985  1.00 20.00     0.255 C 
HETATM   11  O11 UNL     1     -38.220  14.210  -3.769  1.00 20.00    -0.305 OA
ENDBRANCH   2  10
TORSDOF 2
ENDMDL
MODEL 5
REMARK VINA RESULT:      -4.3      2.060      2.313
REMARK  2 active torsions:
REMARK  status: ('A' for Active; 'I' for Inactive)
REMARK    1  A    between atoms: C6_6  and  C8_8 
REMARK    2  A    between atoms: C7_7  and  C8_8 
ROOT
HETATM    1  C1  UNL     1     -33.982  17.885  -3.737  1.00 20.00     0.075 C 
HETATM    2  C8  UNL     1     -34.689  16.945  -2.835  1.00 20.00     0.186 C 
HETATM    3  N9  UNL     1     -33.429  18.609  -4.456  1.00 20.00    -0.196 NA
ENDROOT
BRANCH   2   4
HETATM    4  C6  UNL     1     -34.697  15.549  -3.359  1.00 20.00    -0.031 A 
HETATM    5  C2  UNL     1     -33.507  14.840  -3.474  1.00 20.00     0.028 A 
HETATM    6  C4  UNL     1     -33.567  13.546  -3.966  1.00 20.00     0.116 A 
HETATM    7  N10 UNL     1     -34.711  12.931  -4.339  1.00 20.00    -0.273 NA
HETATM    8  C5  UNL     1     -35.848  13.651  -4.213  1.00 20.00     0.116 A 
HETATM    9  C3  UNL     1     -35.895  14.951  -3.733  1.00 20.00     0.028 A 
ENDBRANCH   2   4
BRANCH   2  10
HETATM   10  C7  UNL     1     -34.121  17.015  -1.421  1.00 20.00     0.255 C 
HETATM   11  O11 UNL     1     -34.672  16.584  -0.412  1.00 20.00    -0.305 OA
ENDBRANCH   2  10
TORSDOF 2
ENDMDL
MODEL 6
REMARK VINA RESULT:      -4.3      2.636      4.368
REMARK  2 active torsions:
REMARK  status: ('A' for Active; 'I' for Inactive)
REMARK    1  A    between atoms: C6_6  and  C8_8 
REMARK    2  A    between atoms: C7_7  and  C8_8 
ROOT
HETATM    1  C1  UNL     1     -35.255  13.669  -4.105  1.00 20.00     0.075 C 
HETATM    2  C8  UNL     1     -35.762  14.917  -3.487  1.00 20.00     0.186 C 
HETATM    3  N9  UNL     1     -34.844  12.699  -4.595  1.00 20.00    -0.196 NA
ENDROOT
BRANCH   2   4
HETATM    4  C6  UNL     1     -34.976  16.116  -3.897  1.00 20.00    -0.031 A 
HETATM    5  C2  UNL     1     -34.515  17.010  -2.937  1.00 20.00     0.028 A 
HETATM    6  C4  UNL     1     -33.789  18.108  -3.368  1.00 20.00     0.116 A 
HETATM    7  N10 UNL     1     -33.502  18.364  -4.664  1.00 20.00    -0.273 NA
HETATM    8  C5  UNL     1     -33.967  17.474  -5.568  1.00 20.00     0.116 A 
HETATM    9  C3  UNL     1     -34.702  16.345  -5.240  1.00 20.00     0.028 A 
ENDBRANCH   2   4
BRANCH   2  10
HETATM   10  C7  UNL     1     -37.252  15.096  -3.762  1.00 20.00     0.255 C 
HETATM   11  O11 UNL     1     -38.091  14.200  -3.740  1.00 20.00    -0.305 OA
ENDBRANCH   2  10
TORSDOF 2
ENDMDL
MODEL 7
REMARK VINA RESULT:      -4.2      2.435      4.263
REMARK  2 active torsions:
REMARK  status: ('A' for Active; 'I' for Inactive)
REMARK    1  A    between atoms: C6_6  and  C8_8 
REMARK    2  A    between atoms: C7_7  and  C8_8 
ROOT
HETATM    1  C1  UNL     1     -33.332  16.161  -4.316  1.00 20.00     0.075 C 
HETATM    2  C8  UNL     1     -33.806  15.535  -3.059  1.00 20.00     0.186 C 
HETATM    3  N9  UNL     1     -32.966  16.665  -5.296  1.00 20.00    -0.196 NA
ENDROOT
BRANCH   2   4
HETATM    4  C6  UNL     1     -34.654  16.457  -2.248  1.00 20.00    -0.031 A 
HETATM    5  C2  UNL     1     -34.362  16.675  -0.906  1.00 20.00     0.028 A 
HETATM    6  C4  UNL     1     -35.179  17.540  -0.197  1.00 20.00     0.116 A 
HETATM    7  N10 UNL     1     -36.241  18.184  -0.729  1.00 20.00    -0.273 NA
HETATM    8  C5  UNL     1     -36.495  17.947  -2.035  1.00 20.00     0.116 A 
HETATM    9  C3  UNL     1     -35.739  17.101  -2.831  1.00 20.00     0.028 A 
ENDBRANCH   2   4
BRANCH   2  10
HETATM   10  C7  UNL     1     -34.515  14.215  -3.340  1.00 20.00     0.255 C 
HETATM   11  O11 UNL     1     -33.960  13.150  -3.593  1.00 20.00    -0.305 OA
ENDBRANCH   2  10
TORSDOF 2
ENDMDL
MODEL 8
REMARK VINA RESULT:      -4.2      2.308      4.484
REMARK  2 active torsions:
REMARK  status: ('A' for Active; 'I' for Inactive)
REMARK    1  A    between atoms: C6_6  and  C8_8 
REMARK    2  A    between atoms: C7_7  and  C8_8 
ROOT
HETATM    1  C1  UNL     1     -34.206  15.315  -5.690  1.00 20.00     0.075 C 
HETATM    2  C8  UNL     1     -34.037  14.859  -4.289  1.00 20.00     0.186 C 
HETATM    3  N9  UNL     1     -34.337  15.688  -6.781  1.00 20.00    -0.196 NA
ENDROOT
BRANCH   2   4
HETATM    4  C6  UNL     1     -34.120  15.981  -3.310  1.00 20.00    -0.031 A 
HETATM    5  C2  UNL     1     -34.628  15.758  -2.036  1.00 20.00     0.028 A 
HETATM    6  C4  UNL     1     -34.683  16.833  -1.163  1.00 20.00     0.116 A 
HETATM    7  N10 UNL     1     -34.274  18.082  -1.474  1.00 20.00    -0.273 NA
HETATM    8  C5  UNL     1     -33.786  18.261  -2.722  1.00 20.00     0.116 A 
HETATM    9  C3  UNL     1     -33.688  17.253  -3.669  1.00 20.00     0.028 A 
ENDBRANCH   2   4
BRANCH   2  10
HETATM   10  C7  UNL     1     -35.022  13.743  -3.956  1.00 20.00     0.255 C 
HETATM   11  O11 UNL     1     -34.974  12.598  -4.396  1.00 20.00    -0.305 OA
ENDBRANCH   2  10
TORSDOF 2
ENDMDL
MODEL 9
REMARK VINA RESULT:      -4.2      2.401      4.440
REMARK  2 active torsions:
REMARK  status: ('A' for Active; 'I' for Inactive)
REMARK    1  A    between atoms: C6_6  and  C8_8 
REMARK    2  A    between atoms: C7_7  and  C8_8 
ROOT
HETATM    1  C1  UNL     1     -34.237  15.446  -6.036  1.00 20.00     0.075 C 
HETATM    2  C8  UNL     1     -34.144  14.862  -4.677  1.00 20.00     0.186 C 
HETATM    3  N9  UNL     1     -34.307  15.919  -7.093  1.00 20.00    -0.196 NA
ENDROOT
BRANCH   2   4
HETATM    4  C6  UNL     1     -34.157  15.901  -3.607  1.00 20.00    -0.031 A 
HETATM    5  C2  UNL     1     -33.722  17.192  -3.882  1.00 20.00     0.028 A 
HETATM    6  C4  UNL     1     -33.755  18.121  -2.855  1.00 20.00     0.116 A 
HETATM    7  N10 UNL     1     -34.183  17.849  -1.602  1.00 20.00    -0.273 NA
HETATM    8  C5  UNL     1     -34.598  16.583  -1.372  1.00 20.00     0.116 A 
HETATM    9  C3  UNL     1     -34.605  15.582  -2.330  1.00 20.00     0.028 A 
ENDBRANCH   2   4
BRANCH   2  10
HETATM   10  C7  UNL     1     -35.228  13.812  -4.459  1.00 20.00     0.255 C 
HETATM   11  O11 UNL     1     -35.036  12.605  -4.350  1.00 20.00    -0.305 OA
ENDBRANCH   2  10
TORSDOF 2
ENDMDL
