MODEL 1
REMARK VINA RESULT:      -5.4      0.000      0.000
REMARK  3 active torsions:
REMARK  status: ('A' for Active; 'I' for Inactive)
REMARK    1  A    between atoms: C1_1  and  C3_3 
REMARK    2  A    between atoms: C2_2  and  C7_7 
REMARK    3  A    between atoms: C7_7  and  C8_8 
ROOT
HETATM    1  C1  UNL     1     -32.833   6.451   3.006  1.00 20.00     0.045 C 
HETATM    2  C2  UNL     1     -33.884   6.536   3.833  1.00 20.00    -0.023 C 
ENDROOT
BRANCH   2   3
HETATM    3  C7  UNL     1     -34.879   5.425   4.019  1.00 20.00     0.031 C 
BRANCH   3   4
HETATM    4  C8  UNL     1     -35.113   5.066   5.499  1.00 20.00    -0.019 C 
HETATM    5  C5  UNL     1     -34.670   3.624   5.762  1.00 20.00     0.010 C 
HETATM    6  C6  UNL     1     -34.375   6.015   6.446  1.00 20.00     0.010 C 
ENDBRANCH   3   4
ENDBRANCH   2   3
BRANCH   1   7
HETATM    7  C3  UNL     1     -31.885   7.589   2.864  1.00 20.00     0.145 C 
HETATM    8  C4  UNL     1     -31.946   8.365   1.574  1.00 20.00     0.096 C 
HETATM    9  O9  UNL     1     -31.072   7.878   3.739  1.00 20.00    -0.294 OA
ENDBRANCH   1   7
TORSDOF 3
ENDMDL
MODEL 2
REMARK VINA RESULT:      -5.0      1.394      1.763
REMARK  3 active torsions:
REMARK  status: ('A' for Active; 'I' for Inactive)
REMARK    1  A    between atoms: C1_1  and  C3_3 
REMARK    2  A    between atoms: C2_2  and  C7_7 
REMARK    3  A    between atoms: C7_7  and  C8_8 
ROOT
HETATM    1  C1  UNL     1     -31.987   7.697   2.754  1.00 20.00     0.045 C 
HETATM    2  C2  UNL     1     -33.002   6.838   2.922  1.00 20.00    -0.023 C 
ENDROOT
BRANCH   2   3
HETATM    3  C7  UNL     1     -33.065   5.843   4.048  1.00 20.00     0.031 C 
BRANCH   3   4
HETATM    4  C8  UNL     1     -34.340   5.978   4.902  1.00 20.00    -0.019 C 
HETATM    5  C5  UNL     1     -35.082   4.640   4.946  1.00 20.00     0.010 C 
HETATM    6  C6  UNL     1     -34.033   6.447   6.326  1.00 20.00     0.010 C 
ENDBRANCH   3   4
ENDBRANCH   2   3
BRANCH   1   7
HETATM    7  C3  UNL     1     -31.983   8.655   1.616  1.00 20.00     0.145 C 
HETATM    8  C4  UNL     1     -32.701   9.962   1.828  1.00 20.00     0.096 C 
HETATM    9  O9  UNL     1     -31.444   8.394   0.543  1.00 20.00    -0.294 OA
ENDBRANCH   1   7
TORSDOF 3
ENDMDL
MODEL 3
REMARK VINA RESULT:      -4.6      2.149      4.788
REMARK  3 active torsions:
REMARK  status: ('A' for Active; 'I' for Inactive)
REMARK    1  A    between atoms: C1_1  and  C3_3 
REMARK    2  A    between atoms: C2_2  and  C7_7 
REMARK    3  A    between atoms: C7_7  and  C8_8 
ROOT
HETATM    1  C1  UNL     1     -34.536   5.423   3.924  1.00 20.00     0.045 C 
HETATM    2  C2  UNL     1     -33.344   5.977   3.660  1.00 20.00    -0.023 C 
ENDROOT
BRANCH   2   3
HETATM    3  C7  UNL     1     -33.014   6.639   2.351  1.00 20.00     0.031 C 
BRANCH   3   4
HETATM    4  C8  UNL     1     -31.845   7.636   2.458  1.00 20.00    -0.019 C 
HETATM    5  C5  UNL     1     -32.236   8.969   1.815  1.00 20.00     0.010 C 
HETATM    6  C6  UNL     1     -31.415   7.868   3.909  1.00 20.00     0.010 C 
ENDBRANCH   3   4
ENDBRANCH   2   3
BRANCH   1   7
HETATM    7  C3  UNL     1     -34.798   4.779   5.240  1.00 20.00     0.145 C 
HETATM    8  C4  UNL     1     -34.551   5.617   6.466  1.00 20.00     0.096 C 
HETATM    9  O9  UNL     1     -35.177   3.613   5.334  1.00 20.00    -0.294 OA
ENDBRANCH   1   7
TORSDOF 3
ENDMDL
MODEL 4
REMARK VINA RESULT:      -4.6      1.957      5.153
REMARK  3 active torsions:
REMARK  status: ('A' for Active; 'I' for Inactive)
REMARK    1  A    between atoms: C1_1  and  C3_3 
REMARK    2  A    between atoms: C2_2  and  C7_7 
REMARK    3  A    between atoms: C7_7  and  C8_8 
ROOT
HETATM    1  C1  UNL     1     -33.733   6.557   4.371  1.00 20.00     0.045 C 
HETATM    2  C2  UNL     1     -32.975   6.529   3.266  1.00 20.00    -0.023 C 
ENDROOT
BRANCH   2   3
HETATM    3  C7  UNL     1     -31.999   7.614   2.906  1.00 20.00     0.031 C 
BRANCH   3   4
HETATM    4  C8  UNL     1     -32.466   8.474   1.716  1.00 20.00    -0.019 C 
HETATM    5  C5  UNL     1     -32.714   9.912   2.178  1.00 20.00     0.010 C 
HETATM    6  C6  UNL     1     -31.454   8.467   0.568  1.00 20.00     0.010 C 
ENDBRANCH   3   4
ENDBRANCH   2   3
BRANCH   1   7
HETATM    7  C3  UNL     1     -34.684   5.452   4.669  1.00 20.00     0.145 C 
HETATM    8  C4  UNL     1     -34.472   4.706   5.960  1.00 20.00     0.096 C 
HETATM    9  O9  UNL     1     -35.587   5.140   3.896  1.00 20.00    -0.294 OA
ENDBRANCH   1   7
TORSDOF 3
ENDMDL
MODEL 5
REMARK VINA RESULT:      -4.2     11.281     12.325
REMARK  3 active torsions:
REMARK  status: ('A' for Active; 'I' for Inactive)
REMARK    1  A    between atoms: C1_1  and  C3_3 
REMARK    2  A    between atoms: C2_2  and  C7_7 
REMARK    3  A    between atoms: C7_7  and  C8_8 
ROOT
HETATM    1  C1  UNL     1     -34.318  14.359  -3.343  1.00 20.00     0.045 C 
HETATM    2  C2  UNL     1     -34.988  15.459  -2.973  1.00 20.00    -0.023 C 
ENDROOT
BRANCH   2   3
HETATM    3  C7  UNL     1     -34.786  16.141  -1.648  1.00 20.00     0.031 C 
BRANCH   3   4
HETATM    4  C8  UNL     1     -33.651  17.182  -1.673  1.00 20.00    -0.019 C 
HETATM    5  C5  UNL     1     -33.822  18.113  -2.875  1.00 20.00     0.010 C 
HETATM    6  C6  UNL     1     -33.596  18.006  -0.384  1.00 20.00     0.010 C 
ENDBRANCH   3   4
ENDBRANCH   2   3
BRANCH   1   7
HETATM    7  C3  UNL     1     -34.567  13.728  -4.668  1.00 20.00     0.145 C 
HETATM    8  C4  UNL     1     -34.537  14.638  -5.868  1.00 20.00     0.096 C 
HETATM    9  O9  UNL     1     -34.808  12.529  -4.787  1.00 20.00    -0.294 OA
ENDBRANCH   1   7
TORSDOF 3
ENDMDL
MODEL 6
REMARK VINA RESULT:      -4.2     11.091     12.112
REMARK  3 active torsions:
REMARK  status: ('A' for Active; 'I' for Inactive)
REMARK    1  A    between atoms: C1_1  and  C3_3 
REMARK    2  A    between atoms: C2_2  and  C7_7 
REMARK    3  A    between atoms: C7_7  and  C8_8 
ROOT
HETATM    1  C1  UNL     1     -34.425  15.048  -3.048  1.00 20.00     0.045 C 
HETATM    2  C2  UNL     1     -33.676  16.158  -3.118  1.00 20.00    -0.023 C 
ENDROOT
BRANCH   2   3
HETATM    3  C7  UNL     1     -34.020  17.432  -2.399  1.00 20.00     0.031 C 
BRANCH   3   4
HETATM    4  C8  UNL     1     -33.640  17.405  -0.907  1.00 20.00    -0.019 C 
HETATM    5  C5  UNL     1     -32.933  18.707  -0.524  1.00 20.00     0.010 C 
HETATM    6  C6  UNL     1     -34.859  17.194  -0.005  1.00 20.00     0.010 C 
ENDBRANCH   3   4
ENDBRANCH   2   3
BRANCH   1   7
HETATM    7  C3  UNL     1     -34.031  13.819  -3.788  1.00 20.00     0.145 C 
HETATM    8  C4  UNL     1     -35.026  13.277  -4.780  1.00 20.00     0.096 C 
HETATM    9  O9  UNL     1     -32.958  13.251  -3.591  1.00 20.00    -0.294 OA
ENDBRANCH   1   7
TORSDOF 3
ENDMDL
MODEL 7
REMARK VINA RESULT:      -4.0     11.243     11.964
REMARK  3 active torsions:
REMARK  status: ('A' for Active; 'I' for Inactive)
REMARK    1  A    between atoms: C1_1  and  C3_3 
REMARK    2  A    between atoms: C2_2  and  C7_7 
REMARK    3  A    between atoms: C7_7  and  C8_8 
ROOT
HETATM    1  C1  UNL     1     -34.720  16.579  -0.932  1.00 20.00     0.045 C 
HETATM    2  C2  UNL     1     -34.331  16.265  -2.176  1.00 20.00    -0.023 C 
ENDROOT
BRANCH   2   3
HETATM    3  C7  UNL     1     -34.988  15.194  -3.002  1.00 20.00     0.031 C 
BRANCH   3   4
HETATM    4  C8  UNL     1     -34.015  14.078  -3.426  1.00 20.00    -0.019 C 
HETATM    5  C5  UNL     1     -34.545  13.372  -4.677  1.00 20.00     0.010 C 
HETATM    6  C6  UNL     1     -32.605  14.612  -3.691  1.00 20.00     0.010 C 
ENDBRANCH   3   4
ENDBRANCH   2   3
BRANCH   1   7
HETATM    7  C3  UNL     1     -34.025  17.647  -0.165  1.00 20.00     0.145 C 
HETATM    8  C4  UNL     1     -34.637  18.042   1.153  1.00 20.00     0.096 C 
HETATM    9  O9  UNL     1     -33.014  18.204  -0.587  1.00 20.00    -0.294 OA
ENDBRANCH   1   7
TORSDOF 3
ENDMDL
MODEL 8
REMARK VINA RESULT:      -3.9     11.419     12.228
REMARK  3 active torsions:
REMARK  status: ('A' for Active; 'I' for Inactive)
REMARK    1  A    between atoms: C1_1  and  C3_3 
REMARK    2  A    between atoms: C2_2  and  C7_7 
REMARK    3  A    between atoms: C7_7  and  C8_8 
ROOT
HETATM    1  C1  UNL     1     -33.584  16.154  -2.703  1.00 20.00     0.045 C 
HETATM    2  C2  UNL     1     -34.374  15.072  -2.752  1.00 20.00    -0.023 C 
ENDROOT
BRANCH   2   3
HETATM    3  C7  UNL     1     -34.151  13.929  -3.702  1.00 20.00     0.031 C 
BRANCH   3   4
HETATM    4  C8  UNL     1     -35.345  13.686  -4.644  1.00 20.00    -0.019 C 
HETATM    5  C5  UNL     1     -36.593  14.383  -4.095  1.00 20.00     0.010 C 
HETATM    6  C6  UNL     1     -35.065  14.174  -6.068  1.00 20.00     0.010 C 
ENDBRANCH   3   4
ENDBRANCH   2   3
BRANCH   1   7
HETATM    7  C3  UNL     1     -33.862  17.255  -1.741  1.00 20.00     0.145 C 
HETATM    8  C4  UNL     1     -34.665  16.899  -0.518  1.00 20.00     0.096 C 
HETATM    9  O9  UNL     1     -33.480  18.407  -1.935  1.00 20.00    -0.294 OA
ENDBRANCH   1   7
TORSDOF 3
ENDMDL
MODEL 9
REMARK VINA RESULT:      -3.8     11.723     12.814
REMARK  3 active torsions:
REMARK  status: ('A' for Active; 'I' for Inactive)
REMARK    1  A    between atoms: C1_1  and  C3_3 
REMARK    2  A    between atoms: C2_2  and  C7_7 
REMARK    3  A    between atoms: C7_7  and  C8_8 
ROOT
HETATM    1  C1  UNL     1     -34.797  16.246  -1.514  1.00 20.00     0.045 C 
HETATM    2  C2  UNL     1     -33.913  15.976  -2.485  1.00 20.00    -0.023 C 
ENDROOT
BRANCH   2   3
HETATM    3  C7  UNL     1     -34.194  15.024  -3.615  1.00 20.00     0.031 C 
BRANCH   3   4
HETATM    4  C8  UNL     1     -34.434  15.738  -4.959  1.00 20.00    -0.019 C 
HETATM    5  C5  UNL     1     -33.325  16.763  -5.211  1.00 20.00     0.010 C 
HETATM    6  C6  UNL     1     -34.505  14.754  -6.129  1.00 20.00     0.010 C 
ENDBRANCH   3   4
ENDBRANCH   2   3
BRANCH   1   7
HETATM    7  C3  UNL     1     -34.457  17.196  -0.420  1.00 20.00     0.145 C 
HETATM    8  C4  UNL     1     -33.304  18.132  -0.671  1.00 20.00     0.096 C 
HETATM    9  O9  UNL     1     -35.064  17.209   0.648  1.00 20.00    -0.294 OA
ENDBRANCH   1   7
TORSDOF 3
ENDMDL
