MODEL 1
REMARK VINA RESULT:      -5.0      0.000      0.000
REMARK  3 active torsions:
REMARK  status: ('A' for Active; 'I' for Inactive)
REMARK    1  A    between atoms: C3_3  and  C9_9 
REMARK    2  A    between atoms: C8_8  and  C10_10 
REMARK    3  A    between atoms: C9_9  and  C10_10 
ROOT
HETATM    1  C1  UNL     1     -35.101   4.430   4.674  1.00 20.00    -0.026 C 
HETATM    2  C2  UNL     1     -34.335   4.948   5.646  1.00 20.00    -0.025 C 
HETATM    3  C4  UNL     1     -35.072   6.720   4.364  1.00 20.00     0.017 C 
HETATM    4  C5  UNL     1     -33.724   5.444   2.884  1.00 20.00     0.013 C 
HETATM    5  C6  UNL     1     -35.121   5.429   3.542  1.00 20.00     0.009 C 
HETATM    6  C7  UNL     1     -33.831   6.287   5.153  1.00 20.00     0.012 C 
HETATM    7  C8  UNL     1     -32.809   5.999   4.022  1.00 20.00    -0.006 C 
ENDROOT
BRANCH   7   8
HETATM    8  C10 UNL     1     -32.034   7.239   3.590  1.00 20.00     0.012 C 
BRANCH   8   9
HETATM    9  C9  UNL     1     -32.186   7.496   2.097  1.00 20.00     0.070 C 
BRANCH   9  10
HETATM   10  C3  UNL     1     -32.128   8.965   1.756  1.00 20.00     0.231 C 
HETATM   11  O11 UNL     1     -32.495   9.450   0.691  1.00 20.00    -0.307 OA
ENDBRANCH   9  10
ENDBRANCH   8   9
ENDBRANCH   7   8
TORSDOF 3
ENDMDL
MODEL 2
REMARK VINA RESULT:      -4.6     10.574     11.823
REMARK  3 active torsions:
REMARK  status: ('A' for Active; 'I' for Inactive)
REMARK    1  A    between atoms: C3_3  and  C9_9 
REMARK    2  A    between atoms: C8_8  and  C10_10 
REMARK    3  A    between atoms: C9_9  and  C10_10 
ROOT
HETATM    1  C1  UNL     1     -35.723  17.792  -0.888  1.00 20.00    -0.026 C 
HETATM    2  C2  UNL     1     -34.721  17.074  -0.359  1.00 20.00    -0.025 C 
HETATM    3  C4  UNL     1     -33.831  18.258  -2.130  1.00 20.00     0.017 C 
HETATM    4  C5  UNL     1     -35.410  16.796  -3.134  1.00 20.00     0.013 C 
HETATM    5  C6  UNL     1     -35.344  18.105  -2.316  1.00 20.00     0.009 C 
HETATM    6  C7  UNL     1     -33.678  16.897  -1.442  1.00 20.00     0.012 C 
HETATM    7  C8  UNL     1     -34.279  15.928  -2.496  1.00 20.00    -0.006 C 
ENDROOT
BRANCH   7   8
HETATM    8  C10 UNL     1     -33.256  15.461  -3.525  1.00 20.00     0.012 C 
BRANCH   8   9
HETATM    9  C9  UNL     1     -33.273  13.946  -3.675  1.00 20.00     0.070 C 
BRANCH   9  10
HETATM   10  C3  UNL     1     -34.309  13.475  -4.666  1.00 20.00     0.231 C 
HETATM   11  O11 UNL     1     -35.120  12.579  -4.458  1.00 20.00    -0.307 OA
ENDBRANCH   9  10
ENDBRANCH   8   9
ENDBRANCH   7   8
TORSDOF 3
ENDMDL
MODEL 3
REMARK VINA RESULT:      -4.6     10.741     11.765
REMARK  3 active torsions:
REMARK  status: ('A' for Active; 'I' for Inactive)
REMARK    1  A    between atoms: C3_3  and  C9_9 
REMARK    2  A    between atoms: C8_8  and  C10_10 
REMARK    3  A    between atoms: C9_9  and  C10_10 
ROOT
HETATM    1  C1  UNL     1     -34.461  13.875  -5.251  1.00 20.00    -0.026 C 
HETATM    2  C2  UNL     1     -34.882  13.576  -4.013  1.00 20.00    -0.025 C 
HETATM    3  C4  UNL     1     -35.639  15.707  -4.478  1.00 20.00     0.017 C 
HETATM    4  C5  UNL     1     -33.273  15.908  -4.485  1.00 20.00     0.013 C 
HETATM    5  C6  UNL     1     -34.431  15.381  -5.361  1.00 20.00     0.009 C 
HETATM    6  C7  UNL     1     -35.118  14.886  -3.293  1.00 20.00     0.012 C 
HETATM    7  C8  UNL     1     -33.725  15.522  -3.041  1.00 20.00    -0.006 C 
ENDROOT
BRANCH   7   8
HETATM    8  C10 UNL     1     -33.781  16.728  -2.110  1.00 20.00     0.012 C 
BRANCH   8   9
HETATM    9  C9  UNL     1     -34.752  16.496  -0.960  1.00 20.00     0.070 C 
BRANCH   9  10
HETATM   10  C3  UNL     1     -34.595  17.515   0.142  1.00 20.00     0.231 C 
HETATM   11  O11 UNL     1     -35.168  17.467   1.226  1.00 20.00    -0.307 OA
ENDBRANCH   9  10
ENDBRANCH   8   9
ENDBRANCH   7   8
TORSDOF 3
ENDMDL
MODEL 4
REMARK VINA RESULT:      -4.5     10.759     12.031
REMARK  3 active torsions:
REMARK  status: ('A' for Active; 'I' for Inactive)
REMARK    1  A    between atoms: C3_3  and  C9_9 
REMARK    2  A    between atoms: C8_8  and  C10_10 
REMARK    3  A    between atoms: C9_9  and  C10_10 
ROOT
HETATM    1  C1  UNL     1     -33.868  18.284   0.423  1.00 20.00    -0.026 C 
HETATM    2  C2  UNL     1     -32.978  18.631  -0.517  1.00 20.00    -0.025 C 
HETATM    3  C4  UNL     1     -35.051  18.630  -1.531  1.00 20.00     0.017 C 
HETATM    4  C5  UNL     1     -34.702  16.366  -0.904  1.00 20.00     0.013 C 
HETATM    5  C6  UNL     1     -35.080  17.733  -0.290  1.00 20.00     0.009 C 
HETATM    6  C7  UNL     1     -33.591  18.296  -1.860  1.00 20.00     0.012 C 
HETATM    7  C8  UNL     1     -33.626  16.748  -1.970  1.00 20.00    -0.006 C 
ENDROOT
BRANCH   7   8
HETATM    8  C10 UNL     1     -33.994  16.260  -3.366  1.00 20.00     0.012 C 
BRANCH   8   9
HETATM    9  C9  UNL     1     -34.915  15.049  -3.304  1.00 20.00     0.070 C 
BRANCH   9  10
HETATM   10  C3  UNL     1     -34.366  13.866  -4.065  1.00 20.00     0.231 C 
HETATM   11  O11 UNL     1     -34.927  12.781  -4.171  1.00 20.00    -0.307 OA
ENDBRANCH   9  10
ENDBRANCH   8   9
ENDBRANCH   7   8
TORSDOF 3
ENDMDL
MODEL 5
REMARK VINA RESULT:      -4.4     10.841     11.805
REMARK  3 active torsions:
REMARK  status: ('A' for Active; 'I' for Inactive)
REMARK    1  A    between atoms: C3_3  and  C9_9 
REMARK    2  A    between atoms: C8_8  and  C10_10 
REMARK    3  A    between atoms: C9_9  and  C10_10 
ROOT
HETATM    1  C1  UNL     1     -34.919  14.364  -5.418  1.00 20.00    -0.026 C 
HETATM    2  C2  UNL     1     -34.046  15.368  -5.594  1.00 20.00    -0.025 C 
HETATM    3  C4  UNL     1     -33.299  14.145  -3.785  1.00 20.00     0.017 C 
HETATM    4  C5  UNL     1     -35.388  15.024  -3.078  1.00 20.00     0.013 C 
HETATM    5  C6  UNL     1     -34.800  13.917  -3.981  1.00 20.00     0.009 C 
HETATM    6  C7  UNL     1     -33.357  15.599  -4.267  1.00 20.00     0.012 C 
HETATM    7  C8  UNL     1     -34.410  16.219  -3.310  1.00 20.00    -0.006 C 
ENDROOT
BRANCH   7   8
HETATM    8  C10 UNL     1     -33.803  16.732  -2.009  1.00 20.00     0.012 C 
BRANCH   8   9
HETATM    9  C9  UNL     1     -34.768  16.564  -0.843  1.00 20.00     0.070 C 
BRANCH   9  10
HETATM   10  C3  UNL     1     -34.575  17.617   0.221  1.00 20.00     0.231 C 
HETATM   11  O11 UNL     1     -34.985  17.528   1.374  1.00 20.00    -0.307 OA
ENDBRANCH   9  10
ENDBRANCH   8   9
ENDBRANCH   7   8
TORSDOF 3
ENDMDL
MODEL 6
REMARK VINA RESULT:      -4.4      9.488     10.995
REMARK  3 active torsions:
REMARK  status: ('A' for Active; 'I' for Inactive)
REMARK    1  A    between atoms: C3_3  and  C9_9 
REMARK    2  A    between atoms: C8_8  and  C10_10 
REMARK    3  A    between atoms: C9_9  and  C10_10 
ROOT
HETATM    1  C1  UNL     1     -40.995   6.996  -0.835  1.00 20.00    -0.026 C 
HETATM    2  C2  UNL     1     -41.940   7.037  -1.786  1.00 20.00    -0.025 C 
HETATM    3  C4  UNL     1     -42.658   5.523  -0.198  1.00 20.00     0.017 C 
HETATM    4  C5  UNL     1     -40.681   4.552  -1.086  1.00 20.00     0.013 C 
HETATM    5  C6  UNL     1     -41.136   5.672  -0.123  1.00 20.00     0.009 C 
HETATM    6  C7  UNL     1     -42.702   5.731  -1.717  1.00 20.00     0.012 C 
HETATM    7  C8  UNL     1     -41.746   4.620  -2.227  1.00 20.00    -0.006 C 
ENDROOT
BRANCH   7   8
HETATM    8  C10 UNL     1     -42.447   3.285  -2.445  1.00 20.00     0.012 C 
BRANCH   8   9
HETATM    9  C9  UNL     1     -41.626   2.367  -3.340  1.00 20.00     0.070 C 
BRANCH   9  10
HETATM   10  C3  UNL     1     -42.467   1.678  -4.387  1.00 20.00     0.231 C 
HETATM   11  O11 UNL     1     -42.682   2.117  -5.512  1.00 20.00    -0.307 OA
ENDBRANCH   9  10
ENDBRANCH   8   9
ENDBRANCH   7   8
TORSDOF 3
ENDMDL
MODEL 7
REMARK VINA RESULT:      -4.2     10.650     12.050
REMARK  3 active torsions:
REMARK  status: ('A' for Active; 'I' for Inactive)
REMARK    1  A    between atoms: C3_3  and  C9_9 
REMARK    2  A    between atoms: C8_8  and  C10_10 
REMARK    3  A    between atoms: C9_9  and  C10_10 
ROOT
HETATM    1  C1  UNL     1     -33.263  13.766  -3.729  1.00 20.00    -0.026 C 
HETATM    2  C2  UNL     1     -34.460  13.460  -4.251  1.00 20.00    -0.025 C 
HETATM    3  C4  UNL     1     -33.964  15.607  -4.937  1.00 20.00     0.017 C 
HETATM    4  C5  UNL     1     -34.147  15.771  -2.575  1.00 20.00     0.013 C 
HETATM    5  C6  UNL     1     -33.175  15.272  -3.668  1.00 20.00     0.009 C 
HETATM    6  C7  UNL     1     -35.177  14.764  -4.524  1.00 20.00     0.012 C 
HETATM    7  C8  UNL     1     -35.546  15.376  -3.146  1.00 20.00    -0.006 C 
ENDROOT
BRANCH   7   8
HETATM    8  C10 UNL     1     -36.485  16.571  -3.259  1.00 20.00     0.012 C 
BRANCH   8   9
HETATM    9  C9  UNL     1     -37.590  16.315  -4.274  1.00 20.00     0.070 C 
BRANCH   9  10
HETATM   10  C3  UNL     1     -38.654  15.382  -3.747  1.00 20.00     0.231 C 
HETATM   11  O11 UNL     1     -38.617  14.160  -3.833  1.00 20.00    -0.307 OA
ENDBRANCH   9  10
ENDBRANCH   8   9
ENDBRANCH   7   8
TORSDOF 3
ENDMDL
MODEL 8
REMARK VINA RESULT:      -4.1     10.887     12.783
REMARK  3 active torsions:
REMARK  status: ('A' for Active; 'I' for Inactive)
REMARK    1  A    between atoms: C3_3  and  C9_9 
REMARK    2  A    between atoms: C8_8  and  C10_10 
REMARK    3  A    between atoms: C9_9  and  C10_10 
ROOT
HETATM    1  C1  UNL     1     -34.710  15.675  -7.533  1.00 20.00    -0.026 C 
HETATM    2  C2  UNL     1     -35.110  14.453  -7.150  1.00 20.00    -0.025 C 
HETATM    3  C4  UNL     1     -36.005  15.951  -5.639  1.00 20.00     0.017 C 
HETATM    4  C5  UNL     1     -33.657  16.148  -5.343  1.00 20.00     0.013 C 
HETATM    5  C6  UNL     1     -34.779  16.569  -6.318  1.00 20.00     0.009 C 
HETATM    6  C7  UNL     1     -35.430  14.530  -5.673  1.00 20.00     0.012 C 
HETATM    7  C8  UNL     1     -34.082  14.705  -4.924  1.00 20.00    -0.006 C 
ENDROOT
BRANCH   7   8
HETATM    8  C10 UNL     1     -34.216  14.555  -3.414  1.00 20.00     0.012 C 
BRANCH   8   9
HETATM    9  C9  UNL     1     -33.786  15.823  -2.690  1.00 20.00     0.070 C 
BRANCH   9  10
HETATM   10  C3  UNL     1     -34.836  16.322  -1.726  1.00 20.00     0.231 C 
HETATM   11  O11 UNL     1     -34.643  16.540  -0.535  1.00 20.00    -0.307 OA
ENDBRANCH   9  10
ENDBRANCH   8   9
ENDBRANCH   7   8
TORSDOF 3
ENDMDL
MODEL 9
REMARK VINA RESULT:      -4.1     11.415     12.434
REMARK  3 active torsions:
REMARK  status: ('A' for Active; 'I' for Inactive)
REMARK    1  A    between atoms: C3_3  and  C9_9 
REMARK    2  A    between atoms: C8_8  and  C10_10 
REMARK    3  A    between atoms: C9_9  and  C10_10 
ROOT
HETATM    1  C1  UNL     1     -33.410  19.077   0.971  1.00 20.00    -0.026 C 
HETATM    2  C2  UNL     1     -32.547  18.630   0.046  1.00 20.00    -0.025 C 
HETATM    3  C4  UNL     1     -34.460  19.262  -1.080  1.00 20.00     0.017 C 
HETATM    4  C5  UNL     1     -35.157  17.456   0.296  1.00 20.00     0.013 C 
HETATM    5  C6  UNL     1     -34.796  18.956   0.383  1.00 20.00     0.009 C 
HETATM    6  C7  UNL     1     -33.361  18.196  -1.153  1.00 20.00     0.012 C 
HETATM    7  C8  UNL     1     -34.126  16.909  -0.742  1.00 20.00    -0.006 C 
ENDROOT
BRANCH   7   8
HETATM    8  C10 UNL     1     -34.800  16.216  -1.920  1.00 20.00     0.012 C 
BRANCH   8   9
HETATM    9  C9  UNL     1     -33.774  15.675  -2.907  1.00 20.00     0.070 C 
BRANCH   9  10
HETATM   10  C3  UNL     1     -33.801  16.408  -4.226  1.00 20.00     0.231 C 
HETATM   11  O11 UNL     1     -32.857  16.476  -5.007  1.00 20.00    -0.307 OA
ENDBRANCH   9  10
ENDBRANCH   8   9
ENDBRANCH   7   8
TORSDOF 3
ENDMDL
