MODEL 1
REMARK VINA RESULT:      -3.8      0.000      0.000
REMARK  0 active torsions:
REMARK  status: ('A' for Active; 'I' for Inactive)
ROOT
HETATM    1  C1  UNL     1     -37.036  15.072  -3.754  1.00 20.00     0.145 C 
HETATM    2  C2  UNL     1     -36.418  17.429  -3.104  1.00 20.00     0.061 C 
HETATM    3  C3  UNL     1     -34.874  15.927  -4.728  1.00 20.00     0.061 C 
HETATM    4  C4  UNL     1     -37.481  16.537  -3.754  1.00 20.00     0.103 C 
HETATM    5  C5  UNL     1     -35.528  14.834  -3.876  1.00 20.00     0.103 C 
HETATM    6  C6  UNL     1     -38.901  16.674  -3.203  1.00 20.00     0.024 C 
HETATM    7  C7  UNL     1     -35.236  13.393  -4.295  1.00 20.00     0.024 C 
HETATM    8  O8  UNL     1     -37.838  14.144  -3.660  1.00 20.00    -0.296 OA
HETATM    9  S9  UNL     1     -36.595  18.218  -1.635  1.00 20.00    -0.076 SA
HETATM   10  S10 UNL     1     -34.218  15.693  -6.254  1.00 20.00    -0.076 SA
HETATM   11  S11 UNL     1     -34.895  17.545  -4.003  1.00 20.00    -0.074 SA
ENDROOT
TORSDOF 0
ENDMDL
MODEL 2
REMARK VINA RESULT:      -3.8      0.003      3.637
REMARK  0 active torsions:
REMARK  status: ('A' for Active; 'I' for Inactive)
ROOT
HETATM    1  C1  UNL     1     -37.036  15.071  -3.754  1.00 20.00     0.145 C 
HETATM    2  C2  UNL     1     -34.874  15.927  -4.730  1.00 20.00     0.061 C 
HETATM    3  C3  UNL     1     -36.419  17.428  -3.107  1.00 20.00     0.061 C 
HETATM    4  C4  UNL     1     -35.528  14.834  -3.878  1.00 20.00     0.103 C 
HETATM    5  C5  UNL     1     -37.483  16.536  -3.757  1.00 20.00     0.103 C 
HETATM    6  C6  UNL     1     -35.236  13.393  -4.296  1.00 20.00     0.024 C 
HETATM    7  C7  UNL     1     -38.902  16.674  -3.205  1.00 20.00     0.024 C 
HETATM    8  O8  UNL     1     -37.839  14.143  -3.659  1.00 20.00    -0.296 OA
HETATM    9  S9  UNL     1     -34.218  15.692  -6.256  1.00 20.00    -0.076 SA
HETATM   10  S10 UNL     1     -36.596  18.218  -1.637  1.00 20.00    -0.076 SA
HETATM   11  S11 UNL     1     -34.897  17.546  -4.008  1.00 20.00    -0.074 SA
ENDROOT
TORSDOF 0
ENDMDL
MODEL 3
REMARK VINA RESULT:      -3.7      2.408      3.563
REMARK  0 active torsions:
REMARK  status: ('A' for Active; 'I' for Inactive)
ROOT
HETATM    1  C1  UNL     1     -34.800  15.214  -3.673  1.00 20.00     0.145 C 
HETATM    2  C2  UNL     1     -36.239  16.251  -5.466  1.00 20.00     0.061 C 
HETATM    3  C3  UNL     1     -35.031  17.721  -3.554  1.00 20.00     0.061 C 
HETATM    4  C4  UNL     1     -35.009  15.382  -5.181  1.00 20.00     0.103 C 
HETATM    5  C5  UNL     1     -35.231  16.399  -2.804  1.00 20.00     0.103 C 
HETATM    6  C6  UNL     1     -34.963  14.029  -5.891  1.00 20.00     0.024 C 
HETATM    7  C7  UNL     1     -34.599  16.315  -1.415  1.00 20.00     0.024 C 
HETATM    8  O8  UNL     1     -34.317  14.190  -3.189  1.00 20.00    -0.296 OA
HETATM    9  S9  UNL     1     -37.667  15.697  -6.149  1.00 20.00    -0.076 SA
HETATM   10  S10 UNL     1     -33.890  18.886  -3.161  1.00 20.00    -0.076 SA
HETATM   11  S11 UNL     1     -36.087  17.943  -4.961  1.00 20.00    -0.074 SA
ENDROOT
TORSDOF 0
ENDMDL
MODEL 4
REMARK VINA RESULT:      -3.7      2.409      2.696
REMARK  0 active torsions:
REMARK  status: ('A' for Active; 'I' for Inactive)
ROOT
HETATM    1  C1  UNL     1     -34.799  15.214  -3.671  1.00 20.00     0.145 C 
HETATM    2  C2  UNL     1     -35.030  17.722  -3.553  1.00 20.00     0.061 C 
HETATM    3  C3  UNL     1     -36.234  16.250  -5.466  1.00 20.00     0.061 C 
HETATM    4  C4  UNL     1     -35.230  16.400  -2.804  1.00 20.00     0.103 C 
HETATM    5  C5  UNL     1     -35.003  15.382  -5.180  1.00 20.00     0.103 C 
HETATM    6  C6  UNL     1     -34.599  16.315  -1.413  1.00 20.00     0.024 C 
HETATM    7  C7  UNL     1     -34.958  14.030  -5.890  1.00 20.00     0.024 C 
HETATM    8  O8  UNL     1     -34.318  14.190  -3.187  1.00 20.00    -0.296 OA
HETATM    9  S9  UNL     1     -33.890  18.887  -3.157  1.00 20.00    -0.076 SA
HETATM   10  S10 UNL     1     -37.662  15.697  -6.150  1.00 20.00    -0.076 SA
HETATM   11  S11 UNL     1     -36.081  17.944  -4.963  1.00 20.00    -0.074 SA
ENDROOT
TORSDOF 0
ENDMDL
MODEL 5
REMARK VINA RESULT:      -3.6      2.627      3.420
REMARK  0 active torsions:
REMARK  status: ('A' for Active; 'I' for Inactive)
ROOT
HETATM    1  C1  UNL     1     -33.988  17.031  -4.738  1.00 20.00     0.145 C 
HETATM    2  C2  UNL     1     -35.834  16.940  -3.023  1.00 20.00     0.061 C 
HETATM    3  C3  UNL     1     -35.279  14.867  -4.657  1.00 20.00     0.061 C 
HETATM    4  C4  UNL     1     -34.334  17.159  -3.252  1.00 20.00     0.103 C 
HETATM    5  C5  UNL     1     -34.841  16.042  -5.539  1.00 20.00     0.103 C 
HETATM    6  C6  UNL     1     -33.746  18.442  -2.665  1.00 20.00     0.024 C 
HETATM    7  C7  UNL     1     -34.157  15.673  -6.855  1.00 20.00     0.024 C 
HETATM    8  O8  UNL     1     -33.082  17.682  -5.258  1.00 20.00    -0.296 OA
HETATM    9  S9  UNL     1     -36.916  18.130  -2.547  1.00 20.00    -0.076 SA
HETATM   10  S10 UNL     1     -34.737  13.288  -4.822  1.00 20.00    -0.076 SA
HETATM   11  S11 UNL     1     -36.404  15.295  -3.355  1.00 20.00    -0.074 SA
ENDROOT
TORSDOF 0
ENDMDL
MODEL 6
REMARK VINA RESULT:      -3.6      2.634      4.521
REMARK  0 active torsions:
REMARK  status: ('A' for Active; 'I' for Inactive)
ROOT
HETATM    1  C1  UNL     1     -33.972  17.042  -4.761  1.00 20.00     0.145 C 
HETATM    2  C2  UNL     1     -35.266  14.880  -4.652  1.00 20.00     0.061 C 
HETATM    3  C3  UNL     1     -35.798  16.964  -3.025  1.00 20.00     0.061 C 
HETATM    4  C4  UNL     1     -34.835  16.049  -5.545  1.00 20.00     0.103 C 
HETATM    5  C5  UNL     1     -34.300  17.178  -3.271  1.00 20.00     0.103 C 
HETATM    6  C6  UNL     1     -34.166  15.672  -6.867  1.00 20.00     0.024 C 
HETATM    7  C7  UNL     1     -33.704  18.463  -2.698  1.00 20.00     0.024 C 
HETATM    8  O8  UNL     1     -33.071  17.689  -5.294  1.00 20.00    -0.296 OA
HETATM    9  S9  UNL     1     -34.729  13.299  -4.815  1.00 20.00    -0.076 SA
HETATM   10  S10 UNL     1     -36.873  18.158  -2.544  1.00 20.00    -0.076 SA
HETATM   11  S11 UNL     1     -36.374  15.316  -3.340  1.00 20.00    -0.074 SA
ENDROOT
TORSDOF 0
ENDMDL
MODEL 7
REMARK VINA RESULT:      -3.6      2.664      3.466
REMARK  0 active torsions:
REMARK  status: ('A' for Active; 'I' for Inactive)
ROOT
HETATM    1  C1  UNL     1     -35.247  14.858  -5.587  1.00 20.00     0.145 C 
HETATM    2  C2  UNL     1     -37.566  15.783  -5.233  1.00 20.00     0.061 C 
HETATM    3  C3  UNL     1     -35.799  15.505  -3.214  1.00 20.00     0.061 C 
HETATM    4  C4  UNL     1     -36.245  15.946  -5.993  1.00 20.00     0.103 C 
HETATM    5  C5  UNL     1     -35.346  14.370  -4.138  1.00 20.00     0.103 C 
HETATM    6  C6  UNL     1     -36.353  16.043  -7.515  1.00 20.00     0.024 C 
HETATM    7  C7  UNL     1     -34.072  13.635  -3.722  1.00 20.00     0.024 C 
HETATM    8  O8  UNL     1     -34.416  14.404  -6.373  1.00 20.00    -0.296 OA
HETATM    9  S9  UNL     1     -39.022  15.323  -5.927  1.00 20.00    -0.076 SA
HETATM   10  S10 UNL     1     -34.839  16.238  -2.050  1.00 20.00    -0.076 SA
HETATM   11  S11 UNL     1     -37.459  16.068  -3.487  1.00 20.00    -0.074 SA
ENDROOT
TORSDOF 0
ENDMDL
MODEL 8
REMARK VINA RESULT:      -3.6      2.665      3.619
REMARK  0 active torsions:
REMARK  status: ('A' for Active; 'I' for Inactive)
ROOT
HETATM    1  C1  UNL     1     -35.247  14.853  -5.591  1.00 20.00     0.145 C 
HETATM    2  C2  UNL     1     -35.800  15.504  -3.219  1.00 20.00     0.061 C 
HETATM    3  C3  UNL     1     -37.565  15.780  -5.240  1.00 20.00     0.061 C 
HETATM    4  C4  UNL     1     -35.347  14.368  -4.142  1.00 20.00     0.103 C 
HETATM    5  C5  UNL     1     -36.244  15.942  -5.999  1.00 20.00     0.103 C 
HETATM    6  C6  UNL     1     -34.073  13.632  -3.726  1.00 20.00     0.024 C 
HETATM    7  C7  UNL     1     -36.353  16.038  -7.521  1.00 20.00     0.024 C 
HETATM    8  O8  UNL     1     -34.418  14.397  -6.379  1.00 20.00    -0.296 OA
HETATM    9  S9  UNL     1     -34.839  16.236  -2.055  1.00 20.00    -0.076 SA
HETATM   10  S10 UNL     1     -39.021  15.319  -5.932  1.00 20.00    -0.076 SA
HETATM   11  S11 UNL     1     -37.457  16.069  -3.493  1.00 20.00    -0.074 SA
ENDROOT
TORSDOF 0
ENDMDL
MODEL 9
REMARK VINA RESULT:      -3.5      2.844      3.810
REMARK  0 active torsions:
REMARK  status: ('A' for Active; 'I' for Inactive)
ROOT
HETATM    1  C1  UNL     1     -34.197  15.940  -4.649  1.00 20.00     0.145 C 
HETATM    2  C2  UNL     1     -36.580  15.239  -5.082  1.00 20.00     0.061 C 
HETATM    3  C3  UNL     1     -35.392  17.236  -6.451  1.00 20.00     0.061 C 
HETATM    4  C4  UNL     1     -35.119  14.780  -5.034  1.00 20.00     0.103 C 
HETATM    5  C5  UNL     1     -34.643  17.329  -5.117  1.00 20.00     0.103 C 
HETATM    6  C6  UNL     1     -34.830  13.548  -4.175  1.00 20.00     0.024 C 
HETATM    7  C7  UNL     1     -33.481  18.320  -5.069  1.00 20.00     0.024 C 
HETATM    8  O8  UNL     1     -33.164  15.770  -4.003  1.00 20.00    -0.296 OA
HETATM    9  S9  UNL     1     -37.772  14.763  -4.002  1.00 20.00    -0.076 SA
HETATM   10  S10 UNL     1     -34.817  17.813  -7.918  1.00 20.00    -0.076 SA
HETATM   11  S11 UNL     1     -36.953  16.398  -6.370  1.00 20.00    -0.074 SA
ENDROOT
TORSDOF 0
ENDMDL
