MODEL 1
REMARK VINA RESULT:      -3.6      0.000      0.000
REMARK  2 active torsions:
REMARK  status: ('A' for Active; 'I' for Inactive)
REMARK    1  A    between atoms: C4_4  and  C5_5 
REMARK    2  A    between atoms: C4_4  and  N6_6 
ROOT
HETATM    1  C1  UNL     1     -32.373  14.738  -3.549  1.00 20.00     0.016 C 
HETATM    2  C2  UNL     1     -33.824  16.364  -2.322  1.00 20.00     0.016 C 
HETATM    3  C3  UNL     1     -33.627  16.509  -4.811  1.00 20.00     0.016 C 
HETATM    4  C5  UNL     1     -33.682  15.542  -3.616  1.00 20.00    -0.036 C 
ENDROOT
BRANCH   4   5
HETATM    5  C4  UNL     1     -34.898  14.599  -3.732  1.00 20.00     0.154 C 
BRANCH   5   6
HETATM    6  N6  UNL     1     -34.478  13.194  -3.741  1.00 20.00    -0.063 NA
HETATM    7  O7  UNL     1     -34.881  12.578  -4.741  1.00 20.00    -0.101 OA
ENDBRANCH   5   6
ENDBRANCH   4   5
TORSDOF 2
ENDMDL
MODEL 2
REMARK VINA RESULT:      -3.6      0.141      1.669
REMARK  2 active torsions:
REMARK  status: ('A' for Active; 'I' for Inactive)
REMARK    1  A    between atoms: C4_4  and  C5_5 
REMARK    2  A    between atoms: C4_4  and  N6_6 
ROOT
HETATM    1  C1  UNL     1     -33.780  16.616  -4.700  1.00 20.00     0.016 C 
HETATM    2  C2  UNL     1     -32.439  14.846  -3.550  1.00 20.00     0.016 C 
HETATM    3  C3  UNL     1     -33.842  16.414  -2.199  1.00 20.00     0.016 C 
HETATM    4  C5  UNL     1     -33.763  15.631  -3.520  1.00 20.00    -0.036 C 
ENDROOT
BRANCH   4   5
HETATM    5  C4  UNL     1     -34.929  14.626  -3.629  1.00 20.00     0.154 C 
BRANCH   5   6
HETATM    6  N6  UNL     1     -34.434  13.248  -3.696  1.00 20.00    -0.063 NA
HETATM    7  O7  UNL     1     -34.936  12.601  -4.629  1.00 20.00    -0.101 OA
ENDBRANCH   5   6
ENDBRANCH   4   5
TORSDOF 2
ENDMDL
MODEL 3
REMARK VINA RESULT:      -3.5     11.991     12.574
REMARK  2 active torsions:
REMARK  status: ('A' for Active; 'I' for Inactive)
REMARK    1  A    between atoms: C4_4  and  C5_5 
REMARK    2  A    between atoms: C4_4  and  N6_6 
ROOT
HETATM    1  C1  UNL     1     -34.719   3.834   5.282  1.00 20.00     0.016 C 
HETATM    2  C2  UNL     1     -35.731   5.712   3.976  1.00 20.00     0.016 C 
HETATM    3  C3  UNL     1     -34.402   6.207   6.037  1.00 20.00     0.016 C 
HETATM    4  C5  UNL     1     -34.510   5.283   4.812  1.00 20.00    -0.036 C 
ENDROOT
BRANCH   4   5
HETATM    5  C4  UNL     1     -33.250   5.395   3.929  1.00 20.00     0.154 C 
BRANCH   5   6
HETATM    6  N6  UNL     1     -33.082   6.760   3.420  1.00 20.00    -0.063 NA
HETATM    7  O7  UNL     1     -31.902   7.145   3.456  1.00 20.00    -0.101 OA
ENDBRANCH   5   6
ENDBRANCH   4   5
TORSDOF 2
ENDMDL
MODEL 4
REMARK VINA RESULT:      -3.5     11.961     12.559
REMARK  2 active torsions:
REMARK  status: ('A' for Active; 'I' for Inactive)
REMARK    1  A    between atoms: C4_4  and  C5_5 
REMARK    2  A    between atoms: C4_4  and  N6_6 
ROOT
HETATM    1  C1  UNL     1     -35.706   5.731   3.966  1.00 20.00     0.016 C 
HETATM    2  C2  UNL     1     -34.351   6.317   5.985  1.00 20.00     0.016 C 
HETATM    3  C3  UNL     1     -34.674   3.917   5.361  1.00 20.00     0.016 C 
HETATM    4  C5  UNL     1     -34.478   5.337   4.805  1.00 20.00    -0.036 C 
ENDROOT
BRANCH   4   5
HETATM    5  C4  UNL     1     -33.189   5.419   3.960  1.00 20.00     0.154 C 
BRANCH   5   6
HETATM    6  N6  UNL     1     -33.023   6.756   3.381  1.00 20.00    -0.063 NA
HETATM    7  O7  UNL     1     -31.858   7.178   3.474  1.00 20.00    -0.101 OA
ENDBRANCH   5   6
ENDBRANCH   4   5
TORSDOF 2
ENDMDL
MODEL 5
REMARK VINA RESULT:      -3.5      0.888      1.650
REMARK  2 active torsions:
REMARK  status: ('A' for Active; 'I' for Inactive)
REMARK    1  A    between atoms: C4_4  and  C5_5 
REMARK    2  A    between atoms: C4_4  and  N6_6 
ROOT
HETATM    1  C1  UNL     1     -34.223  16.015  -5.009  1.00 20.00     0.016 C 
HETATM    2  C2  UNL     1     -33.785  16.188  -2.553  1.00 20.00     0.016 C 
HETATM    3  C3  UNL     1     -35.978  15.299  -3.363  1.00 20.00     0.016 C 
HETATM    4  C5  UNL     1     -34.467  15.346  -3.647  1.00 20.00    -0.036 C 
ENDROOT
BRANCH   4   5
HETATM    5  C4  UNL     1     -33.862  13.926  -3.618  1.00 20.00     0.154 C 
BRANCH   5   6
HETATM    6  N6  UNL     1     -34.857  12.921  -4.004  1.00 20.00    -0.063 NA
HETATM    7  O7  UNL     1     -34.690  12.496  -5.159  1.00 20.00    -0.101 OA
ENDBRANCH   5   6
ENDBRANCH   4   5
TORSDOF 2
ENDMDL
MODEL 6
REMARK VINA RESULT:      -3.4      2.070      2.670
REMARK  2 active torsions:
REMARK  status: ('A' for Active; 'I' for Inactive)
REMARK    1  A    between atoms: C4_4  and  C5_5 
REMARK    2  A    between atoms: C4_4  and  N6_6 
ROOT
HETATM    1  C1  UNL     1     -33.824  15.886  -2.851  1.00 20.00     0.016 C 
HETATM    2  C2  UNL     1     -34.607  15.563  -5.205  1.00 20.00     0.016 C 
HETATM    3  C3  UNL     1     -34.285  13.576  -3.720  1.00 20.00     0.016 C 
HETATM    4  C5  UNL     1     -34.737  15.046  -3.761  1.00 20.00    -0.036 C 
ENDROOT
BRANCH   4   5
HETATM    5  C4  UNL     1     -36.212  15.176  -3.326  1.00 20.00     0.154 C 
BRANCH   5   6
HETATM    6  N6  UNL     1     -37.031  14.111  -3.913  1.00 20.00    -0.063 NA
HETATM    7  O7  UNL     1     -38.242  14.251  -3.677  1.00 20.00    -0.101 OA
ENDBRANCH   5   6
ENDBRANCH   4   5
TORSDOF 2
ENDMDL
MODEL 7
REMARK VINA RESULT:      -3.4      2.125      2.203
REMARK  2 active torsions:
REMARK  status: ('A' for Active; 'I' for Inactive)
REMARK    1  A    between atoms: C4_4  and  C5_5 
REMARK    2  A    between atoms: C4_4  and  N6_6 
ROOT
HETATM    1  C1  UNL     1     -34.393  13.712  -3.705  1.00 20.00     0.016 C 
HETATM    2  C2  UNL     1     -34.060  15.892  -2.524  1.00 20.00     0.016 C 
HETATM    3  C3  UNL     1     -34.502  15.868  -4.986  1.00 20.00     0.016 C 
HETATM    4  C5  UNL     1     -34.836  15.184  -3.650  1.00 20.00    -0.036 C 
ENDROOT
BRANCH   4   5
HETATM    5  C4  UNL     1     -36.345  15.290  -3.344  1.00 20.00     0.154 C 
BRANCH   5   6
HETATM    6  N6  UNL     1     -37.074  14.136  -3.881  1.00 20.00    -0.063 NA
HETATM    7  O7  UNL     1     -38.304  14.239  -3.744  1.00 20.00    -0.101 OA
ENDBRANCH   5   6
ENDBRANCH   4   5
TORSDOF 2
ENDMDL
MODEL 8
REMARK VINA RESULT:      -3.4      2.035      2.595
REMARK  2 active torsions:
REMARK  status: ('A' for Active; 'I' for Inactive)
REMARK    1  A    between atoms: C4_4  and  C5_5 
REMARK    2  A    between atoms: C4_4  and  N6_6 
ROOT
HETATM    1  C1  UNL     1     -34.328  15.627  -5.240  1.00 20.00     0.016 C 
HETATM    2  C2  UNL     1     -34.393  13.632  -3.732  1.00 20.00     0.016 C 
HETATM    3  C3  UNL     1     -33.855  15.885  -2.788  1.00 20.00     0.016 C 
HETATM    4  C5  UNL     1     -34.703  15.137  -3.831  1.00 20.00    -0.036 C 
ENDROOT
BRANCH   4   5
HETATM    5  C4  UNL     1     -36.208  15.345  -3.562  1.00 20.00     0.154 C 
BRANCH   5   6
HETATM    6  N6  UNL     1     -36.959  14.105  -3.782  1.00 20.00    -0.063 NA
HETATM    7  O7  UNL     1     -38.189  14.273  -3.735  1.00 20.00    -0.101 OA
ENDBRANCH   5   6
ENDBRANCH   4   5
TORSDOF 2
ENDMDL
MODEL 9
REMARK VINA RESULT:      -3.3      1.123      2.187
REMARK  2 active torsions:
REMARK  status: ('A' for Active; 'I' for Inactive)
REMARK    1  A    between atoms: C4_4  and  C5_5 
REMARK    2  A    between atoms: C4_4  and  N6_6 
ROOT
HETATM    1  C1  UNL     1     -36.245  15.958  -3.488  1.00 20.00     0.016 C 
HETATM    2  C2  UNL     1     -33.911  16.690  -4.011  1.00 20.00     0.016 C 
HETATM    3  C3  UNL     1     -34.553  16.183  -1.647  1.00 20.00     0.016 C 
HETATM    4  C5  UNL     1     -34.764  15.774  -3.115  1.00 20.00    -0.036 C 
ENDROOT
BRANCH   4   5
HETATM    5  C4  UNL     1     -34.319  14.314  -3.344  1.00 20.00     0.154 C 
BRANCH   5   6
HETATM    6  N6  UNL     1     -35.300  13.585  -4.154  1.00 20.00    -0.063 NA
HETATM    7  O7  UNL     1     -34.815  12.586  -4.712  1.00 20.00    -0.101 OA
ENDBRANCH   5   6
ENDBRANCH   4   5
TORSDOF 2
ENDMDL
