MODEL 1
REMARK VINA RESULT:      -3.9      0.000      0.000
REMARK  0 active torsions:
REMARK  status: ('A' for Active; 'I' for Inactive)
ROOT
HETATM    1  C1  UNL     1     -35.189   4.995   6.044  1.00 20.00     0.028 C 
HETATM    2  C2  UNL     1     -35.090   4.315   4.678  1.00 20.00     0.017 C 
HETATM    3  C3  UNL     1     -33.930   5.796   6.355  1.00 20.00     0.188 C 
HETATM    4  C4  UNL     1     -34.758   5.318   3.581  1.00 20.00     0.140 C 
HETATM    5  O5  UNL     1     -33.022   7.265   2.955  1.00 20.00    -0.229 OA
HETATM    6  O6  UNL     1     -33.681   6.754   5.326  1.00 20.00    -0.296 OA
HETATM    7  S7  UNL     1     -33.165   6.132   3.928  1.00 20.00     0.152 S 
ENDROOT
TORSDOF 0
ENDMDL
MODEL 2
REMARK VINA RESULT:      -3.8      1.168      1.980
REMARK  0 active torsions:
REMARK  status: ('A' for Active; 'I' for Inactive)
ROOT
HETATM    1  C1  UNL     1     -34.969   4.541   5.962  1.00 20.00     0.028 C 
HETATM    2  C2  UNL     1     -34.480   5.910   6.433  1.00 20.00     0.017 C 
HETATM    3  C3  UNL     1     -35.355   4.568   4.487  1.00 20.00     0.188 C 
HETATM    4  C4  UNL     1     -33.353   6.430   5.551  1.00 20.00     0.140 C 
HETATM    5  O5  UNL     1     -32.711   6.867   2.983  1.00 20.00    -0.229 OA
HETATM    6  O6  UNL     1     -34.257   5.017   3.693  1.00 20.00    -0.296 OA
HETATM    7  S7  UNL     1     -33.920   6.591   3.826  1.00 20.00     0.152 S 
ENDROOT
TORSDOF 0
ENDMDL
MODEL 3
REMARK VINA RESULT:      -3.6      1.869      2.239
REMARK  0 active torsions:
REMARK  status: ('A' for Active; 'I' for Inactive)
ROOT
HETATM    1  C1  UNL     1     -34.323   5.063   6.649  1.00 20.00     0.028 C 
HETATM    2  C2  UNL     1     -34.066   6.439   6.037  1.00 20.00     0.017 C 
HETATM    3  C3  UNL     1     -35.289   4.249   5.794  1.00 20.00     0.188 C 
HETATM    4  C4  UNL     1     -33.604   6.327   4.590  1.00 20.00     0.140 C 
HETATM    5  O5  UNL     1     -34.253   5.192   2.248  1.00 20.00    -0.229 OA
HETATM    6  O6  UNL     1     -34.796   4.130   4.460  1.00 20.00    -0.296 OA
HETATM    7  S7  UNL     1     -34.869   5.485   3.584  1.00 20.00     0.152 S 
ENDROOT
TORSDOF 0
ENDMDL
MODEL 4
REMARK VINA RESULT:      -3.5     12.192     12.485
REMARK  0 active torsions:
REMARK  status: ('A' for Active; 'I' for Inactive)
ROOT
HETATM    1  C1  UNL     1     -34.598  16.032  -2.407  1.00 20.00     0.028 C 
HETATM    2  C2  UNL     1     -33.330  15.737  -3.208  1.00 20.00     0.017 C 
HETATM    3  C3  UNL     1     -35.849  15.666  -3.198  1.00 20.00     0.188 C 
HETATM    4  C4  UNL     1     -33.303  14.294  -3.694  1.00 20.00     0.140 C 
HETATM    5  O5  UNL     1     -34.785  12.479  -5.000  1.00 20.00    -0.229 OA
HETATM    6  O6  UNL     1     -35.804  14.296  -3.595  1.00 20.00    -0.296 OA
HETATM    7  S7  UNL     1     -34.741  13.960  -4.763  1.00 20.00     0.152 S 
ENDROOT
TORSDOF 0
ENDMDL
MODEL 5
REMARK VINA RESULT:      -3.5     12.870     13.477
REMARK  0 active torsions:
REMARK  status: ('A' for Active; 'I' for Inactive)
ROOT
HETATM    1  C1  UNL     1     -33.226  16.504  -5.195  1.00 20.00     0.028 C 
HETATM    2  C2  UNL     1     -34.367  16.100  -6.129  1.00 20.00     0.017 C 
HETATM    3  C3  UNL     1     -33.464  15.993  -3.778  1.00 20.00     0.188 C 
HETATM    4  C4  UNL     1     -34.611  14.597  -6.091  1.00 20.00     0.140 C 
HETATM    5  O5  UNL     1     -35.030  12.569  -4.385  1.00 20.00    -0.229 OA
HETATM    6  O6  UNL     1     -33.643  14.577  -3.783  1.00 20.00    -0.296 OA
HETATM    7  S7  UNL     1     -35.046  14.069  -4.401  1.00 20.00     0.152 S 
ENDROOT
TORSDOF 0
ENDMDL
MODEL 6
REMARK VINA RESULT:      -3.5     12.027     13.073
REMARK  0 active torsions:
REMARK  status: ('A' for Active; 'I' for Inactive)
ROOT
HETATM    1  C1  UNL     1     -33.770  17.012  -3.847  1.00 20.00     0.028 C 
HETATM    2  C2  UNL     1     -33.975  16.236  -2.546  1.00 20.00     0.017 C 
HETATM    3  C3  UNL     1     -33.187  16.121  -4.938  1.00 20.00     0.188 C 
HETATM    4  C4  UNL     1     -34.807  14.981  -2.773  1.00 20.00     0.140 C 
HETATM    5  O5  UNL     1     -34.958  12.800  -4.328  1.00 20.00    -0.229 OA
HETATM    6  O6  UNL     1     -34.021  14.982  -5.150  1.00 20.00    -0.296 OA
HETATM    7  S7  UNL     1     -33.982  13.881  -3.969  1.00 20.00     0.152 S 
ENDROOT
TORSDOF 0
ENDMDL
MODEL 7
REMARK VINA RESULT:      -3.4      2.094      2.385
REMARK  0 active torsions:
REMARK  status: ('A' for Active; 'I' for Inactive)
ROOT
HETATM    1  C1  UNL     1     -35.294   4.489   4.348  1.00 20.00     0.028 C 
HETATM    2  C2  UNL     1     -34.253   5.409   3.711  1.00 20.00     0.017 C 
HETATM    3  C3  UNL     1     -34.978   4.228   5.817  1.00 20.00     0.188 C 
HETATM    4  C4  UNL     1     -34.091   6.699   4.504  1.00 20.00     0.140 C 
HETATM    5  O5  UNL     1     -33.659   7.608   6.991  1.00 20.00    -0.229 OA
HETATM    6  O6  UNL     1     -34.880   5.460   6.531  1.00 20.00    -0.296 OA
HETATM    7  S7  UNL     1     -33.559   6.332   6.209  1.00 20.00     0.152 S 
ENDROOT
TORSDOF 0
ENDMDL
MODEL 8
REMARK VINA RESULT:      -3.3      9.380     10.035
REMARK  0 active torsions:
REMARK  status: ('A' for Active; 'I' for Inactive)
ROOT
HETATM    1  C1  UNL     1     -41.174   7.226  -0.921  1.00 20.00     0.028 C 
HETATM    2  C2  UNL     1     -42.473   6.989  -1.690  1.00 20.00     0.017 C 
HETATM    3  C3  UNL     1     -40.693   5.950  -0.239  1.00 20.00     0.188 C 
HETATM    4  C4  UNL     1     -42.336   5.829  -2.667  1.00 20.00     0.140 C 
HETATM    5  O5  UNL     1     -41.558   3.265  -2.804  1.00 20.00    -0.229 OA
HETATM    6  O6  UNL     1     -40.535   4.903  -1.196  1.00 20.00    -0.296 OA
HETATM    7  S7  UNL     1     -41.915   4.296  -1.775  1.00 20.00     0.152 S 
ENDROOT
TORSDOF 0
ENDMDL
MODEL 9
REMARK VINA RESULT:      -3.3     12.667     13.834
REMARK  0 active torsions:
REMARK  status: ('A' for Active; 'I' for Inactive)
ROOT
HETATM    1  C1  UNL     1     -34.078  16.366  -6.192  1.00 20.00     0.028 C 
HETATM    2  C2  UNL     1     -33.426  16.079  -4.839  1.00 20.00     0.017 C 
HETATM    3  C3  UNL     1     -34.335  15.078  -6.966  1.00 20.00     0.188 C 
HETATM    4  C4  UNL     1     -34.238  15.074  -4.033  1.00 20.00     0.140 C 
HETATM    5  O5  UNL     1     -35.381  12.654  -4.215  1.00 20.00    -0.229 OA
HETATM    6  O6  UNL     1     -35.135  14.183  -6.194  1.00 20.00    -0.296 OA
HETATM    7  S7  UNL     1     -34.378  13.500  -4.942  1.00 20.00     0.152 S 
ENDROOT
TORSDOF 0
ENDMDL
