MODEL 1
REMARK VINA RESULT:      -3.9      0.000      0.000
REMARK  6 active torsions:
REMARK  status: ('A' for Active; 'I' for Inactive)
REMARK    1  A    between atoms: C1_1  and  C5_5 
REMARK    2  A    between atoms: C1_1  and  C8_8 
REMARK    3  A    between atoms: C6_6  and  O10_10 
REMARK    4  A    between atoms: C7_7  and  O11_11 
REMARK    5  A    between atoms: C8_8  and  O10_10 
REMARK    6  A    between atoms: C8_8  and  O11_11 
ROOT
HETATM    1  C8  UNL     1     -35.716  14.628  -4.018  1.00 20.00     0.329 C 
ENDROOT
BRANCH   1   2
HETATM    2  C1  UNL     1     -35.112  13.733  -5.096  1.00 20.00     0.181 C 
HETATM    3  O9  UNL     1     -34.749  12.583  -4.852  1.00 20.00    -0.293 OA
BRANCH   2   4
HETATM    4  C5  UNL     1     -34.972  14.350  -6.479  1.00 20.00     0.079 C 
HETATM    5  C2  UNL     1     -34.214  15.666  -6.458  1.00 20.00     0.013 C 
ENDBRANCH   2   4
ENDBRANCH   1   2
BRANCH   1   6
HETATM    6  O10 UNL     1     -36.971  14.022  -3.713  1.00 20.00    -0.355 OA
BRANCH   6   7
HETATM    7  C6  UNL     1     -38.067  14.800  -4.176  1.00 20.00     0.167 C 
HETATM    8  C3  UNL     1     -37.639  16.249  -4.266  1.00 20.00     0.033 C 
ENDBRANCH   6   7
ENDBRANCH   1   6
BRANCH   1   9
HETATM    9  O11 UNL     1     -34.861  14.662  -2.884  1.00 20.00    -0.355 OA
BRANCH   9  10
HETATM   10  C7  UNL     1     -34.267  15.937  -2.685  1.00 20.00     0.167 C 
HETATM   11  C4  UNL     1     -34.620  16.434  -1.298  1.00 20.00     0.033 C 
ENDBRANCH   9  10
ENDBRANCH   1   9
TORSDOF 6
ENDMDL
MODEL 2
REMARK VINA RESULT:      -3.9      1.886      3.710
REMARK  6 active torsions:
REMARK  status: ('A' for Active; 'I' for Inactive)
REMARK    1  A    between atoms: C1_1  and  C5_5 
REMARK    2  A    between atoms: C1_1  and  C8_8 
REMARK    3  A    between atoms: C6_6  and  O10_10 
REMARK    4  A    between atoms: C7_7  and  O11_11 
REMARK    5  A    between atoms: C8_8  and  O10_10 
REMARK    6  A    between atoms: C8_8  and  O11_11 
ROOT
HETATM    1  C8  UNL     1     -33.936  15.553  -3.910  1.00 20.00     0.329 C 
ENDROOT
BRANCH   1   2
HETATM    2  C1  UNL     1     -33.998  14.029  -3.895  1.00 20.00     0.181 C 
HETATM    3  O9  UNL     1     -33.003  13.344  -3.658  1.00 20.00    -0.293 OA
BRANCH   2   4
HETATM    4  C5  UNL     1     -35.353  13.410  -4.202  1.00 20.00     0.079 C 
HETATM    5  C2  UNL     1     -36.490  14.410  -4.096  1.00 20.00     0.013 C 
ENDBRANCH   2   4
ENDBRANCH   1   2
BRANCH   1   6
HETATM    6  O10 UNL     1     -33.288  15.897  -2.686  1.00 20.00    -0.355 OA
BRANCH   6   7
HETATM    7  C6  UNL     1     -33.879  17.033  -2.069  1.00 20.00     0.167 C 
HETATM    8  C3  UNL     1     -34.665  16.583  -0.857  1.00 20.00     0.033 C 
ENDBRANCH   6   7
ENDBRANCH   1   6
BRANCH   1   9
HETATM    9  O11 UNL     1     -33.192  15.994  -5.037  1.00 20.00    -0.355 OA
BRANCH   9  10
HETATM   10  C7  UNL     1     -34.005  16.630  -6.014  1.00 20.00     0.167 C 
HETATM   11  C4  UNL     1     -34.330  15.634  -7.109  1.00 20.00     0.033 C 
ENDBRANCH   9  10
ENDBRANCH   1   9
TORSDOF 6
ENDMDL
MODEL 3
REMARK VINA RESULT:      -3.9      0.945      3.339
REMARK  6 active torsions:
REMARK  status: ('A' for Active; 'I' for Inactive)
REMARK    1  A    between atoms: C1_1  and  C5_5 
REMARK    2  A    between atoms: C1_1  and  C8_8 
REMARK    3  A    between atoms: C6_6  and  O10_10 
REMARK    4  A    between atoms: C7_7  and  O11_11 
REMARK    5  A    between atoms: C8_8  and  O10_10 
REMARK    6  A    between atoms: C8_8  and  O11_11 
ROOT
HETATM    1  C8  UNL     1     -35.566  14.404  -4.568  1.00 20.00     0.329 C 
ENDROOT
BRANCH   1   2
HETATM    2  C1  UNL     1     -34.401  14.277  -3.592  1.00 20.00     0.181 C 
HETATM    3  O9  UNL     1     -33.935  13.181  -3.281  1.00 20.00    -0.293 OA
BRANCH   2   4
HETATM    4  C5  UNL     1     -33.861  15.579  -3.018  1.00 20.00     0.079 C 
HETATM    5  C2  UNL     1     -34.680  16.081  -1.842  1.00 20.00     0.013 C 
ENDBRANCH   2   4
ENDBRANCH   1   2
BRANCH   1   6
HETATM    6  O10 UNL     1     -35.168  13.635  -5.701  1.00 20.00    -0.355 OA
BRANCH   6   7
HETATM    7  C6  UNL     1     -35.359  14.341  -6.920  1.00 20.00     0.167 C 
HETATM    8  C3  UNL     1     -34.310  15.427  -7.029  1.00 20.00     0.033 C 
ENDBRANCH   6   7
ENDBRANCH   1   6
BRANCH   1   9
HETATM    9  O11 UNL     1     -36.750  13.890  -3.975  1.00 20.00    -0.355 OA
BRANCH   9  10
HETATM   10  C7  UNL     1     -37.716  14.899  -3.717  1.00 20.00     0.167 C 
HETATM   11  C4  UNL     1     -37.370  16.132  -4.525  1.00 20.00     0.033 C 
ENDBRANCH   9  10
ENDBRANCH   1   9
TORSDOF 6
ENDMDL
MODEL 4
REMARK VINA RESULT:      -3.8      2.047      3.013
REMARK  6 active torsions:
REMARK  status: ('A' for Active; 'I' for Inactive)
REMARK    1  A    between atoms: C1_1  and  C5_5 
REMARK    2  A    between atoms: C1_1  and  C8_8 
REMARK    3  A    between atoms: C6_6  and  O10_10 
REMARK    4  A    between atoms: C7_7  and  O11_11 
REMARK    5  A    between atoms: C8_8  and  O10_10 
REMARK    6  A    between atoms: C8_8  and  O11_11 
ROOT
HETATM    1  C8  UNL     1     -33.400  15.565  -3.328  1.00 20.00     0.329 C 
ENDROOT
BRANCH   1   2
HETATM    2  C1  UNL     1     -33.770  14.150  -3.762  1.00 20.00     0.181 C 
HETATM    3  O9  UNL     1     -32.974  13.216  -3.664  1.00 20.00    -0.293 OA
BRANCH   2   4
HETATM    4  C5  UNL     1     -35.168  13.966  -4.332  1.00 20.00     0.079 C 
HETATM    5  C2  UNL     1     -35.181  13.944  -5.850  1.00 20.00     0.013 C 
ENDBRANCH   2   4
ENDBRANCH   1   2
BRANCH   1   6
HETATM    6  O10 UNL     1     -32.862  16.170  -4.503  1.00 20.00    -0.355 OA
BRANCH   6   7
HETATM    7  C6  UNL     1     -33.461  17.428  -4.779  1.00 20.00     0.167 C 
HETATM    8  C3  UNL     1     -33.992  17.420  -6.198  1.00 20.00     0.033 C 
ENDBRANCH   6   7
ENDBRANCH   1   6
BRANCH   1   9
HETATM    9  O11 UNL     1     -34.559  16.248  -2.872  1.00 20.00    -0.355 OA
BRANCH   9  10
HETATM   10  C7  UNL     1     -34.622  16.334  -1.455  1.00 20.00     0.167 C 
HETATM   11  C4  UNL     1     -33.732  17.467  -0.989  1.00 20.00     0.033 C 
ENDBRANCH   9  10
ENDBRANCH   1   9
TORSDOF 6
ENDMDL
MODEL 5
REMARK VINA RESULT:      -3.8      1.764      2.664
REMARK  6 active torsions:
REMARK  status: ('A' for Active; 'I' for Inactive)
REMARK    1  A    between atoms: C1_1  and  C5_5 
REMARK    2  A    between atoms: C1_1  and  C8_8 
REMARK    3  A    between atoms: C6_6  and  O10_10 
REMARK    4  A    between atoms: C7_7  and  O11_11 
REMARK    5  A    between atoms: C8_8  and  O10_10 
REMARK    6  A    between atoms: C8_8  and  O11_11 
ROOT
HETATM    1  C8  UNL     1     -35.340  15.750  -3.715  1.00 20.00     0.329 C 
ENDROOT
BRANCH   1   2
HETATM    2  C1  UNL     1     -35.974  14.380  -3.932  1.00 20.00     0.181 C 
HETATM    3  O9  UNL     1     -37.183  14.198  -3.791  1.00 20.00    -0.293 OA
BRANCH   2   4
HETATM    4  C5  UNL     1     -35.025  13.254  -4.316  1.00 20.00     0.079 C 
HETATM    5  C2  UNL     1     -33.587  13.545  -3.925  1.00 20.00     0.013 C 
ENDBRANCH   2   4
ENDBRANCH   1   2
BRANCH   1   6
HETATM    6  O10 UNL     1     -35.953  16.587  -4.696  1.00 20.00    -0.355 OA
BRANCH   6   7
HETATM    7  C6  UNL     1     -35.113  16.794  -5.823  1.00 20.00     0.167 C 
HETATM    8  C3  UNL     1     -33.696  17.031  -5.344  1.00 20.00     0.033 C 
ENDBRANCH   6   7
ENDBRANCH   1   6
BRANCH   1   9
HETATM    9  O11 UNL     1     -35.610  16.205  -2.397  1.00 20.00    -0.355 OA
BRANCH   9  10
HETATM   10  C7  UNL     1     -34.431  16.362  -1.620  1.00 20.00     0.167 C 
HETATM   11  C4  UNL     1     -34.795  16.999  -0.295  1.00 20.00     0.033 C 
ENDBRANCH   9  10
ENDBRANCH   1   9
TORSDOF 6
ENDMDL
MODEL 6
REMARK VINA RESULT:      -3.7      0.792      2.837
REMARK  6 active torsions:
REMARK  status: ('A' for Active; 'I' for Inactive)
REMARK    1  A    between atoms: C1_1  and  C5_5 
REMARK    2  A    between atoms: C1_1  and  C8_8 
REMARK    3  A    between atoms: C6_6  and  O10_10 
REMARK    4  A    between atoms: C7_7  and  O11_11 
REMARK    5  A    between atoms: C8_8  and  O10_10 
REMARK    6  A    between atoms: C8_8  and  O11_11 
ROOT
HETATM    1  C8  UNL     1     -35.625  14.372  -3.811  1.00 20.00     0.329 C 
ENDROOT
BRANCH   1   2
HETATM    2  C1  UNL     1     -34.934  13.702  -4.994  1.00 20.00     0.181 C 
HETATM    3  O9  UNL     1     -34.652  12.503  -4.982  1.00 20.00    -0.293 OA
BRANCH   2   4
HETATM    4  C5  UNL     1     -34.603  14.601  -6.175  1.00 20.00     0.079 C 
HETATM    5  C2  UNL     1     -35.550  14.399  -7.345  1.00 20.00     0.013 C 
ENDBRANCH   2   4
ENDBRANCH   1   2
BRANCH   1   6
HETATM    6  O10 UNL     1     -35.389  15.766  -4.002  1.00 20.00    -0.355 OA
BRANCH   6   7
HETATM    7  C6  UNL     1     -34.355  16.254  -3.158  1.00 20.00     0.167 C 
HETATM    8  C3  UNL     1     -34.820  16.185  -1.719  1.00 20.00     0.033 C 
ENDBRANCH   6   7
ENDBRANCH   1   6
BRANCH   1   9
HETATM    9  O11 UNL     1     -37.013  14.069  -3.828  1.00 20.00    -0.355 OA
BRANCH   9  10
HETATM   10  C7  UNL     1     -37.804  15.153  -4.295  1.00 20.00     0.167 C 
HETATM   11  C4  UNL     1     -39.030  15.285  -3.416  1.00 20.00     0.033 C 
ENDBRANCH   9  10
ENDBRANCH   1   9
TORSDOF 6
ENDMDL
MODEL 7
REMARK VINA RESULT:      -3.6      1.202      2.987
REMARK  6 active torsions:
REMARK  status: ('A' for Active; 'I' for Inactive)
REMARK    1  A    between atoms: C1_1  and  C5_5 
REMARK    2  A    between atoms: C1_1  and  C8_8 
REMARK    3  A    between atoms: C6_6  and  O10_10 
REMARK    4  A    between atoms: C7_7  and  O11_11 
REMARK    5  A    between atoms: C8_8  and  O10_10 
REMARK    6  A    between atoms: C8_8  and  O11_11 
ROOT
HETATM    1  C8  UNL     1     -36.085  13.921  -4.512  1.00 20.00     0.329 C 
ENDROOT
BRANCH   1   2
HETATM    2  C1  UNL     1     -34.859  14.085  -3.620  1.00 20.00     0.181 C 
HETATM    3  O9  UNL     1     -34.000  13.207  -3.535  1.00 20.00    -0.293 OA
BRANCH   2   4
HETATM    4  C5  UNL     1     -34.770  15.384  -2.834  1.00 20.00     0.079 C 
HETATM    5  C2  UNL     1     -33.590  16.241  -3.256  1.00 20.00     0.013 C 
ENDBRANCH   2   4
ENDBRANCH   1   2
BRANCH   1   6
HETATM    6  O10 UNL     1     -37.194  14.120  -3.636  1.00 20.00    -0.355 OA
BRANCH   6   7
HETATM    7  C6  UNL     1     -38.299  14.718  -4.300  1.00 20.00     0.167 C 
HETATM    8  C3  UNL     1     -39.149  15.448  -3.282  1.00 20.00     0.033 C 
ENDBRANCH   6   7
ENDBRANCH   1   6
BRANCH   1   9
HETATM    9  O11 UNL     1     -36.059  14.889  -5.551  1.00 20.00    -0.355 OA
BRANCH   9  10
HETATM   10  C7  UNL     1     -35.416  14.414  -6.726  1.00 20.00     0.167 C 
HETATM   11  C4  UNL     1     -34.217  15.291  -7.022  1.00 20.00     0.033 C 
ENDBRANCH   9  10
ENDBRANCH   1   9
TORSDOF 6
ENDMDL
MODEL 8
REMARK VINA RESULT:      -3.6      2.383      3.896
REMARK  6 active torsions:
REMARK  status: ('A' for Active; 'I' for Inactive)
REMARK    1  A    between atoms: C1_1  and  C5_5 
REMARK    2  A    between atoms: C1_1  and  C8_8 
REMARK    3  A    between atoms: C6_6  and  O10_10 
REMARK    4  A    between atoms: C7_7  and  O11_11 
REMARK    5  A    between atoms: C8_8  and  O10_10 
REMARK    6  A    between atoms: C8_8  and  O11_11 
ROOT
HETATM    1  C8  UNL     1     -34.545  16.619  -3.456  1.00 20.00     0.329 C 
ENDROOT
BRANCH   1   2
HETATM    2  C1  UNL     1     -33.320  16.108  -4.209  1.00 20.00     0.181 C 
HETATM    3  O9  UNL     1     -32.892  16.682  -5.211  1.00 20.00    -0.293 OA
BRANCH   2   4
HETATM    4  C5  UNL     1     -32.673  14.846  -3.660  1.00 20.00     0.079 C 
HETATM    5  C2  UNL     1     -33.550  13.619  -3.829  1.00 20.00     0.013 C 
ENDBRANCH   2   4
ENDBRANCH   1   2
BRANCH   1   6
HETATM    6  O10 UNL     1     -34.089  17.794  -2.788  1.00 20.00    -0.355 OA
BRANCH   6   7
HETATM    7  C6  UNL     1     -33.702  17.530  -1.446  1.00 20.00     0.167 C 
HETATM    8  C3  UNL     1     -34.709  16.589  -0.820  1.00 20.00     0.033 C 
ENDBRANCH   6   7
ENDBRANCH   1   6
BRANCH   1   9
HETATM    9  O11 UNL     1     -35.589  16.910  -4.374  1.00 20.00    -0.355 OA
BRANCH   9  10
HETATM   10  C7  UNL     1     -36.324  15.754  -4.752  1.00 20.00     0.167 C 
HETATM   11  C4  UNL     1     -36.936  15.132  -3.514  1.00 20.00     0.033 C 
ENDBRANCH   9  10
ENDBRANCH   1   9
TORSDOF 6
ENDMDL
MODEL 9
REMARK VINA RESULT:      -3.6      2.201      3.007
REMARK  6 active torsions:
REMARK  status: ('A' for Active; 'I' for Inactive)
REMARK    1  A    between atoms: C1_1  and  C5_5 
REMARK    2  A    between atoms: C1_1  and  C8_8 
REMARK    3  A    between atoms: C6_6  and  O10_10 
REMARK    4  A    between atoms: C7_7  and  O11_11 
REMARK    5  A    between atoms: C8_8  and  O10_10 
REMARK    6  A    between atoms: C8_8  and  O11_11 
ROOT
HETATM    1  C8  UNL     1     -34.504  15.812  -3.953  1.00 20.00     0.329 C 
ENDROOT
BRANCH   1   2
HETATM    2  C1  UNL     1     -34.003  16.591  -5.165  1.00 20.00     0.181 C 
HETATM    3  O9  UNL     1     -33.011  17.317  -5.102  1.00 20.00    -0.293 OA
BRANCH   2   4
HETATM    4  C5  UNL     1     -34.807  16.428  -6.446  1.00 20.00     0.079 C 
HETATM    5  C2  UNL     1     -34.394  15.204  -7.244  1.00 20.00     0.013 C 
ENDBRANCH   2   4
ENDBRANCH   1   2
BRANCH   1   6
HETATM    6  O10 UNL     1     -33.400  14.990  -3.576  1.00 20.00    -0.355 OA
BRANCH   6   7
HETATM    7  C6  UNL     1     -33.590  13.633  -3.953  1.00 20.00     0.167 C 
HETATM    8  C3  UNL     1     -35.074  13.363  -4.088  1.00 20.00     0.033 C 
ENDBRANCH   6   7
ENDBRANCH   1   6
BRANCH   1   9
HETATM    9  O11 UNL     1     -34.864  16.713  -2.916  1.00 20.00    -0.355 OA
BRANCH   9  10
HETATM   10  C7  UNL     1     -33.943  16.698  -1.834  1.00 20.00     0.167 C 
HETATM   11  C4  UNL     1     -34.704  16.868  -0.535  1.00 20.00     0.033 C 
ENDBRANCH   9  10
ENDBRANCH   1   9
TORSDOF 6
ENDMDL
