MODEL 1
REMARK VINA RESULT:      -3.4      0.000      0.000
REMARK  0 active torsions:
REMARK  status: ('A' for Active; 'I' for Inactive)
ROOT
HETATM    1  C1  UNL     1     -34.359  14.924  -3.368  1.00 20.00     0.062 C 
HETATM    2  C2  UNL     1     -35.833  16.910  -2.982  1.00 20.00     0.113 C 
HETATM    3  C3  UNL     1     -34.472  16.917  -2.269  1.00 20.00     0.056 C 
HETATM    4  C4  UNL     1     -33.809  13.680  -3.978  1.00 20.00     0.078 C 
HETATM    5  C5  UNL     1     -33.751  18.246  -2.512  1.00 20.00     0.041 C 
HETATM    6  C6  UNL     1     -34.616  16.687  -0.756  1.00 20.00     0.041 C 
HETATM    7  N7  UNL     1     -33.621  15.834  -2.823  1.00 20.00    -0.277 NA
HETATM    8  S8  UNL     1     -36.081  15.180  -3.431  1.00 20.00    -0.113 SA
ENDROOT
TORSDOF 0
ENDMDL
MODEL 2
REMARK VINA RESULT:      -3.4      1.453      3.380
REMARK  0 active torsions:
REMARK  status: ('A' for Active; 'I' for Inactive)
ROOT
HETATM    1  C1  UNL     1     -34.984  15.909  -2.461  1.00 20.00     0.062 C 
HETATM    2  C2  UNL     1     -36.354  15.043  -4.369  1.00 20.00     0.113 C 
HETATM    3  C3  UNL     1     -34.854  14.713  -4.396  1.00 20.00     0.056 C 
HETATM    4  C4  UNL     1     -34.630  16.478  -1.129  1.00 20.00     0.078 C 
HETATM    5  C5  UNL     1     -34.644  13.216  -4.645  1.00 20.00     0.041 C 
HETATM    6  C6  UNL     1     -34.109  15.516  -5.473  1.00 20.00     0.041 C 
HETATM    7  N7  UNL     1     -34.254  15.039  -3.078  1.00 20.00    -0.277 NA
HETATM    8  S8  UNL     1     -36.477  16.416  -3.203  1.00 20.00    -0.113 SA
ENDROOT
TORSDOF 0
ENDMDL
MODEL 3
REMARK VINA RESULT:      -3.4      2.723      3.608
REMARK  0 active torsions:
REMARK  status: ('A' for Active; 'I' for Inactive)
ROOT
HETATM    1  C1  UNL     1     -34.653  15.138  -6.525  1.00 20.00     0.062 C 
HETATM    2  C2  UNL     1     -33.357  16.094  -4.608  1.00 20.00     0.113 C 
HETATM    3  C3  UNL     1     -34.137  14.799  -4.331  1.00 20.00     0.056 C 
HETATM    4  C4  UNL     1     -35.124  14.888  -7.917  1.00 20.00     0.078 C 
HETATM    5  C5  UNL     1     -33.229  13.766  -3.656  1.00 20.00     0.041 C 
HETATM    6  C6  UNL     1     -35.368  15.048  -3.447  1.00 20.00     0.041 C 
HETATM    7  N7  UNL     1     -34.600  14.219  -5.617  1.00 20.00    -0.277 NA
HETATM    8  S8  UNL     1     -34.111  16.742  -6.115  1.00 20.00    -0.113 SA
ENDROOT
TORSDOF 0
ENDMDL
MODEL 4
REMARK VINA RESULT:      -3.4     12.447     13.372
REMARK  0 active torsions:
REMARK  status: ('A' for Active; 'I' for Inactive)
ROOT
HETATM    1  C1  UNL     1     -41.823   3.967  -2.308  1.00 20.00     0.062 C 
HETATM    2  C2  UNL     1     -42.431   6.341  -1.798  1.00 20.00     0.113 C 
HETATM    3  C3  UNL     1     -41.692   5.570  -0.693  1.00 20.00     0.056 C 
HETATM    4  C4  UNL     1     -41.560   2.718  -3.079  1.00 20.00     0.078 C 
HETATM    5  C5  UNL     1     -40.505   6.388  -0.177  1.00 20.00     0.041 C 
HETATM    6  C6  UNL     1     -42.618   5.222   0.482  1.00 20.00     0.041 C 
HETATM    7  N7  UNL     1     -41.157   4.303  -1.252  1.00 20.00    -0.277 NA
HETATM    8  S8  UNL     1     -43.062   5.046  -2.886  1.00 20.00    -0.113 SA
ENDROOT
TORSDOF 0
ENDMDL
MODEL 5
REMARK VINA RESULT:      -3.4     12.308     13.617
REMARK  0 active torsions:
REMARK  status: ('A' for Active; 'I' for Inactive)
ROOT
HETATM    1  C1  UNL     1     -42.112   6.382  -2.391  1.00 20.00     0.062 C 
HETATM    2  C2  UNL     1     -40.847   4.622  -1.139  1.00 20.00     0.113 C 
HETATM    3  C3  UNL     1     -42.048   4.144  -1.969  1.00 20.00     0.056 C 
HETATM    4  C4  UNL     1     -42.443   7.687  -3.033  1.00 20.00     0.078 C 
HETATM    5  C5  UNL     1     -41.644   2.961  -2.855  1.00 20.00     0.041 C 
HETATM    6  C6  UNL     1     -43.232   3.732  -1.081  1.00 20.00     0.041 C 
HETATM    7  N7  UNL     1     -42.498   5.242  -2.861  1.00 20.00    -0.277 NA
HETATM    8  S8  UNL     1     -41.122   6.397  -0.958  1.00 20.00    -0.113 SA
ENDROOT
TORSDOF 0
ENDMDL
MODEL 6
REMARK VINA RESULT:      -3.4      1.781      3.382
REMARK  0 active torsions:
REMARK  status: ('A' for Active; 'I' for Inactive)
ROOT
HETATM    1  C1  UNL     1     -34.346  16.406  -2.436  1.00 20.00     0.062 C 
HETATM    2  C2  UNL     1     -34.969  15.968  -4.821  1.00 20.00     0.113 C 
HETATM    3  C3  UNL     1     -35.402  14.911  -3.793  1.00 20.00     0.056 C 
HETATM    4  C4  UNL     1     -33.905  17.129  -1.209  1.00 20.00     0.078 C 
HETATM    5  C5  UNL     1     -36.887  14.578  -3.967  1.00 20.00     0.041 C 
HETATM    6  C6  UNL     1     -34.575  13.621  -3.913  1.00 20.00     0.041 C 
HETATM    7  N7  UNL     1     -35.218  15.453  -2.423  1.00 20.00    -0.277 NA
HETATM    8  S8  UNL     1     -33.681  16.903  -3.968  1.00 20.00    -0.113 SA
ENDROOT
TORSDOF 0
ENDMDL
MODEL 7
REMARK VINA RESULT:      -3.3      1.401      1.966
REMARK  0 active torsions:
REMARK  status: ('A' for Active; 'I' for Inactive)
ROOT
HETATM    1  C1  UNL     1     -34.371  14.768  -4.072  1.00 20.00     0.062 C 
HETATM    2  C2  UNL     1     -33.738  17.093  -3.392  1.00 20.00     0.113 C 
HETATM    3  C3  UNL     1     -34.869  16.428  -2.591  1.00 20.00     0.056 C 
HETATM    4  C4  UNL     1     -34.302  13.422  -4.710  1.00 20.00     0.078 C 
HETATM    5  C5  UNL     1     -34.601  16.553  -1.088  1.00 20.00     0.041 C 
HETATM    6  C6  UNL     1     -36.239  17.042  -2.916  1.00 20.00     0.041 C 
HETATM    7  N7  UNL     1     -34.919  14.981  -2.921  1.00 20.00    -0.277 NA
HETATM    8  S8  UNL     1     -33.640  16.113  -4.905  1.00 20.00    -0.113 SA
ENDROOT
TORSDOF 0
ENDMDL
MODEL 8
REMARK VINA RESULT:      -3.3      2.221      2.978
REMARK  0 active torsions:
REMARK  status: ('A' for Active; 'I' for Inactive)
ROOT
HETATM    1  C1  UNL     1     -34.368  15.611  -5.824  1.00 20.00     0.062 C 
HETATM    2  C2  UNL     1     -34.932  14.174  -3.853  1.00 20.00     0.113 C 
HETATM    3  C3  UNL     1     -33.845  15.238  -3.637  1.00 20.00     0.056 C 
HETATM    4  C4  UNL     1     -34.472  16.274  -7.155  1.00 20.00     0.078 C 
HETATM    5  C5  UNL     1     -34.142  16.054  -2.375  1.00 20.00     0.041 C 
HETATM    6  C6  UNL     1     -32.446  14.614  -3.521  1.00 20.00     0.041 C 
HETATM    7  N7  UNL     1     -33.839  16.176  -4.789  1.00 20.00    -0.277 NA
HETATM    8  S8  UNL     1     -35.030  14.009  -5.648  1.00 20.00    -0.113 SA
ENDROOT
TORSDOF 0
ENDMDL
MODEL 9
REMARK VINA RESULT:      -3.3      2.558      3.811
REMARK  0 active torsions:
REMARK  status: ('A' for Active; 'I' for Inactive)
ROOT
HETATM    1  C1  UNL     1     -37.595  14.934  -4.202  1.00 20.00     0.062 C 
HETATM    2  C2  UNL     1     -35.468  15.499  -5.394  1.00 20.00     0.113 C 
HETATM    3  C3  UNL     1     -35.365  14.471  -4.258  1.00 20.00     0.056 C 
HETATM    4  C4  UNL     1     -39.052  14.819  -3.904  1.00 20.00     0.078 C 
HETATM    5  C5  UNL     1     -34.603  13.229  -4.732  1.00 20.00     0.041 C 
HETATM    6  C6  UNL     1     -34.666  15.053  -3.019  1.00 20.00     0.041 C 
HETATM    7  N7  UNL     1     -36.728  14.038  -3.860  1.00 20.00    -0.277 NA
HETATM    8  S8  UNL     1     -37.044  16.327  -5.091  1.00 20.00    -0.113 SA
ENDROOT
TORSDOF 0
ENDMDL
