MODEL 1
REMARK VINA RESULT:      -5.1      0.000      0.000
REMARK  1 active torsions:
REMARK  status: ('A' for Active; 'I' for Inactive)
REMARK    1  A    between atoms: C7_7  and  C11_11 
ROOT
HETATM    1  C1  UNL     1     -34.448  13.942  -4.829  1.00 20.00     0.127 C 
HETATM    2  C2  UNL     1     -34.378  15.182  -5.689  1.00 20.00     0.078 C 
HETATM    3  C3  UNL     1     -34.168  14.040  -3.347  1.00 20.00     0.079 C 
HETATM    4  C4  UNL     1     -33.313  16.183  -5.259  1.00 20.00     0.008 C 
HETATM    5  C5  UNL     1     -34.778  15.268  -2.680  1.00 20.00     0.013 C 
HETATM    6  C6  UNL     1     -33.793  17.130  -4.160  1.00 20.00     0.006 C 
HETATM    7  C7  UNL     1     -33.875  16.509  -2.758  1.00 20.00    -0.007 C 
HETATM    8  O12 UNL     1     -34.734  12.853  -5.335  1.00 20.00    -0.298 OA
ENDROOT
BRANCH   7   9
HETATM    9  C11 UNL     1     -34.374  17.571  -1.769  1.00 20.00    -0.048 C 
HETATM   10  C8  UNL     1     -35.660  18.212  -2.310  1.00 20.00     0.015 C 
HETATM   11  C9  UNL     1     -33.299  18.654  -1.592  1.00 20.00     0.015 C 
HETATM   12  C10 UNL     1     -34.664  16.914  -0.412  1.00 20.00     0.015 C 
ENDBRANCH   7   9
TORSDOF 1
ENDMDL
MODEL 2
REMARK VINA RESULT:      -5.1      0.020      1.257
REMARK  1 active torsions:
REMARK  status: ('A' for Active; 'I' for Inactive)
REMARK    1  A    between atoms: C7_7  and  C11_11 
ROOT
HETATM    1  C1  UNL     1     -34.459  13.944  -4.828  1.00 20.00     0.127 C 
HETATM    2  C2  UNL     1     -34.364  15.184  -5.687  1.00 20.00     0.078 C 
HETATM    3  C3  UNL     1     -34.198  14.038  -3.342  1.00 20.00     0.079 C 
HETATM    4  C4  UNL     1     -33.293  16.172  -5.242  1.00 20.00     0.008 C 
HETATM    5  C5  UNL     1     -34.802  15.273  -2.683  1.00 20.00     0.013 C 
HETATM    6  C6  UNL     1     -33.776  17.124  -4.149  1.00 20.00     0.006 C 
HETATM    7  C7  UNL     1     -33.883  16.503  -2.748  1.00 20.00    -0.007 C 
HETATM    8  O12 UNL     1     -34.751  12.859  -5.339  1.00 20.00    -0.298 OA
ENDROOT
BRANCH   7   9
HETATM    9  C11 UNL     1     -34.383  17.570  -1.765  1.00 20.00    -0.048 C 
HETATM   10  C8  UNL     1     -34.661  16.921  -0.401  1.00 20.00     0.015 C 
HETATM   11  C9  UNL     1     -35.677  18.199  -2.303  1.00 20.00     0.015 C 
HETATM   12  C10 UNL     1     -33.314  18.661  -1.602  1.00 20.00     0.015 C 
ENDBRANCH   7   9
TORSDOF 1
ENDMDL
MODEL 3
REMARK VINA RESULT:      -4.9      1.273      2.021
REMARK  1 active torsions:
REMARK  status: ('A' for Active; 'I' for Inactive)
REMARK    1  A    between atoms: C7_7  and  C11_11 
ROOT
HETATM    1  C1  UNL     1     -35.105  13.779  -4.173  1.00 20.00     0.127 C 
HETATM    2  C2  UNL     1     -36.493  14.377  -4.179  1.00 20.00     0.078 C 
HETATM    3  C3  UNL     1     -33.930  14.615  -3.719  1.00 20.00     0.079 C 
HETATM    4  C4  UNL     1     -36.534  15.859  -4.527  1.00 20.00     0.008 C 
HETATM    5  C5  UNL     1     -34.218  15.478  -2.496  1.00 20.00     0.013 C 
HETATM    6  C6  UNL     1     -36.292  16.763  -3.319  1.00 20.00     0.006 C 
HETATM    7  C7  UNL     1     -34.831  16.842  -2.849  1.00 20.00    -0.007 C 
HETATM    8  O12 UNL     1     -34.933  12.611  -4.535  1.00 20.00    -0.298 OA
ENDROOT
BRANCH   7   9
HETATM    9  C11 UNL     1     -34.746  17.774  -1.634  1.00 20.00    -0.048 C 
HETATM   10  C8  UNL     1     -34.695  16.937  -0.347  1.00 20.00     0.015 C 
HETATM   11  C9  UNL     1     -35.981  18.687  -1.599  1.00 20.00     0.015 C 
HETATM   12  C10 UNL     1     -33.478  18.635  -1.733  1.00 20.00     0.015 C 
ENDBRANCH   7   9
TORSDOF 1
ENDMDL
MODEL 4
REMARK VINA RESULT:      -4.6      2.627      4.657
REMARK  1 active torsions:
REMARK  status: ('A' for Active; 'I' for Inactive)
REMARK    1  A    between atoms: C7_7  and  C11_11 
ROOT
HETATM    1  C1  UNL     1     -35.348  18.132  -0.839  1.00 20.00     0.127 C 
HETATM    2  C2  UNL     1     -36.137  18.490  -2.077  1.00 20.00     0.078 C 
HETATM    3  C3  UNL     1     -34.699  16.771  -0.731  1.00 20.00     0.079 C 
HETATM    4  C4  UNL     1     -36.892  17.321  -2.698  1.00 20.00     0.008 C 
HETATM    5  C5  UNL     1     -34.043  16.292  -2.021  1.00 20.00     0.013 C 
HETATM    6  C6  UNL     1     -36.029  16.490  -3.647  1.00 20.00     0.006 C 
HETATM    7  C7  UNL     1     -35.017  15.562  -2.959  1.00 20.00    -0.007 C 
HETATM    8  O12 UNL     1     -35.233  18.949   0.079  1.00 20.00    -0.298 OA
ENDROOT
BRANCH   7   9
HETATM    9  C11 UNL     1     -34.225  14.803  -4.032  1.00 20.00    -0.048 C 
HETATM   10  C8  UNL     1     -32.747  14.728  -3.622  1.00 20.00     0.015 C 
HETATM   11  C9  UNL     1     -34.345  15.538  -5.375  1.00 20.00     0.015 C 
HETATM   12  C10 UNL     1     -34.787  13.381  -4.177  1.00 20.00     0.015 C 
ENDBRANCH   7   9
TORSDOF 1
ENDMDL
MODEL 5
REMARK VINA RESULT:      -4.5      2.185      3.012
REMARK  1 active torsions:
REMARK  status: ('A' for Active; 'I' for Inactive)
REMARK    1  A    between atoms: C7_7  and  C11_11 
ROOT
HETATM    1  C1  UNL     1     -34.658  13.805  -4.991  1.00 20.00     0.127 C 
HETATM    2  C2  UNL     1     -35.251  14.097  -6.349  1.00 20.00     0.078 C 
HETATM    3  C3  UNL     1     -33.809  14.849  -4.302  1.00 20.00     0.079 C 
HETATM    4  C4  UNL     1     -34.371  14.961  -7.244  1.00 20.00     0.008 C 
HETATM    5  C5  UNL     1     -34.348  16.269  -4.429  1.00 20.00     0.013 C 
HETATM    6  C6  UNL     1     -34.548  16.458  -6.989  1.00 20.00     0.006 C 
HETATM    7  C7  UNL     1     -33.881  16.982  -5.708  1.00 20.00    -0.007 C 
HETATM    8  O12 UNL     1     -34.868  12.717  -4.445  1.00 20.00    -0.298 OA
ENDROOT
BRANCH   7   9
HETATM    9  C11 UNL     1     -34.148  18.487  -5.585  1.00 20.00    -0.048 C 
HETATM   10  C8  UNL     1     -35.656  18.730  -5.423  1.00 20.00     0.015 C 
HETATM   11  C9  UNL     1     -33.649  19.203  -6.849  1.00 20.00     0.015 C 
HETATM   12  C10 UNL     1     -33.408  19.042  -4.359  1.00 20.00     0.015 C 
ENDBRANCH   7   9
TORSDOF 1
ENDMDL
MODEL 6
REMARK VINA RESULT:      -4.5      2.740      4.676
REMARK  1 active torsions:
REMARK  status: ('A' for Active; 'I' for Inactive)
REMARK    1  A    between atoms: C7_7  and  C11_11 
ROOT
HETATM    1  C1  UNL     1     -33.811  18.135   0.065  1.00 20.00     0.127 C 
HETATM    2  C2  UNL     1     -32.982  18.901  -0.941  1.00 20.00     0.078 C 
HETATM    3  C3  UNL     1     -34.828  17.126  -0.415  1.00 20.00     0.079 C 
HETATM    4  C4  UNL     1     -33.716  19.231  -2.234  1.00 20.00     0.008 C 
HETATM    5  C5  UNL     1     -34.346  16.264  -1.577  1.00 20.00     0.013 C 
HETATM    6  C6  UNL     1     -33.667  18.095  -3.255  1.00 20.00     0.006 C 
HETATM    7  C7  UNL     1     -34.594  16.908  -2.950  1.00 20.00    -0.007 C 
HETATM    8  O12 UNL     1     -33.655  18.334   1.273  1.00 20.00    -0.298 OA
ENDROOT
BRANCH   7   9
HETATM    9  C11 UNL     1     -34.432  15.851  -4.050  1.00 20.00    -0.048 C 
HETATM   10  C8  UNL     1     -34.100  14.493  -3.413  1.00 20.00     0.015 C 
HETATM   11  C9  UNL     1     -33.293  16.263  -4.994  1.00 20.00     0.015 C 
HETATM   12  C10 UNL     1     -35.739  15.734  -4.848  1.00 20.00     0.015 C 
ENDBRANCH   7   9
TORSDOF 1
ENDMDL
MODEL 7
REMARK VINA RESULT:      -4.5      1.428      2.100
REMARK  1 active torsions:
REMARK  status: ('A' for Active; 'I' for Inactive)
REMARK    1  A    between atoms: C7_7  and  C11_11 
ROOT
HETATM    1  C1  UNL     1     -35.624  14.633  -6.094  1.00 20.00     0.127 C 
HETATM    2  C2  UNL     1     -34.456  13.994  -5.379  1.00 20.00     0.078 C 
HETATM    3  C3  UNL     1     -36.505  15.617  -5.360  1.00 20.00     0.079 C 
HETATM    4  C4  UNL     1     -34.700  13.722  -3.900  1.00 20.00     0.008 C 
HETATM    5  C5  UNL     1     -35.741  16.590  -4.470  1.00 20.00     0.013 C 
HETATM    6  C6  UNL     1     -34.411  14.934  -3.015  1.00 20.00     0.006 C 
HETATM    7  C7  UNL     1     -35.476  16.040  -3.059  1.00 20.00    -0.007 C 
HETATM    8  O12 UNL     1     -35.855  14.353  -7.274  1.00 20.00    -0.298 OA
ENDROOT
BRANCH   7   9
HETATM    9  C11 UNL     1     -35.048  17.184  -2.132  1.00 20.00    -0.048 C 
HETATM   10  C8  UNL     1     -36.219  18.161  -1.948  1.00 20.00     0.015 C 
HETATM   11  C9  UNL     1     -33.856  17.928  -2.752  1.00 20.00     0.015 C 
HETATM   12  C10 UNL     1     -34.640  16.615  -0.766  1.00 20.00     0.015 C 
ENDBRANCH   7   9
TORSDOF 1
ENDMDL
MODEL 8
REMARK VINA RESULT:      -4.5      2.352      4.332
REMARK  1 active torsions:
REMARK  status: ('A' for Active; 'I' for Inactive)
REMARK    1  A    between atoms: C7_7  and  C11_11 
ROOT
HETATM    1  C1  UNL     1     -33.718  13.684  -3.941  1.00 20.00     0.127 C 
HETATM    2  C2  UNL     1     -33.943  15.023  -3.279  1.00 20.00     0.078 C 
HETATM    3  C3  UNL     1     -34.640  13.231  -5.050  1.00 20.00     0.079 C 
HETATM    4  C4  UNL     1     -35.408  15.423  -3.157  1.00 20.00     0.008 C 
HETATM    5  C5  UNL     1     -35.012  14.333  -6.036  1.00 20.00     0.013 C 
HETATM    6  C6  UNL     1     -35.949  16.100  -4.416  1.00 20.00     0.006 C 
HETATM    7  C7  UNL     1     -36.233  15.154  -5.592  1.00 20.00    -0.007 C 
HETATM    8  O12 UNL     1     -32.784  12.963  -3.577  1.00 20.00    -0.298 OA
ENDROOT
BRANCH   7   9
HETATM    9  C11 UNL     1     -36.760  15.973  -6.778  1.00 20.00    -0.048 C 
HETATM   10  C8  UNL     1     -37.561  15.059  -7.717  1.00 20.00     0.015 C 
HETATM   11  C9  UNL     1     -35.578  16.583  -7.546  1.00 20.00     0.015 C 
HETATM   12  C10 UNL     1     -37.669  17.098  -6.262  1.00 20.00     0.015 C 
ENDBRANCH   7   9
TORSDOF 1
ENDMDL
MODEL 9
REMARK VINA RESULT:      -4.4      2.193      4.318
REMARK  1 active torsions:
REMARK  status: ('A' for Active; 'I' for Inactive)
REMARK    1  A    between atoms: C7_7  and  C11_11 
ROOT
HETATM    1  C1  UNL     1     -33.540  13.734  -3.935  1.00 20.00     0.127 C 
HETATM    2  C2  UNL     1     -33.443  15.188  -3.535  1.00 20.00     0.078 C 
HETATM    3  C3  UNL     1     -34.652  13.281  -4.853  1.00 20.00     0.079 C 
HETATM    4  C4  UNL     1     -34.788  15.885  -3.375  1.00 20.00     0.008 C 
HETATM    5  C5  UNL     1     -34.936  14.241  -6.003  1.00 20.00     0.013 C 
HETATM    6  C6  UNL     1     -35.344  16.419  -4.694  1.00 20.00     0.006 C 
HETATM    7  C7  UNL     1     -35.929  15.353  -5.632  1.00 20.00    -0.007 C 
HETATM    8  O12 UNL     1     -32.713  12.920  -3.513  1.00 20.00    -0.298 OA
ENDROOT
BRANCH   7   9
HETATM    9  C11 UNL     1     -36.438  16.034  -6.909  1.00 20.00    -0.048 C 
HETATM   10  C8  UNL     1     -35.257  16.308  -7.851  1.00 20.00     0.015 C 
HETATM   11  C9  UNL     1     -37.118  17.363  -6.546  1.00 20.00     0.015 C 
HETATM   12  C10 UNL     1     -37.451  15.119  -7.612  1.00 20.00     0.015 C 
ENDBRANCH   7   9
TORSDOF 1
ENDMDL
