MODEL 1
REMARK VINA RESULT:      -4.8      0.000      0.000
REMARK  0 active torsions:
REMARK  status: ('A' for Active; 'I' for Inactive)
ROOT
HETATM    1  C1  UNL     1     -40.711   5.885  -0.554  1.00 20.00    -0.002 A 
HETATM    2  C2  UNL     1     -41.172   6.947  -1.403  1.00 20.00     0.010 A 
HETATM    3  C3  UNL     1     -41.129   4.626  -0.720  1.00 20.00    -0.010 A 
HETATM    4  C4  UNL     1     -42.038   6.766  -2.410  1.00 20.00    -0.015 A 
HETATM    5  C5  UNL     1     -42.563   5.388  -2.675  1.00 20.00     0.166 A 
HETATM    6  C6  UNL     1     -42.102   4.207  -1.793  1.00 20.00     0.035 A 
HETATM    7  C7  UNL     1     -42.515   7.876  -3.292  1.00 20.00     0.052 C 
HETATM    8  C8  UNL     1     -41.429   3.168  -2.701  1.00 20.00     0.027 C 
HETATM    9  C9  UNL     1     -43.345   3.596  -1.127  1.00 20.00     0.027 C 
HETATM   10  O10 UNL     1     -43.361   5.215  -3.598  1.00 20.00    -0.292 OA
ENDROOT
TORSDOF 0
ENDMDL
MODEL 2
REMARK VINA RESULT:      -4.6      8.926     10.506
REMARK  0 active torsions:
REMARK  status: ('A' for Active; 'I' for Inactive)
ROOT
HETATM    1  C1  UNL     1     -35.028   4.084   5.864  1.00 20.00    -0.002 A 
HETATM    2  C2  UNL     1     -34.382   5.137   6.595  1.00 20.00     0.010 A 
HETATM    3  C3  UNL     1     -35.256   4.180   4.551  1.00 20.00    -0.010 A 
HETATM    4  C4  UNL     1     -33.962   6.278   6.030  1.00 20.00    -0.015 A 
HETATM    5  C5  UNL     1     -34.173   6.479   4.560  1.00 20.00     0.166 A 
HETATM    6  C6  UNL     1     -34.862   5.380   3.725  1.00 20.00     0.035 A 
HETATM    7  C7  UNL     1     -33.289   7.373   6.795  1.00 20.00     0.052 C 
HETATM    8  C8  UNL     1     -33.886   4.932   2.627  1.00 20.00     0.027 C 
HETATM    9  C9  UNL     1     -36.125   5.984   3.091  1.00 20.00     0.027 C 
HETATM   10  O10 UNL     1     -33.790   7.527   4.035  1.00 20.00    -0.292 OA
ENDROOT
TORSDOF 0
ENDMDL
MODEL 3
REMARK VINA RESULT:      -4.6     11.921     12.908
REMARK  0 active torsions:
REMARK  status: ('A' for Active; 'I' for Inactive)
ROOT
HETATM    1  C1  UNL     1     -33.424  16.780  -5.418  1.00 20.00    -0.002 A 
HETATM    2  C2  UNL     1     -34.112  16.156  -6.512  1.00 20.00     0.010 A 
HETATM    3  C3  UNL     1     -33.321  16.185  -4.226  1.00 20.00    -0.010 A 
HETATM    4  C4  UNL     1     -34.694  14.952  -6.429  1.00 20.00    -0.015 A 
HETATM    5  C5  UNL     1     -34.631  14.205  -5.131  1.00 20.00     0.166 A 
HETATM    6  C6  UNL     1     -33.904  14.828  -3.920  1.00 20.00     0.035 A 
HETATM    7  C7  UNL     1     -35.410  14.306  -7.572  1.00 20.00     0.052 C 
HETATM    8  C8  UNL     1     -32.771  13.878  -3.505  1.00 20.00     0.027 C 
HETATM    9  C9  UNL     1     -34.918  14.967  -2.775  1.00 20.00     0.027 C 
HETATM   10  O10 UNL     1     -35.165  13.097  -5.048  1.00 20.00    -0.292 OA
ENDROOT
TORSDOF 0
ENDMDL
MODEL 4
REMARK VINA RESULT:      -4.6     11.609     13.179
REMARK  0 active torsions:
REMARK  status: ('A' for Active; 'I' for Inactive)
ROOT
HETATM    1  C1  UNL     1     -35.042  13.287  -4.882  1.00 20.00    -0.002 A 
HETATM    2  C2  UNL     1     -35.117  14.092  -6.069  1.00 20.00     0.010 A 
HETATM    3  C3  UNL     1     -34.378  13.699  -3.798  1.00 20.00    -0.010 A 
HETATM    4  C4  UNL     1     -34.540  15.296  -6.182  1.00 20.00    -0.015 A 
HETATM    5  C5  UNL     1     -33.773  15.845  -5.017  1.00 20.00     0.166 A 
HETATM    6  C6  UNL     1     -33.659  15.023  -3.716  1.00 20.00     0.035 A 
HETATM    7  C7  UNL     1     -34.621  16.131  -7.420  1.00 20.00     0.052 C 
HETATM    8  C8  UNL     1     -34.266  15.851  -2.574  1.00 20.00     0.027 C 
HETATM    9  C9  UNL     1     -32.170  14.764  -3.444  1.00 20.00     0.027 C 
HETATM   10  O10 UNL     1     -33.239  16.952  -5.116  1.00 20.00    -0.292 OA
ENDROOT
TORSDOF 0
ENDMDL
MODEL 5
REMARK VINA RESULT:      -4.5      0.807      3.133
REMARK  0 active torsions:
REMARK  status: ('A' for Active; 'I' for Inactive)
ROOT
HETATM    1  C1  UNL     1     -40.474   5.640  -0.568  1.00 20.00    -0.002 A 
HETATM    2  C2  UNL     1     -40.831   4.390  -1.175  1.00 20.00     0.010 A 
HETATM    3  C3  UNL     1     -41.064   6.785  -0.925  1.00 20.00    -0.010 A 
HETATM    4  C4  UNL     1     -41.765   4.271  -2.128  1.00 20.00    -0.015 A 
HETATM    5  C5  UNL     1     -42.484   5.500  -2.596  1.00 20.00     0.166 A 
HETATM    6  C6  UNL     1     -42.141   6.873  -1.978  1.00 20.00     0.035 A 
HETATM    7  C7  UNL     1     -42.134   2.966  -2.758  1.00 20.00     0.052 C 
HETATM    8  C8  UNL     1     -43.417   7.441  -1.341  1.00 20.00     0.027 C 
HETATM    9  C9  UNL     1     -41.660   7.797  -3.106  1.00 20.00     0.027 C 
HETATM   10  O10 UNL     1     -43.344   5.398  -3.473  1.00 20.00    -0.292 OA
ENDROOT
TORSDOF 0
ENDMDL
MODEL 6
REMARK VINA RESULT:      -4.4     11.707     12.760
REMARK  0 active torsions:
REMARK  status: ('A' for Active; 'I' for Inactive)
ROOT
HETATM    1  C1  UNL     1     -34.450  13.271  -4.666  1.00 20.00    -0.002 A 
HETATM    2  C2  UNL     1     -34.363  13.986  -3.425  1.00 20.00     0.010 A 
HETATM    3  C3  UNL     1     -34.864  13.867  -5.789  1.00 20.00    -0.010 A 
HETATM    4  C4  UNL     1     -34.681  15.281  -3.294  1.00 20.00    -0.015 A 
HETATM    5  C5  UNL     1     -35.156  16.036  -4.498  1.00 20.00     0.166 A 
HETATM    6  C6  UNL     1     -35.270  15.318  -5.860  1.00 20.00     0.035 A 
HETATM    7  C7  UNL     1     -34.588  16.022  -1.998  1.00 20.00     0.052 C 
HETATM    8  C8  UNL     1     -34.358  16.044  -6.859  1.00 20.00     0.027 C 
HETATM    9  C9  UNL     1     -36.732  15.405  -6.324  1.00 20.00     0.027 C 
HETATM   10  O10 UNL     1     -35.451  17.228  -4.384  1.00 20.00    -0.292 OA
ENDROOT
TORSDOF 0
ENDMDL
MODEL 7
REMARK VINA RESULT:      -4.4     11.080     12.791
REMARK  0 active torsions:
REMARK  status: ('A' for Active; 'I' for Inactive)
ROOT
HETATM    1  C1  UNL     1     -34.010  13.909  -3.831  1.00 20.00    -0.002 A 
HETATM    2  C2  UNL     1     -35.426  13.794  -4.037  1.00 20.00     0.010 A 
HETATM    3  C3  UNL     1     -33.457  15.043  -3.392  1.00 20.00    -0.010 A 
HETATM    4  C4  UNL     1     -36.289  14.793  -3.809  1.00 20.00    -0.015 A 
HETATM    5  C5  UNL     1     -35.764  16.106  -3.314  1.00 20.00     0.166 A 
HETATM    6  C6  UNL     1     -34.249  16.287  -3.075  1.00 20.00     0.035 A 
HETATM    7  C7  UNL     1     -37.764  14.669  -4.025  1.00 20.00     0.052 C 
HETATM    8  C8  UNL     1     -34.040  16.650  -1.598  1.00 20.00     0.027 C 
HETATM    9  C9  UNL     1     -33.759  17.433  -3.972  1.00 20.00     0.027 C 
HETATM   10  O10 UNL     1     -36.553  17.030  -3.103  1.00 20.00    -0.292 OA
ENDROOT
TORSDOF 0
ENDMDL
MODEL 8
REMARK VINA RESULT:      -4.3     11.797     13.381
REMARK  0 active torsions:
REMARK  status: ('A' for Active; 'I' for Inactive)
ROOT
HETATM    1  C1  UNL     1     -34.707  14.804  -7.039  1.00 20.00    -0.002 A 
HETATM    2  C2  UNL     1     -34.282  16.173  -6.972  1.00 20.00     0.010 A 
HETATM    3  C3  UNL     1     -34.878  14.070  -5.935  1.00 20.00    -0.010 A 
HETATM    4  C4  UNL     1     -34.029  16.813  -5.822  1.00 20.00    -0.015 A 
HETATM    5  C5  UNL     1     -34.193  16.073  -4.530  1.00 20.00     0.166 A 
HETATM    6  C6  UNL     1     -34.648  14.598  -4.541  1.00 20.00     0.035 A 
HETATM    7  C7  UNL     1     -33.587  18.240  -5.758  1.00 20.00     0.052 C 
HETATM    8  C8  UNL     1     -35.957  14.496  -3.745  1.00 20.00     0.027 C 
HETATM    9  C9  UNL     1     -33.555  13.757  -3.864  1.00 20.00     0.027 C 
HETATM   10  O10 UNL     1     -33.961  16.656  -3.469  1.00 20.00    -0.292 OA
ENDROOT
TORSDOF 0
ENDMDL
MODEL 9
REMARK VINA RESULT:      -4.3     12.015     13.401
REMARK  0 active torsions:
REMARK  status: ('A' for Active; 'I' for Inactive)
ROOT
HETATM    1  C1  UNL     1     -34.075  16.811  -2.151  1.00 20.00    -0.002 A 
HETATM    2  C2  UNL     1     -33.798  17.695  -3.247  1.00 20.00     0.010 A 
HETATM    3  C3  UNL     1     -34.391  15.527  -2.350  1.00 20.00    -0.010 A 
HETATM    4  C4  UNL     1     -33.833  17.314  -4.531  1.00 20.00    -0.015 A 
HETATM    5  C5  UNL     1     -34.177  15.892  -4.856  1.00 20.00     0.166 A 
HETATM    6  C6  UNL     1     -34.484  14.896  -3.717  1.00 20.00     0.035 A 
HETATM    7  C7  UNL     1     -33.543  18.240  -5.670  1.00 20.00     0.052 C 
HETATM    8  C8  UNL     1     -33.473  13.744  -3.806  1.00 20.00     0.027 C 
HETATM    9  C9  UNL     1     -35.909  14.362  -3.923  1.00 20.00     0.027 C 
HETATM   10  O10 UNL     1     -34.211  15.536  -6.036  1.00 20.00    -0.292 OA
ENDROOT
TORSDOF 0
ENDMDL
