MODEL 1
REMARK VINA RESULT:      -4.5      0.000      0.000
REMARK  2 active torsions:
REMARK  status: ('A' for Active; 'I' for Inactive)
REMARK    1  A    between atoms: C3_3  and  C7_7 
REMARK    2  A    between atoms: C7_7  and  C8_8 
ROOT
HETATM    1  C1  UNL     1     -32.022   8.299   1.821  1.00 20.00     0.088 C 
HETATM    2  C2  UNL     1     -32.712   7.979   3.021  1.00 20.00     0.096 C 
HETATM    3  C3  UNL     1     -32.849   6.730   3.505  1.00 20.00    -0.073 C 
HETATM    4  C4  UNL     1     -32.247   5.566   2.759  1.00 20.00     0.044 C 
HETATM    5  N9  UNL     1     -31.459   8.569   0.843  1.00 20.00    -0.192 NA
ENDROOT
BRANCH   3   6
HETATM    6  C7  UNL     1     -33.549   6.381   4.805  1.00 20.00     0.038 C 
BRANCH   6   7
HETATM    7  C8  UNL     1     -34.491   5.161   4.718  1.00 20.00    -0.019 C 
HETATM    8  C5  UNL     1     -35.715   5.435   3.842  1.00 20.00     0.010 C 
HETATM    9  C6  UNL     1     -34.942   4.755   6.123  1.00 20.00     0.010 C 
ENDBRANCH   6   7
ENDBRANCH   3   6
TORSDOF 2
ENDMDL
MODEL 2
REMARK VINA RESULT:      -4.4      1.088      1.472
REMARK  2 active torsions:
REMARK  status: ('A' for Active; 'I' for Inactive)
REMARK    1  A    between atoms: C3_3  and  C7_7 
REMARK    2  A    between atoms: C7_7  and  C8_8 
ROOT
HETATM    1  C1  UNL     1     -32.064   7.984   2.118  1.00 20.00     0.088 C 
HETATM    2  C2  UNL     1     -32.239   7.213   3.299  1.00 20.00     0.096 C 
HETATM    3  C3  UNL     1     -33.077   6.164   3.400  1.00 20.00    -0.073 C 
HETATM    4  C4  UNL     1     -33.903   5.745   2.211  1.00 20.00     0.044 C 
HETATM    5  N9  UNL     1     -31.914   8.617   1.158  1.00 20.00    -0.192 NA
ENDROOT
BRANCH   3   6
HETATM    6  C7  UNL     1     -33.243   5.310   4.644  1.00 20.00     0.038 C 
BRANCH   6   7
HETATM    7  C8  UNL     1     -34.430   5.713   5.544  1.00 20.00    -0.019 C 
HETATM    8  C5  UNL     1     -34.018   6.698   6.640  1.00 20.00     0.010 C 
HETATM    9  C6  UNL     1     -35.046   4.463   6.178  1.00 20.00     0.010 C 
ENDBRANCH   6   7
ENDBRANCH   3   6
TORSDOF 2
ENDMDL
MODEL 3
REMARK VINA RESULT:      -4.3     10.633     11.850
REMARK  2 active torsions:
REMARK  status: ('A' for Active; 'I' for Inactive)
REMARK    1  A    between atoms: C3_3  and  C7_7 
REMARK    2  A    between atoms: C7_7  and  C8_8 
ROOT
HETATM    1  C1  UNL     1     -34.644  13.807  -3.781  1.00 20.00     0.088 C 
HETATM    2  C2  UNL     1     -34.699  14.997  -3.006  1.00 20.00     0.096 C 
HETATM    3  C3  UNL     1     -34.033  16.127  -3.308  1.00 20.00    -0.073 C 
HETATM    4  C4  UNL     1     -33.163  16.181  -4.537  1.00 20.00     0.044 C 
HETATM    5  N9  UNL     1     -34.606  12.832  -4.409  1.00 20.00    -0.192 NA
ENDROOT
BRANCH   3   6
HETATM    6  C7  UNL     1     -34.116  17.415  -2.509  1.00 20.00     0.038 C 
BRANCH   6   7
HETATM    7  C8  UNL     1     -33.698  17.279  -1.029  1.00 20.00    -0.019 C 
HETATM    8  C5  UNL     1     -34.903  17.112  -0.101  1.00 20.00     0.010 C 
HETATM    9  C6  UNL     1     -32.885  18.505  -0.606  1.00 20.00     0.010 C 
ENDBRANCH   6   7
ENDBRANCH   3   6
TORSDOF 2
ENDMDL
MODEL 4
REMARK VINA RESULT:      -4.2     10.714     11.642
REMARK  2 active torsions:
REMARK  status: ('A' for Active; 'I' for Inactive)
REMARK    1  A    between atoms: C3_3  and  C7_7 
REMARK    2  A    between atoms: C7_7  and  C8_8 
ROOT
HETATM    1  C1  UNL     1     -34.343  13.511  -4.185  1.00 20.00     0.088 C 
HETATM    2  C2  UNL     1     -33.808  14.533  -3.354  1.00 20.00     0.096 C 
HETATM    3  C3  UNL     1     -34.540  15.522  -2.807  1.00 20.00    -0.073 C 
HETATM    4  C4  UNL     1     -36.024  15.590  -3.064  1.00 20.00     0.044 C 
HETATM    5  N9  UNL     1     -34.772  12.673  -4.862  1.00 20.00    -0.192 NA
ENDROOT
BRANCH   3   6
HETATM    6  C7  UNL     1     -33.986  16.596  -1.888  1.00 20.00     0.038 C 
BRANCH   6   7
HETATM    7  C8  UNL     1     -35.060  17.445  -1.175  1.00 20.00    -0.019 C 
HETATM    8  C5  UNL     1     -34.970  18.926  -1.547  1.00 20.00     0.010 C 
HETATM    9  C6  UNL     1     -34.924  17.284   0.342  1.00 20.00     0.010 C 
ENDBRANCH   6   7
ENDBRANCH   3   6
TORSDOF 2
ENDMDL
MODEL 5
REMARK VINA RESULT:      -4.1      2.589      4.675
REMARK  2 active torsions:
REMARK  status: ('A' for Active; 'I' for Inactive)
REMARK    1  A    between atoms: C3_3  and  C7_7 
REMARK    2  A    between atoms: C7_7  and  C8_8 
ROOT
HETATM    1  C1  UNL     1     -34.359   5.579   5.322  1.00 20.00     0.088 C 
HETATM    2  C2  UNL     1     -33.409   6.523   4.848  1.00 20.00     0.096 C 
HETATM    3  C3  UNL     1     -32.986   6.594   3.572  1.00 20.00    -0.073 C 
HETATM    4  C4  UNL     1     -33.528   5.633   2.546  1.00 20.00     0.044 C 
HETATM    5  N9  UNL     1     -35.136   4.812   5.717  1.00 20.00    -0.192 NA
ENDROOT
BRANCH   3   6
HETATM    6  C7  UNL     1     -32.001   7.623   3.047  1.00 20.00     0.038 C 
BRANCH   6   7
HETATM    7  C8  UNL     1     -32.505   8.430   1.832  1.00 20.00    -0.019 C 
HETATM    8  C5  UNL     1     -31.519   8.392   0.662  1.00 20.00     0.010 C 
HETATM    9  C6  UNL     1     -32.762   9.882   2.244  1.00 20.00     0.010 C 
ENDBRANCH   6   7
ENDBRANCH   3   6
TORSDOF 2
ENDMDL
MODEL 6
REMARK VINA RESULT:      -3.9     10.828     11.847
REMARK  2 active torsions:
REMARK  status: ('A' for Active; 'I' for Inactive)
REMARK    1  A    between atoms: C3_3  and  C7_7 
REMARK    2  A    between atoms: C7_7  and  C8_8 
ROOT
HETATM    1  C1  UNL     1     -34.976  17.375   0.347  1.00 20.00     0.088 C 
HETATM    2  C2  UNL     1     -34.639  16.548  -0.759  1.00 20.00     0.096 C 
HETATM    3  C3  UNL     1     -34.047  16.993  -1.883  1.00 20.00    -0.073 C 
HETATM    4  C4  UNL     1     -33.700  18.453  -2.023  1.00 20.00     0.044 C 
HETATM    5  N9  UNL     1     -35.252  18.044   1.254  1.00 20.00    -0.192 NA
ENDROOT
BRANCH   3   6
HETATM    6  C7  UNL     1     -33.648  16.112  -3.053  1.00 20.00     0.038 C 
BRANCH   6   7
HETATM    7  C8  UNL     1     -34.411  14.773  -3.136  1.00 20.00    -0.019 C 
HETATM    8  C5  UNL     1     -33.613  13.696  -3.874  1.00 20.00     0.010 C 
HETATM    9  C6  UNL     1     -35.758  14.987  -3.832  1.00 20.00     0.010 C 
ENDBRANCH   6   7
ENDBRANCH   3   6
TORSDOF 2
ENDMDL
MODEL 7
REMARK VINA RESULT:      -3.8     10.994     12.036
REMARK  2 active torsions:
REMARK  status: ('A' for Active; 'I' for Inactive)
REMARK    1  A    between atoms: C3_3  and  C7_7 
REMARK    2  A    between atoms: C7_7  and  C8_8 
ROOT
HETATM    1  C1  UNL     1     -34.317  15.287  -6.387  1.00 20.00     0.088 C 
HETATM    2  C2  UNL     1     -34.086  15.968  -5.161  1.00 20.00     0.096 C 
HETATM    3  C3  UNL     1     -34.001  15.360  -3.963  1.00 20.00    -0.073 C 
HETATM    4  C4  UNL     1     -34.154  13.864  -3.867  1.00 20.00     0.044 C 
HETATM    5  N9  UNL     1     -34.503  14.737  -7.392  1.00 20.00    -0.192 NA
ENDROOT
BRANCH   3   6
HETATM    6  C7  UNL     1     -33.717  16.073  -2.654  1.00 20.00     0.038 C 
BRANCH   6   7
HETATM    7  C8  UNL     1     -34.961  16.314  -1.772  1.00 20.00    -0.019 C 
HETATM    8  C5  UNL     1     -35.993  17.212  -2.458  1.00 20.00     0.010 C 
HETATM    9  C6  UNL     1     -34.538  16.938  -0.439  1.00 20.00     0.010 C 
ENDBRANCH   6   7
ENDBRANCH   3   6
TORSDOF 2
ENDMDL
MODEL 8
REMARK VINA RESULT:      -3.8      2.881      4.783
REMARK  2 active torsions:
REMARK  status: ('A' for Active; 'I' for Inactive)
REMARK    1  A    between atoms: C3_3  and  C7_7 
REMARK    2  A    between atoms: C7_7  and  C8_8 
ROOT
HETATM    1  C1  UNL     1     -34.715   4.982   5.820  1.00 20.00     0.088 C 
HETATM    2  C2  UNL     1     -34.202   6.156   5.206  1.00 20.00     0.096 C 
HETATM    3  C3  UNL     1     -34.056   6.311   3.876  1.00 20.00    -0.073 C 
HETATM    4  C4  UNL     1     -34.448   5.196   2.942  1.00 20.00     0.044 C 
HETATM    5  N9  UNL     1     -35.135   4.027   6.330  1.00 20.00    -0.192 NA
ENDROOT
BRANCH   3   6
HETATM    6  C7  UNL     1     -33.546   7.575   3.208  1.00 20.00     0.038 C 
BRANCH   6   7
HETATM    7  C8  UNL     1     -32.102   7.477   2.671  1.00 20.00    -0.019 C 
HETATM    8  C5  UNL     1     -31.059   7.697   3.769  1.00 20.00     0.010 C 
HETATM    9  C6  UNL     1     -31.896   8.501   1.551  1.00 20.00     0.010 C 
ENDBRANCH   6   7
ENDBRANCH   3   6
TORSDOF 2
ENDMDL
MODEL 9
REMARK VINA RESULT:      -3.8     11.183     12.483
REMARK  2 active torsions:
REMARK  status: ('A' for Active; 'I' for Inactive)
REMARK    1  A    between atoms: C3_3  and  C7_7 
REMARK    2  A    between atoms: C7_7  and  C8_8 
ROOT
HETATM    1  C1  UNL     1     -34.772  16.045  -1.900  1.00 20.00     0.088 C 
HETATM    2  C2  UNL     1     -35.093  15.438  -3.144  1.00 20.00     0.096 C 
HETATM    3  C3  UNL     1     -34.186  14.884  -3.971  1.00 20.00    -0.073 C 
HETATM    4  C4  UNL     1     -32.727  14.886  -3.595  1.00 20.00     0.044 C 
HETATM    5  N9  UNL     1     -34.519  16.541  -0.882  1.00 20.00    -0.192 NA
ENDROOT
BRANCH   3   6
HETATM    6  C7  UNL     1     -34.522  14.199  -5.283  1.00 20.00     0.038 C 
BRANCH   6   7
HETATM    7  C8  UNL     1     -35.162  15.121  -6.342  1.00 20.00    -0.019 C 
HETATM    8  C5  UNL     1     -35.517  14.370  -7.627  1.00 20.00     0.010 C 
HETATM    9  C6  UNL     1     -34.210  16.276  -6.666  1.00 20.00     0.010 C 
ENDBRANCH   6   7
ENDBRANCH   3   6
TORSDOF 2
ENDMDL
