MODEL 1
REMARK VINA RESULT:      -4.0      0.000      0.000
REMARK  4 active torsions:
REMARK  status: ('A' for Active; 'I' for Inactive)
REMARK    1  A    between atoms: C2_2  and  C6_6 
REMARK    2  A    between atoms: C2_2  and  C7_7 
REMARK    3  A    between atoms: C6_6  and  C8_8 
REMARK    4  A    between atoms: C7_7  and  O10_10 
ROOT
HETATM    1  C1  UNL     1     -34.439  13.657  -5.103  1.00 20.00     0.209 A 
HETATM    2  C2  UNL     1     -35.388  14.286  -4.112  1.00 20.00     0.104 A 
HETATM    3  O9  UNL     1     -35.203  12.865  -4.180  1.00 20.00    -0.373 OA
ENDROOT
BRANCH   2   4
HETATM    4  C6  UNL     1     -34.836  14.918  -2.839  1.00 20.00     0.051 C 
BRANCH   4   5
HETATM    5  C8  UNL     1     -34.595  16.448  -2.895  1.00 20.00    -0.049 C 
HETATM    6  C3  UNL     1     -33.868  16.868  -1.602  1.00 20.00     0.014 C 
HETATM    7  C4  UNL     1     -35.924  17.217  -2.979  1.00 20.00     0.014 C 
HETATM    8  C5  UNL     1     -33.714  16.828  -4.096  1.00 20.00     0.014 C 
ENDBRANCH   4   5
ENDBRANCH   2   4
BRANCH   2   9
HETATM    9  C7  UNL     1     -36.737  14.741  -4.570  1.00 20.00     0.204 C 
BRANCH   9  10
HETATM   10  O10 UNL     1     -37.747  14.136  -3.767  1.00 20.00    -0.398 OA
HETATM   11  H26 UNL     1     -37.600  14.445  -2.860  1.00 20.00     0.209 HD
ENDBRANCH   9  10
ENDBRANCH   2   9
TORSDOF 4
ENDMDL
MODEL 2
REMARK VINA RESULT:      -4.0      1.586      2.496
REMARK  4 active torsions:
REMARK  status: ('A' for Active; 'I' for Inactive)
REMARK    1  A    between atoms: C2_2  and  C6_6 
REMARK    2  A    between atoms: C2_2  and  C7_7 
REMARK    3  A    between atoms: C6_6  and  C8_8 
REMARK    4  A    between atoms: C7_7  and  O10_10 
ROOT
HETATM    1  C1  UNL     1     -35.640  14.934  -6.655  1.00 20.00     0.209 A 
HETATM    2  C2  UNL     1     -35.044  14.547  -5.324  1.00 20.00     0.104 A 
HETATM    3  O9  UNL     1     -34.273  15.223  -6.327  1.00 20.00    -0.373 OA
ENDROOT
BRANCH   2   4
HETATM    4  C6  UNL     1     -35.335  15.399  -4.094  1.00 20.00     0.051 C 
BRANCH   4   5
HETATM    5  C8  UNL     1     -34.097  16.004  -3.383  1.00 20.00    -0.049 C 
HETATM    6  C3  UNL     1     -33.800  17.375  -4.021  1.00 20.00     0.014 C 
HETATM    7  C4  UNL     1     -32.862  15.106  -3.558  1.00 20.00     0.014 C 
HETATM    8  C5  UNL     1     -34.363  16.211  -1.883  1.00 20.00     0.014 C 
ENDBRANCH   4   5
ENDBRANCH   2   4
BRANCH   2   9
HETATM    9  C7  UNL     1     -34.619  13.133  -5.090  1.00 20.00     0.204 C 
BRANCH   9  10
HETATM   10  O10 UNL     1     -35.396  12.565  -4.038  1.00 20.00    -0.398 OA
HETATM   11  H26 UNL     1     -34.767  12.199  -3.397  1.00 20.00     0.209 HD
ENDBRANCH   9  10
ENDBRANCH   2   9
TORSDOF 4
ENDMDL
MODEL 3
REMARK VINA RESULT:      -3.9      1.486      2.058
REMARK  4 active torsions:
REMARK  status: ('A' for Active; 'I' for Inactive)
REMARK    1  A    between atoms: C2_2  and  C6_6 
REMARK    2  A    between atoms: C2_2  and  C7_7 
REMARK    3  A    between atoms: C6_6  and  C8_8 
REMARK    4  A    between atoms: C7_7  and  O10_10 
ROOT
HETATM    1  C1  UNL     1     -36.345  15.228  -6.177  1.00 20.00     0.209 A 
HETATM    2  C2  UNL     1     -35.479  14.728  -5.047  1.00 20.00     0.104 A 
HETATM    3  O9  UNL     1     -34.980  15.647  -6.029  1.00 20.00    -0.373 OA
ENDROOT
BRANCH   2   4
HETATM    4  C6  UNL     1     -35.631  15.336  -3.657  1.00 20.00     0.051 C 
BRANCH   4   5
HETATM    5  C8  UNL     1     -34.399  16.109  -3.120  1.00 20.00    -0.049 C 
HETATM    6  C3  UNL     1     -34.545  16.245  -1.592  1.00 20.00     0.014 C 
HETATM    7  C4  UNL     1     -34.317  17.518  -3.730  1.00 20.00     0.014 C 
HETATM    8  C5  UNL     1     -33.095  15.352  -3.420  1.00 20.00     0.014 C 
ENDBRANCH   4   5
ENDBRANCH   2   4
BRANCH   2   9
HETATM    9  C7  UNL     1     -34.870  13.365  -5.132  1.00 20.00     0.204 C 
BRANCH   9  10
HETATM   10  O10 UNL     1     -35.349  12.557  -4.060  1.00 20.00    -0.398 OA
HETATM   11  H26 UNL     1     -35.686  11.740  -4.461  1.00 20.00     0.209 HD
ENDBRANCH   9  10
ENDBRANCH   2   9
TORSDOF 4
ENDMDL
MODEL 4
REMARK VINA RESULT:      -3.9      2.211      3.580
REMARK  4 active torsions:
REMARK  status: ('A' for Active; 'I' for Inactive)
REMARK    1  A    between atoms: C2_2  and  C6_6 
REMARK    2  A    between atoms: C2_2  and  C7_7 
REMARK    3  A    between atoms: C6_6  and  C8_8 
REMARK    4  A    between atoms: C7_7  and  O10_10 
ROOT
HETATM    1  C1  UNL     1     -35.354  13.512  -4.256  1.00 20.00     0.209 A 
HETATM    2  C2  UNL     1     -34.186  14.383  -4.651  1.00 20.00     0.104 A 
HETATM    3  O9  UNL     1     -34.096  12.952  -4.660  1.00 20.00    -0.373 OA
ENDROOT
BRANCH   2   4
HETATM    4  C6  UNL     1     -34.151  15.011  -6.040  1.00 20.00     0.051 C 
BRANCH   4   5
HETATM    5  C8  UNL     1     -34.641  16.479  -6.129  1.00 20.00    -0.049 C 
HETATM    6  C3  UNL     1     -34.884  16.815  -7.614  1.00 20.00     0.014 C 
HETATM    7  C4  UNL     1     -33.587  17.451  -5.575  1.00 20.00     0.014 C 
HETATM    8  C5  UNL     1     -35.960  16.672  -5.363  1.00 20.00     0.014 C 
ENDBRANCH   4   5
ENDBRANCH   2   4
BRANCH   2   9
HETATM    9  C7  UNL     1     -33.358  15.032  -3.588  1.00 20.00     0.204 C 
BRANCH   9  10
HETATM   10  O10 UNL     1     -31.981  14.737  -3.803  1.00 20.00    -0.398 OA
HETATM   11  H26 UNL     1     -31.944  13.831  -4.148  1.00 20.00     0.209 HD
ENDBRANCH   9  10
ENDBRANCH   2   9
TORSDOF 4
ENDMDL
MODEL 5
REMARK VINA RESULT:      -3.8      1.336      1.647
REMARK  4 active torsions:
REMARK  status: ('A' for Active; 'I' for Inactive)
REMARK    1  A    between atoms: C2_2  and  C6_6 
REMARK    2  A    between atoms: C2_2  and  C7_7 
REMARK    3  A    between atoms: C6_6  and  C8_8 
REMARK    4  A    between atoms: C7_7  and  O10_10 
ROOT
HETATM    1  C1  UNL     1     -34.864  15.815  -5.587  1.00 20.00     0.209 A 
HETATM    2  C2  UNL     1     -34.856  14.976  -4.333  1.00 20.00     0.104 A 
HETATM    3  O9  UNL     1     -34.004  14.674  -5.446  1.00 20.00    -0.373 OA
ENDROOT
BRANCH   2   4
HETATM    4  C6  UNL     1     -34.107  15.471  -3.101  1.00 20.00     0.051 C 
BRANCH   4   5
HETATM    5  C8  UNL     1     -34.692  16.734  -2.418  1.00 20.00    -0.049 C 
HETATM    6  C3  UNL     1     -34.601  16.541  -0.892  1.00 20.00     0.014 C 
HETATM    7  C4  UNL     1     -36.168  16.937  -2.797  1.00 20.00     0.014 C 
HETATM    8  C5  UNL     1     -33.895  17.992  -2.800  1.00 20.00     0.014 C 
ENDBRANCH   4   5
ENDBRANCH   2   4
BRANCH   2   9
HETATM    9  C7  UNL     1     -35.940  13.969  -4.114  1.00 20.00     0.204 C 
BRANCH   9  10
HETATM   10  O10 UNL     1     -35.384  12.657  -4.111  1.00 20.00    -0.398 OA
HETATM   11  H26 UNL     1     -34.699  12.649  -3.424  1.00 20.00     0.209 HD
ENDBRANCH   9  10
ENDBRANCH   2   9
TORSDOF 4
ENDMDL
MODEL 6
REMARK VINA RESULT:      -3.8      1.825      3.382
REMARK  4 active torsions:
REMARK  status: ('A' for Active; 'I' for Inactive)
REMARK    1  A    between atoms: C2_2  and  C6_6 
REMARK    2  A    between atoms: C2_2  and  C7_7 
REMARK    3  A    between atoms: C6_6  and  C8_8 
REMARK    4  A    between atoms: C7_7  and  O10_10 
ROOT
HETATM    1  C1  UNL     1     -35.777  15.902  -2.893  1.00 20.00     0.209 A 
HETATM    2  C2  UNL     1     -35.625  14.924  -4.033  1.00 20.00     0.104 A 
HETATM    3  O9  UNL     1     -36.748  14.874  -3.142  1.00 20.00    -0.373 OA
ENDROOT
BRANCH   2   4
HETATM    4  C6  UNL     1     -35.982  15.358  -5.450  1.00 20.00     0.051 C 
BRANCH   4   5
HETATM    5  C8  UNL     1     -34.812  15.917  -6.300  1.00 20.00    -0.049 C 
HETATM    6  C3  UNL     1     -35.302  17.192  -7.013  1.00 20.00     0.014 C 
HETATM    7  C4  UNL     1     -34.366  14.903  -7.366  1.00 20.00     0.014 C 
HETATM    8  C5  UNL     1     -33.609  16.283  -5.416  1.00 20.00     0.014 C 
ENDBRANCH   4   5
ENDBRANCH   2   4
BRANCH   2   9
HETATM    9  C7  UNL     1     -34.690  13.766  -3.889  1.00 20.00     0.204 C 
BRANCH   9  10
HETATM   10  O10 UNL     1     -35.375  12.554  -4.197  1.00 20.00    -0.398 OA
HETATM   11  H26 UNL     1     -36.182  12.549  -3.659  1.00 20.00     0.209 HD
ENDBRANCH   9  10
ENDBRANCH   2   9
TORSDOF 4
ENDMDL
MODEL 7
REMARK VINA RESULT:      -3.7      2.101      3.294
REMARK  4 active torsions:
REMARK  status: ('A' for Active; 'I' for Inactive)
REMARK    1  A    between atoms: C2_2  and  C6_6 
REMARK    2  A    between atoms: C2_2  and  C7_7 
REMARK    3  A    between atoms: C6_6  and  C8_8 
REMARK    4  A    between atoms: C7_7  and  O10_10 
ROOT
HETATM    1  C1  UNL     1     -35.850  13.642  -4.176  1.00 20.00     0.209 A 
HETATM    2  C2  UNL     1     -34.500  14.052  -4.712  1.00 20.00     0.104 A 
HETATM    3  O9  UNL     1     -34.943  12.689  -4.749  1.00 20.00    -0.373 OA
ENDROOT
BRANCH   2   4
HETATM    4  C6  UNL     1     -34.403  14.705  -6.086  1.00 20.00     0.051 C 
BRANCH   4   5
HETATM    5  C8  UNL     1     -34.562  16.247  -6.112  1.00 20.00    -0.049 C 
HETATM    6  C3  UNL     1     -35.860  16.610  -5.366  1.00 20.00     0.014 C 
HETATM    7  C4  UNL     1     -34.665  16.770  -7.555  1.00 20.00     0.014 C 
HETATM    8  C5  UNL     1     -33.383  16.939  -5.408  1.00 20.00     0.014 C 
ENDBRANCH   4   5
ENDBRANCH   2   4
BRANCH   2   9
HETATM    9  C7  UNL     1     -33.372  14.294  -3.760  1.00 20.00     0.204 C 
BRANCH   9  10
HETATM   10  O10 UNL     1     -32.558  13.127  -3.673  1.00 20.00    -0.398 OA
HETATM   11  H26 UNL     1     -31.638  13.427  -3.747  1.00 20.00     0.209 HD
ENDBRANCH   9  10
ENDBRANCH   2   9
TORSDOF 4
ENDMDL
MODEL 8
REMARK VINA RESULT:      -3.7      1.599      2.685
REMARK  4 active torsions:
REMARK  status: ('A' for Active; 'I' for Inactive)
REMARK    1  A    between atoms: C2_2  and  C6_6 
REMARK    2  A    between atoms: C2_2  and  C7_7 
REMARK    3  A    between atoms: C6_6  and  C8_8 
REMARK    4  A    between atoms: C7_7  and  O10_10 
ROOT
HETATM    1  C1  UNL     1     -33.225  15.895  -4.533  1.00 20.00     0.209 A 
HETATM    2  C2  UNL     1     -34.243  14.872  -4.088  1.00 20.00     0.104 A 
HETATM    3  O9  UNL     1     -32.941  14.948  -3.492  1.00 20.00    -0.373 OA
ENDROOT
BRANCH   2   4
HETATM    4  C6  UNL     1     -35.372  15.293  -3.155  1.00 20.00     0.051 C 
BRANCH   4   5
HETATM    5  C8  UNL     1     -36.646  15.845  -3.844  1.00 20.00    -0.049 C 
HETATM    6  C3  UNL     1     -37.119  17.084  -3.058  1.00 20.00     0.014 C 
HETATM    7  C4  UNL     1     -37.777  14.803  -3.838  1.00 20.00     0.014 C 
HETATM    8  C5  UNL     1     -36.356  16.268  -5.293  1.00 20.00     0.014 C 
ENDBRANCH   4   5
ENDBRANCH   2   4
BRANCH   2   9
HETATM    9  C7  UNL     1     -34.458  13.642  -4.909  1.00 20.00     0.204 C 
BRANCH   9  10
HETATM   10  O10 UNL     1     -35.043  12.622  -4.103  1.00 20.00    -0.398 OA
HETATM   11  H26 UNL     1     -34.519  11.819  -4.252  1.00 20.00     0.209 HD
ENDBRANCH   9  10
ENDBRANCH   2   9
TORSDOF 4
ENDMDL
MODEL 9
REMARK VINA RESULT:      -3.7      2.030      3.489
REMARK  4 active torsions:
REMARK  status: ('A' for Active; 'I' for Inactive)
REMARK    1  A    between atoms: C2_2  and  C6_6 
REMARK    2  A    between atoms: C2_2  and  C7_7 
REMARK    3  A    between atoms: C6_6  and  C8_8 
REMARK    4  A    between atoms: C7_7  and  O10_10 
ROOT
HETATM    1  C1  UNL     1     -33.587  15.873  -3.398  1.00 20.00     0.209 A 
HETATM    2  C2  UNL     1     -34.534  14.913  -4.075  1.00 20.00     0.104 A 
HETATM    3  O9  UNL     1     -34.622  15.194  -2.672  1.00 20.00    -0.373 OA
ENDROOT
BRANCH   2   4
HETATM    4  C6  UNL     1     -35.705  15.458  -4.886  1.00 20.00     0.051 C 
BRANCH   4   5
HETATM    5  C8  UNL     1     -35.424  15.712  -6.389  1.00 20.00    -0.049 C 
HETATM    6  C3  UNL     1     -36.477  16.709  -6.913  1.00 20.00     0.014 C 
HETATM    7  C4  UNL     1     -35.537  14.412  -7.202  1.00 20.00     0.014 C 
HETATM    8  C5  UNL     1     -34.028  16.320  -6.599  1.00 20.00     0.014 C 
ENDBRANCH   4   5
ENDBRANCH   2   4
BRANCH   2   9
HETATM    9  C7  UNL     1     -34.079  13.523  -4.384  1.00 20.00     0.204 C 
BRANCH   9  10
HETATM   10  O10 UNL     1     -35.142  12.604  -4.148  1.00 20.00    -0.398 OA
HETATM   11  H26 UNL     1     -35.421  12.736  -3.228  1.00 20.00     0.209 HD
ENDBRANCH   9  10
ENDBRANCH   2   9
TORSDOF 4
ENDMDL
