MODEL 1
REMARK VINA RESULT:      -4.8      0.000      0.000
REMARK  0 active torsions:
REMARK  status: ('A' for Active; 'I' for Inactive)
ROOT
HETATM    1  C1  UNL     1     -35.284   4.317   5.825  1.00 20.00     0.009 A 
HETATM    2  C2  UNL     1     -35.176   4.245   4.496  1.00 20.00     0.074 A 
HETATM    3  C3  UNL     1     -34.619   5.353   6.564  1.00 20.00     0.043 A 
HETATM    4  C4  UNL     1     -33.875   6.264   5.922  1.00 20.00     0.108 A 
HETATM    5  C5  UNL     1     -34.353   5.247   3.755  1.00 20.00     0.248 A 
HETATM    6  C6  UNL     1     -32.904   7.253   3.880  1.00 20.00     0.160 C 
HETATM    7  N7  UNL     1     -33.726   6.237   4.535  1.00 20.00    -0.309 N 
HETATM    8  O8  UNL     1     -34.276   5.146   2.531  1.00 20.00    -0.268 OA
HETATM    9 CL9  UNL     1     -33.080   7.505   6.818  1.00 20.00    -0.064 Cl
ENDROOT
TORSDOF 0
ENDMDL
MODEL 2
REMARK VINA RESULT:      -4.7      2.384      2.880
REMARK  0 active torsions:
REMARK  status: ('A' for Active; 'I' for Inactive)
ROOT
HETATM    1  C1  UNL     1     -35.261   4.504   5.948  1.00 20.00     0.009 A 
HETATM    2  C2  UNL     1     -34.591   5.434   6.635  1.00 20.00     0.074 A 
HETATM    3  C3  UNL     1     -35.133   4.407   4.521  1.00 20.00     0.043 A 
HETATM    4  C4  UNL     1     -34.337   5.257   3.859  1.00 20.00     0.108 A 
HETATM    5  C5  UNL     1     -33.697   6.394   5.922  1.00 20.00     0.248 A 
HETATM    6  C6  UNL     1     -32.759   7.152   3.757  1.00 20.00     0.160 C 
HETATM    7  N7  UNL     1     -33.615   6.249   4.524  1.00 20.00    -0.309 N 
HETATM    8  O8  UNL     1     -33.099   7.239   6.588  1.00 20.00    -0.268 OA
HETATM    9 CL9  UNL     1     -34.191   5.133   2.144  1.00 20.00    -0.064 Cl
ENDROOT
TORSDOF 0
ENDMDL
MODEL 3
REMARK VINA RESULT:      -4.6     12.909     13.937
REMARK  0 active torsions:
REMARK  status: ('A' for Active; 'I' for Inactive)
ROOT
HETATM    1  C1  UNL     1     -32.966  15.256  -3.659  1.00 20.00     0.009 A 
HETATM    2  C2  UNL     1     -33.505  14.035  -3.714  1.00 20.00     0.074 A 
HETATM    3  C3  UNL     1     -33.215  16.219  -4.694  1.00 20.00     0.043 A 
HETATM    4  C4  UNL     1     -33.996  15.900  -5.735  1.00 20.00     0.108 A 
HETATM    5  C5  UNL     1     -34.379  13.653  -4.863  1.00 20.00     0.248 A 
HETATM    6  C6  UNL     1     -35.429  14.339  -7.000  1.00 20.00     0.160 C 
HETATM    7  N7  UNL     1     -34.585  14.640  -5.846  1.00 20.00    -0.309 N 
HETATM    8  O8  UNL     1     -34.856  12.518  -4.880  1.00 20.00    -0.268 OA
HETATM    9 CL9  UNL     1     -34.289  17.065  -6.974  1.00 20.00    -0.064 Cl
ENDROOT
TORSDOF 0
ENDMDL
MODEL 4
REMARK VINA RESULT:      -4.4      1.808      2.465
REMARK  0 active torsions:
REMARK  status: ('A' for Active; 'I' for Inactive)
ROOT
HETATM    1  C1  UNL     1     -34.033   6.358   6.522  1.00 20.00     0.009 A 
HETATM    2  C2  UNL     1     -34.757   5.264   6.269  1.00 20.00     0.074 A 
HETATM    3  C3  UNL     1     -33.323   7.031   5.470  1.00 20.00     0.043 A 
HETATM    4  C4  UNL     1     -33.380   6.564   4.216  1.00 20.00     0.108 A 
HETATM    5  C5  UNL     1     -34.836   4.722   4.881  1.00 20.00     0.248 A 
HETATM    6  C6  UNL     1     -34.150   4.954   2.511  1.00 20.00     0.160 C 
HETATM    7  N7  UNL     1     -34.119   5.425   3.894  1.00 20.00    -0.309 N 
HETATM    8  O8  UNL     1     -35.512   3.711   4.688  1.00 20.00    -0.268 OA
HETATM    9 CL9  UNL     1     -32.524   7.380   2.960  1.00 20.00    -0.064 Cl
ENDROOT
TORSDOF 0
ENDMDL
MODEL 5
REMARK VINA RESULT:      -4.3     12.292     12.766
REMARK  0 active torsions:
REMARK  status: ('A' for Active; 'I' for Inactive)
ROOT
HETATM    1  C1  UNL     1     -32.831  14.969  -3.422  1.00 20.00     0.009 A 
HETATM    2  C2  UNL     1     -33.312  13.805  -3.866  1.00 20.00     0.074 A 
HETATM    3  C3  UNL     1     -33.711  16.060  -3.110  1.00 20.00     0.043 A 
HETATM    4  C4  UNL     1     -35.035  15.919  -3.265  1.00 20.00     0.108 A 
HETATM    5  C5  UNL     1     -34.783  13.622  -4.048  1.00 20.00     0.248 A 
HETATM    6  C6  UNL     1     -37.043  14.623  -3.878  1.00 20.00     0.160 C 
HETATM    7  N7  UNL     1     -35.593  14.727  -3.726  1.00 20.00    -0.309 N 
HETATM    8  O8  UNL     1     -35.188  12.536  -4.462  1.00 20.00    -0.268 OA
HETATM    9 CL9  UNL     1     -36.084  17.236  -2.887  1.00 20.00    -0.064 Cl
ENDROOT
TORSDOF 0
ENDMDL
MODEL 6
REMARK VINA RESULT:      -4.1     12.427     12.887
REMARK  0 active torsions:
REMARK  status: ('A' for Active; 'I' for Inactive)
ROOT
HETATM    1  C1  UNL     1     -33.832  13.661  -4.108  1.00 20.00     0.009 A 
HETATM    2  C2  UNL     1     -35.136  13.386  -4.197  1.00 20.00     0.074 A 
HETATM    3  C3  UNL     1     -33.379  14.944  -3.649  1.00 20.00     0.043 A 
HETATM    4  C4  UNL     1     -34.267  15.885  -3.303  1.00 20.00     0.108 A 
HETATM    5  C5  UNL     1     -36.147  14.418  -3.819  1.00 20.00     0.248 A 
HETATM    6  C6  UNL     1     -36.570  16.714  -2.988  1.00 20.00     0.160 C 
HETATM    7  N7  UNL     1     -35.641  15.654  -3.376  1.00 20.00    -0.309 N 
HETATM    8  O8  UNL     1     -37.340  14.128  -3.916  1.00 20.00    -0.268 OA
HETATM    9 CL9  UNL     1     -33.712  17.423  -2.752  1.00 20.00    -0.064 Cl
ENDROOT
TORSDOF 0
ENDMDL
MODEL 7
REMARK VINA RESULT:      -4.1      1.952      2.695
REMARK  0 active torsions:
REMARK  status: ('A' for Active; 'I' for Inactive)
ROOT
HETATM    1  C1  UNL     1     -34.621   4.996   3.153  1.00 20.00     0.009 A 
HETATM    2  C2  UNL     1     -35.203   4.781   4.337  1.00 20.00     0.074 A 
HETATM    3  C3  UNL     1     -33.526   5.917   3.027  1.00 20.00     0.043 A 
HETATM    4  C4  UNL     1     -33.075   6.575   4.103  1.00 20.00     0.108 A 
HETATM    5  C5  UNL     1     -34.720   5.502   5.552  1.00 20.00     0.248 A 
HETATM    6  C6  UNL     1     -33.117   7.133   6.506  1.00 20.00     0.160 C 
HETATM    7  N7  UNL     1     -33.645   6.391   5.363  1.00 20.00    -0.309 N 
HETATM    8  O8  UNL     1     -35.283   5.279   6.623  1.00 20.00    -0.268 OA
HETATM    9 CL9  UNL     1     -31.758   7.679   3.941  1.00 20.00    -0.064 Cl
ENDROOT
TORSDOF 0
ENDMDL
MODEL 8
REMARK VINA RESULT:      -4.0     12.698     13.574
REMARK  0 active torsions:
REMARK  status: ('A' for Active; 'I' for Inactive)
ROOT
HETATM    1  C1  UNL     1     -34.908  13.353  -4.493  1.00 20.00     0.009 A 
HETATM    2  C2  UNL     1     -34.799  13.809  -5.744  1.00 20.00     0.074 A 
HETATM    3  C3  UNL     1     -34.560  14.183  -3.373  1.00 20.00     0.043 A 
HETATM    4  C4  UNL     1     -34.118  15.431  -3.575  1.00 20.00     0.108 A 
HETATM    5  C5  UNL     1     -34.309  15.196  -5.997  1.00 20.00     0.248 A 
HETATM    6  C6  UNL     1     -33.497  17.327  -5.028  1.00 20.00     0.160 C 
HETATM    7  N7  UNL     1     -33.983  15.960  -4.860  1.00 20.00    -0.309 N 
HETATM    8  O8  UNL     1     -34.220  15.579  -7.163  1.00 20.00    -0.268 OA
HETATM    9 CL9  UNL     1     -33.702  16.421  -2.224  1.00 20.00    -0.064 Cl
ENDROOT
TORSDOF 0
ENDMDL
MODEL 9
REMARK VINA RESULT:      -4.0     12.170     12.470
REMARK  0 active torsions:
REMARK  status: ('A' for Active; 'I' for Inactive)
ROOT
HETATM    1  C1  UNL     1     -36.932  15.192  -3.567  1.00 20.00     0.009 A 
HETATM    2  C2  UNL     1     -36.544  14.086  -4.208  1.00 20.00     0.074 A 
HETATM    3  C3  UNL     1     -35.980  16.015  -2.876  1.00 20.00     0.043 A 
HETATM    4  C4  UNL     1     -34.684  15.677  -2.864  1.00 20.00     0.108 A 
HETATM    5  C5  UNL     1     -35.106  13.686  -4.211  1.00 20.00     0.248 A 
HETATM    6  C6  UNL     1     -32.798  14.207  -3.475  1.00 20.00     0.160 C 
HETATM    7  N7  UNL     1     -34.222  14.533  -3.516  1.00 20.00    -0.309 N 
HETATM    8  O8  UNL     1     -34.788  12.659  -4.811  1.00 20.00    -0.268 OA
HETATM    9 CL9  UNL     1     -33.548  16.673  -2.030  1.00 20.00    -0.064 Cl
ENDROOT
TORSDOF 0
ENDMDL
