MODEL 1
REMARK VINA RESULT:      -5.1      0.000      0.000
REMARK  1 active torsions:
REMARK  status: ('A' for Active; 'I' for Inactive)
REMARK    1  A    between atoms: C6_6  and  C10_10 
ROOT
HETATM    1  C1  UNL     1     -35.972  15.448  -2.751  1.00 20.00     0.052 C 
HETATM    2  C2  UNL     1     -34.665  15.722  -2.624  1.00 20.00    -0.080 C 
HETATM    3  C3  UNL     1     -36.443  14.447  -3.741  1.00 20.00     0.149 C 
HETATM    4  C4  UNL     1     -33.607  15.087  -3.491  1.00 20.00     0.039 C 
HETATM    5  C5  UNL     1     -35.413  13.680  -4.542  1.00 20.00     0.088 C 
HETATM    6  C6  UNL     1     -34.153  14.504  -4.803  1.00 20.00     0.000 C 
HETATM    7  C7  UNL     1     -34.168  16.686  -1.586  1.00 20.00     0.043 C 
HETATM    8  O11 UNL     1     -37.646  14.217  -3.847  1.00 20.00    -0.293 OA
ENDROOT
BRANCH   6   9
HETATM    9  C10 UNL     1     -34.409  15.600  -5.845  1.00 20.00    -0.018 C 
HETATM   10  C8  UNL     1     -33.373  16.716  -5.717  1.00 20.00     0.010 C 
HETATM   11  C9  UNL     1     -34.396  15.015  -7.255  1.00 20.00     0.010 C 
ENDBRANCH   6   9
TORSDOF 1
ENDMDL
MODEL 2
REMARK VINA RESULT:      -4.7      1.459      3.556
REMARK  1 active torsions:
REMARK  status: ('A' for Active; 'I' for Inactive)
REMARK    1  A    between atoms: C6_6  and  C10_10 
ROOT
HETATM    1  C1  UNL     1     -34.736  14.447  -5.804  1.00 20.00     0.052 C 
HETATM    2  C2  UNL     1     -34.971  15.742  -6.065  1.00 20.00    -0.080 C 
HETATM    3  C3  UNL     1     -35.252  13.820  -4.562  1.00 20.00     0.149 C 
HETATM    4  C4  UNL     1     -35.714  16.647  -5.116  1.00 20.00     0.039 C 
HETATM    5  C5  UNL     1     -36.122  14.647  -3.640  1.00 20.00     0.088 C 
HETATM    6  C6  UNL     1     -35.751  16.130  -3.671  1.00 20.00     0.000 C 
HETATM    7  C7  UNL     1     -34.507  16.375  -7.346  1.00 20.00     0.043 C 
HETATM    8  O11 UNL     1     -35.019  12.634  -4.337  1.00 20.00    -0.293 OA
ENDROOT
BRANCH   6   9
HETATM    9  C10 UNL     1     -34.424  16.388  -2.945  1.00 20.00    -0.018 C 
HETATM   10  C8  UNL     1     -33.846  17.743  -3.348  1.00 20.00     0.010 C 
HETATM   11  C9  UNL     1     -34.617  16.315  -1.432  1.00 20.00     0.010 C 
ENDBRANCH   6   9
TORSDOF 1
ENDMDL
MODEL 3
REMARK VINA RESULT:      -4.6      1.974      2.343
REMARK  1 active torsions:
REMARK  status: ('A' for Active; 'I' for Inactive)
REMARK    1  A    between atoms: C6_6  and  C10_10 
ROOT
HETATM    1  C1  UNL     1     -34.486  14.355  -3.409  1.00 20.00     0.052 C 
HETATM    2  C2  UNL     1     -34.341  15.686  -3.328  1.00 20.00    -0.080 C 
HETATM    3  C3  UNL     1     -34.639  13.689  -4.726  1.00 20.00     0.149 C 
HETATM    4  C4  UNL     1     -34.374  16.588  -4.535  1.00 20.00     0.039 C 
HETATM    5  C5  UNL     1     -34.541  14.532  -5.979  1.00 20.00     0.088 C 
HETATM    6  C6  UNL     1     -35.050  15.956  -5.760  1.00 20.00     0.000 C 
HETATM    7  C7  UNL     1     -34.125  16.367  -2.007  1.00 20.00     0.043 C 
HETATM    8  O11 UNL     1     -34.779  12.469  -4.778  1.00 20.00    -0.293 OA
ENDROOT
BRANCH   6   9
HETATM    9  C10 UNL     1     -36.579  15.990  -5.642  1.00 20.00    -0.018 C 
HETATM   10  C8  UNL     1     -37.069  17.418  -5.413  1.00 20.00     0.010 C 
HETATM   11  C9  UNL     1     -37.227  15.393  -6.889  1.00 20.00     0.010 C 
ENDBRANCH   6   9
TORSDOF 1
ENDMDL
MODEL 4
REMARK VINA RESULT:      -4.5      1.062      1.236
REMARK  1 active torsions:
REMARK  status: ('A' for Active; 'I' for Inactive)
REMARK    1  A    between atoms: C6_6  and  C10_10 
ROOT
HETATM    1  C1  UNL     1     -35.452  14.929  -2.773  1.00 20.00     0.052 C 
HETATM    2  C2  UNL     1     -34.575  15.879  -2.412  1.00 20.00    -0.080 C 
HETATM    3  C3  UNL     1     -35.197  14.076  -3.959  1.00 20.00     0.149 C 
HETATM    4  C4  UNL     1     -33.322  16.177  -3.195  1.00 20.00     0.039 C 
HETATM    5  C5  UNL     1     -33.889  14.239  -4.702  1.00 20.00     0.088 C 
HETATM    6  C6  UNL     1     -33.367  15.675  -4.646  1.00 20.00     0.000 C 
HETATM    7  C7  UNL     1     -34.790  16.709  -1.179  1.00 20.00     0.043 C 
HETATM    8  O11 UNL     1     -36.018  13.217  -4.278  1.00 20.00    -0.293 OA
ENDROOT
BRANCH   6   9
HETATM    9  C10 UNL     1     -34.198  16.605  -5.540  1.00 20.00    -0.018 C 
HETATM   10  C8  UNL     1     -33.591  18.007  -5.567  1.00 20.00     0.010 C 
HETATM   11  C9  UNL     1     -34.302  16.039  -6.954  1.00 20.00     0.010 C 
ENDBRANCH   6   9
TORSDOF 1
ENDMDL
MODEL 5
REMARK VINA RESULT:      -4.4      1.980      3.522
REMARK  1 active torsions:
REMARK  status: ('A' for Active; 'I' for Inactive)
REMARK    1  A    between atoms: C6_6  and  C10_10 
ROOT
HETATM    1  C1  UNL     1     -36.418  15.314  -6.282  1.00 20.00     0.052 C 
HETATM    2  C2  UNL     1     -37.117  15.302  -5.136  1.00 20.00    -0.080 C 
HETATM    3  C3  UNL     1     -35.176  14.513  -6.419  1.00 20.00     0.149 C 
HETATM    4  C4  UNL     1     -36.676  14.534  -3.916  1.00 20.00     0.039 C 
HETATM    5  C5  UNL     1     -34.762  13.617  -5.272  1.00 20.00     0.088 C 
HETATM    6  C6  UNL     1     -35.181  14.182  -3.915  1.00 20.00     0.000 C 
HETATM    7  C7  UNL     1     -38.407  16.058  -5.003  1.00 20.00     0.043 C 
HETATM    8  O11 UNL     1     -34.546  14.545  -7.474  1.00 20.00    -0.293 OA
ENDROOT
BRANCH   6   9
HETATM    9  C10 UNL     1     -34.317  15.387  -3.521  1.00 20.00    -0.018 C 
HETATM   10  C8  UNL     1     -34.698  15.890  -2.130  1.00 20.00     0.010 C 
HETATM   11  C9  UNL     1     -32.835  15.024  -3.573  1.00 20.00     0.010 C 
ENDBRANCH   6   9
TORSDOF 1
ENDMDL
MODEL 6
REMARK VINA RESULT:      -4.3      1.637      3.402
REMARK  1 active torsions:
REMARK  status: ('A' for Active; 'I' for Inactive)
REMARK    1  A    between atoms: C6_6  and  C10_10 
ROOT
HETATM    1  C1  UNL     1     -35.389  13.993  -3.709  1.00 20.00     0.052 C 
HETATM    2  C2  UNL     1     -34.173  14.559  -3.697  1.00 20.00    -0.080 C 
HETATM    3  C3  UNL     1     -36.611  14.828  -3.815  1.00 20.00     0.149 C 
HETATM    4  C4  UNL     1     -33.964  16.051  -3.737  1.00 20.00     0.039 C 
HETATM    5  C5  UNL     1     -36.454  16.322  -3.997  1.00 20.00     0.088 C 
HETATM    6  C6  UNL     1     -35.198  16.860  -3.312  1.00 20.00     0.000 C 
HETATM    7  C7  UNL     1     -32.925  13.724  -3.651  1.00 20.00     0.043 C 
HETATM    8  O11 UNL     1     -37.717  14.290  -3.815  1.00 20.00    -0.293 OA
ENDROOT
BRANCH   6   9
HETATM    9  C10 UNL     1     -35.361  16.881  -1.786  1.00 20.00    -0.018 C 
HETATM   10  C8  UNL     1     -34.004  17.044  -1.104  1.00 20.00     0.010 C 
HETATM   11  C9  UNL     1     -36.311  17.999  -1.364  1.00 20.00     0.010 C 
ENDBRANCH   6   9
TORSDOF 1
ENDMDL
MODEL 7
REMARK VINA RESULT:      -4.3      2.097      4.388
REMARK  1 active torsions:
REMARK  status: ('A' for Active; 'I' for Inactive)
REMARK    1  A    between atoms: C6_6  and  C10_10 
ROOT
HETATM    1  C1  UNL     1     -34.436  16.491  -6.838  1.00 20.00     0.052 C 
HETATM    2  C2  UNL     1     -34.775  15.195  -6.762  1.00 20.00    -0.080 C 
HETATM    3  C3  UNL     1     -33.640  17.127  -5.759  1.00 20.00     0.149 C 
HETATM    4  C4  UNL     1     -34.428  14.324  -5.582  1.00 20.00     0.039 C 
HETATM    5  C5  UNL     1     -33.146  16.266  -4.617  1.00 20.00     0.088 C 
HETATM    6  C6  UNL     1     -34.102  15.114  -4.307  1.00 20.00     0.000 C 
HETATM    7  C7  UNL     1     -35.528  14.521  -7.874  1.00 20.00     0.043 C 
HETATM    8  O11 UNL     1     -33.346  18.318  -5.843  1.00 20.00    -0.293 OA
ENDROOT
BRANCH   6   9
HETATM    9  C10 UNL     1     -35.375  15.617  -3.613  1.00 20.00    -0.018 C 
HETATM   10  C8  UNL     1     -36.483  14.570  -3.700  1.00 20.00     0.010 C 
HETATM   11  C9  UNL     1     -35.087  15.975  -2.157  1.00 20.00     0.010 C 
ENDBRANCH   6   9
TORSDOF 1
ENDMDL
MODEL 8
REMARK VINA RESULT:      -4.3      2.234      3.131
REMARK  1 active torsions:
REMARK  status: ('A' for Active; 'I' for Inactive)
REMARK    1  A    between atoms: C6_6  and  C10_10 
ROOT
HETATM    1  C1  UNL     1     -33.891  17.517  -3.072  1.00 20.00     0.052 C 
HETATM    2  C2  UNL     1     -34.723  16.715  -2.390  1.00 20.00    -0.080 C 
HETATM    3  C3  UNL     1     -34.085  17.749  -4.525  1.00 20.00     0.149 C 
HETATM    4  C4  UNL     1     -35.857  15.967  -3.042  1.00 20.00     0.039 C 
HETATM    5  C5  UNL     1     -35.290  17.132  -5.202  1.00 20.00     0.088 C 
HETATM    6  C6  UNL     1     -35.699  15.806  -4.561  1.00 20.00     0.000 C 
HETATM    7  C7  UNL     1     -34.575  16.519  -0.909  1.00 20.00     0.043 C 
HETATM    8  O11 UNL     1     -33.307  18.480  -5.134  1.00 20.00    -0.293 OA
ENDROOT
BRANCH   6   9
HETATM    9  C10 UNL     1     -34.706  14.689  -4.910  1.00 20.00    -0.018 C 
HETATM   10  C8  UNL     1     -35.100  13.386  -4.218  1.00 20.00     0.010 C 
HETATM   11  C9  UNL     1     -34.630  14.492  -6.422  1.00 20.00     0.010 C 
ENDBRANCH   6   9
TORSDOF 1
ENDMDL
MODEL 9
REMARK VINA RESULT:      -4.3      1.817      3.033
REMARK  1 active torsions:
REMARK  status: ('A' for Active; 'I' for Inactive)
REMARK    1  A    between atoms: C6_6  and  C10_10 
ROOT
HETATM    1  C1  UNL     1     -34.325  17.606  -3.199  1.00 20.00     0.052 C 
HETATM    2  C2  UNL     1     -33.865  17.709  -4.455  1.00 20.00    -0.080 C 
HETATM    3  C3  UNL     1     -34.156  16.347  -2.432  1.00 20.00     0.149 C 
HETATM    4  C4  UNL     1     -33.205  16.565  -5.182  1.00 20.00     0.039 C 
HETATM    5  C5  UNL     1     -33.379  15.213  -3.064  1.00 20.00     0.088 C 
HETATM    6  C6  UNL     1     -33.527  15.187  -4.585  1.00 20.00     0.000 C 
HETATM    7  C7  UNL     1     -33.975  18.996  -5.222  1.00 20.00     0.043 C 
HETATM    8  O11 UNL     1     -34.592  16.270  -1.285  1.00 20.00    -0.293 OA
ENDROOT
BRANCH   6   9
HETATM    9  C10 UNL     1     -34.922  14.702  -5.002  1.00 20.00    -0.018 C 
HETATM   10  C8  UNL     1     -35.016  14.582  -6.522  1.00 20.00     0.010 C 
HETATM   11  C9  UNL     1     -35.247  13.368  -4.337  1.00 20.00     0.010 C 
ENDBRANCH   6   9
TORSDOF 1
ENDMDL
