MODEL 1
REMARK VINA RESULT:      -5.1      0.000      0.000
REMARK  1 active torsions:
REMARK  status: ('A' for Active; 'I' for Inactive)
REMARK    1  A    between atoms: C3_3  and  C7_7 
ROOT
HETATM    1  C1  UNL     1     -33.945  17.652  -2.698  1.00 20.00    -0.082 C 
HETATM    2  C2  UNL     1     -34.477  16.749  -1.843  1.00 20.00    -0.081 C 
HETATM    3  C4  UNL     1     -33.837  17.381  -4.185  1.00 20.00     0.035 C 
HETATM    4  C5  UNL     1     -34.953  15.385  -2.307  1.00 20.00     0.050 C 
HETATM    5  C6  UNL     1     -34.607  16.153  -4.667  1.00 20.00     0.021 C 
HETATM    6  C7  UNL     1     -34.465  14.966  -3.707  1.00 20.00     0.013 C 
HETATM    7  C8  UNL     1     -33.393  18.995  -2.298  1.00 20.00     0.043 C 
HETATM    8  C9  UNL     1     -34.679  16.980  -0.369  1.00 20.00     0.043 C 
HETATM    9  C10 UNL     1     -33.021  14.442  -3.660  1.00 20.00     0.023 C 
ENDROOT
BRANCH   6  10
HETATM   10  C3  UNL     1     -35.340  13.851  -4.223  1.00 20.00     0.240 C 
HETATM   11  O11 UNL     1     -34.947  12.698  -4.377  1.00 20.00    -0.306 OA
ENDBRANCH   6  10
TORSDOF 1
ENDMDL
MODEL 2
REMARK VINA RESULT:      -4.7      1.469      1.898
REMARK  1 active torsions:
REMARK  status: ('A' for Active; 'I' for Inactive)
REMARK    1  A    between atoms: C3_3  and  C7_7 
ROOT
HETATM    1  C1  UNL     1     -36.144  16.959  -2.825  1.00 20.00    -0.082 C 
HETATM    2  C2  UNL     1     -35.115  16.310  -2.235  1.00 20.00    -0.081 C 
HETATM    3  C4  UNL     1     -36.706  16.525  -4.163  1.00 20.00     0.035 C 
HETATM    4  C5  UNL     1     -34.421  15.134  -2.898  1.00 20.00     0.050 C 
HETATM    5  C6  UNL     1     -36.211  15.163  -4.650  1.00 20.00     0.021 C 
HETATM    6  C7  UNL     1     -34.711  14.969  -4.401  1.00 20.00     0.013 C 
HETATM    7  C8  UNL     1     -36.835  18.172  -2.257  1.00 20.00     0.043 C 
HETATM    8  C9  UNL     1     -34.556  16.643  -0.877  1.00 20.00     0.043 C 
HETATM    9  C10 UNL     1     -33.865  15.937  -5.241  1.00 20.00     0.023 C 
ENDROOT
BRANCH   6  10
HETATM   10  C3  UNL     1     -34.354  13.565  -4.823  1.00 20.00     0.240 C 
HETATM   11  O11 UNL     1     -34.990  12.573  -4.478  1.00 20.00    -0.306 OA
ENDBRANCH   6  10
TORSDOF 1
ENDMDL
MODEL 3
REMARK VINA RESULT:      -4.6      1.027      2.559
REMARK  1 active torsions:
REMARK  status: ('A' for Active; 'I' for Inactive)
REMARK    1  A    between atoms: C3_3  and  C7_7 
ROOT
HETATM    1  C1  UNL     1     -33.889  17.381  -3.214  1.00 20.00    -0.082 C 
HETATM    2  C2  UNL     1     -33.889  17.316  -4.564  1.00 20.00    -0.081 C 
HETATM    3  C4  UNL     1     -34.180  16.169  -2.352  1.00 20.00     0.035 C 
HETATM    4  C5  UNL     1     -34.231  16.037  -5.308  1.00 20.00     0.050 C 
HETATM    5  C6  UNL     1     -34.201  14.840  -3.107  1.00 20.00     0.021 C 
HETATM    6  C7  UNL     1     -34.919  14.953  -4.458  1.00 20.00     0.013 C 
HETATM    7  C8  UNL     1     -33.626  18.628  -2.412  1.00 20.00     0.043 C 
HETATM    8  C9  UNL     1     -33.540  18.461  -5.478  1.00 20.00     0.043 C 
HETATM    9  C10 UNL     1     -36.416  15.248  -4.284  1.00 20.00     0.023 C 
ENDROOT
BRANCH   6  10
HETATM   10  C3  UNL     1     -34.792  13.622  -5.157  1.00 20.00     0.240 C 
HETATM   11  O11 UNL     1     -34.921  12.543  -4.586  1.00 20.00    -0.306 OA
ENDBRANCH   6  10
TORSDOF 1
ENDMDL
MODEL 4
REMARK VINA RESULT:      -4.6      2.100      3.954
REMARK  1 active torsions:
REMARK  status: ('A' for Active; 'I' for Inactive)
REMARK    1  A    between atoms: C3_3  and  C7_7 
ROOT
HETATM    1  C1  UNL     1     -34.250  15.444  -5.622  1.00 20.00    -0.082 C 
HETATM    2  C2  UNL     1     -34.417  14.542  -4.628  1.00 20.00    -0.081 C 
HETATM    3  C4  UNL     1     -33.965  16.905  -5.340  1.00 20.00     0.035 C 
HETATM    4  C5  UNL     1     -34.380  14.943  -3.164  1.00 20.00     0.050 C 
HETATM    5  C6  UNL     1     -33.616  17.217  -3.885  1.00 20.00     0.021 C 
HETATM    6  C7  UNL     1     -34.508  16.455  -2.899  1.00 20.00     0.013 C 
HETATM    7  C8  UNL     1     -34.340  15.130  -7.092  1.00 20.00     0.043 C 
HETATM    8  C9  UNL     1     -34.632  13.066  -4.836  1.00 20.00     0.043 C 
HETATM    9  C10 UNL     1     -35.972  16.913  -2.984  1.00 20.00     0.023 C 
ENDROOT
BRANCH   6  10
HETATM   10  C3  UNL     1     -34.014  16.756  -1.506  1.00 20.00     0.240 C 
HETATM   11  O11 UNL     1     -34.702  16.616  -0.499  1.00 20.00    -0.306 OA
ENDBRANCH   6  10
TORSDOF 1
ENDMDL
MODEL 5
REMARK VINA RESULT:      -4.5      1.996      3.423
REMARK  1 active torsions:
REMARK  status: ('A' for Active; 'I' for Inactive)
REMARK    1  A    between atoms: C3_3  and  C7_7 
ROOT
HETATM    1  C1  UNL     1     -33.839  17.555  -5.619  1.00 20.00    -0.082 C 
HETATM    2  C2  UNL     1     -34.337  16.669  -6.512  1.00 20.00    -0.081 C 
HETATM    3  C4  UNL     1     -33.369  17.130  -4.243  1.00 20.00     0.035 C 
HETATM    4  C5  UNL     1     -34.507  15.199  -6.176  1.00 20.00     0.050 C 
HETATM    5  C6  UNL     1     -33.250  15.619  -4.049  1.00 20.00     0.021 C 
HETATM    6  C7  UNL     1     -34.426  14.859  -4.676  1.00 20.00     0.013 C 
HETATM    7  C8  UNL     1     -33.705  19.036  -5.860  1.00 20.00     0.043 C 
HETATM    8  C9  UNL     1     -34.755  17.011  -7.918  1.00 20.00     0.043 C 
HETATM    9  C10 UNL     1     -35.750  15.172  -3.962  1.00 20.00     0.023 C 
ENDROOT
BRANCH   6  10
HETATM   10  C3  UNL     1     -34.156  13.384  -4.517  1.00 20.00     0.240 C 
HETATM   11  O11 UNL     1     -35.043  12.540  -4.429  1.00 20.00    -0.306 OA
ENDBRANCH   6  10
TORSDOF 1
ENDMDL
MODEL 6
REMARK VINA RESULT:      -4.5     11.519     13.683
REMARK  1 active torsions:
REMARK  status: ('A' for Active; 'I' for Inactive)
REMARK    1  A    between atoms: C3_3  and  C7_7 
ROOT
HETATM    1  C1  UNL     1     -41.533   6.403  -1.542  1.00 20.00    -0.082 C 
HETATM    2  C2  UNL     1     -42.399   6.223  -2.565  1.00 20.00    -0.081 C 
HETATM    3  C4  UNL     1     -40.798   5.244  -0.901  1.00 20.00     0.035 C 
HETATM    4  C5  UNL     1     -42.731   4.844  -3.105  1.00 20.00     0.050 C 
HETATM    5  C6  UNL     1     -40.901   3.923  -1.663  1.00 20.00     0.021 C 
HETATM    6  C7  UNL     1     -42.316   3.671  -2.197  1.00 20.00     0.013 C 
HETATM    7  C8  UNL     1     -41.208   7.732  -0.913  1.00 20.00     0.043 C 
HETATM    8  C9  UNL     1     -43.109   7.334  -3.293  1.00 20.00     0.043 C 
HETATM    9  C10 UNL     1     -43.325   3.464  -1.058  1.00 20.00     0.023 C 
ENDROOT
BRANCH   6  10
HETATM   10  C3  UNL     1     -42.279   2.403  -3.014  1.00 20.00     0.240 C 
HETATM   11  O11 UNL     1     -41.285   2.020  -3.624  1.00 20.00    -0.306 OA
ENDBRANCH   6  10
TORSDOF 1
ENDMDL
MODEL 7
REMARK VINA RESULT:      -4.4      1.799      2.488
REMARK  1 active torsions:
REMARK  status: ('A' for Active; 'I' for Inactive)
REMARK    1  A    between atoms: C3_3  and  C7_7 
ROOT
HETATM    1  C1  UNL     1     -34.781  16.156  -2.486  1.00 20.00    -0.082 C 
HETATM    2  C2  UNL     1     -35.866  16.264  -3.285  1.00 20.00    -0.081 C 
HETATM    3  C4  UNL     1     -33.483  15.543  -2.973  1.00 20.00     0.035 C 
HETATM    4  C5  UNL     1     -35.874  15.731  -4.707  1.00 20.00     0.050 C 
HETATM    5  C6  UNL     1     -33.414  15.313  -4.482  1.00 20.00     0.021 C 
HETATM    6  C7  UNL     1     -34.728  14.759  -5.045  1.00 20.00     0.013 C 
HETATM    7  C8  UNL     1     -34.724  16.600  -1.048  1.00 20.00     0.043 C 
HETATM    8  C9  UNL     1     -37.161  16.924  -2.890  1.00 20.00     0.043 C 
HETATM    9  C10 UNL     1     -35.022  13.347  -4.518  1.00 20.00     0.023 C 
ENDROOT
BRANCH   6  10
HETATM   10  C3  UNL     1     -34.583  14.668  -6.544  1.00 20.00     0.240 C 
HETATM   11  O11 UNL     1     -35.446  14.199  -7.280  1.00 20.00    -0.306 OA
ENDBRANCH   6  10
TORSDOF 1
ENDMDL
MODEL 8
REMARK VINA RESULT:      -4.4      2.079      4.206
REMARK  1 active torsions:
REMARK  status: ('A' for Active; 'I' for Inactive)
REMARK    1  A    between atoms: C3_3  and  C7_7 
ROOT
HETATM    1  C1  UNL     1     -35.081  14.986  -6.061  1.00 20.00    -0.082 C 
HETATM    2  C2  UNL     1     -34.535  16.217  -5.939  1.00 20.00    -0.081 C 
HETATM    3  C4  UNL     1     -35.319  14.091  -4.862  1.00 20.00     0.035 C 
HETATM    4  C5  UNL     1     -34.076  16.764  -4.599  1.00 20.00     0.050 C 
HETATM    5  C6  UNL     1     -35.151  14.781  -3.508  1.00 20.00     0.021 C 
HETATM    6  C7  UNL     1     -33.935  15.714  -3.481  1.00 20.00     0.013 C 
HETATM    7  C8  UNL     1     -35.497  14.355  -7.364  1.00 20.00     0.043 C 
HETATM    8  C9  UNL     1     -34.336  17.184  -7.076  1.00 20.00     0.043 C 
HETATM    9  C10 UNL     1     -32.618  14.936  -3.611  1.00 20.00     0.023 C 
ENDROOT
BRANCH   6  10
HETATM   10  C3  UNL     1     -33.925  16.414  -2.144  1.00 20.00     0.240 C 
HETATM   11  O11 UNL     1     -34.723  16.168  -1.245  1.00 20.00    -0.306 OA
ENDBRANCH   6  10
TORSDOF 1
ENDMDL
MODEL 9
REMARK VINA RESULT:      -4.3      2.534      4.319
REMARK  1 active torsions:
REMARK  status: ('A' for Active; 'I' for Inactive)
REMARK    1  A    between atoms: C3_3  and  C7_7 
ROOT
HETATM    1  C1  UNL     1     -35.817  15.407  -3.404  1.00 20.00    -0.082 C 
HETATM    2  C2  UNL     1     -34.491  15.192  -3.243  1.00 20.00    -0.081 C 
HETATM    3  C4  UNL     1     -36.474  16.708  -2.990  1.00 20.00     0.035 C 
HETATM    4  C5  UNL     1     -33.583  16.219  -2.590  1.00 20.00     0.050 C 
HETATM    5  C6  UNL     1     -35.500  17.832  -2.640  1.00 20.00     0.021 C 
HETATM    6  C7  UNL     1     -34.311  17.331  -1.812  1.00 20.00     0.013 C 
HETATM    7  C8  UNL     1     -36.786  14.409  -3.980  1.00 20.00     0.043 C 
HETATM    8  C9  UNL     1     -33.762  13.954  -3.695  1.00 20.00     0.043 C 
HETATM    9  C10 UNL     1     -34.750  16.842  -0.423  1.00 20.00     0.023 C 
ENDROOT
BRANCH   6  10
HETATM   10  C3  UNL     1     -33.369  18.492  -1.612  1.00 20.00     0.240 C 
HETATM   11  O11 UNL     1     -32.778  18.710  -0.558  1.00 20.00    -0.306 OA
ENDBRANCH   6  10
TORSDOF 1
ENDMDL
