MODEL 1
REMARK VINA RESULT:      -4.6      0.000      0.000
REMARK  1 active torsions:
REMARK  status: ('A' for Active; 'I' for Inactive)
REMARK    1  A    between atoms: C1_1  and  S12_12 
ROOT
HETATM    1  C1  UNL     1     -35.791  15.119  -5.294  1.00 20.00     0.066 C 
HETATM    2  C2  UNL     1     -36.476  14.958  -3.978  1.00 20.00     0.074 C 
HETATM    3  C3  UNL     1     -33.524  16.281  -3.283  1.00 20.00     0.042 A 
HETATM    4  C4  UNL     1     -35.348  15.095  -2.968  1.00 20.00     0.029 A 
HETATM    5  C5  UNL     1     -34.837  16.499  -2.483  1.00 20.00    -0.039 A 
HETATM    6  C6  UNL     1     -34.083  14.964  -3.857  1.00 20.00     0.056 A 
HETATM    7  C7  UNL     1     -34.610  16.537  -0.969  1.00 20.00     0.015 C 
HETATM    8  C8  UNL     1     -35.622  17.726  -2.944  1.00 20.00     0.015 C 
HETATM    9  C9  UNL     1     -33.232  13.724  -3.681  1.00 20.00     0.041 C 
HETATM   10  N11 UNL     1     -34.498  15.134  -5.263  1.00 20.00    -0.276 NA
ENDROOT
BRANCH   1  11
HETATM   11  S12 UNL     1     -36.723  15.263  -6.743  1.00 20.00    -0.119 SA
HETATM   12  C10 UNL     1     -35.578  14.502  -7.917  1.00 20.00     0.097 C 
ENDBRANCH   1  11
TORSDOF 1
ENDMDL
MODEL 2
REMARK VINA RESULT:      -4.4      2.121      4.189
REMARK  1 active torsions:
REMARK  status: ('A' for Active; 'I' for Inactive)
REMARK    1  A    between atoms: C1_1  and  S12_12 
ROOT
HETATM    1  C1  UNL     1     -34.069  16.578  -3.108  1.00 20.00     0.066 C 
HETATM    2  C2  UNL     1     -33.610  16.790  -4.513  1.00 20.00     0.074 C 
HETATM    3  C3  UNL     1     -35.592  14.144  -4.621  1.00 20.00     0.042 A 
HETATM    4  C4  UNL     1     -33.944  15.477  -5.201  1.00 20.00     0.029 A 
HETATM    5  C5  UNL     1     -35.381  15.177  -5.760  1.00 20.00    -0.039 A 
HETATM    6  C6  UNL     1     -34.235  14.534  -4.004  1.00 20.00     0.056 A 
HETATM    7  C7  UNL     1     -35.334  14.530  -7.148  1.00 20.00     0.015 C 
HETATM    8  C8  UNL     1     -36.395  16.319  -5.729  1.00 20.00     0.015 C 
HETATM    9  C9  UNL     1     -33.252  13.411  -3.745  1.00 20.00     0.041 C 
HETATM   10  N11 UNL     1     -34.420  15.371  -2.803  1.00 20.00    -0.276 NA
ENDROOT
BRANCH   1  11
HETATM   11  S12 UNL     1     -34.098  17.902  -1.997  1.00 20.00    -0.119 SA
HETATM   12  C10 UNL     1     -34.580  17.024  -0.492  1.00 20.00     0.097 C 
ENDBRANCH   1  11
TORSDOF 1
ENDMDL
MODEL 3
REMARK VINA RESULT:      -4.4      2.721      4.561
REMARK  1 active torsions:
REMARK  status: ('A' for Active; 'I' for Inactive)
REMARK    1  A    between atoms: C1_1  and  S12_12 
ROOT
HETATM    1  C1  UNL     1     -34.118  17.187  -2.231  1.00 20.00     0.066 C 
HETATM    2  C2  UNL     1     -34.814  15.888  -1.992  1.00 20.00     0.074 C 
HETATM    3  C3  UNL     1     -33.848  15.805  -5.155  1.00 20.00     0.042 A 
HETATM    4  C4  UNL     1     -35.086  15.365  -3.393  1.00 20.00     0.029 A 
HETATM    5  C5  UNL     1     -33.996  14.582  -4.210  1.00 20.00    -0.039 A 
HETATM    6  C6  UNL     1     -34.822  16.613  -4.276  1.00 20.00     0.056 A 
HETATM    7  C7  UNL     1     -34.578  13.354  -4.915  1.00 20.00     0.015 C 
HETATM    8  C8  UNL     1     -32.700  14.227  -3.484  1.00 20.00     0.015 C 
HETATM    9  C9  UNL     1     -36.013  17.240  -4.971  1.00 20.00     0.041 C 
HETATM   10  N11 UNL     1     -34.098  17.603  -3.455  1.00 20.00    -0.276 NA
ENDROOT
BRANCH   1  11
HETATM   11  S12 UNL     1     -33.407  18.044  -0.909  1.00 20.00    -0.119 SA
HETATM   12  C10 UNL     1     -34.638  17.702   0.371  1.00 20.00     0.097 C 
ENDBRANCH   1  11
TORSDOF 1
ENDMDL
MODEL 4
REMARK VINA RESULT:      -4.4      2.415      4.309
REMARK  1 active torsions:
REMARK  status: ('A' for Active; 'I' for Inactive)
REMARK    1  A    between atoms: C1_1  and  S12_12 
ROOT
HETATM    1  C1  UNL     1     -35.069  16.072  -2.334  1.00 20.00     0.066 C 
HETATM    2  C2  UNL     1     -34.251  15.008  -2.987  1.00 20.00     0.074 C 
HETATM    3  C3  UNL     1     -36.049  16.357  -5.415  1.00 20.00     0.042 A 
HETATM    4  C4  UNL     1     -34.935  14.804  -4.329  1.00 20.00     0.029 A 
HETATM    5  C5  UNL     1     -34.635  15.732  -5.561  1.00 20.00    -0.039 A 
HETATM    6  C6  UNL     1     -36.288  15.537  -4.132  1.00 20.00     0.056 A 
HETATM    7  C7  UNL     1     -34.471  14.933  -6.856  1.00 20.00     0.015 C 
HETATM    8  C8  UNL     1     -33.510  16.754  -5.408  1.00 20.00     0.015 C 
HETATM    9  C9  UNL     1     -37.541  14.688  -4.086  1.00 20.00     0.041 C 
HETATM   10  N11 UNL     1     -36.172  16.387  -2.931  1.00 20.00    -0.276 NA
ENDROOT
BRANCH   1  11
HETATM   11  S12 UNL     1     -34.527  16.798  -0.862  1.00 20.00    -0.119 SA
HETATM   12  C10 UNL     1     -33.639  18.221  -1.535  1.00 20.00     0.097 C 
ENDBRANCH   1  11
TORSDOF 1
ENDMDL
MODEL 5
REMARK VINA RESULT:      -4.3      2.062      3.136
REMARK  1 active torsions:
REMARK  status: ('A' for Active; 'I' for Inactive)
REMARK    1  A    between atoms: C1_1  and  S12_12 
ROOT
HETATM    1  C1  UNL     1     -35.359  16.001  -3.369  1.00 20.00     0.066 C 
HETATM    2  C2  UNL     1     -34.092  15.682  -2.649  1.00 20.00     0.074 C 
HETATM    3  C3  UNL     1     -34.744  18.844  -1.930  1.00 20.00     0.042 A 
HETATM    4  C4  UNL     1     -33.530  17.047  -2.290  1.00 20.00     0.029 A 
HETATM    5  C5  UNL     1     -34.009  17.829  -1.014  1.00 20.00    -0.039 A 
HETATM    6  C6  UNL     1     -34.380  18.003  -3.169  1.00 20.00     0.056 A 
HETATM    7  C7  UNL     1     -32.838  18.457  -0.252  1.00 20.00     0.015 C 
HETATM    8  C8  UNL     1     -34.947  17.097  -0.057  1.00 20.00     0.015 C 
HETATM    9  C9  UNL     1     -33.676  18.720  -4.301  1.00 20.00     0.041 C 
HETATM   10  N11 UNL     1     -35.550  17.247  -3.659  1.00 20.00    -0.276 NA
ENDROOT
BRANCH   1  11
HETATM   11  S12 UNL     1     -36.467  14.736  -3.775  1.00 20.00    -0.119 SA
HETATM   12  C10 UNL     1     -35.295  13.468  -4.309  1.00 20.00     0.097 C 
ENDBRANCH   1  11
TORSDOF 1
ENDMDL
MODEL 6
REMARK VINA RESULT:      -4.3      2.455      4.166
REMARK  1 active torsions:
REMARK  status: ('A' for Active; 'I' for Inactive)
REMARK    1  A    between atoms: C1_1  and  S12_12 
ROOT
HETATM    1  C1  UNL     1     -34.650  16.000  -2.402  1.00 20.00     0.066 C 
HETATM    2  C2  UNL     1     -33.496  16.235  -3.319  1.00 20.00     0.074 C 
HETATM    3  C3  UNL     1     -36.044  15.465  -5.284  1.00 20.00     0.042 A 
HETATM    4  C4  UNL     1     -33.950  15.618  -4.632  1.00 20.00     0.029 A 
HETATM    5  C5  UNL     1     -34.859  16.403  -5.644  1.00 20.00    -0.039 A 
HETATM    6  C6  UNL     1     -35.185  14.783  -4.201  1.00 20.00     0.056 A 
HETATM    7  C7  UNL     1     -34.387  16.234  -7.091  1.00 20.00     0.015 C 
HETATM    8  C8  UNL     1     -35.143  17.872  -5.335  1.00 20.00     0.015 C 
HETATM    9  C9  UNL     1     -35.065  13.274  -4.272  1.00 20.00     0.041 C 
HETATM   10  N11 UNL     1     -35.584  15.226  -2.851  1.00 20.00    -0.276 NA
ENDROOT
BRANCH   1  11
HETATM   11  S12 UNL     1     -34.679  16.739  -0.839  1.00 20.00    -0.119 SA
HETATM   12  C10 UNL     1     -33.390  17.986  -1.071  1.00 20.00     0.097 C 
ENDBRANCH   1  11
TORSDOF 1
ENDMDL
MODEL 7
REMARK VINA RESULT:      -4.3      2.172      3.539
REMARK  1 active torsions:
REMARK  status: ('A' for Active; 'I' for Inactive)
REMARK    1  A    between atoms: C1_1  and  S12_12 
ROOT
HETATM    1  C1  UNL     1     -34.714  17.781  -4.598  1.00 20.00     0.066 C 
HETATM    2  C2  UNL     1     -33.394  17.108  -4.776  1.00 20.00     0.074 C 
HETATM    3  C3  UNL     1     -35.324  14.882  -3.273  1.00 20.00     0.042 A 
HETATM    4  C4  UNL     1     -33.469  15.917  -3.835  1.00 20.00     0.029 A 
HETATM    5  C5  UNL     1     -34.163  14.573  -4.256  1.00 20.00    -0.039 A 
HETATM    6  C6  UNL     1     -34.704  16.257  -2.959  1.00 20.00     0.056 A 
HETATM    7  C7  UNL     1     -33.344  13.347  -3.840  1.00 20.00     0.015 C 
HETATM    8  C8  UNL     1     -34.625  14.448  -5.707  1.00 20.00     0.015 C 
HETATM    9  C9  UNL     1     -34.456  16.581  -1.501  1.00 20.00     0.041 C 
HETATM   10  N11 UNL     1     -35.449  17.340  -3.630  1.00 20.00    -0.276 NA
ENDROOT
BRANCH   1  11
HETATM   11  S12 UNL     1     -35.175  19.074  -5.648  1.00 20.00    -0.119 SA
HETATM   12  C10 UNL     1     -33.730  19.113  -6.733  1.00 20.00     0.097 C 
ENDBRANCH   1  11
TORSDOF 1
ENDMDL
MODEL 8
REMARK VINA RESULT:      -4.3      1.629      2.764
REMARK  1 active torsions:
REMARK  status: ('A' for Active; 'I' for Inactive)
REMARK    1  A    between atoms: C1_1  and  S12_12 
ROOT
HETATM    1  C1  UNL     1     -36.738  15.759  -4.799  1.00 20.00     0.066 C 
HETATM    2  C2  UNL     1     -36.215  14.531  -4.132  1.00 20.00     0.074 C 
HETATM    3  C3  UNL     1     -33.540  16.280  -4.986  1.00 20.00     0.042 A 
HETATM    4  C4  UNL     1     -34.750  14.501  -4.533  1.00 20.00     0.029 A 
HETATM    5  C5  UNL     1     -33.663  15.333  -3.762  1.00 20.00    -0.039 A 
HETATM    6  C6  UNL     1     -34.696  15.539  -5.686  1.00 20.00     0.056 A 
HETATM    7  C7  UNL     1     -32.389  14.520  -3.511  1.00 20.00     0.015 C 
HETATM    8  C8  UNL     1     -34.107  16.053  -2.490  1.00 20.00     0.015 C 
HETATM    9  C9  UNL     1     -34.429  15.016  -7.083  1.00 20.00     0.041 C 
HETATM   10  N11 UNL     1     -35.940  16.332  -5.640  1.00 20.00    -0.276 NA
ENDROOT
BRANCH   1  11
HETATM   11  S12 UNL     1     -38.330  16.330  -4.438  1.00 20.00    -0.119 SA
HETATM   12  C10 UNL     1     -39.152  14.752  -4.117  1.00 20.00     0.097 C 
ENDBRANCH   1  11
TORSDOF 1
ENDMDL
MODEL 9
REMARK VINA RESULT:      -4.2      1.757      1.847
REMARK  1 active torsions:
REMARK  status: ('A' for Active; 'I' for Inactive)
REMARK    1  A    between atoms: C1_1  and  S12_12 
ROOT
HETATM    1  C1  UNL     1     -35.001  16.053  -6.158  1.00 20.00     0.066 C 
HETATM    2  C2  UNL     1     -35.960  16.523  -5.116  1.00 20.00     0.074 C 
HETATM    3  C3  UNL     1     -33.415  15.220  -3.451  1.00 20.00     0.042 A 
HETATM    4  C4  UNL     1     -35.491  15.817  -3.853  1.00 20.00     0.029 A 
HETATM    5  C5  UNL     1     -34.322  16.386  -2.973  1.00 20.00    -0.039 A 
HETATM    6  C6  UNL     1     -34.522  14.740  -4.410  1.00 20.00     0.056 A 
HETATM    7  C7  UNL     1     -34.641  16.314  -1.477  1.00 20.00     0.015 C 
HETATM    8  C8  UNL     1     -33.773  17.762  -3.345  1.00 20.00     0.015 C 
HETATM    9  C9  UNL     1     -34.949  13.292  -4.294  1.00 20.00     0.041 C 
HETATM   10  N11 UNL     1     -34.205  15.096  -5.807  1.00 20.00    -0.276 NA
ENDROOT
BRANCH   1  11
HETATM   11  S12 UNL     1     -35.005  16.776  -7.728  1.00 20.00    -0.119 SA
HETATM   12  C10 UNL     1     -34.306  18.392  -7.319  1.00 20.00     0.097 C 
ENDBRANCH   1  11
TORSDOF 1
ENDMDL
