MODEL 1
REMARK VINA RESULT:      -3.3      0.000      0.000
REMARK  0 active torsions:
REMARK  status: ('A' for Active; 'I' for Inactive)
ROOT
HETATM    1  C1  UNL     1     -34.546  13.693  -4.219  1.00 20.00     0.084 C 
HETATM    2  C2  UNL     1     -34.584  15.598  -2.654  1.00 20.00     0.048 C 
HETATM    3  C3  UNL     1     -33.987  15.938  -5.073  1.00 20.00     0.048 C 
HETATM    4  C4  UNL     1     -33.919  14.981  -3.884  1.00 20.00     0.118 C 
HETATM    5  N5  UNL     1     -35.044  12.679  -4.485  1.00 20.00    -0.195 NA
HETATM    6 CL6  UNL     1     -32.198  14.648  -3.507  1.00 20.00    -0.104 Cl
ENDROOT
TORSDOF 0
ENDMDL
MODEL 2
REMARK VINA RESULT:      -3.2      1.356      1.884
REMARK  0 active torsions:
REMARK  status: ('A' for Active; 'I' for Inactive)
ROOT
HETATM    1  C1  UNL     1     -34.528  13.705  -4.183  1.00 20.00     0.084 C 
HETATM    2  C2  UNL     1     -32.386  14.763  -3.574  1.00 20.00     0.048 C 
HETATM    3  C3  UNL     1     -34.554  15.624  -2.634  1.00 20.00     0.048 C 
HETATM    4  C4  UNL     1     -33.875  14.978  -3.841  1.00 20.00     0.118 C 
HETATM    5  N5  UNL     1     -35.042  12.699  -4.449  1.00 20.00    -0.195 NA
HETATM    6 CL6  UNL     1     -34.060  16.063  -5.258  1.00 20.00    -0.104 Cl
ENDROOT
TORSDOF 0
ENDMDL
MODEL 3
REMARK VINA RESULT:      -3.2     12.168     12.734
REMARK  0 active torsions:
REMARK  status: ('A' for Active; 'I' for Inactive)
ROOT
HETATM    1  C1  UNL     1     -33.274   5.800   3.983  1.00 20.00     0.084 C 
HETATM    2  C2  UNL     1     -34.385   6.320   6.122  1.00 20.00     0.048 C 
HETATM    3  C3  UNL     1     -34.305   3.959   5.259  1.00 20.00     0.048 C 
HETATM    4  C4  UNL     1     -34.385   5.436   4.876  1.00 20.00     0.118 C 
HETATM    5  N5  UNL     1     -32.394   6.086   3.283  1.00 20.00    -0.195 NA
HETATM    6 CL6  UNL     1     -35.905   5.716   3.966  1.00 20.00    -0.104 Cl
ENDROOT
TORSDOF 0
ENDMDL
MODEL 4
REMARK VINA RESULT:      -3.1      2.137      2.520
REMARK  0 active torsions:
REMARK  status: ('A' for Active; 'I' for Inactive)
ROOT
HETATM    1  C1  UNL     1     -36.506  14.611  -3.746  1.00 20.00     0.084 C 
HETATM    2  C2  UNL     1     -34.710  15.911  -4.824  1.00 20.00     0.048 C 
HETATM    3  C3  UNL     1     -34.208  13.721  -3.695  1.00 20.00     0.048 C 
HETATM    4  C4  UNL     1     -35.082  14.974  -3.676  1.00 20.00     0.118 C 
HETATM    5  N5  UNL     1     -37.629  14.324  -3.804  1.00 20.00    -0.195 NA
HETATM    6 CL6  UNL     1     -34.831  15.832  -2.121  1.00 20.00    -0.104 Cl
ENDROOT
TORSDOF 0
ENDMDL
MODEL 5
REMARK VINA RESULT:      -3.1      1.816      2.037
REMARK  0 active torsions:
REMARK  status: ('A' for Active; 'I' for Inactive)
ROOT
HETATM    1  C1  UNL     1     -34.746  13.809  -5.047  1.00 20.00     0.084 C 
HETATM    2  C2  UNL     1     -35.973  15.916  -5.419  1.00 20.00     0.048 C 
HETATM    3  C3  UNL     1     -34.421  15.007  -7.177  1.00 20.00     0.048 C 
HETATM    4  C4  UNL     1     -34.683  15.137  -5.677  1.00 20.00     0.118 C 
HETATM    5  N5  UNL     1     -34.800  12.761  -4.552  1.00 20.00    -0.195 NA
HETATM    6 CL6  UNL     1     -33.314  16.015  -4.923  1.00 20.00    -0.104 Cl
ENDROOT
TORSDOF 0
ENDMDL
MODEL 6
REMARK VINA RESULT:      -3.1      2.134      2.567
REMARK  0 active torsions:
REMARK  status: ('A' for Active; 'I' for Inactive)
ROOT
HETATM    1  C1  UNL     1     -36.490  14.643  -3.707  1.00 20.00     0.084 C 
HETATM    2  C2  UNL     1     -34.182  13.778  -3.654  1.00 20.00     0.048 C 
HETATM    3  C3  UNL     1     -34.826  15.798  -2.301  1.00 20.00     0.048 C 
HETATM    4  C4  UNL     1     -35.072  15.018  -3.592  1.00 20.00     0.118 C 
HETATM    5  N5  UNL     1     -37.608  14.344  -3.795  1.00 20.00    -0.195 NA
HETATM    6 CL6  UNL     1     -34.691  16.077  -4.989  1.00 20.00    -0.104 Cl
ENDROOT
TORSDOF 0
ENDMDL
MODEL 7
REMARK VINA RESULT:      -3.0      2.248      2.750
REMARK  0 active torsions:
REMARK  status: ('A' for Active; 'I' for Inactive)
ROOT
HETATM    1  C1  UNL     1     -34.770  13.797  -5.007  1.00 20.00     0.084 C 
HETATM    2  C2  UNL     1     -34.383  15.038  -7.102  1.00 20.00     0.048 C 
HETATM    3  C3  UNL     1     -33.485  15.899  -4.917  1.00 20.00     0.048 C 
HETATM    4  C4  UNL     1     -34.622  15.137  -5.596  1.00 20.00     0.118 C 
HETATM    5  N5  UNL     1     -34.883  12.739  -4.544  1.00 20.00    -0.195 NA
HETATM    6 CL6  UNL     1     -36.160  16.014  -5.308  1.00 20.00    -0.104 Cl
ENDROOT
TORSDOF 0
ENDMDL
MODEL 8
REMARK VINA RESULT:      -3.0      1.918      1.930
REMARK  0 active torsions:
REMARK  status: ('A' for Active; 'I' for Inactive)
ROOT
HETATM    1  C1  UNL     1     -36.511  14.699  -3.668  1.00 20.00     0.084 C 
HETATM    2  C2  UNL     1     -34.885  15.848  -2.213  1.00 20.00     0.048 C 
HETATM    3  C3  UNL     1     -34.714  16.023  -4.717  1.00 20.00     0.048 C 
HETATM    4  C4  UNL     1     -35.109  15.128  -3.543  1.00 20.00     0.118 C 
HETATM    5  N5  UNL     1     -37.618  14.365  -3.767  1.00 20.00    -0.195 NA
HETATM    6 CL6  UNL     1     -34.099  13.647  -3.579  1.00 20.00    -0.104 Cl
ENDROOT
TORSDOF 0
ENDMDL
MODEL 9
REMARK VINA RESULT:      -3.0     12.315     12.941
REMARK  0 active torsions:
REMARK  status: ('A' for Active; 'I' for Inactive)
ROOT
HETATM    1  C1  UNL     1     -34.203   6.186   5.736  1.00 20.00     0.084 C 
HETATM    2  C2  UNL     1     -35.789   5.768   3.894  1.00 20.00     0.048 C 
HETATM    3  C3  UNL     1     -34.654   3.855   5.068  1.00 20.00     0.048 C 
HETATM    4  C4  UNL     1     -34.516   5.304   4.601  1.00 20.00     0.118 C 
HETATM    5  N5  UNL     1     -33.961   6.881   6.633  1.00 20.00    -0.195 NA
HETATM    6 CL6  UNL     1     -33.142   5.414   3.453  1.00 20.00    -0.104 Cl
ENDROOT
TORSDOF 0
ENDMDL
