MODEL 1
REMARK VINA RESULT:      -3.4      0.000      0.000
REMARK  1 active torsions:
REMARK  status: ('A' for Active; 'I' for Inactive)
REMARK    1  A    between atoms: C3_3  and  C5_5 
ROOT
HETATM    1  C1  UNL     1     -35.610  13.933  -4.447  1.00 20.00     0.179 C 
HETATM    2  C2  UNL     1     -33.642  13.511  -3.991  1.00 20.00     0.179 C 
HETATM    3  C3  UNL     1     -34.426  14.835  -4.053  1.00 20.00     0.011 C 
HETATM    4  C4  UNL     1     -34.593  15.520  -2.701  1.00 20.00     0.020 C 
HETATM    5  O6  UNL     1     -34.861  12.739  -4.113  1.00 20.00    -0.389 OA
ENDROOT
BRANCH   3   6
HETATM    6  C5  UNL     1     -33.968  15.798  -5.139  1.00 20.00     0.128 C 
HETATM    7 CL7  UNL     1     -34.320  15.127  -6.743  1.00 20.00    -0.130 Cl
ENDBRANCH   3   6
TORSDOF 1
ENDMDL
MODEL 2
REMARK VINA RESULT:      -3.4     12.647     13.313
REMARK  1 active torsions:
REMARK  status: ('A' for Active; 'I' for Inactive)
REMARK    1  A    between atoms: C3_3  and  C5_5 
ROOT
HETATM    1  C1  UNL     1     -35.544   5.456   4.088  1.00 20.00     0.179 C 
HETATM    2  C2  UNL     1     -33.491   5.644   4.190  1.00 20.00     0.179 C 
HETATM    3  C3  UNL     1     -34.528   5.088   5.184  1.00 20.00     0.011 C 
HETATM    4  C4  UNL     1     -34.403   3.589   5.435  1.00 20.00     0.020 C 
HETATM    5  O6  UNL     1     -34.482   5.713   3.136  1.00 20.00    -0.389 OA
ENDROOT
BRANCH   3   6
HETATM    6  C5  UNL     1     -34.664   5.883   6.475  1.00 20.00     0.128 C 
HETATM    7 CL7  UNL     1     -33.392   7.115   6.575  1.00 20.00    -0.130 Cl
ENDBRANCH   3   6
TORSDOF 1
ENDMDL
MODEL 3
REMARK VINA RESULT:      -3.4     12.373     12.903
REMARK  1 active torsions:
REMARK  status: ('A' for Active; 'I' for Inactive)
REMARK    1  A    between atoms: C3_3  and  C5_5 
ROOT
HETATM    1  C1  UNL     1     -34.427   4.365   5.513  1.00 20.00     0.179 C 
HETATM    2  C2  UNL     1     -34.183   6.407   5.678  1.00 20.00     0.179 C 
HETATM    3  C3  UNL     1     -34.399   5.488   4.461  1.00 20.00     0.011 C 
HETATM    4  C4  UNL     1     -35.731   5.705   3.751  1.00 20.00     0.020 C 
HETATM    5  O6  UNL     1     -34.479   5.326   6.596  1.00 20.00    -0.389 OA
ENDROOT
BRANCH   3   6
HETATM    6  C5  UNL     1     -33.227   5.426   3.492  1.00 20.00     0.128 C 
HETATM    7 CL7  UNL     1     -32.290   6.931   3.564  1.00 20.00    -0.130 Cl
ENDBRANCH   3   6
TORSDOF 1
ENDMDL
MODEL 4
REMARK VINA RESULT:      -3.3      1.941      2.548
REMARK  1 active torsions:
REMARK  status: ('A' for Active; 'I' for Inactive)
REMARK    1  A    between atoms: C3_3  and  C5_5 
ROOT
HETATM    1  C1  UNL     1     -33.713  13.418  -4.211  1.00 20.00     0.179 C 
HETATM    2  C2  UNL     1     -35.617  14.187  -4.005  1.00 20.00     0.179 C 
HETATM    3  C3  UNL     1     -34.272  14.843  -4.371  1.00 20.00     0.011 C 
HETATM    4  C4  UNL     1     -34.212  15.375  -5.799  1.00 20.00     0.020 C 
HETATM    5  O6  UNL     1     -35.048  12.861  -4.131  1.00 20.00    -0.389 OA
ENDROOT
BRANCH   3   6
HETATM    6  C5  UNL     1     -33.755  15.850  -3.353  1.00 20.00     0.128 C 
HETATM    7 CL7  UNL     1     -34.817  15.887  -1.932  1.00 20.00    -0.130 Cl
ENDBRANCH   3   6
TORSDOF 1
ENDMDL
MODEL 5
REMARK VINA RESULT:      -3.3      2.234      2.810
REMARK  1 active torsions:
REMARK  status: ('A' for Active; 'I' for Inactive)
REMARK    1  A    between atoms: C3_3  and  C5_5 
ROOT
HETATM    1  C1  UNL     1     -33.039  15.071  -3.709  1.00 20.00     0.179 C 
HETATM    2  C2  UNL     1     -34.096  16.708  -4.390  1.00 20.00     0.179 C 
HETATM    3  C3  UNL     1     -34.380  15.689  -3.271  1.00 20.00     0.011 C 
HETATM    4  C4  UNL     1     -34.356  16.288  -1.869  1.00 20.00     0.020 C 
HETATM    5  O6  UNL     1     -32.744  16.212  -4.551  1.00 20.00    -0.389 OA
ENDROOT
BRANCH   3   6
HETATM    6  C5  UNL     1     -35.597  14.806  -3.505  1.00 20.00     0.128 C 
HETATM    7 CL7  UNL     1     -35.104  13.256  -4.215  1.00 20.00    -0.130 Cl
ENDBRANCH   3   6
TORSDOF 1
ENDMDL
MODEL 6
REMARK VINA RESULT:      -3.3     12.559     13.129
REMARK  1 active torsions:
REMARK  status: ('A' for Active; 'I' for Inactive)
REMARK    1  A    between atoms: C3_3  and  C5_5 
ROOT
HETATM    1  C1  UNL     1     -35.514   5.070   4.602  1.00 20.00     0.179 C 
HETATM    2  C2  UNL     1     -33.981   4.021   5.500  1.00 20.00     0.179 C 
HETATM    3  C3  UNL     1     -34.164   5.518   5.192  1.00 20.00     0.011 C 
HETATM    4  C4  UNL     1     -34.292   6.395   6.433  1.00 20.00     0.020 C 
HETATM    5  O6  UNL     1     -35.361   3.742   5.160  1.00 20.00    -0.389 OA
ENDROOT
BRANCH   3   6
HETATM    6  C5  UNL     1     -33.182   6.087   4.177  1.00 20.00     0.128 C 
HETATM    7 CL7  UNL     1     -33.626   5.574   2.538  1.00 20.00    -0.130 Cl
ENDBRANCH   3   6
TORSDOF 1
ENDMDL
MODEL 7
REMARK VINA RESULT:      -3.2      2.633      3.148
REMARK  1 active torsions:
REMARK  status: ('A' for Active; 'I' for Inactive)
REMARK    1  A    between atoms: C3_3  and  C5_5 
ROOT
HETATM    1  C1  UNL     1     -34.111  16.066  -5.131  1.00 20.00     0.179 C 
HETATM    2  C2  UNL     1     -32.893  15.309  -3.646  1.00 20.00     0.179 C 
HETATM    3  C3  UNL     1     -34.325  14.954  -4.088  1.00 20.00     0.011 C 
HETATM    4  C4  UNL     1     -34.460  13.559  -4.688  1.00 20.00     0.020 C 
HETATM    5  O6  UNL     1     -32.699  16.145  -4.813  1.00 20.00    -0.389 OA
ENDROOT
BRANCH   3   6
HETATM    6  C5  UNL     1     -35.404  15.248  -3.054  1.00 20.00     0.128 C 
HETATM    7 CL7  UNL     1     -34.707  16.107  -1.667  1.00 20.00    -0.130 Cl
ENDBRANCH   3   6
TORSDOF 1
ENDMDL
MODEL 8
REMARK VINA RESULT:      -3.2      1.889      2.071
REMARK  1 active torsions:
REMARK  status: ('A' for Active; 'I' for Inactive)
REMARK    1  A    between atoms: C3_3  and  C5_5 
ROOT
HETATM    1  C1  UNL     1     -34.968  13.873  -5.597  1.00 20.00     0.179 C 
HETATM    2  C2  UNL     1     -34.474  13.495  -3.629  1.00 20.00     0.179 C 
HETATM    3  C3  UNL     1     -35.277  14.630  -4.292  1.00 20.00     0.011 C 
HETATM    4  C4  UNL     1     -36.755  14.643  -3.919  1.00 20.00     0.020 C 
HETATM    5  O6  UNL     1     -34.460  12.733  -4.860  1.00 20.00    -0.389 OA
ENDROOT
BRANCH   3   6
HETATM    6  C5  UNL     1     -34.639  16.008  -4.188  1.00 20.00     0.128 C 
HETATM    7 CL7  UNL     1     -33.642  16.115  -2.724  1.00 20.00    -0.130 Cl
ENDBRANCH   3   6
TORSDOF 1
ENDMDL
MODEL 9
REMARK VINA RESULT:      -3.1      1.946      2.481
REMARK  1 active torsions:
REMARK  status: ('A' for Active; 'I' for Inactive)
REMARK    1  A    between atoms: C3_3  and  C5_5 
ROOT
HETATM    1  C1  UNL     1     -33.446  14.535  -3.846  1.00 20.00     0.179 C 
HETATM    2  C2  UNL     1     -34.832  13.228  -4.640  1.00 20.00     0.179 C 
HETATM    3  C3  UNL     1     -34.663  14.754  -4.763  1.00 20.00     0.011 C 
HETATM    4  C4  UNL     1     -34.302  15.225  -6.168  1.00 20.00     0.020 C 
HETATM    5  O6  UNL     1     -33.538  13.097  -4.002  1.00 20.00    -0.389 OA
ENDROOT
BRANCH   3   6
HETATM    6  C5  UNL     1     -35.789  15.572  -4.147  1.00 20.00     0.128 C 
HETATM    7 CL7  UNL     1     -37.229  14.561  -3.917  1.00 20.00    -0.130 Cl
ENDBRANCH   3   6
TORSDOF 1
ENDMDL
