MODEL 1
REMARK VINA RESULT:      -5.1      0.000      0.000
REMARK  1 active torsions:
REMARK  status: ('A' for Active; 'I' for Inactive)
REMARK    1  A    between atoms: C3_3  and  C7_7 
ROOT
HETATM    1  C1  UNL     1     -33.849  17.542  -3.177  1.00 20.00    -0.082 C 
HETATM    2  C2  UNL     1     -34.276  16.527  -2.394  1.00 20.00    -0.081 C 
HETATM    3  C4  UNL     1     -33.524  17.345  -4.643  1.00 20.00     0.035 C 
HETATM    4  C5  UNL     1     -34.510  15.132  -2.942  1.00 20.00     0.050 C 
HETATM    5  C6  UNL     1     -33.452  15.883  -5.085  1.00 20.00     0.021 C 
HETATM    6  C7  UNL     1     -34.577  15.036  -4.479  1.00 20.00     0.013 C 
HETATM    7  C8  UNL     1     -33.663  18.964  -2.714  1.00 20.00     0.043 C 
HETATM    8  C9  UNL     1     -34.546  16.637  -0.916  1.00 20.00     0.043 C 
HETATM    9  C10 UNL     1     -35.955  15.462  -5.007  1.00 20.00     0.023 C 
ENDROOT
BRANCH   6  10
HETATM   10  C3  UNL     1     -34.364  13.594  -4.864  1.00 20.00     0.240 C 
HETATM   11  O11 UNL     1     -35.030  12.668  -4.413  1.00 20.00    -0.306 OA
ENDBRANCH   6  10
TORSDOF 1
ENDMDL
MODEL 2
REMARK VINA RESULT:      -4.8      0.923      2.405
REMARK  1 active torsions:
REMARK  status: ('A' for Active; 'I' for Inactive)
REMARK    1  A    between atoms: C3_3  and  C7_7 
ROOT
HETATM    1  C1  UNL     1     -33.863  17.566  -2.785  1.00 20.00    -0.082 C 
HETATM    2  C2  UNL     1     -33.912  17.391  -4.124  1.00 20.00    -0.081 C 
HETATM    3  C4  UNL     1     -34.304  16.488  -1.817  1.00 20.00     0.035 C 
HETATM    4  C5  UNL     1     -34.361  16.083  -4.749  1.00 20.00     0.050 C 
HETATM    5  C6  UNL     1     -35.051  15.322  -2.464  1.00 20.00     0.021 C 
HETATM    6  C7  UNL     1     -34.410  14.881  -3.785  1.00 20.00     0.013 C 
HETATM    7  C8  UNL     1     -33.362  18.811  -2.100  1.00 20.00     0.043 C 
HETATM    8  C9  UNL     1     -33.559  18.444  -5.141  1.00 20.00     0.043 C 
HETATM    9  C10 UNL     1     -33.012  14.282  -3.565  1.00 20.00     0.023 C 
ENDROOT
BRANCH   6  10
HETATM   10  C3  UNL     1     -35.272  13.815  -4.414  1.00 20.00     0.240 C 
HETATM   11  O11 UNL     1     -34.953  12.632  -4.467  1.00 20.00    -0.306 OA
ENDBRANCH   6  10
TORSDOF 1
ENDMDL
MODEL 3
REMARK VINA RESULT:      -4.6      1.882      2.936
REMARK  1 active torsions:
REMARK  status: ('A' for Active; 'I' for Inactive)
REMARK    1  A    between atoms: C3_3  and  C7_7 
ROOT
HETATM    1  C1  UNL     1     -33.746  14.860  -3.500  1.00 20.00    -0.082 C 
HETATM    2  C2  UNL     1     -34.409  15.796  -2.787  1.00 20.00    -0.081 C 
HETATM    3  C4  UNL     1     -34.464  13.882  -4.407  1.00 20.00     0.035 C 
HETATM    4  C5  UNL     1     -35.913  15.968  -2.887  1.00 20.00     0.050 C 
HETATM    5  C6  UNL     1     -35.983  13.860  -4.239  1.00 20.00     0.021 C 
HETATM    6  C7  UNL     1     -36.572  15.269  -4.091  1.00 20.00     0.013 C 
HETATM    7  C8  UNL     1     -32.250  14.681  -3.502  1.00 20.00     0.043 C 
HETATM    8  C9  UNL     1     -33.766  16.749  -1.813  1.00 20.00     0.043 C 
HETATM    9  C10 UNL     1     -36.405  16.091  -5.378  1.00 20.00     0.023 C 
ENDROOT
BRANCH   6  10
HETATM   10  C3  UNL     1     -38.050  15.152  -3.810  1.00 20.00     0.240 C 
HETATM   11  O11 UNL     1     -38.662  14.090  -3.841  1.00 20.00    -0.306 OA
ENDBRANCH   6  10
TORSDOF 1
ENDMDL
MODEL 4
REMARK VINA RESULT:      -4.5     11.579     12.924
REMARK  1 active torsions:
REMARK  status: ('A' for Active; 'I' for Inactive)
REMARK    1  A    between atoms: C3_3  and  C7_7 
ROOT
HETATM    1  C1  UNL     1     -34.584   5.287   5.312  1.00 20.00    -0.082 C 
HETATM    2  C2  UNL     1     -33.869   6.401   5.583  1.00 20.00    -0.081 C 
HETATM    3  C4  UNL     1     -34.779   4.782   3.897  1.00 20.00     0.035 C 
HETATM    4  C5  UNL     1     -33.167   7.192   4.495  1.00 20.00     0.050 C 
HETATM    5  C6  UNL     1     -34.347   5.764   2.808  1.00 20.00     0.021 C 
HETATM    6  C7  UNL     1     -33.023   6.461   3.146  1.00 20.00     0.013 C 
HETATM    7  C8  UNL     1     -35.247   4.418   6.349  1.00 20.00     0.043 C 
HETATM    8  C9  UNL     1     -33.698   6.998   6.955  1.00 20.00     0.043 C 
HETATM    9  C10 UNL     1     -31.850   5.470   3.167  1.00 20.00     0.023 C 
ENDROOT
BRANCH   6  10
HETATM   10  C3  UNL     1     -32.733   7.495   2.086  1.00 20.00     0.240 C 
HETATM   11  O11 UNL     1     -31.792   8.279   2.148  1.00 20.00    -0.306 OA
ENDBRANCH   6  10
TORSDOF 1
ENDMDL
MODEL 5
REMARK VINA RESULT:      -4.3      1.317      2.058
REMARK  1 active torsions:
REMARK  status: ('A' for Active; 'I' for Inactive)
REMARK    1  A    between atoms: C3_3  and  C7_7 
ROOT
HETATM    1  C1  UNL     1     -35.128  16.758  -2.365  1.00 20.00    -0.082 C 
HETATM    2  C2  UNL     1     -36.187  16.472  -3.155  1.00 20.00    -0.081 C 
HETATM    3  C4  UNL     1     -33.816  16.009  -2.477  1.00 20.00     0.035 C 
HETATM    4  C5  UNL     1     -36.117  15.416  -4.242  1.00 20.00     0.050 C 
HETATM    5  C6  UNL     1     -33.878  14.748  -3.340  1.00 20.00     0.021 C 
HETATM    6  C7  UNL     1     -34.695  14.959  -4.620  1.00 20.00     0.013 C 
HETATM    7  C8  UNL     1     -35.106  17.839  -1.316  1.00 20.00     0.043 C 
HETATM    8  C9  UNL     1     -37.539  17.126  -3.048  1.00 20.00     0.043 C 
HETATM    9  C10 UNL     1     -34.017  15.962  -5.566  1.00 20.00     0.023 C 
ENDROOT
BRANCH   6  10
HETATM   10  C3  UNL     1     -34.807  13.644  -5.350  1.00 20.00     0.240 C 
HETATM   11  O11 UNL     1     -34.840  12.557  -4.782  1.00 20.00    -0.306 OA
ENDBRANCH   6  10
TORSDOF 1
ENDMDL
MODEL 6
REMARK VINA RESULT:      -4.3      1.834      3.002
REMARK  1 active torsions:
REMARK  status: ('A' for Active; 'I' for Inactive)
REMARK    1  A    between atoms: C3_3  and  C7_7 
ROOT
HETATM    1  C1  UNL     1     -34.463  16.990  -6.899  1.00 20.00    -0.082 C 
HETATM    2  C2  UNL     1     -34.165  17.105  -5.585  1.00 20.00    -0.081 C 
HETATM    3  C4  UNL     1     -35.021  15.711  -7.487  1.00 20.00     0.035 C 
HETATM    4  C5  UNL     1     -34.419  15.979  -4.601  1.00 20.00     0.050 C 
HETATM    5  C6  UNL     1     -34.958  14.503  -6.552  1.00 20.00     0.021 C 
HETATM    6  C7  UNL     1     -35.348  14.860  -5.113  1.00 20.00     0.013 C 
HETATM    7  C8  UNL     1     -34.302  18.090  -7.915  1.00 20.00     0.043 C 
HETATM    8  C9  UNL     1     -33.542  18.320  -4.950  1.00 20.00     0.043 C 
HETATM    9  C10 UNL     1     -36.825  15.267  -5.010  1.00 20.00     0.023 C 
ENDROOT
BRANCH   6  10
HETATM   10  C3  UNL     1     -35.143  13.650  -4.237  1.00 20.00     0.240 C 
HETATM   11  O11 UNL     1     -34.841  12.544  -4.673  1.00 20.00    -0.306 OA
ENDBRANCH   6  10
TORSDOF 1
ENDMDL
MODEL 7
REMARK VINA RESULT:      -4.3      2.129      3.940
REMARK  1 active torsions:
REMARK  status: ('A' for Active; 'I' for Inactive)
REMARK    1  A    between atoms: C3_3  and  C7_7 
ROOT
HETATM    1  C1  UNL     1     -34.441  15.246  -6.078  1.00 20.00    -0.082 C 
HETATM    2  C2  UNL     1     -34.343  16.549  -5.732  1.00 20.00    -0.081 C 
HETATM    3  C4  UNL     1     -34.393  14.136  -5.049  1.00 20.00     0.035 C 
HETATM    4  C5  UNL     1     -34.232  16.991  -4.284  1.00 20.00     0.050 C 
HETATM    5  C6  UNL     1     -33.956  14.582  -3.654  1.00 20.00     0.021 C 
HETATM    6  C7  UNL     1     -34.594  15.914  -3.243  1.00 20.00     0.013 C 
HETATM    7  C8  UNL     1     -34.623  14.744  -7.486  1.00 20.00     0.043 C 
HETATM    8  C9  UNL     1     -34.310  17.697  -6.707  1.00 20.00     0.043 C 
HETATM    9  C10 UNL     1     -36.116  15.785  -3.075  1.00 20.00     0.023 C 
ENDROOT
BRANCH   6  10
HETATM   10  C3  UNL     1     -34.021  16.341  -1.915  1.00 20.00     0.240 C 
HETATM   11  O11 UNL     1     -34.670  16.365  -0.875  1.00 20.00    -0.306 OA
ENDBRANCH   6  10
TORSDOF 1
ENDMDL
MODEL 8
REMARK VINA RESULT:      -4.3      1.779      2.529
REMARK  1 active torsions:
REMARK  status: ('A' for Active; 'I' for Inactive)
REMARK    1  A    between atoms: C3_3  and  C7_7 
ROOT
HETATM    1  C1  UNL     1     -34.813  15.953  -2.538  1.00 20.00    -0.082 C 
HETATM    2  C2  UNL     1     -35.863  16.260  -3.332  1.00 20.00    -0.081 C 
HETATM    3  C4  UNL     1     -33.699  15.036  -2.997  1.00 20.00     0.035 C 
HETATM    4  C5  UNL     1     -35.969  15.751  -4.758  1.00 20.00     0.050 C 
HETATM    5  C6  UNL     1     -33.992  14.284  -4.296  1.00 20.00     0.021 C 
HETATM    6  C7  UNL     1     -34.666  15.176  -5.345  1.00 20.00     0.013 C 
HETATM    7  C8  UNL     1     -34.610  16.480  -1.141  1.00 20.00     0.043 C 
HETATM    8  C9  UNL     1     -37.038  17.105  -2.914  1.00 20.00     0.043 C 
HETATM    9  C10 UNL     1     -33.727  16.292  -5.827  1.00 20.00     0.023 C 
ENDROOT
BRANCH   6  10
HETATM   10  C3  UNL     1     -35.028  14.332  -6.542  1.00 20.00     0.240 C 
HETATM   11  O11 UNL     1     -34.785  14.660  -7.699  1.00 20.00    -0.306 OA
ENDBRANCH   6  10
TORSDOF 1
ENDMDL
MODEL 9
REMARK VINA RESULT:      -4.3      1.441      2.664
REMARK  1 active torsions:
REMARK  status: ('A' for Active; 'I' for Inactive)
REMARK    1  A    between atoms: C3_3  and  C7_7 
ROOT
HETATM    1  C1  UNL     1     -34.461  16.995  -1.533  1.00 20.00    -0.082 C 
HETATM    2  C2  UNL     1     -33.837  17.814  -2.409  1.00 20.00    -0.081 C 
HETATM    3  C4  UNL     1     -35.040  15.660  -1.953  1.00 20.00     0.035 C 
HETATM    4  C5  UNL     1     -33.624  17.427  -3.861  1.00 20.00     0.050 C 
HETATM    5  C6  UNL     1     -35.104  15.445  -3.465  1.00 20.00     0.021 C 
HETATM    6  C7  UNL     1     -33.837  15.934  -4.177  1.00 20.00     0.013 C 
HETATM    7  C8  UNL     1     -34.644  17.286  -0.066  1.00 20.00     0.043 C 
HETATM    8  C9  UNL     1     -33.305  19.183  -2.075  1.00 20.00     0.043 C 
HETATM    9  C10 UNL     1     -32.609  15.098  -3.787  1.00 20.00     0.023 C 
ENDROOT
BRANCH   6  10
HETATM   10  C3  UNL     1     -34.030  15.798  -5.667  1.00 20.00     0.240 C 
HETATM   11  O11 UNL     1     -34.360  14.750  -6.212  1.00 20.00    -0.306 OA
ENDBRANCH   6  10
TORSDOF 1
ENDMDL
