MODEL 1
REMARK VINA RESULT:      -4.6      0.000      0.000
REMARK  0 active torsions:
REMARK  status: ('A' for Active; 'I' for Inactive)
ROOT
HETATM    1  C1  UNL     1     -33.749   6.257   4.432  1.00 20.00     0.149 C 
HETATM    2  C2  UNL     1     -33.979   6.470   5.917  1.00 20.00     0.080 C 
HETATM    3  C3  UNL     1     -34.153   5.146   6.643  1.00 20.00     0.007 C 
HETATM    4  C4  UNL     1     -35.230   4.282   5.997  1.00 20.00     0.003 C 
HETATM    5  C5  UNL     1     -34.905   4.025   4.525  1.00 20.00     0.033 C 
HETATM    6  C6  UNL     1     -34.722   5.318   3.717  1.00 20.00     0.093 C 
HETATM    7  C7  UNL     1     -36.044   6.046   3.467  1.00 20.00     0.041 C 
HETATM    8  O8  UNL     1     -32.877   6.898   3.845  1.00 20.00    -0.296 OA
HETATM    9 CL9  UNL     1     -34.016   4.884   2.121  1.00 20.00    -0.111 Cl
ENDROOT
TORSDOF 0
ENDMDL
MODEL 2
REMARK VINA RESULT:      -4.4      8.895     10.054
REMARK  0 active torsions:
REMARK  status: ('A' for Active; 'I' for Inactive)
ROOT
HETATM    1  C1  UNL     1     -42.569   5.662  -2.430  1.00 20.00     0.149 C 
HETATM    2  C2  UNL     1     -42.544   6.972  -1.665  1.00 20.00     0.080 C 
HETATM    3  C3  UNL     1     -41.192   7.202  -1.009  1.00 20.00     0.007 C 
HETATM    4  C4  UNL     1     -40.766   6.012  -0.156  1.00 20.00     0.003 C 
HETATM    5  C5  UNL     1     -40.722   4.734  -0.996  1.00 20.00     0.033 C 
HETATM    6  C6  UNL     1     -42.059   4.425  -1.687  1.00 20.00     0.093 C 
HETATM    7  C7  UNL     1     -43.129   3.941  -0.707  1.00 20.00     0.041 C 
HETATM    8  O8  UNL     1     -43.071   5.613  -3.554  1.00 20.00    -0.296 OA
HETATM    9 CL9  UNL     1     -41.776   3.121  -2.892  1.00 20.00    -0.111 Cl
ENDROOT
TORSDOF 0
ENDMDL
MODEL 3
REMARK VINA RESULT:      -4.2     12.458     13.721
REMARK  0 active torsions:
REMARK  status: ('A' for Active; 'I' for Inactive)
ROOT
HETATM    1  C1  UNL     1     -34.666  13.862  -5.079  1.00 20.00     0.149 C 
HETATM    2  C2  UNL     1     -35.576  14.510  -6.105  1.00 20.00     0.080 C 
HETATM    3  C3  UNL     1     -34.846  15.596  -6.881  1.00 20.00     0.007 C 
HETATM    4  C4  UNL     1     -34.187  16.610  -5.953  1.00 20.00     0.003 C 
HETATM    5  C5  UNL     1     -33.215  15.916  -4.998  1.00 20.00     0.033 C 
HETATM    6  C6  UNL     1     -33.880  14.807  -4.168  1.00 20.00     0.093 C 
HETATM    7  C7  UNL     1     -34.807  15.361  -3.084  1.00 20.00     0.041 C 
HETATM    8  O8  UNL     1     -34.660  12.638  -4.945  1.00 20.00    -0.296 OA
HETATM    9 CL9  UNL     1     -32.582  13.861  -3.359  1.00 20.00    -0.111 Cl
ENDROOT
TORSDOF 0
ENDMDL
MODEL 4
REMARK VINA RESULT:      -4.2     12.696     13.728
REMARK  0 active torsions:
REMARK  status: ('A' for Active; 'I' for Inactive)
ROOT
HETATM    1  C1  UNL     1     -33.642  15.958  -4.849  1.00 20.00     0.149 C 
HETATM    2  C2  UNL     1     -33.439  15.196  -3.553  1.00 20.00     0.080 C 
HETATM    3  C3  UNL     1     -33.513  13.694  -3.779  1.00 20.00     0.007 C 
HETATM    4  C4  UNL     1     -34.792  13.293  -4.507  1.00 20.00     0.003 C 
HETATM    5  C5  UNL     1     -34.903  14.023  -5.846  1.00 20.00     0.033 C 
HETATM    6  C6  UNL     1     -34.846  15.551  -5.702  1.00 20.00     0.093 C 
HETATM    7  C7  UNL     1     -36.123  16.132  -5.092  1.00 20.00     0.041 C 
HETATM    8  O8  UNL     1     -32.915  16.915  -5.123  1.00 20.00    -0.296 OA
HETATM    9 CL9  UNL     1     -34.640  16.260  -7.341  1.00 20.00    -0.111 Cl
ENDROOT
TORSDOF 0
ENDMDL
MODEL 5
REMARK VINA RESULT:      -4.1     12.119     13.137
REMARK  0 active torsions:
REMARK  status: ('A' for Active; 'I' for Inactive)
ROOT
HETATM    1  C1  UNL     1     -36.049  14.429  -4.000  1.00 20.00     0.149 C 
HETATM    2  C2  UNL     1     -35.032  13.408  -4.474  1.00 20.00     0.080 C 
HETATM    3  C3  UNL     1     -33.725  13.534  -3.706  1.00 20.00     0.007 C 
HETATM    4  C4  UNL     1     -33.187  14.961  -3.733  1.00 20.00     0.003 C 
HETATM    5  C5  UNL     1     -34.217  15.937  -3.164  1.00 20.00     0.033 C 
HETATM    6  C6  UNL     1     -35.567  15.877  -3.894  1.00 20.00     0.093 C 
HETATM    7  C7  UNL     1     -35.508  16.498  -5.291  1.00 20.00     0.041 C 
HETATM    8  O8  UNL     1     -37.219  14.093  -3.813  1.00 20.00    -0.296 OA
HETATM    9 CL9  UNL     1     -36.768  16.801  -2.926  1.00 20.00    -0.111 Cl
ENDROOT
TORSDOF 0
ENDMDL
MODEL 6
REMARK VINA RESULT:      -4.1     12.431     13.543
REMARK  0 active torsions:
REMARK  status: ('A' for Active; 'I' for Inactive)
ROOT
HETATM    1  C1  UNL     1     -34.182  16.130  -4.793  1.00 20.00     0.149 C 
HETATM    2  C2  UNL     1     -34.202  15.531  -6.186  1.00 20.00     0.080 C 
HETATM    3  C3  UNL     1     -35.110  14.313  -6.251  1.00 20.00     0.007 C 
HETATM    4  C4  UNL     1     -34.765  13.291  -5.173  1.00 20.00     0.003 C 
HETATM    5  C5  UNL     1     -34.846  13.924  -3.783  1.00 20.00     0.033 C 
HETATM    6  C6  UNL     1     -33.946  15.159  -3.634  1.00 20.00     0.093 C 
HETATM    7  C7  UNL     1     -32.461  14.800  -3.564  1.00 20.00     0.041 C 
HETATM    8  O8  UNL     1     -34.257  17.350  -4.644  1.00 20.00    -0.296 OA
HETATM    9 CL9  UNL     1     -34.390  15.991  -2.102  1.00 20.00    -0.111 Cl
ENDROOT
TORSDOF 0
ENDMDL
MODEL 7
REMARK VINA RESULT:      -4.1     12.353     13.428
REMARK  0 active torsions:
REMARK  status: ('A' for Active; 'I' for Inactive)
ROOT
HETATM    1  C1  UNL     1     -34.653  13.819  -4.508  1.00 20.00     0.149 C 
HETATM    2  C2  UNL     1     -33.268  13.955  -3.905  1.00 20.00     0.080 C 
HETATM    3  C3  UNL     1     -33.076  15.322  -3.268  1.00 20.00     0.007 C 
HETATM    4  C4  UNL     1     -33.413  16.452  -4.236  1.00 20.00     0.003 C 
HETATM    5  C5  UNL     1     -34.848  16.316  -4.746  1.00 20.00     0.033 C 
HETATM    6  C6  UNL     1     -35.121  14.960  -5.414  1.00 20.00     0.093 C 
HETATM    7  C7  UNL     1     -34.448  14.834  -6.782  1.00 20.00     0.041 C 
HETATM    8  O8  UNL     1     -35.302  12.786  -4.338  1.00 20.00    -0.296 OA
HETATM    9 CL9  UNL     1     -36.896  14.801  -5.651  1.00 20.00    -0.111 Cl
ENDROOT
TORSDOF 0
ENDMDL
MODEL 8
REMARK VINA RESULT:      -4.1     12.289     13.051
REMARK  0 active torsions:
REMARK  status: ('A' for Active; 'I' for Inactive)
ROOT
HETATM    1  C1  UNL     1     -33.392  15.081  -3.723  1.00 20.00     0.149 C 
HETATM    2  C2  UNL     1     -33.862  13.639  -3.683  1.00 20.00     0.080 C 
HETATM    3  C3  UNL     1     -35.181  13.468  -4.422  1.00 20.00     0.007 C 
HETATM    4  C4  UNL     1     -36.239  14.449  -3.927  1.00 20.00     0.003 C 
HETATM    5  C5  UNL     1     -35.748  15.890  -4.070  1.00 20.00     0.033 C 
HETATM    6  C6  UNL     1     -34.421  16.147  -3.341  1.00 20.00     0.093 C 
HETATM    7  C7  UNL     1     -34.582  16.179  -1.821  1.00 20.00     0.041 C 
HETATM    8  O8  UNL     1     -32.211  15.338  -3.958  1.00 20.00    -0.296 OA
HETATM    9 CL9  UNL     1     -33.795  17.748  -3.869  1.00 20.00    -0.111 Cl
ENDROOT
TORSDOF 0
ENDMDL
MODEL 9
REMARK VINA RESULT:      -4.0     12.413     12.797
REMARK  0 active torsions:
REMARK  status: ('A' for Active; 'I' for Inactive)
ROOT
HETATM    1  C1  UNL     1     -33.415  15.099  -3.505  1.00 20.00     0.149 C 
HETATM    2  C2  UNL     1     -33.550  16.332  -2.631  1.00 20.00     0.080 C 
HETATM    3  C3  UNL     1     -34.865  16.325  -1.867  1.00 20.00     0.007 C 
HETATM    4  C4  UNL     1     -36.059  16.125  -2.795  1.00 20.00     0.003 C 
HETATM    5  C5  UNL     1     -35.914  14.825  -3.587  1.00 20.00     0.033 C 
HETATM    6  C6  UNL     1     -34.611  14.758  -4.396  1.00 20.00     0.093 C 
HETATM    7  C7  UNL     1     -34.624  15.689  -5.610  1.00 20.00     0.041 C 
HETATM    8  O8  UNL     1     -32.349  14.484  -3.544  1.00 20.00    -0.296 OA
HETATM    9 CL9  UNL     1     -34.409  13.073  -4.990  1.00 20.00    -0.111 Cl
ENDROOT
TORSDOF 0
ENDMDL
