MODEL 1
REMARK VINA RESULT:      -3.5      0.000      0.000
REMARK  0 active torsions:
REMARK  status: ('A' for Active; 'I' for Inactive)
ROOT
HETATM    1  C1  UNL     1     -34.677  15.647  -2.903  1.00 20.00     0.021 A 
HETATM    2  C2  UNL     1     -34.289  14.495  -3.483  1.00 20.00     0.004 A 
HETATM    3  C3  UNL     1     -36.754  14.968  -3.783  1.00 20.00     0.145 A 
HETATM    4  C4  UNL     1     -33.802  16.596  -2.145  1.00 20.00     0.069 C 
HETATM    5  C5  UNL     1     -32.939  13.866  -3.533  1.00 20.00     0.058 C 
HETATM    6  C6  UNL     1     -36.625  17.140  -2.486  1.00 20.00     0.157 C 
HETATM    7  N7  UNL     1     -36.041  15.927  -3.057  1.00 20.00    -0.340 N 
HETATM    8  S8  UNL     1     -38.373  14.929  -4.185  1.00 20.00    -0.052 SA
HETATM    9  S9  UNL     1     -35.626  13.690  -4.264  1.00 20.00    -0.063 SA
ENDROOT
TORSDOF 0
ENDMDL
MODEL 2
REMARK VINA RESULT:      -3.4      3.038      3.626
REMARK  0 active torsions:
REMARK  status: ('A' for Active; 'I' for Inactive)
ROOT
HETATM    1  C1  UNL     1     -34.468  15.513  -4.163  1.00 20.00     0.021 A 
HETATM    2  C2  UNL     1     -34.193  15.951  -5.407  1.00 20.00     0.004 A 
HETATM    3  C3  UNL     1     -33.919  17.744  -3.647  1.00 20.00     0.145 A 
HETATM    4  C4  UNL     1     -34.895  14.128  -3.786  1.00 20.00     0.069 C 
HETATM    5  C5  UNL     1     -34.235  15.215  -6.703  1.00 20.00     0.058 C 
HETATM    6  C6  UNL     1     -34.583  16.181  -1.768  1.00 20.00     0.157 C 
HETATM    7  N7  UNL     1     -34.322  16.492  -3.173  1.00 20.00    -0.340 N 
HETATM    8  S8  UNL     1     -33.634  19.157  -2.806  1.00 20.00    -0.052 SA
HETATM    9  S9  UNL     1     -33.732  17.633  -5.405  1.00 20.00    -0.063 SA
ENDROOT
TORSDOF 0
ENDMDL
MODEL 3
REMARK VINA RESULT:      -3.4      2.448      3.513
REMARK  0 active torsions:
REMARK  status: ('A' for Active; 'I' for Inactive)
ROOT
HETATM    1  C1  UNL     1     -34.333  16.608  -3.045  1.00 20.00     0.021 A 
HETATM    2  C2  UNL     1     -33.890  17.796  -3.497  1.00 20.00     0.004 A 
HETATM    3  C3  UNL     1     -34.245  16.111  -5.346  1.00 20.00     0.145 A 
HETATM    4  C4  UNL     1     -34.609  16.248  -1.619  1.00 20.00     0.069 C 
HETATM    5  C5  UNL     1     -33.563  19.037  -2.737  1.00 20.00     0.058 C 
HETATM    6  C6  UNL     1     -35.015  14.315  -3.735  1.00 20.00     0.157 C 
HETATM    7  N7  UNL     1     -34.535  15.658  -4.056  1.00 20.00    -0.340 N 
HETATM    8  S8  UNL     1     -34.352  15.305  -6.804  1.00 20.00    -0.052 SA
HETATM    9  S9  UNL     1     -33.700  17.792  -5.231  1.00 20.00    -0.063 SA
ENDROOT
TORSDOF 0
ENDMDL
MODEL 4
REMARK VINA RESULT:      -3.4      2.042      2.634
REMARK  0 active torsions:
REMARK  status: ('A' for Active; 'I' for Inactive)
ROOT
HETATM    1  C1  UNL     1     -34.988  14.647  -3.705  1.00 20.00     0.021 A 
HETATM    2  C2  UNL     1     -33.809  15.212  -3.387  1.00 20.00     0.004 A 
HETATM    3  C3  UNL     1     -35.789  16.669  -2.801  1.00 20.00     0.145 A 
HETATM    4  C4  UNL     1     -35.186  13.305  -4.339  1.00 20.00     0.069 C 
HETATM    5  C5  UNL     1     -32.425  14.686  -3.567  1.00 20.00     0.058 C 
HETATM    6  C6  UNL     1     -37.456  14.972  -3.671  1.00 20.00     0.157 C 
HETATM    7  N7  UNL     1     -36.099  15.439  -3.390  1.00 20.00    -0.340 N 
HETATM    8  S8  UNL     1     -36.807  17.885  -2.282  1.00 20.00    -0.052 SA
HETATM    9  S9  UNL     1     -34.027  16.785  -2.665  1.00 20.00    -0.063 SA
ENDROOT
TORSDOF 0
ENDMDL
MODEL 5
REMARK VINA RESULT:      -3.4      2.769      3.131
REMARK  0 active torsions:
REMARK  status: ('A' for Active; 'I' for Inactive)
ROOT
HETATM    1  C1  UNL     1     -34.250  16.425  -2.972  1.00 20.00     0.021 A 
HETATM    2  C2  UNL     1     -34.128  15.403  -3.840  1.00 20.00     0.004 A 
HETATM    3  C3  UNL     1     -33.895  17.666  -4.943  1.00 20.00     0.145 A 
HETATM    4  C4  UNL     1     -34.497  16.313  -1.499  1.00 20.00     0.069 C 
HETATM    5  C5  UNL     1     -34.201  13.935  -3.593  1.00 20.00     0.058 C 
HETATM    6  C6  UNL     1     -34.232  18.906  -2.760  1.00 20.00     0.157 C 
HETATM    7  N7  UNL     1     -34.125  17.689  -3.563  1.00 20.00    -0.340 N 
HETATM    8  S8  UNL     1     -33.690  18.935  -6.007  1.00 20.00    -0.052 SA
HETATM    9  S9  UNL     1     -33.846  15.974  -5.464  1.00 20.00    -0.063 SA
ENDROOT
TORSDOF 0
ENDMDL
MODEL 6
REMARK VINA RESULT:      -3.4      1.743      2.795
REMARK  0 active torsions:
REMARK  status: ('A' for Active; 'I' for Inactive)
ROOT
HETATM    1  C1  UNL     1     -34.653  15.045  -3.779  1.00 20.00     0.021 A 
HETATM    2  C2  UNL     1     -35.169  15.866  -2.844  1.00 20.00     0.004 A 
HETATM    3  C3  UNL     1     -36.635  15.662  -4.892  1.00 20.00     0.145 A 
HETATM    4  C4  UNL     1     -33.358  14.300  -3.687  1.00 20.00     0.069 C 
HETATM    5  C5  UNL     1     -34.621  16.248  -1.511  1.00 20.00     0.058 C 
HETATM    6  C6  UNL     1     -35.035  14.065  -6.035  1.00 20.00     0.157 C 
HETATM    7  N7  UNL     1     -35.451  14.919  -4.924  1.00 20.00    -0.340 N 
HETATM    8  S8  UNL     1     -37.842  15.784  -6.039  1.00 20.00    -0.052 SA
HETATM    9  S9  UNL     1     -36.699  16.532  -3.351  1.00 20.00    -0.063 SA
ENDROOT
TORSDOF 0
ENDMDL
MODEL 7
REMARK VINA RESULT:      -3.3      3.181      3.760
REMARK  0 active torsions:
REMARK  status: ('A' for Active; 'I' for Inactive)
ROOT
HETATM    1  C1  UNL     1     -34.028  15.905  -5.231  1.00 20.00     0.021 A 
HETATM    2  C2  UNL     1     -34.176  15.064  -4.190  1.00 20.00     0.004 A 
HETATM    3  C3  UNL     1     -33.850  17.467  -3.477  1.00 20.00     0.145 A 
HETATM    4  C4  UNL     1     -34.043  15.532  -6.681  1.00 20.00     0.069 C 
HETATM    5  C5  UNL     1     -34.388  13.588  -4.186  1.00 20.00     0.058 C 
HETATM    6  C6  UNL     1     -33.668  18.285  -5.867  1.00 20.00     0.157 C 
HETATM    7  N7  UNL     1     -33.845  17.242  -4.857  1.00 20.00    -0.340 N 
HETATM    8  S8  UNL     1     -33.668  18.895  -2.632  1.00 20.00    -0.052 SA
HETATM    9  S9  UNL     1     -34.094  15.911  -2.667  1.00 20.00    -0.063 SA
ENDROOT
TORSDOF 0
ENDMDL
MODEL 8
REMARK VINA RESULT:      -3.3      3.088      3.962
REMARK  0 active torsions:
REMARK  status: ('A' for Active; 'I' for Inactive)
ROOT
HETATM    1  C1  UNL     1     -34.331  15.892  -3.514  1.00 20.00     0.021 A 
HETATM    2  C2  UNL     1     -34.347  16.780  -2.502  1.00 20.00     0.004 A 
HETATM    3  C3  UNL     1     -33.979  17.861  -4.757  1.00 20.00     0.145 A 
HETATM    4  C4  UNL     1     -34.505  14.410  -3.395  1.00 20.00     0.069 C 
HETATM    5  C5  UNL     1     -34.534  16.551  -1.041  1.00 20.00     0.058 C 
HETATM    6  C6  UNL     1     -34.083  15.645  -5.979  1.00 20.00     0.157 C 
HETATM    7  N7  UNL     1     -34.128  16.471  -4.773  1.00 20.00    -0.340 N 
HETATM    8  S8  UNL     1     -33.724  18.917  -6.025  1.00 20.00    -0.052 SA
HETATM    9  S9  UNL     1     -34.106  18.409  -3.078  1.00 20.00    -0.063 SA
ENDROOT
TORSDOF 0
ENDMDL
MODEL 9
REMARK VINA RESULT:      -3.3      2.403      3.210
REMARK  0 active torsions:
REMARK  status: ('A' for Active; 'I' for Inactive)
ROOT
HETATM    1  C1  UNL     1     -34.008  17.616  -3.140  1.00 20.00     0.021 A 
HETATM    2  C2  UNL     1     -34.411  16.630  -2.317  1.00 20.00     0.004 A 
HETATM    3  C3  UNL     1     -34.371  15.931  -4.746  1.00 20.00     0.145 A 
HETATM    4  C4  UNL     1     -33.610  19.001  -2.735  1.00 20.00     0.069 C 
HETATM    5  C5  UNL     1     -34.570  16.637  -0.835  1.00 20.00     0.058 C 
HETATM    6  C6  UNL     1     -33.564  18.205  -5.518  1.00 20.00     0.157 C 
HETATM    7  N7  UNL     1     -33.979  17.250  -4.492  1.00 20.00    -0.340 N 
HETATM    8  S8  UNL     1     -34.473  15.115  -6.198  1.00 20.00    -0.052 SA
HETATM    9  S9  UNL     1     -34.781  15.171  -3.200  1.00 20.00    -0.063 SA
ENDROOT
TORSDOF 0
ENDMDL
