MODEL 1
REMARK VINA RESULT:      -3.4      0.000      0.000
REMARK  0 active torsions:
REMARK  status: ('A' for Active; 'I' for Inactive)
ROOT
HETATM    1  C1  UNL     1     -34.370   5.666   5.303  1.00 20.00     0.061 C 
HETATM    2  C2  UNL     1     -34.033   5.499   2.833  1.00 20.00     0.107 C 
HETATM    3  C3  UNL     1     -33.404   6.699   3.538  1.00 20.00     0.114 C 
HETATM    4  C4  UNL     1     -34.696   5.258   6.699  1.00 20.00     0.078 C 
HETATM    5  C5  UNL     1     -31.973   6.933   3.077  1.00 20.00     0.035 C 
HETATM    6  N6  UNL     1     -33.401   6.468   5.002  1.00 20.00    -0.282 NA
HETATM    7  S7  UNL     1     -35.305   4.983   4.001  1.00 20.00    -0.113 SA
ENDROOT
TORSDOF 0
ENDMDL
MODEL 2
REMARK VINA RESULT:      -3.3      0.960      3.027
REMARK  0 active torsions:
REMARK  status: ('A' for Active; 'I' for Inactive)
ROOT
HETATM    1  C1  UNL     1     -33.191   6.408   3.508  1.00 20.00     0.061 C 
HETATM    2  C2  UNL     1     -35.213   5.091   4.156  1.00 20.00     0.107 C 
HETATM    3  C3  UNL     1     -34.122   5.247   5.212  1.00 20.00     0.114 C 
HETATM    4  C4  UNL     1     -32.321   7.346   2.743  1.00 20.00     0.078 C 
HETATM    5  C5  UNL     1     -34.704   5.609   6.570  1.00 20.00     0.035 C 
HETATM    6  N6  UNL     1     -33.181   6.315   4.797  1.00 20.00    -0.282 NA
HETATM    7  S7  UNL     1     -34.324   5.422   2.623  1.00 20.00    -0.113 SA
ENDROOT
TORSDOF 0
ENDMDL
MODEL 3
REMARK VINA RESULT:      -3.3      1.771      2.092
REMARK  0 active torsions:
REMARK  status: ('A' for Active; 'I' for Inactive)
ROOT
HETATM    1  C1  UNL     1     -34.080   6.294   5.775  1.00 20.00     0.061 C 
HETATM    2  C2  UNL     1     -34.955   4.218   4.695  1.00 20.00     0.107 C 
HETATM    3  C3  UNL     1     -34.847   5.461   3.816  1.00 20.00     0.114 C 
HETATM    4  C4  UNL     1     -33.401   7.170   6.772  1.00 20.00     0.078 C 
HETATM    5  C5  UNL     1     -34.226   5.141   2.464  1.00 20.00     0.035 C 
HETATM    6  N6  UNL     1     -34.008   6.477   4.497  1.00 20.00    -0.282 NA
HETATM    7  S7  UNL     1     -34.971   4.913   6.357  1.00 20.00    -0.113 SA
ENDROOT
TORSDOF 0
ENDMDL
MODEL 4
REMARK VINA RESULT:      -3.2     12.221     12.559
REMARK  0 active torsions:
REMARK  status: ('A' for Active; 'I' for Inactive)
ROOT
HETATM    1  C1  UNL     1     -34.286  15.889  -2.684  1.00 20.00     0.061 C 
HETATM    2  C2  UNL     1     -34.102  15.729  -5.170  1.00 20.00     0.107 C 
HETATM    3  C3  UNL     1     -33.945  14.432  -4.380  1.00 20.00     0.114 C 
HETATM    4  C4  UNL     1     -34.614  16.446  -1.340  1.00 20.00     0.078 C 
HETATM    5  C5  UNL     1     -34.743  13.295  -5.001  1.00 20.00     0.035 C 
HETATM    6  N6  UNL     1     -34.415  14.640  -2.989  1.00 20.00    -0.282 NA
HETATM    7  S7  UNL     1     -33.756  16.988  -3.928  1.00 20.00    -0.113 SA
ENDROOT
TORSDOF 0
ENDMDL
MODEL 5
REMARK VINA RESULT:      -3.2     11.955     13.059
REMARK  0 active torsions:
REMARK  status: ('A' for Active; 'I' for Inactive)
ROOT
HETATM    1  C1  UNL     1     -34.220  14.860  -5.746  1.00 20.00     0.061 C 
HETATM    2  C2  UNL     1     -34.538  14.085  -3.392  1.00 20.00     0.107 C 
HETATM    3  C3  UNL     1     -33.530  15.208  -3.621  1.00 20.00     0.114 C 
HETATM    4  C4  UNL     1     -34.489  15.062  -7.199  1.00 20.00     0.078 C 
HETATM    5  C5  UNL     1     -33.696  16.327  -2.603  1.00 20.00     0.035 C 
HETATM    6  N6  UNL     1     -33.713  15.769  -4.981  1.00 20.00    -0.282 NA
HETATM    7  S7  UNL     1     -34.665  13.335  -5.027  1.00 20.00    -0.113 SA
ENDROOT
TORSDOF 0
ENDMDL
MODEL 6
REMARK VINA RESULT:      -3.1     12.147     12.713
REMARK  0 active torsions:
REMARK  status: ('A' for Active; 'I' for Inactive)
ROOT
HETATM    1  C1  UNL     1     -34.411  14.706  -4.117  1.00 20.00     0.061 C 
HETATM    2  C2  UNL     1     -33.694  16.998  -3.427  1.00 20.00     0.107 C 
HETATM    3  C3  UNL     1     -34.821  16.354  -2.623  1.00 20.00     0.114 C 
HETATM    4  C4  UNL     1     -34.371  13.368  -4.773  1.00 20.00     0.078 C 
HETATM    5  C5  UNL     1     -34.612  16.527  -1.125  1.00 20.00     0.035 C 
HETATM    6  N6  UNL     1     -34.883  14.905  -2.930  1.00 20.00    -0.282 NA
HETATM    7  S7  UNL     1     -33.733  16.067  -4.970  1.00 20.00    -0.113 SA
ENDROOT
TORSDOF 0
ENDMDL
MODEL 7
REMARK VINA RESULT:      -3.1      9.670     10.696
REMARK  0 active torsions:
REMARK  status: ('A' for Active; 'I' for Inactive)
ROOT
HETATM    1  C1  UNL     1     -42.094   6.378  -2.322  1.00 20.00     0.061 C 
HETATM    2  C2  UNL     1     -40.801   4.575  -1.173  1.00 20.00     0.107 C 
HETATM    3  C3  UNL     1     -42.019   4.143  -1.986  1.00 20.00     0.114 C 
HETATM    4  C4  UNL     1     -42.414   7.712  -2.906  1.00 20.00     0.078 C 
HETATM    5  C5  UNL     1     -41.713   2.932  -2.855  1.00 20.00     0.035 C 
HETATM    6  N6  UNL     1     -42.453   5.259  -2.860  1.00 20.00    -0.282 NA
HETATM    7  S7  UNL     1     -41.134   6.320  -0.868  1.00 20.00    -0.113 SA
ENDROOT
TORSDOF 0
ENDMDL
MODEL 8
REMARK VINA RESULT:      -3.0      1.435      2.914
REMARK  0 active torsions:
REMARK  status: ('A' for Active; 'I' for Inactive)
ROOT
HETATM    1  C1  UNL     1     -34.281   5.485   4.070  1.00 20.00     0.061 C 
HETATM    2  C2  UNL     1     -34.895   5.294   6.484  1.00 20.00     0.107 C 
HETATM    3  C3  UNL     1     -33.659   6.124   6.149  1.00 20.00     0.114 C 
HETATM    4  C4  UNL     1     -34.414   5.431   2.586  1.00 20.00     0.078 C 
HETATM    5  C5  UNL     1     -33.642   7.440   6.912  1.00 20.00     0.035 C 
HETATM    6  N6  UNL     1     -33.638   6.416   4.695  1.00 20.00    -0.282 NA
HETATM    7  S7  UNL     1     -35.083   4.262   5.018  1.00 20.00    -0.113 SA
ENDROOT
TORSDOF 0
ENDMDL
MODEL 9
REMARK VINA RESULT:      -3.0      9.782     10.738
REMARK  0 active torsions:
REMARK  status: ('A' for Active; 'I' for Inactive)
ROOT
HETATM    1  C1  UNL     1     -42.321   6.825  -2.952  1.00 20.00     0.061 C 
HETATM    2  C2  UNL     1     -42.687   5.058  -1.225  1.00 20.00     0.107 C 
HETATM    3  C3  UNL     1     -41.279   5.634  -1.337  1.00 20.00     0.114 C 
HETATM    4  C4  UNL     1     -42.631   7.888  -3.951  1.00 20.00     0.078 C 
HETATM    5  C5  UNL     1     -40.693   5.955   0.031  1.00 20.00     0.035 C 
HETATM    6  N6  UNL     1     -41.315   6.878  -2.143  1.00 20.00    -0.282 NA
HETATM    7  S7  UNL     1     -43.406   5.466  -2.827  1.00 20.00    -0.113 SA
ENDROOT
TORSDOF 0
ENDMDL
