MODEL 1
REMARK VINA RESULT:      -4.1      0.000      0.000
REMARK  3 active torsions:
REMARK  status: ('A' for Active; 'I' for Inactive)
REMARK    1  A    between atoms: C3_3  and  C9_9 
REMARK    2  A    between atoms: C8_8  and  O11_11 
REMARK    3  A    between atoms: N10_10  and  O11_11 
ROOT
HETATM    1  C1  UNL     1     -37.935  16.005  -6.477  1.00 20.00     0.014 C 
HETATM    2  C2  UNL     1     -38.120  15.472  -5.418  1.00 20.00    -0.089 C 
HETATM    3  C8  UNL     1     -38.348  14.823  -4.127  1.00 20.00     0.296 C 
ENDROOT
BRANCH   3   4
HETATM    4  O11 UNL     1     -37.209  14.069  -3.740  1.00 20.00    -0.244 OA
BRANCH   4   5
HETATM    5  N10 UNL     1     -36.181  14.965  -3.423  1.00 20.00    -0.142 NA
HETATM    6  C3  UNL     1     -35.035  14.560  -3.886  1.00 20.00     0.043 C 
HETATM    7  C4  UNL     1     -34.890  13.267  -4.667  1.00 20.00     0.069 C 
BRANCH   6   8
HETATM    8  C9  UNL     1     -33.776  15.421  -3.627  1.00 20.00    -0.009 C 
HETATM    9  C5  UNL     1     -32.550  14.506  -3.496  1.00 20.00     0.021 C 
HETATM   10  C6  UNL     1     -33.973  16.242  -2.345  1.00 20.00     0.021 C 
HETATM   11  C7  UNL     1     -33.524  16.399  -4.792  1.00 20.00     0.021 C 
ENDBRANCH   6   8
ENDBRANCH   4   5
ENDBRANCH   3   4
TORSDOF 3
ENDMDL
MODEL 2
REMARK VINA RESULT:      -4.1      2.265      4.640
REMARK  3 active torsions:
REMARK  status: ('A' for Active; 'I' for Inactive)
REMARK    1  A    between atoms: C3_3  and  C9_9 
REMARK    2  A    between atoms: C8_8  and  O11_11 
REMARK    3  A    between atoms: N10_10  and  O11_11 
ROOT
HETATM    1  C1  UNL     1     -33.213  18.597   0.187  1.00 20.00     0.014 C 
HETATM    2  C2  UNL     1     -33.753  17.713  -0.421  1.00 20.00    -0.089 C 
HETATM    3  C8  UNL     1     -34.412  16.636  -1.160  1.00 20.00     0.296 C 
ENDROOT
BRANCH   3   4
HETATM    4  O11 UNL     1     -33.641  16.265  -2.292  1.00 20.00    -0.244 OA
BRANCH   4   5
HETATM    5  N10 UNL     1     -34.397  15.370  -3.060  1.00 20.00    -0.142 NA
HETATM    6  C3  UNL     1     -34.216  15.563  -4.333  1.00 20.00     0.043 C 
HETATM    7  C4  UNL     1     -33.289  16.641  -4.864  1.00 20.00     0.069 C 
BRANCH   6   8
HETATM    8  C9  UNL     1     -34.976  14.669  -5.341  1.00 20.00    -0.009 C 
HETATM    9  C5  UNL     1     -36.472  15.012  -5.301  1.00 20.00     0.021 C 
HETATM   10  C6  UNL     1     -34.753  13.193  -4.983  1.00 20.00     0.021 C 
HETATM   11  C7  UNL     1     -34.468  14.899  -6.779  1.00 20.00     0.021 C 
ENDBRANCH   6   8
ENDBRANCH   4   5
ENDBRANCH   3   4
TORSDOF 3
ENDMDL
MODEL 3
REMARK VINA RESULT:      -4.1      2.267      4.622
REMARK  3 active torsions:
REMARK  status: ('A' for Active; 'I' for Inactive)
REMARK    1  A    between atoms: C3_3  and  C9_9 
REMARK    2  A    between atoms: C8_8  and  O11_11 
REMARK    3  A    between atoms: N10_10  and  O11_11 
ROOT
HETATM    1  C1  UNL     1     -33.265  18.530   0.277  1.00 20.00     0.014 C 
HETATM    2  C2  UNL     1     -33.807  17.692  -0.392  1.00 20.00    -0.089 C 
HETATM    3  C8  UNL     1     -34.468  16.673  -1.205  1.00 20.00     0.296 C 
ENDROOT
BRANCH   3   4
HETATM    4  O11 UNL     1     -33.616  16.243  -2.255  1.00 20.00    -0.244 OA
BRANCH   4   5
HETATM    5  N10 UNL     1     -34.321  15.325  -3.042  1.00 20.00    -0.142 NA
HETATM    6  C3  UNL     1     -34.217  15.601  -4.308  1.00 20.00     0.043 C 
HETATM    7  C4  UNL     1     -33.417  16.787  -4.814  1.00 20.00     0.069 C 
BRANCH   6   8
HETATM    8  C9  UNL     1     -34.938  14.695  -5.334  1.00 20.00    -0.009 C 
HETATM    9  C5  UNL     1     -34.715  13.223  -4.961  1.00 20.00     0.021 C 
HETATM   10  C6  UNL     1     -34.390  14.981  -6.740  1.00 20.00     0.021 C 
HETATM   11  C7  UNL     1     -36.456  14.965  -5.344  1.00 20.00     0.021 C 
ENDBRANCH   6   8
ENDBRANCH   4   5
ENDBRANCH   3   4
TORSDOF 3
ENDMDL
MODEL 4
REMARK VINA RESULT:      -4.1      1.056      1.615
REMARK  3 active torsions:
REMARK  status: ('A' for Active; 'I' for Inactive)
REMARK    1  A    between atoms: C3_3  and  C9_9 
REMARK    2  A    between atoms: C8_8  and  O11_11 
REMARK    3  A    between atoms: N10_10  and  O11_11 
ROOT
HETATM    1  C1  UNL     1     -40.138  16.086  -2.608  1.00 20.00     0.014 C 
HETATM    2  C2  UNL     1     -39.468  15.474  -3.394  1.00 20.00    -0.089 C 
HETATM    3  C8  UNL     1     -38.653  14.729  -4.354  1.00 20.00     0.296 C 
ENDROOT
BRANCH   3   4
HETATM    4  O11 UNL     1     -37.565  14.097  -3.698  1.00 20.00    -0.244 OA
BRANCH   4   5
HETATM    5  N10 UNL     1     -36.628  15.080  -3.361  1.00 20.00    -0.142 NA
HETATM    6  C3  UNL     1     -35.420  14.717  -3.676  1.00 20.00     0.043 C 
HETATM    7  C4  UNL     1     -35.122  13.379  -4.327  1.00 20.00     0.069 C 
BRANCH   6   8
HETATM    8  C9  UNL     1     -34.245  15.676  -3.372  1.00 20.00    -0.009 C 
HETATM    9  C5  UNL     1     -32.915  14.938  -3.583  1.00 20.00     0.021 C 
HETATM   10  C6  UNL     1     -34.357  16.178  -1.924  1.00 20.00     0.021 C 
HETATM   11  C7  UNL     1     -34.271  16.900  -4.309  1.00 20.00     0.021 C 
ENDBRANCH   6   8
ENDBRANCH   4   5
ENDBRANCH   3   4
TORSDOF 3
ENDMDL
MODEL 5
REMARK VINA RESULT:      -4.0     10.998     12.275
REMARK  3 active torsions:
REMARK  status: ('A' for Active; 'I' for Inactive)
REMARK    1  A    between atoms: C3_3  and  C9_9 
REMARK    2  A    between atoms: C8_8  and  O11_11 
REMARK    3  A    between atoms: N10_10  and  O11_11 
ROOT
HETATM    1  C1  UNL     1     -32.453   9.103   0.307  1.00 20.00     0.014 C 
HETATM    2  C2  UNL     1     -32.119   8.732   1.399  1.00 20.00    -0.089 C 
HETATM    3  C8  UNL     1     -31.713   8.282   2.730  1.00 20.00     0.296 C 
ENDROOT
BRANCH   3   4
HETATM    4  O11 UNL     1     -31.850   6.873   2.843  1.00 20.00    -0.244 OA
BRANCH   4   5
HETATM    5  N10 UNL     1     -32.631   6.600   3.972  1.00 20.00    -0.142 NA
HETATM    6  C3  UNL     1     -33.581   5.755   3.703  1.00 20.00     0.043 C 
HETATM    7  C4  UNL     1     -33.774   5.170   2.316  1.00 20.00     0.069 C 
BRANCH   6   8
HETATM    8  C9  UNL     1     -34.553   5.335   4.831  1.00 20.00    -0.009 C 
HETATM    9  C5  UNL     1     -35.999   5.434   4.322  1.00 20.00     0.021 C 
HETATM   10  C6  UNL     1     -34.348   6.249   6.048  1.00 20.00     0.021 C 
HETATM   11  C7  UNL     1     -34.296   3.880   5.272  1.00 20.00     0.021 C 
ENDBRANCH   6   8
ENDBRANCH   4   5
ENDBRANCH   3   4
TORSDOF 3
ENDMDL
MODEL 6
REMARK VINA RESULT:      -4.0      2.333      4.294
REMARK  3 active torsions:
REMARK  status: ('A' for Active; 'I' for Inactive)
REMARK    1  A    between atoms: C3_3  and  C9_9 
REMARK    2  A    between atoms: C8_8  and  O11_11 
REMARK    3  A    between atoms: N10_10  and  O11_11 
ROOT
HETATM    1  C1  UNL     1     -34.698  16.932  -0.331  1.00 20.00     0.014 C 
HETATM    2  C2  UNL     1     -34.536  17.550  -1.348  1.00 20.00    -0.089 C 
HETATM    3  C8  UNL     1     -34.341  18.305  -2.585  1.00 20.00     0.296 C 
ENDROOT
BRANCH   3   4
HETATM    4  O11 UNL     1     -33.547  17.565  -3.500  1.00 20.00    -0.244 OA
BRANCH   4   5
HETATM    5  N10 UNL     1     -34.406  16.866  -4.356  1.00 20.00    -0.142 NA
HETATM    6  C3  UNL     1     -34.077  15.611  -4.443  1.00 20.00     0.043 C 
HETATM    7  C4  UNL     1     -32.896  15.031  -3.686  1.00 20.00     0.069 C 
BRANCH   6   8
HETATM    8  C9  UNL     1     -34.912  14.678  -5.351  1.00 20.00    -0.009 C 
HETATM    9  C5  UNL     1     -34.691  13.219  -4.925  1.00 20.00     0.021 C 
HETATM   10  C6  UNL     1     -34.491  14.880  -6.814  1.00 20.00     0.021 C 
HETATM   11  C7  UNL     1     -36.417  14.991  -5.234  1.00 20.00     0.021 C 
ENDBRANCH   6   8
ENDBRANCH   4   5
ENDBRANCH   3   4
TORSDOF 3
ENDMDL
MODEL 7
REMARK VINA RESULT:      -4.0     11.501     12.803
REMARK  3 active torsions:
REMARK  status: ('A' for Active; 'I' for Inactive)
REMARK    1  A    between atoms: C3_3  and  C9_9 
REMARK    2  A    between atoms: C8_8  and  O11_11 
REMARK    3  A    between atoms: N10_10  and  O11_11 
ROOT
HETATM    1  C1  UNL     1     -32.518   9.767   1.525  1.00 20.00     0.014 C 
HETATM    2  C2  UNL     1     -32.173   8.696   1.945  1.00 20.00    -0.089 C 
HETATM    3  C8  UNL     1     -31.751   7.392   2.454  1.00 20.00     0.296 C 
ENDROOT
BRANCH   3   4
HETATM    4  O11 UNL     1     -32.184   7.217   3.795  1.00 20.00    -0.244 OA
BRANCH   4   5
HETATM    5  N10 UNL     1     -33.122   6.179   3.819  1.00 20.00    -0.142 NA
HETATM    6  C3  UNL     1     -33.689   6.074   4.984  1.00 20.00     0.043 C 
HETATM    7  C4  UNL     1     -33.336   6.992   6.140  1.00 20.00     0.069 C 
BRANCH   6   8
HETATM    8  C9  UNL     1     -34.753   4.973   5.204  1.00 20.00    -0.009 C 
HETATM    9  C5  UNL     1     -35.854   5.108   4.142  1.00 20.00     0.021 C 
HETATM   10  C6  UNL     1     -35.347   5.111   6.613  1.00 20.00     0.021 C 
HETATM   11  C7  UNL     1     -34.132   3.567   5.078  1.00 20.00     0.021 C 
ENDBRANCH   6   8
ENDBRANCH   4   5
ENDBRANCH   3   4
TORSDOF 3
ENDMDL
MODEL 8
REMARK VINA RESULT:      -4.0      2.242      4.457
REMARK  3 active torsions:
REMARK  status: ('A' for Active; 'I' for Inactive)
REMARK    1  A    between atoms: C3_3  and  C9_9 
REMARK    2  A    between atoms: C8_8  and  O11_11 
REMARK    3  A    between atoms: N10_10  and  O11_11 
ROOT
HETATM    1  C1  UNL     1     -32.687  18.650  -0.172  1.00 20.00     0.014 C 
HETATM    2  C2  UNL     1     -33.622  17.898  -0.213  1.00 20.00    -0.089 C 
HETATM    3  C8  UNL     1     -34.762  16.982  -0.261  1.00 20.00     0.296 C 
ENDROOT
BRANCH   3   4
HETATM    4  O11 UNL     1     -35.302  16.928  -1.573  1.00 20.00    -0.244 OA
BRANCH   4   5
HETATM    5  N10 UNL     1     -34.435  16.173  -2.371  1.00 20.00    -0.142 NA
HETATM    6  C3  UNL     1     -35.086  15.456  -3.239  1.00 20.00     0.043 C 
HETATM    7  C4  UNL     1     -36.601  15.476  -3.329  1.00 20.00     0.069 C 
BRANCH   6   8
HETATM    8  C9  UNL     1     -34.293  14.549  -4.208  1.00 20.00    -0.009 C 
HETATM    9  C5  UNL     1     -32.905  14.262  -3.619  1.00 20.00     0.021 C 
HETATM   10  C6  UNL     1     -34.165  15.246  -5.571  1.00 20.00     0.021 C 
HETATM   11  C7  UNL     1     -35.013  13.202  -4.422  1.00 20.00     0.021 C 
ENDBRANCH   6   8
ENDBRANCH   4   5
ENDBRANCH   3   4
TORSDOF 3
ENDMDL
MODEL 9
REMARK VINA RESULT:      -4.0      2.208      2.923
REMARK  3 active torsions:
REMARK  status: ('A' for Active; 'I' for Inactive)
REMARK    1  A    between atoms: C3_3  and  C9_9 
REMARK    2  A    between atoms: C8_8  and  O11_11 
REMARK    3  A    between atoms: N10_10  and  O11_11 
ROOT
HETATM    1  C1  UNL     1     -34.843  14.868  -6.890  1.00 20.00     0.014 C 
HETATM    2  C2  UNL     1     -34.918  14.016  -6.047  1.00 20.00    -0.089 C 
HETATM    3  C8  UNL     1     -35.011  12.976  -5.023  1.00 20.00     0.296 C 
ENDROOT
BRANCH   3   4
HETATM    4  O11 UNL     1     -34.277  13.350  -3.866  1.00 20.00    -0.244 OA
BRANCH   4   5
HETATM    5  N10 UNL     1     -34.932  14.429  -3.264  1.00 20.00    -0.142 NA
HETATM    6  C3  UNL     1     -34.127  15.433  -3.077  1.00 20.00     0.043 C 
HETATM    7  C4  UNL     1     -32.665  15.383  -3.482  1.00 20.00     0.069 C 
BRANCH   6   8
HETATM    8  C9  UNL     1     -34.674  16.720  -2.414  1.00 20.00    -0.009 C 
HETATM    9  C5  UNL     1     -34.547  16.602  -0.888  1.00 20.00     0.021 C 
HETATM   10  C6  UNL     1     -36.142  16.917  -2.817  1.00 20.00     0.021 C 
HETATM   11  C7  UNL     1     -33.878  17.959  -2.869  1.00 20.00     0.021 C 
ENDBRANCH   6   8
ENDBRANCH   4   5
ENDBRANCH   3   4
TORSDOF 3
ENDMDL
