MODEL 1
REMARK VINA RESULT:      -4.1      0.000      0.000
REMARK  3 active torsions:
REMARK  status: ('A' for Active; 'I' for Inactive)
REMARK    1  A    between atoms: C3_3  and  C8_8 
REMARK    2  A    between atoms: C6_6  and  C7_7 
REMARK    3  A    between atoms: C7_7  and  C8_8 
ROOT
HETATM    1  C1  UNL     1     -33.652  18.110  -5.104  1.00 20.00     0.197 C 
HETATM    2  C2  UNL     1     -35.067  17.714  -5.422  1.00 20.00     0.197 C 
HETATM    3  C3  UNL     1     -33.892  15.869  -4.874  1.00 20.00     0.263 C 
HETATM    4  O9  UNL     1     -32.932  16.881  -5.205  1.00 20.00    -0.359 OA
HETATM    5  O10 UNL     1     -35.200  16.446  -4.782  1.00 20.00    -0.359 OA
ENDROOT
BRANCH   3   6
HETATM    6  C8  UNL     1     -33.530  15.229  -3.548  1.00 20.00     0.037 C 
HETATM    7  C5  UNL     1     -33.512  13.707  -3.699  1.00 20.00     0.015 C 
BRANCH   6   8
HETATM    8  C7  UNL     1     -34.509  15.699  -2.456  1.00 20.00     0.009 C 
BRANCH   8   9
HETATM    9  C6  UNL     1     -33.941  16.806  -1.564  1.00 20.00    -0.004 C 
HETATM   10  C4  UNL     1     -34.760  16.967  -0.292  1.00 20.00     0.005 C 
ENDBRANCH   8   9
ENDBRANCH   6   8
ENDBRANCH   3   6
TORSDOF 3
ENDMDL
MODEL 2
REMARK VINA RESULT:      -4.1      1.222      1.591
REMARK  3 active torsions:
REMARK  status: ('A' for Active; 'I' for Inactive)
REMARK    1  A    between atoms: C3_3  and  C8_8 
REMARK    2  A    between atoms: C6_6  and  C7_7 
REMARK    3  A    between atoms: C7_7  and  C8_8 
ROOT
HETATM    1  C1  UNL     1     -33.637  16.869  -5.723  1.00 20.00     0.197 C 
HETATM    2  C2  UNL     1     -34.058  15.613  -6.435  1.00 20.00     0.197 C 
HETATM    3  C3  UNL     1     -33.525  15.109  -4.302  1.00 20.00     0.263 C 
HETATM    4  O9  UNL     1     -32.932  16.384  -4.580  1.00 20.00    -0.359 OA
HETATM    5  O10 UNL     1     -34.412  14.739  -5.365  1.00 20.00    -0.359 OA
ENDROOT
BRANCH   3   6
HETATM    6  C8  UNL     1     -34.299  15.172  -3.000  1.00 20.00     0.037 C 
HETATM    7  C5  UNL     1     -35.800  15.118  -3.289  1.00 20.00     0.015 C 
BRANCH   6   8
HETATM    8  C7  UNL     1     -33.897  16.433  -2.213  1.00 20.00     0.009 C 
BRANCH   8   9
HETATM    9  C6  UNL     1     -34.636  16.583  -0.882  1.00 20.00    -0.004 C 
HETATM   10  C4  UNL     1     -34.125  17.782  -0.096  1.00 20.00     0.005 C 
ENDBRANCH   8   9
ENDBRANCH   6   8
ENDBRANCH   3   6
TORSDOF 3
ENDMDL
MODEL 3
REMARK VINA RESULT:      -4.0     11.574     13.245
REMARK  3 active torsions:
REMARK  status: ('A' for Active; 'I' for Inactive)
REMARK    1  A    between atoms: C3_3  and  C8_8 
REMARK    2  A    between atoms: C6_6  and  C7_7 
REMARK    3  A    between atoms: C7_7  and  C8_8 
ROOT
HETATM    1  C1  UNL     1     -35.168   4.983   5.870  1.00 20.00     0.197 C 
HETATM    2  C2  UNL     1     -34.453   6.006   6.709  1.00 20.00     0.197 C 
HETATM    3  C3  UNL     1     -33.353   5.756   4.757  1.00 20.00     0.263 C 
HETATM    4  O9  UNL     1     -34.188   4.600   4.906  1.00 20.00    -0.359 OA
HETATM    5  O10 UNL     1     -33.687   6.732   5.751  1.00 20.00    -0.359 OA
ENDROOT
BRANCH   3   6
HETATM    6  C8  UNL     1     -33.544   6.357   3.377  1.00 20.00     0.037 C 
HETATM    7  C5  UNL     1     -34.169   5.318   2.445  1.00 20.00     0.015 C 
BRANCH   6   8
HETATM    8  C7  UNL     1     -32.198   6.888   2.848  1.00 20.00     0.009 C 
BRANCH   8   9
HETATM    9  C6  UNL     1     -32.235   8.368   2.464  1.00 20.00    -0.004 C 
HETATM   10  C4  UNL     1     -31.857   8.572   1.004  1.00 20.00     0.005 C 
ENDBRANCH   8   9
ENDBRANCH   6   8
ENDBRANCH   3   6
TORSDOF 3
ENDMDL
MODEL 4
REMARK VINA RESULT:      -3.9      1.417      1.869
REMARK  3 active torsions:
REMARK  status: ('A' for Active; 'I' for Inactive)
REMARK    1  A    between atoms: C3_3  and  C8_8 
REMARK    2  A    between atoms: C6_6  and  C7_7 
REMARK    3  A    between atoms: C7_7  and  C8_8 
ROOT
HETATM    1  C1  UNL     1     -34.465  14.968  -7.142  1.00 20.00     0.197 C 
HETATM    2  C2  UNL     1     -34.590  16.464  -7.053  1.00 20.00     0.197 C 
HETATM    3  C3  UNL     1     -34.551  15.603  -4.969  1.00 20.00     0.263 C 
HETATM    4  O9  UNL     1     -34.881  14.522  -5.851  1.00 20.00    -0.359 OA
HETATM    5  O10 UNL     1     -34.144  16.748  -5.728  1.00 20.00    -0.359 OA
ENDROOT
BRANCH   3   6
HETATM    6  C8  UNL     1     -33.424  15.188  -4.042  1.00 20.00     0.037 C 
HETATM    7  C5  UNL     1     -33.535  13.694  -3.735  1.00 20.00     0.015 C 
BRANCH   6   8
HETATM    8  C7  UNL     1     -33.450  16.054  -2.769  1.00 20.00     0.009 C 
BRANCH   8   9
HETATM    9  C6  UNL     1     -34.754  15.936  -1.977  1.00 20.00    -0.004 C 
HETATM   10  C4  UNL     1     -34.728  16.810  -0.732  1.00 20.00     0.005 C 
ENDBRANCH   8   9
ENDBRANCH   6   8
ENDBRANCH   3   6
TORSDOF 3
ENDMDL
MODEL 5
REMARK VINA RESULT:      -3.9      1.542      2.709
REMARK  3 active torsions:
REMARK  status: ('A' for Active; 'I' for Inactive)
REMARK    1  A    between atoms: C3_3  and  C8_8 
REMARK    2  A    between atoms: C6_6  and  C7_7 
REMARK    3  A    between atoms: C7_7  and  C8_8 
ROOT
HETATM    1  C1  UNL     1     -35.031  14.158  -5.701  1.00 20.00     0.197 C 
HETATM    2  C2  UNL     1     -34.813  13.206  -4.558  1.00 20.00     0.197 C 
HETATM    3  C3  UNL     1     -33.744  15.142  -4.117  1.00 20.00     0.263 C 
HETATM    4  O9  UNL     1     -33.997  15.127  -5.529  1.00 20.00    -0.359 OA
HETATM    5  O10 UNL     1     -34.450  14.069  -3.482  1.00 20.00    -0.359 OA
ENDROOT
BRANCH   3   6
HETATM    6  C8  UNL     1     -34.197  16.463  -3.525  1.00 20.00     0.037 C 
HETATM    7  C5  UNL     1     -33.744  17.613  -4.425  1.00 20.00     0.015 C 
BRANCH   6   8
HETATM    8  C7  UNL     1     -33.668  16.598  -2.085  1.00 20.00     0.009 C 
BRANCH   8   9
HETATM    9  C6  UNL     1     -34.763  16.509  -1.021  1.00 20.00    -0.004 C 
HETATM   10  C4  UNL     1     -34.525  17.502   0.106  1.00 20.00     0.005 C 
ENDBRANCH   8   9
ENDBRANCH   6   8
ENDBRANCH   3   6
TORSDOF 3
ENDMDL
MODEL 6
REMARK VINA RESULT:      -3.9     11.044     12.742
REMARK  3 active torsions:
REMARK  status: ('A' for Active; 'I' for Inactive)
REMARK    1  A    between atoms: C3_3  and  C8_8 
REMARK    2  A    between atoms: C6_6  and  C7_7 
REMARK    3  A    between atoms: C7_7  and  C8_8 
ROOT
HETATM    1  C1  UNL     1     -34.346   5.176   5.825  1.00 20.00     0.197 C 
HETATM    2  C2  UNL     1     -35.225   4.802   4.664  1.00 20.00     0.197 C 
HETATM    3  C3  UNL     1     -33.914   6.536   4.066  1.00 20.00     0.263 C 
HETATM    4  O9  UNL     1     -33.907   6.495   5.499  1.00 20.00    -0.359 OA
HETATM    5  O10 UNL     1     -34.535   5.355   3.545  1.00 20.00    -0.359 OA
ENDROOT
BRANCH   3   6
HETATM    6  C8  UNL     1     -32.492   6.627   3.545  1.00 20.00     0.037 C 
HETATM    7  C5  UNL     1     -31.671   7.549   4.448  1.00 20.00     0.015 C 
BRANCH   6   8
HETATM    8  C7  UNL     1     -32.502   7.097   2.078  1.00 20.00     0.009 C 
BRANCH   8   9
HETATM    9  C6  UNL     1     -31.769   8.422   1.858  1.00 20.00    -0.004 C 
HETATM   10  C4  UNL     1     -32.417   9.236   0.748  1.00 20.00     0.005 C 
ENDBRANCH   8   9
ENDBRANCH   6   8
ENDBRANCH   3   6
TORSDOF 3
ENDMDL
MODEL 7
REMARK VINA RESULT:      -3.9      1.751      3.552
REMARK  3 active torsions:
REMARK  status: ('A' for Active; 'I' for Inactive)
REMARK    1  A    between atoms: C3_3  and  C8_8 
REMARK    2  A    between atoms: C6_6  and  C7_7 
REMARK    3  A    between atoms: C7_7  and  C8_8 
ROOT
HETATM    1  C1  UNL     1     -33.496  17.661  -1.001  1.00 20.00     0.197 C 
HETATM    2  C2  UNL     1     -34.633  16.719  -0.721  1.00 20.00     0.197 C 
HETATM    3  C3  UNL     1     -34.219  16.737  -2.938  1.00 20.00     0.263 C 
HETATM    4  O9  UNL     1     -33.613  17.919  -2.400  1.00 20.00    -0.359 OA
HETATM    5  O10 UNL     1     -34.648  15.878  -1.874  1.00 20.00    -0.359 OA
ENDROOT
BRANCH   3   6
HETATM    6  C8  UNL     1     -33.224  15.997  -3.811  1.00 20.00     0.037 C 
HETATM    7  C5  UNL     1     -33.405  16.419  -5.270  1.00 20.00     0.015 C 
BRANCH   6   8
HETATM    8  C7  UNL     1     -33.383  14.478  -3.614  1.00 20.00     0.009 C 
BRANCH   8   9
HETATM    9  C6  UNL     1     -34.168  13.796  -4.737  1.00 20.00    -0.004 C 
HETATM   10  C4  UNL     1     -35.603  13.514  -4.317  1.00 20.00     0.005 C 
ENDBRANCH   8   9
ENDBRANCH   6   8
ENDBRANCH   3   6
TORSDOF 3
ENDMDL
MODEL 8
REMARK VINA RESULT:      -3.9      0.983      2.830
REMARK  3 active torsions:
REMARK  status: ('A' for Active; 'I' for Inactive)
REMARK    1  A    between atoms: C3_3  and  C8_8 
REMARK    2  A    between atoms: C6_6  and  C7_7 
REMARK    3  A    between atoms: C7_7  and  C8_8 
ROOT
HETATM    1  C1  UNL     1     -34.998  16.940  -6.061  1.00 20.00     0.197 C 
HETATM    2  C2  UNL     1     -33.776  17.779  -5.813  1.00 20.00     0.197 C 
HETATM    3  C3  UNL     1     -34.665  17.166  -3.832  1.00 20.00     0.263 C 
HETATM    4  O9  UNL     1     -35.693  16.985  -4.815  1.00 20.00    -0.359 OA
HETATM    5  O10 UNL     1     -33.413  17.434  -4.477  1.00 20.00    -0.359 OA
ENDROOT
BRANCH   3   6
HETATM    6  C8  UNL     1     -34.536  15.917  -2.983  1.00 20.00     0.037 C 
HETATM    7  C5  UNL     1     -34.602  16.292  -1.501  1.00 20.00     0.015 C 
BRANCH   6   8
HETATM    8  C7  UNL     1     -33.237  15.172  -3.343  1.00 20.00     0.009 C 
BRANCH   8   9
HETATM    9  C6  UNL     1     -33.469  13.733  -3.810  1.00 20.00    -0.004 C 
HETATM   10  C4  UNL     1     -34.936  13.483  -4.128  1.00 20.00     0.005 C 
ENDBRANCH   8   9
ENDBRANCH   6   8
ENDBRANCH   3   6
TORSDOF 3
ENDMDL
MODEL 9
REMARK VINA RESULT:      -3.8      2.338      2.813
REMARK  3 active torsions:
REMARK  status: ('A' for Active; 'I' for Inactive)
REMARK    1  A    between atoms: C3_3  and  C8_8 
REMARK    2  A    between atoms: C6_6  and  C7_7 
REMARK    3  A    between atoms: C7_7  and  C8_8 
ROOT
HETATM    1  C1  UNL     1     -37.586  15.491  -5.500  1.00 20.00     0.197 C 
HETATM    2  C2  UNL     1     -38.279  14.812  -4.352  1.00 20.00     0.197 C 
HETATM    3  C3  UNL     1     -36.094  14.258  -4.323  1.00 20.00     0.263 C 
HETATM    4  O9  UNL     1     -36.372  14.751  -5.640  1.00 20.00    -0.359 OA
HETATM    5  O10 UNL     1     -37.208  14.511  -3.460  1.00 20.00    -0.359 OA
ENDROOT
BRANCH   3   6
HETATM    6  C8  UNL     1     -34.860  14.942  -3.766  1.00 20.00     0.037 C 
HETATM    7  C5  UNL     1     -33.742  13.915  -3.579  1.00 20.00     0.015 C 
BRANCH   6   8
HETATM    8  C7  UNL     1     -35.213  15.671  -2.457  1.00 20.00     0.009 C 
BRANCH   8   9
HETATM    9  C6  UNL     1     -34.058  16.497  -1.887  1.00 20.00    -0.004 C 
HETATM   10  C4  UNL     1     -34.406  17.070  -0.522  1.00 20.00     0.005 C 
ENDBRANCH   8   9
ENDBRANCH   6   8
ENDBRANCH   3   6
TORSDOF 3
ENDMDL
