MODEL 1
REMARK VINA RESULT:      -5.6      0.000      0.000
REMARK  1 active torsions:
REMARK  status: ('A' for Active; 'I' for Inactive)
REMARK    1  A    between atoms: C1_1  and  C7_7 
ROOT
HETATM    1  C2  UNL     1     -34.365   4.824   5.970  1.00 20.00     0.001 C 
HETATM    2  C3  UNL     1     -33.008   5.716   2.323  1.00 20.00     0.016 C 
HETATM    3  C4  UNL     1     -35.473   4.785   4.925  1.00 20.00     0.005 C 
HETATM    4  C5  UNL     1     -33.850   6.253   5.879  1.00 20.00     0.006 C 
HETATM    5  C6  UNL     1     -34.152   4.802   2.731  1.00 20.00     0.006 C 
HETATM    6  C7  UNL     1     -32.582   6.338   3.647  1.00 20.00     0.091 C 
HETATM    7  C8  UNL     1     -34.927   5.618   3.767  1.00 20.00    -0.010 C 
HETATM    8  C9  UNL     1     -33.903   6.594   4.386  1.00 20.00     0.004 C 
ENDROOT
BRANCH   6   9
HETATM    9  C1  UNL     1     -31.822   7.603   3.414  1.00 20.00     0.177 C 
HETATM   10  O10 UNL     1     -31.005   7.918   4.323  1.00 20.00    -0.648 OA
HETATM   11  O11 UNL     1     -32.098   8.195   2.333  1.00 20.00    -0.648 OA
ENDBRANCH   6   9
TORSDOF 1
ENDMDL
MODEL 2
REMARK VINA RESULT:      -5.1     11.487     13.084
REMARK  1 active torsions:
REMARK  status: ('A' for Active; 'I' for Inactive)
REMARK    1  A    between atoms: C1_1  and  C7_7 
ROOT
HETATM    1  C2  UNL     1     -34.520  17.909  -3.508  1.00 20.00     0.001 C 
HETATM    2  C3  UNL     1     -34.426  14.941  -6.175  1.00 20.00     0.016 C 
HETATM    3  C4  UNL     1     -33.590  18.221  -4.673  1.00 20.00     0.005 C 
HETATM    4  C5  UNL     1     -33.936  16.629  -2.927  1.00 20.00     0.006 C 
HETATM    5  C6  UNL     1     -34.249  16.435  -6.387  1.00 20.00     0.006 C 
HETATM    6  C7  UNL     1     -34.506  14.820  -4.659  1.00 20.00     0.091 C 
HETATM    7  C8  UNL     1     -33.278  16.855  -5.281  1.00 20.00    -0.010 C 
HETATM    8  C9  UNL     1     -33.467  15.827  -4.145  1.00 20.00     0.004 C 
ENDROOT
BRANCH   6   9
HETATM    9  C1  UNL     1     -34.190  13.426  -4.224  1.00 20.00     0.177 C 
HETATM   10  O10 UNL     1     -33.053  13.268  -3.701  1.00 20.00    -0.648 OA
HETATM   11  O11 UNL     1     -35.107  12.583  -4.438  1.00 20.00    -0.648 OA
ENDBRANCH   6   9
TORSDOF 1
ENDMDL
MODEL 3
REMARK VINA RESULT:      -4.8     10.944     12.155
REMARK  1 active torsions:
REMARK  status: ('A' for Active; 'I' for Inactive)
REMARK    1  A    between atoms: C1_1  and  C7_7 
ROOT
HETATM    1  C2  UNL     1     -36.917  16.744  -3.625  1.00 20.00     0.001 C 
HETATM    2  C3  UNL     1     -33.099  15.581  -3.712  1.00 20.00     0.016 C 
HETATM    3  C4  UNL     1     -36.132  17.280  -2.435  1.00 20.00     0.005 C 
HETATM    4  C5  UNL     1     -36.769  15.235  -3.490  1.00 20.00     0.006 C 
HETATM    5  C6  UNL     1     -33.708  16.853  -3.147  1.00 20.00     0.006 C 
HETATM    6  C7  UNL     1     -34.323  14.770  -4.120  1.00 20.00     0.091 C 
HETATM    7  C8  UNL     1     -34.915  16.361  -2.344  1.00 20.00    -0.010 C 
HETATM    8  C9  UNL     1     -35.336  15.026  -2.994  1.00 20.00     0.004 C 
ENDROOT
BRANCH   6   9
HETATM    9  C1  UNL     1     -33.979  13.321  -4.238  1.00 20.00     0.177 C 
HETATM   10  O10 UNL     1     -32.883  12.982  -3.711  1.00 20.00    -0.648 OA
HETATM   11  O11 UNL     1     -34.832  12.622  -4.852  1.00 20.00    -0.648 OA
ENDBRANCH   6   9
TORSDOF 1
ENDMDL
MODEL 4
REMARK VINA RESULT:      -4.7     11.144     12.434
REMARK  1 active torsions:
REMARK  status: ('A' for Active; 'I' for Inactive)
REMARK    1  A    between atoms: C1_1  and  C7_7 
ROOT
HETATM    1  C2  UNL     1     -33.208  13.468  -3.652  1.00 20.00     0.001 C 
HETATM    2  C3  UNL     1     -35.671  16.354  -2.412  1.00 20.00     0.016 C 
HETATM    3  C4  UNL     1     -32.559  14.843  -3.734  1.00 20.00     0.005 C 
HETATM    4  C5  UNL     1     -34.432  13.606  -4.547  1.00 20.00     0.006 C 
HETATM    5  C6  UNL     1     -34.155  16.280  -2.338  1.00 20.00     0.006 C 
HETATM    6  C7  UNL     1     -36.032  15.110  -3.215  1.00 20.00     0.091 C 
HETATM    7  C8  UNL     1     -33.737  15.815  -3.735  1.00 20.00    -0.010 C 
HETATM    8  C9  UNL     1     -34.942  15.028  -4.294  1.00 20.00     0.004 C 
ENDROOT
BRANCH   6   9
HETATM    9  C1  UNL     1     -37.395  15.247  -3.814  1.00 20.00     0.177 C 
HETATM   10  O10 UNL     1     -38.130  14.225  -3.723  1.00 20.00    -0.648 OA
HETATM   11  O11 UNL     1     -37.634  16.373  -4.334  1.00 20.00    -0.648 OA
ENDBRANCH   6   9
TORSDOF 1
ENDMDL
MODEL 5
REMARK VINA RESULT:      -4.7     10.896     12.140
REMARK  1 active torsions:
REMARK  status: ('A' for Active; 'I' for Inactive)
REMARK    1  A    between atoms: C1_1  and  C7_7 
ROOT
HETATM    1  C2  UNL     1     -34.822  17.059  -1.489  1.00 20.00     0.001 C 
HETATM    2  C3  UNL     1     -36.454  14.435  -4.016  1.00 20.00     0.016 C 
HETATM    3  C4  UNL     1     -35.645  17.746  -2.570  1.00 20.00     0.005 C 
HETATM    4  C5  UNL     1     -33.774  16.293  -2.283  1.00 20.00     0.006 C 
HETATM    5  C6  UNL     1     -36.967  15.794  -3.571  1.00 20.00     0.006 C 
HETATM    6  C7  UNL     1     -35.075  14.365  -3.372  1.00 20.00     0.091 C 
HETATM    7  C8  UNL     1     -35.744  16.707  -3.685  1.00 20.00    -0.010 C 
HETATM    8  C9  UNL     1     -34.516  15.787  -3.524  1.00 20.00     0.004 C 
ENDROOT
BRANCH   6   9
HETATM    9  C1  UNL     1     -34.220  13.355  -4.067  1.00 20.00     0.177 C 
HETATM   10  O10 UNL     1     -34.813  12.644  -4.925  1.00 20.00    -0.648 OA
HETATM   11  O11 UNL     1     -33.010  13.345  -3.705  1.00 20.00    -0.648 OA
ENDBRANCH   6   9
TORSDOF 1
ENDMDL
MODEL 6
REMARK VINA RESULT:      -4.7     11.536     13.092
REMARK  1 active torsions:
REMARK  status: ('A' for Active; 'I' for Inactive)
REMARK    1  A    between atoms: C1_1  and  C7_7 
ROOT
HETATM    1  C2  UNL     1     -33.739  17.923  -4.787  1.00 20.00     0.001 C 
HETATM    2  C3  UNL     1     -36.113  15.007  -3.447  1.00 20.00     0.016 C 
HETATM    3  C4  UNL     1     -35.147  18.028  -5.358  1.00 20.00     0.005 C 
HETATM    4  C5  UNL     1     -33.278  16.546  -5.246  1.00 20.00     0.006 C 
HETATM    5  C6  UNL     1     -36.464  16.428  -3.852  1.00 20.00     0.006 C 
HETATM    6  C7  UNL     1     -34.637  14.905  -3.812  1.00 20.00     0.091 C 
HETATM    7  C8  UNL     1     -35.730  16.628  -5.180  1.00 20.00    -0.010 C 
HETATM    8  C9  UNL     1     -34.525  15.663  -5.143  1.00 20.00     0.004 C 
ENDROOT
BRANCH   6   9
HETATM    9  C1  UNL     1     -34.228  13.474  -3.953  1.00 20.00     0.177 C 
HETATM   10  O10 UNL     1     -33.029  13.223  -3.649  1.00 20.00    -0.648 OA
HETATM   11  O11 UNL     1     -35.139  12.700  -4.359  1.00 20.00    -0.648 OA
ENDBRANCH   6   9
TORSDOF 1
ENDMDL
MODEL 7
REMARK VINA RESULT:      -4.6     11.796     12.720
REMARK  1 active torsions:
REMARK  status: ('A' for Active; 'I' for Inactive)
REMARK    1  A    between atoms: C1_1  and  C7_7 
ROOT
HETATM    1  C2  UNL     1     -33.629  15.999  -3.012  1.00 20.00     0.001 C 
HETATM    2  C3  UNL     1     -35.904  14.763  -6.050  1.00 20.00     0.016 C 
HETATM    3  C4  UNL     1     -33.063  14.751  -3.675  1.00 20.00     0.005 C 
HETATM    4  C5  UNL     1     -35.011  15.554  -2.555  1.00 20.00     0.006 C 
HETATM    5  C6  UNL     1     -34.402  14.640  -5.856  1.00 20.00     0.006 C 
HETATM    6  C7  UNL     1     -36.370  15.352  -4.725  1.00 20.00     0.091 C 
HETATM    7  C8  UNL     1     -34.253  14.145  -4.415  1.00 20.00    -0.010 C 
HETATM    8  C9  UNL     1     -35.514  14.634  -3.671  1.00 20.00     0.004 C 
ENDROOT
BRANCH   6   9
HETATM    9  C1  UNL     1     -37.829  15.099  -4.521  1.00 20.00     0.177 C 
HETATM   10  O10 UNL     1     -38.108  14.183  -3.699  1.00 20.00    -0.648 OA
HETATM   11  O11 UNL     1     -38.595  15.838  -5.200  1.00 20.00    -0.648 OA
ENDBRANCH   6   9
TORSDOF 1
ENDMDL
MODEL 8
REMARK VINA RESULT:      -4.5     11.623     13.180
REMARK  1 active torsions:
REMARK  status: ('A' for Active; 'I' for Inactive)
REMARK    1  A    between atoms: C1_1  and  C7_7 
ROOT
HETATM    1  C2  UNL     1     -34.690  17.016  -6.725  1.00 20.00     0.001 C 
HETATM    2  C3  UNL     1     -34.797  15.431  -3.063  1.00 20.00     0.016 C 
HETATM    3  C4  UNL     1     -35.978  17.364  -5.992  1.00 20.00     0.005 C 
HETATM    4  C5  UNL     1     -34.706  15.494  -6.754  1.00 20.00     0.006 C 
HETATM    5  C6  UNL     1     -35.421  16.717  -3.576  1.00 20.00     0.006 C 
HETATM    6  C7  UNL     1     -34.229  14.800  -4.328  1.00 20.00     0.091 C 
HETATM    7  C8  UNL     1     -36.084  16.308  -4.894  1.00 20.00    -0.010 C 
HETATM    8  C9  UNL     1     -35.292  15.083  -5.400  1.00 20.00     0.004 C 
ENDROOT
BRANCH   6   9
HETATM    9  C1  UNL     1     -34.014  13.334  -4.134  1.00 20.00     0.177 C 
HETATM   10  O10 UNL     1     -34.998  12.600  -4.428  1.00 20.00    -0.648 OA
HETATM   11  O11 UNL     1     -32.871  13.019  -3.699  1.00 20.00    -0.648 OA
ENDBRANCH   6   9
TORSDOF 1
ENDMDL
MODEL 9
REMARK VINA RESULT:      -4.5     12.052     13.353
REMARK  1 active torsions:
REMARK  status: ('A' for Active; 'I' for Inactive)
REMARK    1  A    between atoms: C1_1  and  C7_7 
ROOT
HETATM    1  C2  UNL     1     -33.507  13.658  -3.805  1.00 20.00     0.001 C 
HETATM    2  C3  UNL     1     -34.274  16.115  -6.856  1.00 20.00     0.016 C 
HETATM    3  C4  UNL     1     -34.841  13.342  -4.468  1.00 20.00     0.005 C 
HETATM    4  C5  UNL     1     -33.674  15.102  -3.356  1.00 20.00     0.006 C 
HETATM    5  C6  UNL     1     -34.688  14.667  -6.655  1.00 20.00     0.006 C 
HETATM    6  C7  UNL     1     -33.606  16.464  -5.532  1.00 20.00     0.091 C 
HETATM    7  C8  UNL     1     -35.203  14.625  -5.215  1.00 20.00    -0.010 C 
HETATM    8  C9  UNL     1     -34.478  15.770  -4.475  1.00 20.00     0.004 C 
ENDROOT
BRANCH   6   9
HETATM    9  C1  UNL     1     -33.570  17.945  -5.335  1.00 20.00     0.177 C 
HETATM   10  O10 UNL     1     -33.544  18.630  -6.395  1.00 20.00    -0.648 OA
HETATM   11  O11 UNL     1     -33.570  18.320  -4.129  1.00 20.00    -0.648 OA
ENDBRANCH   6   9
TORSDOF 1
ENDMDL
