MODEL 1
REMARK VINA RESULT:      -4.1      0.000      0.000
REMARK  2 active torsions:
REMARK  status: ('A' for Active; 'I' for Inactive)
REMARK    1  A    between atoms: C1_1  and  C7_7 
REMARK    2  A    between atoms: C7_7  and  C8_8 
ROOT
HETATM    1  C3  UNL     1     -36.924  15.297  -3.976  1.00 20.00     0.018 C 
HETATM    2  C7  UNL     1     -35.562  14.690  -3.630  1.00 20.00     0.058 C 
ENDROOT
BRANCH   2   3
HETATM    3  C1  UNL     1     -35.169  13.743  -4.767  1.00 20.00     0.127 C 
HETATM    4  C2  UNL     1     -35.256  14.291  -6.170  1.00 20.00     0.091 C 
HETATM    5  O9  UNL     1     -34.778  12.595  -4.562  1.00 20.00    -0.298 OA
ENDBRANCH   2   3
BRANCH   2   6
HETATM    6  C8  UNL     1     -34.444  15.726  -3.276  1.00 20.00    -0.041 C 
HETATM    7  C4  UNL     1     -34.534  16.121  -1.787  1.00 20.00     0.015 C 
HETATM    8  C5  UNL     1     -33.024  15.198  -3.554  1.00 20.00     0.015 C 
HETATM    9  C6  UNL     1     -34.644  17.012  -4.108  1.00 20.00     0.015 C 
ENDBRANCH   2   6
TORSDOF 2
ENDMDL
MODEL 2
REMARK VINA RESULT:      -4.1      0.055      1.443
REMARK  2 active torsions:
REMARK  status: ('A' for Active; 'I' for Inactive)
REMARK    1  A    between atoms: C1_1  and  C7_7 
REMARK    2  A    between atoms: C7_7  and  C8_8 
ROOT
HETATM    1  C3  UNL     1     -36.937  15.215  -3.900  1.00 20.00     0.018 C 
HETATM    2  C7  UNL     1     -35.537  14.668  -3.608  1.00 20.00     0.058 C 
ENDROOT
BRANCH   2   3
HETATM    3  C1  UNL     1     -35.148  13.736  -4.760  1.00 20.00     0.127 C 
HETATM    4  C2  UNL     1     -35.302  14.282  -6.158  1.00 20.00     0.091 C 
HETATM    5  O9  UNL     1     -34.709  12.603  -4.570  1.00 20.00    -0.298 OA
ENDBRANCH   2   3
BRANCH   2   6
HETATM    6  C8  UNL     1     -34.451  15.752  -3.299  1.00 20.00    -0.041 C 
HETATM    7  C4  UNL     1     -33.041  15.189  -3.578  1.00 20.00     0.015 C 
HETATM    8  C5  UNL     1     -34.633  17.039  -4.125  1.00 20.00     0.015 C 
HETATM    9  C6  UNL     1     -34.508  16.134  -1.804  1.00 20.00     0.015 C 
ENDBRANCH   2   6
TORSDOF 2
ENDMDL
MODEL 3
REMARK VINA RESULT:      -4.0      0.761      2.243
REMARK  2 active torsions:
REMARK  status: ('A' for Active; 'I' for Inactive)
REMARK    1  A    between atoms: C1_1  and  C7_7 
REMARK    2  A    between atoms: C7_7  and  C8_8 
ROOT
HETATM    1  C3  UNL     1     -32.936  14.048  -3.508  1.00 20.00     0.018 C 
HETATM    2  C7  UNL     1     -33.975  14.789  -4.354  1.00 20.00     0.058 C 
ENDROOT
BRANCH   2   3
HETATM    3  C1  UNL     1     -34.696  13.754  -5.223  1.00 20.00     0.127 C 
HETATM    4  C2  UNL     1     -35.172  14.216  -6.577  1.00 20.00     0.091 C 
HETATM    5  O9  UNL     1     -34.867  12.592  -4.857  1.00 20.00    -0.298 OA
ENDBRANCH   2   3
BRANCH   2   6
HETATM    6  C8  UNL     1     -34.954  15.707  -3.549  1.00 20.00    -0.041 C 
HETATM    7  C4  UNL     1     -35.101  17.074  -4.250  1.00 20.00     0.015 C 
HETATM    8  C5  UNL     1     -36.356  15.093  -3.382  1.00 20.00     0.015 C 
HETATM    9  C6  UNL     1     -34.379  15.970  -2.139  1.00 20.00     0.015 C 
ENDBRANCH   2   6
TORSDOF 2
ENDMDL
MODEL 4
REMARK VINA RESULT:      -3.9      1.461      2.422
REMARK  2 active torsions:
REMARK  status: ('A' for Active; 'I' for Inactive)
REMARK    1  A    between atoms: C1_1  and  C7_7 
REMARK    2  A    between atoms: C7_7  and  C8_8 
ROOT
HETATM    1  C3  UNL     1     -36.731  14.672  -4.178  1.00 20.00     0.018 C 
HETATM    2  C7  UNL     1     -35.238  14.961  -4.361  1.00 20.00     0.058 C 
ENDROOT
BRANCH   2   3
HETATM    3  C1  UNL     1     -34.485  13.634  -4.228  1.00 20.00     0.127 C 
HETATM    4  C2  UNL     1     -33.106  13.692  -3.619  1.00 20.00     0.091 C 
HETATM    5  O9  UNL     1     -34.976  12.561  -4.577  1.00 20.00    -0.298 OA
ENDBRANCH   2   3
BRANCH   2   6
HETATM    6  C8  UNL     1     -34.869  15.752  -5.659  1.00 20.00    -0.041 C 
HETATM    7  C4  UNL     1     -33.641  16.652  -5.404  1.00 20.00     0.015 C 
HETATM    8  C5  UNL     1     -34.558  14.834  -6.857  1.00 20.00     0.015 C 
HETATM    9  C6  UNL     1     -36.042  16.673  -6.059  1.00 20.00     0.015 C 
ENDBRANCH   2   6
TORSDOF 2
ENDMDL
MODEL 5
REMARK VINA RESULT:      -3.9      1.488      2.847
REMARK  2 active torsions:
REMARK  status: ('A' for Active; 'I' for Inactive)
REMARK    1  A    between atoms: C1_1  and  C7_7 
REMARK    2  A    between atoms: C7_7  and  C8_8 
ROOT
HETATM    1  C3  UNL     1     -34.881  16.154  -2.102  1.00 20.00     0.018 C 
HETATM    2  C7  UNL     1     -35.232  14.965  -3.001  1.00 20.00     0.058 C 
ENDROOT
BRANCH   2   3
HETATM    3  C1  UNL     1     -36.685  15.135  -3.455  1.00 20.00     0.127 C 
HETATM    4  C2  UNL     1     -37.239  16.539  -3.455  1.00 20.00     0.091 C 
HETATM    5  O9  UNL     1     -37.374  14.186  -3.827  1.00 20.00    -0.298 OA
ENDBRANCH   2   3
BRANCH   2   6
HETATM    6  C8  UNL     1     -34.242  14.713  -4.186  1.00 20.00    -0.041 C 
HETATM    7  C4  UNL     1     -34.299  13.233  -4.622  1.00 20.00     0.015 C 
HETATM    8  C5  UNL     1     -34.535  15.594  -5.415  1.00 20.00     0.015 C 
HETATM    9  C6  UNL     1     -32.797  15.004  -3.727  1.00 20.00     0.015 C 
ENDBRANCH   2   6
TORSDOF 2
ENDMDL
MODEL 6
REMARK VINA RESULT:      -3.8      1.972      3.753
REMARK  2 active torsions:
REMARK  status: ('A' for Active; 'I' for Inactive)
REMARK    1  A    between atoms: C1_1  and  C7_7 
REMARK    2  A    between atoms: C7_7  and  C8_8 
ROOT
HETATM    1  C3  UNL     1     -32.600  14.878  -3.584  1.00 20.00     0.018 C 
HETATM    2  C7  UNL     1     -34.028  15.056  -3.058  1.00 20.00     0.058 C 
ENDROOT
BRANCH   2   3
HETATM    3  C1  UNL     1     -34.133  16.462  -2.460  1.00 20.00     0.127 C 
HETATM    4  C2  UNL     1     -34.579  16.558  -1.022  1.00 20.00     0.091 C 
HETATM    5  O9  UNL     1     -33.850  17.473  -3.101  1.00 20.00    -0.298 OA
ENDBRANCH   2   3
BRANCH   2   6
HETATM    6  C8  UNL     1     -35.160  14.739  -4.089  1.00 20.00    -0.041 C 
HETATM    7  C4  UNL     1     -36.538  15.105  -3.498  1.00 20.00     0.015 C 
HETATM    8  C5  UNL     1     -34.988  15.490  -5.423  1.00 20.00     0.015 C 
HETATM    9  C6  UNL     1     -35.176  13.225  -4.395  1.00 20.00     0.015 C 
ENDBRANCH   2   6
TORSDOF 2
ENDMDL
MODEL 7
REMARK VINA RESULT:      -3.8      0.938      2.245
REMARK  2 active torsions:
REMARK  status: ('A' for Active; 'I' for Inactive)
REMARK    1  A    between atoms: C1_1  and  C7_7 
REMARK    2  A    between atoms: C7_7  and  C8_8 
ROOT
HETATM    1  C3  UNL     1     -34.446  14.810  -6.153  1.00 20.00     0.018 C 
HETATM    2  C7  UNL     1     -35.077  15.293  -4.844  1.00 20.00     0.058 C 
ENDROOT
BRANCH   2   3
HETATM    3  C1  UNL     1     -36.006  14.186  -4.336  1.00 20.00     0.127 C 
HETATM    4  C2  UNL     1     -37.416  14.589  -3.983  1.00 20.00     0.091 C 
HETATM    5  O9  UNL     1     -35.641  13.015  -4.237  1.00 20.00    -0.298 OA
ENDBRANCH   2   3
BRANCH   2   6
HETATM    6  C8  UNL     1     -34.064  15.791  -3.761  1.00 20.00    -0.041 C 
HETATM    7  C4  UNL     1     -33.560  17.207  -4.113  1.00 20.00     0.015 C 
HETATM    8  C5  UNL     1     -34.665  15.827  -2.344  1.00 20.00     0.015 C 
HETATM    9  C6  UNL     1     -32.834  14.857  -3.731  1.00 20.00     0.015 C 
ENDBRANCH   2   6
TORSDOF 2
ENDMDL
MODEL 8
REMARK VINA RESULT:      -3.8      1.678      3.567
REMARK  2 active torsions:
REMARK  status: ('A' for Active; 'I' for Inactive)
REMARK    1  A    between atoms: C1_1  and  C7_7 
REMARK    2  A    between atoms: C7_7  and  C8_8 
ROOT
HETATM    1  C3  UNL     1     -33.638  17.399  -5.212  1.00 20.00     0.018 C 
HETATM    2  C7  UNL     1     -33.471  15.877  -5.204  1.00 20.00     0.058 C 
ENDROOT
BRANCH   2   3
HETATM    3  C1  UNL     1     -33.097  15.455  -3.780  1.00 20.00     0.127 C 
HETATM    4  C2  UNL     1     -33.860  16.108  -2.654  1.00 20.00     0.091 C 
HETATM    5  O9  UNL     1     -32.233  14.610  -3.549  1.00 20.00    -0.298 OA
ENDBRANCH   2   3
BRANCH   2   6
HETATM    6  C8  UNL     1     -34.680  15.072  -5.786  1.00 20.00    -0.041 C 
HETATM    7  C4  UNL     1     -34.545  14.940  -7.318  1.00 20.00     0.015 C 
HETATM    8  C5  UNL     1     -34.810  13.660  -5.186  1.00 20.00     0.015 C 
HETATM    9  C6  UNL     1     -35.995  15.832  -5.502  1.00 20.00     0.015 C 
ENDBRANCH   2   6
TORSDOF 2
ENDMDL
MODEL 9
REMARK VINA RESULT:      -3.7      1.541      3.524
REMARK  2 active torsions:
REMARK  status: ('A' for Active; 'I' for Inactive)
REMARK    1  A    between atoms: C1_1  and  C7_7 
REMARK    2  A    between atoms: C7_7  and  C8_8 
ROOT
HETATM    1  C3  UNL     1     -33.453  16.075  -5.121  1.00 20.00     0.018 C 
HETATM    2  C7  UNL     1     -34.200  14.907  -5.771  1.00 20.00     0.058 C 
ENDROOT
BRANCH   2   3
HETATM    3  C1  UNL     1     -34.501  13.878  -4.677  1.00 20.00     0.127 C 
HETATM    4  C2  UNL     1     -34.523  14.382  -3.256  1.00 20.00     0.091 C 
HETATM    5  O9  UNL     1     -34.737  12.697  -4.931  1.00 20.00    -0.298 OA
ENDBRANCH   2   3
BRANCH   2   6
HETATM    6  C8  UNL     1     -35.462  15.306  -6.605  1.00 20.00    -0.041 C 
HETATM    7  C4  UNL     1     -35.593  14.394  -7.843  1.00 20.00     0.015 C 
HETATM    8  C5  UNL     1     -36.770  15.220  -5.797  1.00 20.00     0.015 C 
HETATM    9  C6  UNL     1     -35.312  16.757  -7.113  1.00 20.00     0.015 C 
ENDBRANCH   2   6
TORSDOF 2
ENDMDL
