MODEL 1
REMARK VINA RESULT:      -4.9      0.000      0.000
REMARK  0 active torsions:
REMARK  status: ('A' for Active; 'I' for Inactive)
ROOT
HETATM    1  C1  UNL     1     -33.300   6.549   4.481  1.00 20.00    -0.014 A 
HETATM    2  C2  UNL     1     -34.187   5.655   4.021  1.00 20.00    -0.070 A 
HETATM    3  C3  UNL     1     -33.554   6.657   5.930  1.00 20.00     0.156 A 
HETATM    4  C4  UNL     1     -34.711   5.807   6.362  1.00 20.00     0.092 A 
HETATM    5  C5  UNL     1     -35.093   5.065   5.078  1.00 20.00     0.018 A 
HETATM    6  C6  UNL     1     -32.244   7.339   3.808  1.00 20.00     0.052 C 
HETATM    7  C7  UNL     1     -34.361   5.229   2.599  1.00 20.00     0.044 C 
HETATM    8  C8  UNL     1     -34.917   3.556   5.233  1.00 20.00     0.015 C 
HETATM    9  O9  UNL     1     -32.906   7.374   6.679  1.00 20.00    -0.293 OA
ENDROOT
TORSDOF 0
ENDMDL
MODEL 2
REMARK VINA RESULT:      -4.9     11.949     13.504
REMARK  0 active torsions:
REMARK  status: ('A' for Active; 'I' for Inactive)
ROOT
HETATM    1  C1  UNL     1     -34.409  14.734  -5.643  1.00 20.00    -0.014 A 
HETATM    2  C2  UNL     1     -33.764  15.738  -5.032  1.00 20.00    -0.070 A 
HETATM    3  C3  UNL     1     -34.307  13.579  -4.731  1.00 20.00     0.156 A 
HETATM    4  C4  UNL     1     -33.498  13.898  -3.510  1.00 20.00     0.092 A 
HETATM    5  C5  UNL     1     -33.193  15.389  -3.677  1.00 20.00     0.018 A 
HETATM    6  C6  UNL     1     -35.111  14.648  -6.945  1.00 20.00     0.052 C 
HETATM    7  C7  UNL     1     -33.552  17.116  -5.574  1.00 20.00     0.044 C 
HETATM    8  C8  UNL     1     -33.807  16.213  -2.547  1.00 20.00     0.015 C 
HETATM    9  O9  UNL     1     -34.808  12.488  -4.962  1.00 20.00    -0.293 OA
ENDROOT
TORSDOF 0
ENDMDL
MODEL 3
REMARK VINA RESULT:      -4.8      1.917      3.708
REMARK  0 active torsions:
REMARK  status: ('A' for Active; 'I' for Inactive)
ROOT
HETATM    1  C1  UNL     1     -34.577   5.201   5.740  1.00 20.00    -0.014 A 
HETATM    2  C2  UNL     1     -33.936   6.354   5.499  1.00 20.00    -0.070 A 
HETATM    3  C3  UNL     1     -34.910   4.644   4.415  1.00 20.00     0.156 A 
HETATM    4  C4  UNL     1     -34.484   5.552   3.301  1.00 20.00     0.092 A 
HETATM    5  C5  UNL     1     -33.752   6.679   4.034  1.00 20.00     0.018 A 
HETATM    6  C6  UNL     1     -34.949   4.513   6.997  1.00 20.00     0.052 C 
HETATM    7  C7  UNL     1     -33.428   7.317   6.524  1.00 20.00     0.044 C 
HETATM    8  C8  UNL     1     -32.283   6.749   3.624  1.00 20.00     0.015 C 
HETATM    9  O9  UNL     1     -35.483   3.576   4.255  1.00 20.00    -0.293 OA
ENDROOT
TORSDOF 0
ENDMDL
MODEL 4
REMARK VINA RESULT:      -4.6     11.850     12.699
REMARK  0 active torsions:
REMARK  status: ('A' for Active; 'I' for Inactive)
ROOT
HETATM    1  C1  UNL     1     -34.079  14.348  -3.460  1.00 20.00    -0.014 A 
HETATM    2  C2  UNL     1     -34.698  15.403  -2.911  1.00 20.00    -0.070 A 
HETATM    3  C3  UNL     1     -35.122  13.610  -4.198  1.00 20.00     0.156 A 
HETATM    4  C4  UNL     1     -36.474  14.238  -4.037  1.00 20.00     0.092 A 
HETATM    5  C5  UNL     1     -36.174  15.501  -3.226  1.00 20.00     0.018 A 
HETATM    6  C6  UNL     1     -32.671  13.889  -3.420  1.00 20.00     0.052 C 
HETATM    7  C7  UNL     1     -34.076  16.437  -2.029  1.00 20.00     0.044 C 
HETATM    8  C8  UNL     1     -36.529  16.764  -4.009  1.00 20.00     0.015 C 
HETATM    9  O9  UNL     1     -34.904  12.596  -4.844  1.00 20.00    -0.293 OA
ENDROOT
TORSDOF 0
ENDMDL
MODEL 5
REMARK VINA RESULT:      -4.2      1.746      2.979
REMARK  0 active torsions:
REMARK  status: ('A' for Active; 'I' for Inactive)
ROOT
HETATM    1  C1  UNL     1     -34.217   5.464   3.911  1.00 20.00    -0.014 A 
HETATM    2  C2  UNL     1     -33.375   6.271   4.573  1.00 20.00    -0.070 A 
HETATM    3  C3  UNL     1     -34.923   4.685   4.946  1.00 20.00     0.156 A 
HETATM    4  C4  UNL     1     -34.431   5.010   6.325  1.00 20.00     0.092 A 
HETATM    5  C5  UNL     1     -33.433   6.144   6.079  1.00 20.00     0.018 A 
HETATM    6  C6  UNL     1     -34.488   5.278   2.467  1.00 20.00     0.052 C 
HETATM    7  C7  UNL     1     -32.405   7.231   3.965  1.00 20.00     0.044 C 
HETATM    8  C8  UNL     1     -33.876   7.435   6.764  1.00 20.00     0.015 C 
HETATM    9  O9  UNL     1     -35.789   3.860   4.698  1.00 20.00    -0.293 OA
ENDROOT
TORSDOF 0
ENDMDL
MODEL 6
REMARK VINA RESULT:      -4.1     12.045     13.371
REMARK  0 active torsions:
REMARK  status: ('A' for Active; 'I' for Inactive)
ROOT
HETATM    1  C1  UNL     1     -34.237  15.200  -3.911  1.00 20.00    -0.014 A 
HETATM    2  C2  UNL     1     -35.100  15.542  -4.878  1.00 20.00    -0.070 A 
HETATM    3  C3  UNL     1     -33.910  13.781  -4.148  1.00 20.00     0.156 A 
HETATM    4  C4  UNL     1     -34.673  13.217  -5.309  1.00 20.00     0.092 A 
HETATM    5  C5  UNL     1     -35.424  14.434  -5.854  1.00 20.00     0.018 A 
HETATM    6  C6  UNL     1     -33.652  15.963  -2.784  1.00 20.00     0.052 C 
HETATM    7  C7  UNL     1     -35.761  16.872  -5.047  1.00 20.00     0.044 C 
HETATM    8  C8  UNL     1     -34.995  14.760  -7.282  1.00 20.00     0.015 C 
HETATM    9  O9  UNL     1     -33.125  13.144  -3.462  1.00 20.00    -0.293 OA
ENDROOT
TORSDOF 0
ENDMDL
MODEL 7
REMARK VINA RESULT:      -4.1     11.959     13.334
REMARK  0 active torsions:
REMARK  status: ('A' for Active; 'I' for Inactive)
ROOT
HETATM    1  C1  UNL     1     -35.833  15.675  -4.567  1.00 20.00    -0.014 A 
HETATM    2  C2  UNL     1     -34.539  15.471  -4.853  1.00 20.00    -0.070 A 
HETATM    3  C3  UNL     1     -36.364  14.362  -4.154  1.00 20.00     0.156 A 
HETATM    4  C4  UNL     1     -35.329  13.282  -4.251  1.00 20.00     0.092 A 
HETATM    5  C5  UNL     1     -34.066  14.049  -4.652  1.00 20.00     0.018 A 
HETATM    6  C6  UNL     1     -36.682  16.888  -4.611  1.00 20.00     0.052 C 
HETATM    7  C7  UNL     1     -33.571  16.491  -5.359  1.00 20.00     0.044 C 
HETATM    8  C8  UNL     1     -32.980  13.933  -3.585  1.00 20.00     0.015 C 
HETATM    9  O9  UNL     1     -37.519  14.182  -3.797  1.00 20.00    -0.293 OA
ENDROOT
TORSDOF 0
ENDMDL
MODEL 8
REMARK VINA RESULT:      -4.1      1.468      2.527
REMARK  0 active torsions:
REMARK  status: ('A' for Active; 'I' for Inactive)
ROOT
HETATM    1  C1  UNL     1     -33.898   6.313   5.391  1.00 20.00    -0.014 A 
HETATM    2  C2  UNL     1     -33.725   6.506   4.076  1.00 20.00    -0.070 A 
HETATM    3  C3  UNL     1     -34.915   5.251   5.509  1.00 20.00     0.156 A 
HETATM    4  C4  UNL     1     -35.427   4.812   4.170  1.00 20.00     0.092 A 
HETATM    5  C5  UNL     1     -34.562   5.610   3.191  1.00 20.00     0.018 A 
HETATM    6  C6  UNL     1     -33.286   6.950   6.580  1.00 20.00     0.052 C 
HETATM    7  C7  UNL     1     -32.822   7.513   3.439  1.00 20.00     0.044 C 
HETATM    8  C8  UNL     1     -33.717   4.689   2.314  1.00 20.00     0.015 C 
HETATM    9  O9  UNL     1     -35.304   4.802   6.578  1.00 20.00    -0.293 OA
ENDROOT
TORSDOF 0
ENDMDL
MODEL 9
REMARK VINA RESULT:      -4.0     12.393     13.973
REMARK  0 active torsions:
REMARK  status: ('A' for Active; 'I' for Inactive)
ROOT
HETATM    1  C1  UNL     1     -34.149  16.368  -2.958  1.00 20.00    -0.014 A 
HETATM    2  C2  UNL     1     -33.783  15.458  -3.873  1.00 20.00    -0.070 A 
HETATM    3  C3  UNL     1     -33.996  17.680  -3.615  1.00 20.00     0.156 A 
HETATM    4  C4  UNL     1     -33.450  17.551  -5.006  1.00 20.00     0.092 A 
HETATM    5  C5  UNL     1     -33.378  16.036  -5.210  1.00 20.00     0.018 A 
HETATM    6  C6  UNL     1     -34.617  16.240  -1.559  1.00 20.00     0.052 C 
HETATM    7  C7  UNL     1     -33.724  13.977  -3.676  1.00 20.00     0.044 C 
HETATM    8  C8  UNL     1     -34.288  15.583  -6.350  1.00 20.00     0.015 C 
HETATM    9  O9  UNL     1     -34.266  18.742  -3.075  1.00 20.00    -0.293 OA
ENDROOT
TORSDOF 0
ENDMDL
