MODEL 1
REMARK VINA RESULT:      -3.8      0.000      0.000
REMARK  2 active torsions:
REMARK  status: ('A' for Active; 'I' for Inactive)
REMARK    1  A    between atoms: C3_3  and  C6_6 
REMARK    2  A    between atoms: C6_6  and  C7_7 
ROOT
HETATM    1  C1  UNL     1     -34.632  13.251  -4.672  1.00 20.00     0.281 C 
HETATM    2  C2  UNL     1     -35.156  14.231  -5.713  1.00 20.00     0.106 C 
HETATM    3  C3  UNL     1     -33.522  15.164  -3.868  1.00 20.00     0.282 C 
HETATM    4  N8  UNL     1     -34.334  14.011  -3.451  1.00 20.00     0.098 N 
HETATM    5  S9  UNL     1     -34.085  15.673  -5.523  1.00 20.00    -0.132 SA
HETATM    6  H24 UNL     1     -35.215  14.351  -3.063  1.00 20.00     0.317 HD
ENDROOT
BRANCH   3   7
HETATM    7  C6  UNL     1     -33.647  16.312  -2.878  1.00 20.00     0.050 C 
BRANCH   7   8
HETATM    8  C7  UNL     1     -34.899  16.226  -1.988  1.00 20.00    -0.020 C 
HETATM    9  C4  UNL     1     -34.642  16.737  -0.570  1.00 20.00     0.009 C 
HETATM   10  C5  UNL     1     -36.044  17.017  -2.624  1.00 20.00     0.009 C 
ENDBRANCH   7   8
ENDBRANCH   3   7
TORSDOF 2
ENDMDL
MODEL 2
REMARK VINA RESULT:      -3.7      0.884      1.423
REMARK  2 active torsions:
REMARK  status: ('A' for Active; 'I' for Inactive)
REMARK    1  A    between atoms: C3_3  and  C6_6 
REMARK    2  A    between atoms: C6_6  and  C7_7 
ROOT
HETATM    1  C1  UNL     1     -34.366  13.290  -4.892  1.00 20.00     0.281 C 
HETATM    2  C2  UNL     1     -35.085  14.260  -5.819  1.00 20.00     0.106 C 
HETATM    3  C3  UNL     1     -34.268  15.175  -3.487  1.00 20.00     0.282 C 
HETATM    4  N8  UNL     1     -34.588  13.741  -3.512  1.00 20.00     0.098 N 
HETATM    5  S9  UNL     1     -34.739  15.880  -5.099  1.00 20.00    -0.132 SA
HETATM    6  H24 UNL     1     -35.578  13.620  -3.292  1.00 20.00     0.317 HD
ENDROOT
BRANCH   3   7
HETATM    7  C6  UNL     1     -34.996  15.884  -2.354  1.00 20.00     0.050 C 
BRANCH   7   8
HETATM    8  C7  UNL     1     -34.083  16.784  -1.504  1.00 20.00    -0.020 C 
HETATM    9  C4  UNL     1     -33.749  18.101  -2.205  1.00 20.00     0.009 C 
HETATM   10  C5  UNL     1     -34.748  17.070  -0.155  1.00 20.00     0.009 C 
ENDBRANCH   7   8
ENDBRANCH   3   7
TORSDOF 2
ENDMDL
MODEL 3
REMARK VINA RESULT:      -3.6      1.662      2.056
REMARK  2 active torsions:
REMARK  status: ('A' for Active; 'I' for Inactive)
REMARK    1  A    between atoms: C3_3  and  C6_6 
REMARK    2  A    between atoms: C6_6  and  C7_7 
ROOT
HETATM    1  C1  UNL     1     -34.133  15.553  -6.661  1.00 20.00     0.281 C 
HETATM    2  C2  UNL     1     -35.055  14.395  -6.308  1.00 20.00     0.106 C 
HETATM    3  C3  UNL     1     -34.284  15.986  -4.354  1.00 20.00     0.282 C 
HETATM    4  N8  UNL     1     -33.335  15.872  -5.470  1.00 20.00     0.098 N 
HETATM    5  S9  UNL     1     -35.634  14.798  -4.645  1.00 20.00    -0.132 SA
HETATM    6  H24 UNL     1     -32.705  15.088  -5.289  1.00 20.00     0.317 HD
ENDROOT
BRANCH   3   7
HETATM    7  C6  UNL     1     -33.603  15.712  -3.021  1.00 20.00     0.050 C 
BRANCH   7   8
HETATM    8  C7  UNL     1     -33.698  16.885  -2.029  1.00 20.00    -0.020 C 
HETATM    9  C4  UNL     1     -34.114  18.190  -2.708  1.00 20.00     0.009 C 
HETATM   10  C5  UNL     1     -34.690  16.542  -0.915  1.00 20.00     0.009 C 
ENDBRANCH   7   8
ENDBRANCH   3   7
TORSDOF 2
ENDMDL
MODEL 4
REMARK VINA RESULT:      -3.5      2.167      4.305
REMARK  2 active torsions:
REMARK  status: ('A' for Active; 'I' for Inactive)
REMARK    1  A    between atoms: C3_3  and  C6_6 
REMARK    2  A    between atoms: C6_6  and  C7_7 
ROOT
HETATM    1  C1  UNL     1     -34.793  17.224   0.011  1.00 20.00     0.281 C 
HETATM    2  C2  UNL     1     -33.625  18.157  -0.279  1.00 20.00     0.106 C 
HETATM    3  C3  UNL     1     -34.782  16.970  -2.328  1.00 20.00     0.282 C 
HETATM    4  N8  UNL     1     -34.847  16.224  -1.063  1.00 20.00     0.098 N 
HETATM    5  S9  UNL     1     -33.725  18.429  -2.062  1.00 20.00    -0.132 SA
HETATM    6  H24 UNL     1     -34.019  15.630  -0.987  1.00 20.00     0.317 HD
ENDROOT
BRANCH   3   7
HETATM    7  C6  UNL     1     -34.232  16.103  -3.452  1.00 20.00     0.050 C 
BRANCH   7   8
HETATM    8  C7  UNL     1     -34.580  14.611  -3.304  1.00 20.00    -0.020 C 
HETATM    9  C4  UNL     1     -35.857  14.234  -4.055  1.00 20.00     0.009 C 
HETATM   10  C5  UNL     1     -33.414  13.755  -3.805  1.00 20.00     0.009 C 
ENDBRANCH   7   8
ENDBRANCH   3   7
TORSDOF 2
ENDMDL
MODEL 5
REMARK VINA RESULT:      -3.5      2.004      2.826
REMARK  2 active torsions:
REMARK  status: ('A' for Active; 'I' for Inactive)
REMARK    1  A    between atoms: C3_3  and  C6_6 
REMARK    2  A    between atoms: C6_6  and  C7_7 
ROOT
HETATM    1  C1  UNL     1     -35.116  14.876  -7.866  1.00 20.00     0.281 C 
HETATM    2  C2  UNL     1     -36.371  15.009  -7.015  1.00 20.00     0.106 C 
HETATM    3  C3  UNL     1     -34.185  16.212  -6.167  1.00 20.00     0.282 C 
HETATM    4  N8  UNL     1     -33.955  15.006  -6.977  1.00 20.00     0.098 N 
HETATM    5  S9  UNL     1     -35.976  16.353  -5.874  1.00 20.00    -0.132 SA
HETATM    6  H24 UNL     1     -33.933  14.193  -6.359  1.00 20.00     0.317 HD
ENDROOT
BRANCH   3   7
HETATM    7  C6  UNL     1     -33.426  16.144  -4.850  1.00 20.00     0.050 C 
BRANCH   7   8
HETATM    8  C7  UNL     1     -34.220  15.475  -3.715  1.00 20.00    -0.020 C 
HETATM    9  C4  UNL     1     -33.909  13.983  -3.589  1.00 20.00     0.009 C 
HETATM   10  C5  UNL     1     -33.925  16.179  -2.389  1.00 20.00     0.009 C 
ENDBRANCH   7   8
ENDBRANCH   3   7
TORSDOF 2
ENDMDL
MODEL 6
REMARK VINA RESULT:      -3.5     11.589     12.199
REMARK  2 active torsions:
REMARK  status: ('A' for Active; 'I' for Inactive)
REMARK    1  A    between atoms: C3_3  and  C6_6 
REMARK    2  A    between atoms: C6_6  and  C7_7 
ROOT
HETATM    1  C1  UNL     1     -35.540   4.652   4.812  1.00 20.00     0.281 C 
HETATM    2  C2  UNL     1     -34.685   4.861   6.054  1.00 20.00     0.106 C 
HETATM    3  C3  UNL     1     -34.064   6.238   3.894  1.00 20.00     0.282 C 
HETATM    4  N8  UNL     1     -34.706   4.941   3.638  1.00 20.00     0.098 N 
HETATM    5  S9  UNL     1     -33.749   6.362   5.683  1.00 20.00    -0.132 SA
HETATM    6  H24 UNL     1     -33.983   4.222   3.576  1.00 20.00     0.317 HD
ENDROOT
BRANCH   3   7
HETATM    7  C6  UNL     1     -32.769   6.377   3.107  1.00 20.00     0.050 C 
BRANCH   7   8
HETATM    8  C7  UNL     1     -32.201   7.807   3.105  1.00 20.00    -0.020 C 
HETATM    9  C4  UNL     1     -30.910   7.922   3.917  1.00 20.00     0.009 C 
HETATM   10  C5  UNL     1     -31.949   8.263   1.666  1.00 20.00     0.009 C 
ENDBRANCH   7   8
ENDBRANCH   3   7
TORSDOF 2
ENDMDL
MODEL 7
REMARK VINA RESULT:      -3.5      1.570      1.770
REMARK  2 active torsions:
REMARK  status: ('A' for Active; 'I' for Inactive)
REMARK    1  A    between atoms: C3_3  and  C6_6 
REMARK    2  A    between atoms: C6_6  and  C7_7 
ROOT
HETATM    1  C1  UNL     1     -34.416  14.299  -5.425  1.00 20.00     0.281 C 
HETATM    2  C2  UNL     1     -35.547  13.763  -4.559  1.00 20.00     0.106 C 
HETATM    3  C3  UNL     1     -34.323  15.953  -3.754  1.00 20.00     0.282 C 
HETATM    4  N8  UNL     1     -33.494  15.037  -4.552  1.00 20.00     0.098 N 
HETATM    5  S9  UNL     1     -35.917  15.131  -3.439  1.00 20.00    -0.132 SA
HETATM    6  H24 UNL     1     -33.043  14.369  -3.925  1.00 20.00     0.317 HD
ENDROOT
BRANCH   3   7
HETATM    7  C6  UNL     1     -33.637  16.319  -2.446  1.00 20.00     0.050 C 
BRANCH   7   8
HETATM    8  C7  UNL     1     -34.364  17.421  -1.657  1.00 20.00    -0.020 C 
HETATM    9  C4  UNL     1     -34.740  16.974  -0.244  1.00 20.00     0.009 C 
HETATM   10  C5  UNL     1     -33.488  18.674  -1.587  1.00 20.00     0.009 C 
ENDBRANCH   7   8
ENDBRANCH   3   7
TORSDOF 2
ENDMDL
MODEL 8
REMARK VINA RESULT:      -3.5     12.828     14.495
REMARK  2 active torsions:
REMARK  status: ('A' for Active; 'I' for Inactive)
REMARK    1  A    between atoms: C3_3  and  C6_6 
REMARK    2  A    between atoms: C6_6  and  C7_7 
ROOT
HETATM    1  C1  UNL     1     -40.904   5.412  -0.494  1.00 20.00     0.281 C 
HETATM    2  C2  UNL     1     -41.336   6.382  -1.585  1.00 20.00     0.106 C 
HETATM    3  C3  UNL     1     -41.802   3.817  -1.973  1.00 20.00     0.282 C 
HETATM    4  N8  UNL     1     -40.637   4.114  -1.128  1.00 20.00     0.098 N 
HETATM    5  S9  UNL     1     -42.433   5.395  -2.628  1.00 20.00    -0.132 SA
HETATM    6  H24 UNL     1     -39.813   4.213  -1.723  1.00 20.00     0.317 HD
ENDROOT
BRANCH   3   7
HETATM    7  C6  UNL     1     -41.434   2.871  -3.106  1.00 20.00     0.050 C 
BRANCH   7   8
HETATM    8  C7  UNL     1     -42.508   1.807  -3.394  1.00 20.00    -0.020 C 
HETATM    9  C4  UNL     1     -41.902   0.457  -3.775  1.00 20.00     0.009 C 
HETATM   10  C5  UNL     1     -43.414   1.641  -2.171  1.00 20.00     0.009 C 
ENDBRANCH   7   8
ENDBRANCH   3   7
TORSDOF 2
ENDMDL
MODEL 9
REMARK VINA RESULT:      -3.4      2.380      4.365
REMARK  2 active torsions:
REMARK  status: ('A' for Active; 'I' for Inactive)
REMARK    1  A    between atoms: C3_3  and  C6_6 
REMARK    2  A    between atoms: C6_6  and  C7_7 
ROOT
HETATM    1  C1  UNL     1     -33.726  18.630  -2.585  1.00 20.00     0.281 C 
HETATM    2  C2  UNL     1     -34.513  18.596  -1.283  1.00 20.00     0.106 C 
HETATM    3  C3  UNL     1     -34.104  16.308  -2.525  1.00 20.00     0.282 C 
HETATM    4  N8  UNL     1     -34.158  17.487  -3.401  1.00 20.00     0.098 N 
HETATM    5  S9  UNL     1     -34.536  16.845  -0.840  1.00 20.00    -0.132 SA
HETATM    6  H24 UNL     1     -35.126  17.645  -3.683  1.00 20.00     0.317 HD
ENDROOT
BRANCH   3   7
HETATM    7  C6  UNL     1     -35.054  15.221  -3.006  1.00 20.00     0.050 C 
BRANCH   7   8
HETATM    8  C7  UNL     1     -34.337  13.960  -3.520  1.00 20.00    -0.020 C 
HETATM    9  C4  UNL     1     -34.866  13.504  -4.880  1.00 20.00     0.009 C 
HETATM   10  C5  UNL     1     -32.831  14.220  -3.611  1.00 20.00     0.009 C 
ENDBRANCH   7   8
ENDBRANCH   3   7
TORSDOF 2
ENDMDL
