MODEL 1
REMARK VINA RESULT:      -5.0      0.000      0.000
REMARK  1 active torsions:
REMARK  status: ('A' for Active; 'I' for Inactive)
REMARK    1  A    between atoms: C6_6  and  O11_11 
ROOT
HETATM    1  C1  UNL     1     -33.700  15.780  -3.713  1.00 20.00     0.011 A 
HETATM    2  C2  UNL     1     -34.176  14.497  -3.433  1.00 20.00     0.037 A 
HETATM    3  C3  UNL     1     -34.962  14.242  -5.720  1.00 20.00     0.044 A 
HETATM    4  C4  UNL     1     -33.873  16.286  -4.991  1.00 20.00    -0.048 A 
HETATM    5  C5  UNL     1     -34.499  15.519  -5.985  1.00 20.00    -0.049 A 
HETATM    6  C6  UNL     1     -34.803  13.733  -4.430  1.00 20.00     0.066 A 
HETATM    7  C7  UNL     1     -34.527  16.251  -7.290  1.00 20.00     0.040 C 
HETATM    8  C8  UNL     1     -34.294  17.694  -6.822  1.00 20.00     0.014 C 
HETATM    9  C9  UNL     1     -33.419  17.605  -5.554  1.00 20.00     0.015 C 
HETATM   10  C10 UNL     1     -33.614  18.801  -4.635  1.00 20.00     0.015 C 
ENDROOT
BRANCH   6  11
HETATM   11  O11 UNL     1     -35.253  12.481  -4.136  1.00 20.00    -0.361 OA
HETATM   12  H23 UNL     1     -35.647  12.072  -4.923  1.00 20.00     0.217 HD
ENDBRANCH   6  11
TORSDOF 1
ENDMDL
MODEL 2
REMARK VINA RESULT:      -4.9      1.310      2.802
REMARK  1 active torsions:
REMARK  status: ('A' for Active; 'I' for Inactive)
REMARK    1  A    between atoms: C6_6  and  O11_11 
ROOT
HETATM    1  C1  UNL     1     -34.418  16.165  -5.370  1.00 20.00     0.011 A 
HETATM    2  C2  UNL     1     -34.496  14.802  -5.668  1.00 20.00     0.037 A 
HETATM    3  C3  UNL     1     -34.542  14.241  -3.303  1.00 20.00     0.044 A 
HETATM    4  C4  UNL     1     -34.388  16.550  -4.039  1.00 20.00    -0.048 A 
HETATM    5  C5  UNL     1     -34.450  15.593  -3.017  1.00 20.00    -0.049 A 
HETATM    6  C6  UNL     1     -34.558  13.847  -4.641  1.00 20.00     0.066 A 
HETATM    7  C7  UNL     1     -34.453  16.245  -1.669  1.00 20.00     0.040 C 
HETATM    8  C8  UNL     1     -33.896  17.633  -2.015  1.00 20.00     0.014 C 
HETATM    9  C9  UNL     1     -34.349  17.937  -3.458  1.00 20.00     0.015 C 
HETATM   10  C10 UNL     1     -33.413  18.907  -4.164  1.00 20.00     0.015 C 
ENDROOT
BRANCH   6  11
HETATM   11  O11 UNL     1     -34.642  12.524  -4.957  1.00 20.00    -0.361 OA
HETATM   12  H23 UNL     1     -35.495  12.164  -4.667  1.00 20.00     0.217 HD
ENDBRANCH   6  11
TORSDOF 1
ENDMDL
MODEL 3
REMARK VINA RESULT:      -4.8      2.507      2.962
REMARK  1 active torsions:
REMARK  status: ('A' for Active; 'I' for Inactive)
REMARK    1  A    between atoms: C6_6  and  O11_11 
ROOT
HETATM    1  C1  UNL     1     -33.272  15.290  -3.130  1.00 20.00     0.011 A 
HETATM    2  C2  UNL     1     -33.466  14.068  -3.777  1.00 20.00     0.037 A 
HETATM    3  C3  UNL     1     -35.856  14.484  -3.942  1.00 20.00     0.044 A 
HETATM    4  C4  UNL     1     -34.376  16.091  -2.883  1.00 20.00    -0.048 A 
HETATM    5  C5  UNL     1     -35.656  15.688  -3.288  1.00 20.00    -0.049 A 
HETATM    6  C6  UNL     1     -34.750  13.668  -4.180  1.00 20.00     0.066 A 
HETATM    7  C7  UNL     1     -36.677  16.732  -2.960  1.00 20.00     0.040 C 
HETATM    8  C8  UNL     1     -35.930  17.549  -1.896  1.00 20.00     0.014 C 
HETATM    9  C9  UNL     1     -34.431  17.455  -2.249  1.00 20.00     0.015 C 
HETATM   10  C10 UNL     1     -33.540  17.636  -1.029  1.00 20.00     0.015 C 
ENDROOT
BRANCH   6  11
HETATM   11  O11 UNL     1     -34.914  12.474  -4.817  1.00 20.00    -0.361 OA
HETATM   12  H23 UNL     1     -35.615  11.958  -4.387  1.00 20.00     0.217 HD
ENDBRANCH   6  11
TORSDOF 1
ENDMDL
MODEL 4
REMARK VINA RESULT:      -4.7      2.057      3.361
REMARK  1 active torsions:
REMARK  status: ('A' for Active; 'I' for Inactive)
REMARK    1  A    between atoms: C6_6  and  O11_11 
ROOT
HETATM    1  C1  UNL     1     -34.066  15.066  -3.113  1.00 20.00     0.011 A 
HETATM    2  C2  UNL     1     -34.103  14.583  -4.424  1.00 20.00     0.037 A 
HETATM    3  C3  UNL     1     -33.743  16.820  -5.306  1.00 20.00     0.044 A 
HETATM    4  C4  UNL     1     -33.882  16.425  -2.914  1.00 20.00    -0.048 A 
HETATM    5  C5  UNL     1     -33.721  17.291  -4.004  1.00 20.00    -0.049 A 
HETATM    6  C6  UNL     1     -33.943  15.454  -5.512  1.00 20.00     0.066 A 
HETATM    7  C7  UNL     1     -33.488  18.697  -3.544  1.00 20.00     0.040 C 
HETATM    8  C8  UNL     1     -34.016  18.624  -2.104  1.00 20.00     0.014 C 
HETATM    9  C9  UNL     1     -33.763  17.182  -1.619  1.00 20.00     0.015 C 
HETATM   10  C10 UNL     1     -34.739  16.760  -0.532  1.00 20.00     0.015 C 
ENDROOT
BRANCH   6  11
HETATM   11  O11 UNL     1     -33.975  14.959  -6.781  1.00 20.00    -0.361 OA
HETATM   12  H23 UNL     1     -33.614  14.058  -6.799  1.00 20.00     0.217 HD
ENDBRANCH   6  11
TORSDOF 1
ENDMDL
MODEL 5
REMARK VINA RESULT:      -4.7      2.813      3.923
REMARK  1 active torsions:
REMARK  status: ('A' for Active; 'I' for Inactive)
REMARK    1  A    between atoms: C6_6  and  O11_11 
ROOT
HETATM    1  C1  UNL     1     -35.400  13.742  -4.156  1.00 20.00     0.011 A 
HETATM    2  C2  UNL     1     -34.006  13.646  -4.161  1.00 20.00     0.037 A 
HETATM    3  C3  UNL     1     -33.808  15.819  -3.088  1.00 20.00     0.044 A 
HETATM    4  C4  UNL     1     -35.982  14.884  -3.629  1.00 20.00    -0.048 A 
HETATM    5  C5  UNL     1     -35.189  15.912  -3.100  1.00 20.00    -0.049 A 
HETATM    6  C6  UNL     1     -33.216  14.678  -3.631  1.00 20.00     0.066 A 
HETATM    7  C7  UNL     1     -36.037  17.015  -2.547  1.00 20.00     0.040 C 
HETATM    8  C8  UNL     1     -37.373  16.737  -3.250  1.00 20.00     0.014 C 
HETATM    9  C9  UNL     1     -37.442  15.211  -3.468  1.00 20.00     0.015 C 
HETATM   10  C10 UNL     1     -38.322  14.838  -4.652  1.00 20.00     0.015 C 
ENDROOT
BRANCH   6  11
HETATM   11  O11 UNL     1     -31.858  14.559  -3.640  1.00 20.00    -0.361 OA
HETATM   12  H23 UNL     1     -31.578  13.871  -3.016  1.00 20.00     0.217 HD
ENDBRANCH   6  11
TORSDOF 1
ENDMDL
MODEL 6
REMARK VINA RESULT:      -4.7     12.119     13.604
REMARK  1 active torsions:
REMARK  status: ('A' for Active; 'I' for Inactive)
REMARK    1  A    between atoms: C6_6  and  O11_11 
ROOT
HETATM    1  C1  UNL     1     -43.385   5.121  -2.953  1.00 20.00     0.011 A 
HETATM    2  C2  UNL     1     -43.018   3.812  -3.274  1.00 20.00     0.037 A 
HETATM    3  C3  UNL     1     -41.089   3.945  -1.799  1.00 20.00     0.044 A 
HETATM    4  C4  UNL     1     -42.591   5.834  -2.068  1.00 20.00    -0.048 A 
HETATM    5  C5  UNL     1     -41.453   5.247  -1.498  1.00 20.00    -0.049 A 
HETATM    6  C6  UNL     1     -41.877   3.228  -2.700  1.00 20.00     0.066 A 
HETATM    7  C7  UNL     1     -40.787   6.186  -0.541  1.00 20.00     0.040 C 
HETATM    8  C8  UNL     1     -41.377   7.529  -0.991  1.00 20.00     0.014 C 
HETATM    9  C9  UNL     1     -42.789   7.226  -1.533  1.00 20.00     0.015 C 
HETATM   10  C10 UNL     1     -43.246   8.253  -2.558  1.00 20.00     0.015 C 
ENDROOT
BRANCH   6  11
HETATM   11  O11 UNL     1     -41.542   1.947  -3.022  1.00 20.00    -0.361 OA
HETATM   12  H23 UNL     1     -42.314   1.366  -2.932  1.00 20.00     0.217 HD
ENDBRANCH   6  11
TORSDOF 1
ENDMDL
MODEL 7
REMARK VINA RESULT:      -4.7      7.261      8.585
REMARK  1 active torsions:
REMARK  status: ('A' for Active; 'I' for Inactive)
REMARK    1  A    between atoms: C6_6  and  O11_11 
ROOT
HETATM    1  C1  UNL     1     -34.307  18.128   3.038  1.00 20.00     0.011 A 
HETATM    2  C2  UNL     1     -33.648  18.268   4.261  1.00 20.00     0.037 A 
HETATM    3  C3  UNL     1     -31.649  19.083   3.141  1.00 20.00     0.044 A 
HETATM    4  C4  UNL     1     -33.624  18.454   1.877  1.00 20.00    -0.048 A 
HETATM    5  C5  UNL     1     -32.306  18.928   1.932  1.00 20.00    -0.049 A 
HETATM    6  C6  UNL     1     -32.327  18.742   4.312  1.00 20.00     0.066 A 
HETATM    7  C7  UNL     1     -31.796  19.259   0.565  1.00 20.00     0.040 C 
HETATM    8  C8  UNL     1     -32.778  18.471  -0.313  1.00 20.00     0.014 C 
HETATM    9  C9  UNL     1     -34.116  18.433   0.455  1.00 20.00     0.015 C 
HETATM   10  C10 UNL     1     -34.961  17.225   0.081  1.00 20.00     0.015 C 
ENDROOT
BRANCH   6  11
HETATM   11  O11 UNL     1     -31.707  18.878   5.518  1.00 20.00    -0.361 OA
HETATM   12  H23 UNL     1     -31.099  18.137   5.667  1.00 20.00     0.217 HD
ENDBRANCH   6  11
TORSDOF 1
ENDMDL
MODEL 8
REMARK VINA RESULT:      -4.6      2.216      4.028
REMARK  1 active torsions:
REMARK  status: ('A' for Active; 'I' for Inactive)
REMARK    1  A    between atoms: C6_6  and  O11_11 
ROOT
HETATM    1  C1  UNL     1     -34.063  16.900  -5.437  1.00 20.00     0.011 A 
HETATM    2  C2  UNL     1     -33.825  17.856  -4.447  1.00 20.00     0.037 A 
HETATM    3  C3  UNL     1     -33.871  16.144  -2.720  1.00 20.00     0.044 A 
HETATM    4  C4  UNL     1     -34.216  15.576  -5.056  1.00 20.00    -0.048 A 
HETATM    5  C5  UNL     1     -34.119  15.205  -3.707  1.00 20.00    -0.049 A 
HETATM    6  C6  UNL     1     -33.730  17.480  -3.097  1.00 20.00     0.066 A 
HETATM    7  C7  UNL     1     -34.269  13.725  -3.544  1.00 20.00     0.040 C 
HETATM    8  C8  UNL     1     -34.944  13.352  -4.872  1.00 20.00     0.014 C 
HETATM    9  C9  UNL     1     -34.435  14.364  -5.919  1.00 20.00     0.015 C 
HETATM   10  C10 UNL     1     -35.420  14.554  -7.063  1.00 20.00     0.015 C 
ENDROOT
BRANCH   6  11
HETATM   11  O11 UNL     1     -33.490  18.430  -2.150  1.00 20.00    -0.361 OA
HETATM   12  H23 UNL     1     -33.282  18.010  -1.300  1.00 20.00     0.217 HD
ENDBRANCH   6  11
TORSDOF 1
ENDMDL
MODEL 9
REMARK VINA RESULT:      -4.6      2.661      3.423
REMARK  1 active torsions:
REMARK  status: ('A' for Active; 'I' for Inactive)
REMARK    1  A    between atoms: C6_6  and  O11_11 
ROOT
HETATM    1  C1  UNL     1     -36.865  15.485  -3.624  1.00 20.00     0.011 A 
HETATM    2  C2  UNL     1     -36.479  14.274  -4.204  1.00 20.00     0.037 A 
HETATM    3  C3  UNL     1     -34.234  14.506  -3.300  1.00 20.00     0.044 A 
HETATM    4  C4  UNL     1     -35.926  16.201  -2.899  1.00 20.00    -0.048 A 
HETATM    5  C5  UNL     1     -34.622  15.711  -2.740  1.00 20.00    -0.049 A 
HETATM    6  C6  UNL     1     -35.172  13.788  -4.043  1.00 20.00     0.066 A 
HETATM    7  C7  UNL     1     -33.805  16.627  -1.883  1.00 20.00     0.040 C 
HETATM    8  C8  UNL     1     -34.625  17.922  -1.973  1.00 20.00     0.014 C 
HETATM    9  C9  UNL     1     -36.097  17.494  -2.150  1.00 20.00     0.015 C 
HETATM   10  C10 UNL     1     -36.922  18.552  -2.866  1.00 20.00     0.015 C 
ENDROOT
BRANCH   6  11
HETATM   11  O11 UNL     1     -34.820  12.601  -4.612  1.00 20.00    -0.361 OA
HETATM   12  H23 UNL     1     -35.501  11.932  -4.439  1.00 20.00     0.217 HD
ENDBRANCH   6  11
TORSDOF 1
ENDMDL
