MODEL 1
REMARK VINA RESULT:      -4.3      0.000      0.000
REMARK  0 active torsions:
REMARK  status: ('A' for Active; 'I' for Inactive)
ROOT
HETATM    1  C1  UNL     1     -34.144  14.442  -3.440  1.00 20.00    -0.002 A 
HETATM    2  C2  UNL     1     -34.626  15.570  -2.889  1.00 20.00    -0.064 A 
HETATM    3  C3  UNL     1     -35.193  13.685  -4.160  1.00 20.00     0.215 A 
HETATM    4  C4  UNL     1     -36.083  15.868  -3.085  1.00 20.00     0.117 A 
HETATM    5  C5  UNL     1     -32.761  13.888  -3.416  1.00 20.00     0.053 C 
HETATM    6  C6  UNL     1     -33.851  16.573  -2.094  1.00 20.00     0.045 C 
HETATM    7  O7  UNL     1     -35.017  12.630  -4.747  1.00 20.00    -0.280 OA
HETATM    8  S8  UNL     1     -36.739  14.500  -4.068  1.00 20.00    -0.083 SA
ENDROOT
TORSDOF 0
ENDMDL
MODEL 2
REMARK VINA RESULT:      -4.2     11.660     12.079
REMARK  0 active torsions:
REMARK  status: ('A' for Active; 'I' for Inactive)
ROOT
HETATM    1  C1  UNL     1     -33.560   6.353   4.385  1.00 20.00    -0.002 A 
HETATM    2  C2  UNL     1     -33.835   6.363   5.701  1.00 20.00    -0.064 A 
HETATM    3  C3  UNL     1     -34.314   5.297   3.670  1.00 20.00     0.215 A 
HETATM    4  C4  UNL     1     -34.817   5.350   6.211  1.00 20.00     0.117 A 
HETATM    5  C5  UNL     1     -32.641   7.223   3.598  1.00 20.00     0.053 C 
HETATM    6  C6  UNL     1     -33.258   7.292   6.722  1.00 20.00     0.045 C 
HETATM    7  O7  UNL     1     -34.244   5.078   2.471  1.00 20.00    -0.280 OA
HETATM    8  S8  UNL     1     -35.329   4.389   4.767  1.00 20.00    -0.083 SA
ENDROOT
TORSDOF 0
ENDMDL
MODEL 3
REMARK VINA RESULT:      -3.9      2.673      3.200
REMARK  0 active torsions:
REMARK  status: ('A' for Active; 'I' for Inactive)
ROOT
HETATM    1  C1  UNL     1     -34.639  14.763  -6.023  1.00 20.00    -0.002 A 
HETATM    2  C2  UNL     1     -34.074  15.961  -5.793  1.00 20.00    -0.064 A 
HETATM    3  C3  UNL     1     -34.352  13.798  -4.936  1.00 20.00     0.215 A 
HETATM    4  C4  UNL     1     -33.281  16.122  -4.530  1.00 20.00     0.117 A 
HETATM    5  C5  UNL     1     -35.472  14.309  -7.171  1.00 20.00     0.053 C 
HETATM    6  C6  UNL     1     -34.158  17.168  -6.675  1.00 20.00     0.045 C 
HETATM    7  O7  UNL     1     -34.748  12.644  -4.902  1.00 20.00    -0.280 OA
HETATM    8  S8  UNL     1     -33.362  14.524  -3.689  1.00 20.00    -0.083 SA
ENDROOT
TORSDOF 0
ENDMDL
MODEL 4
REMARK VINA RESULT:      -3.8     11.850     12.369
REMARK  0 active torsions:
REMARK  status: ('A' for Active; 'I' for Inactive)
ROOT
HETATM    1  C1  UNL     1     -33.741   6.362   5.410  1.00 20.00    -0.002 A 
HETATM    2  C2  UNL     1     -33.392   6.354   4.112  1.00 20.00    -0.064 A 
HETATM    3  C3  UNL     1     -34.806   5.376   5.704  1.00 20.00     0.215 A 
HETATM    4  C4  UNL     1     -34.105   5.392   3.210  1.00 20.00     0.117 A 
HETATM    5  C5  UNL     1     -33.218   7.194   6.531  1.00 20.00     0.053 C 
HETATM    6  C6  UNL     1     -32.352   7.215   3.465  1.00 20.00     0.045 C 
HETATM    7  O7  UNL     1     -35.298   5.184   6.804  1.00 20.00    -0.280 OA
HETATM    8  S8  UNL     1     -35.280   4.507   4.261  1.00 20.00    -0.083 SA
ENDROOT
TORSDOF 0
ENDMDL
MODEL 5
REMARK VINA RESULT:      -3.8     11.800     12.380
REMARK  0 active torsions:
REMARK  status: ('A' for Active; 'I' for Inactive)
ROOT
HETATM    1  C1  UNL     1     -33.486   6.322   4.387  1.00 20.00    -0.002 A 
HETATM    2  C2  UNL     1     -34.272   5.426   3.765  1.00 20.00    -0.064 A 
HETATM    3  C3  UNL     1     -33.722   6.345   5.849  1.00 20.00     0.215 A 
HETATM    4  C4  UNL     1     -35.219   4.629   4.613  1.00 20.00     0.117 A 
HETATM    5  C5  UNL     1     -32.462   7.244   3.820  1.00 20.00     0.053 C 
HETATM    6  C6  UNL     1     -34.300   5.135   2.297  1.00 20.00     0.045 C 
HETATM    7  O7  UNL     1     -33.138   7.067   6.641  1.00 20.00    -0.280 OA
HETATM    8  S8  UNL     1     -34.957   5.195   6.310  1.00 20.00    -0.083 SA
ENDROOT
TORSDOF 0
ENDMDL
MODEL 6
REMARK VINA RESULT:      -3.8     11.984     12.481
REMARK  0 active torsions:
REMARK  status: ('A' for Active; 'I' for Inactive)
ROOT
HETATM    1  C1  UNL     1     -33.874   6.194   5.431  1.00 20.00    -0.002 A 
HETATM    2  C2  UNL     1     -34.733   5.164   5.524  1.00 20.00    -0.064 A 
HETATM    3  C3  UNL     1     -33.459   6.444   4.032  1.00 20.00     0.215 A 
HETATM    4  C4  UNL     1     -35.116   4.465   4.253  1.00 20.00     0.117 A 
HETATM    5  C5  UNL     1     -33.318   7.068   6.502  1.00 20.00     0.053 C 
HETATM    6  C6  UNL     1     -35.356   4.636   6.778  1.00 20.00     0.045 C 
HETATM    7  O7  UNL     1     -32.687   7.321   3.677  1.00 20.00    -0.280 OA
HETATM    8  S8  UNL     1     -34.218   5.315   2.933  1.00 20.00    -0.083 SA
ENDROOT
TORSDOF 0
ENDMDL
MODEL 7
REMARK VINA RESULT:      -3.7      2.388      2.503
REMARK  0 active torsions:
REMARK  status: ('A' for Active; 'I' for Inactive)
ROOT
HETATM    1  C1  UNL     1     -33.937  14.990  -4.766  1.00 20.00    -0.002 A 
HETATM    2  C2  UNL     1     -33.983  16.089  -5.539  1.00 20.00    -0.064 A 
HETATM    3  C3  UNL     1     -34.636  13.844  -5.392  1.00 20.00     0.215 A 
HETATM    4  C4  UNL     1     -34.701  15.983  -6.852  1.00 20.00     0.117 A 
HETATM    5  C5  UNL     1     -33.306  14.791  -3.431  1.00 20.00     0.053 C 
HETATM    6  C6  UNL     1     -33.383  17.423  -5.223  1.00 20.00     0.045 C 
HETATM    7  O7  UNL     1     -34.739  12.732  -4.898  1.00 20.00    -0.280 OA
HETATM    8  S8  UNL     1     -35.306  14.282  -6.948  1.00 20.00    -0.083 SA
ENDROOT
TORSDOF 0
ENDMDL
MODEL 8
REMARK VINA RESULT:      -3.7      1.652      2.440
REMARK  0 active torsions:
REMARK  status: ('A' for Active; 'I' for Inactive)
ROOT
HETATM    1  C1  UNL     1     -35.773  14.812  -3.652  1.00 20.00    -0.002 A 
HETATM    2  C2  UNL     1     -35.160  15.894  -3.139  1.00 20.00    -0.064 A 
HETATM    3  C3  UNL     1     -34.809  13.738  -3.985  1.00 20.00     0.215 A 
HETATM    4  C4  UNL     1     -33.669  15.841  -2.993  1.00 20.00     0.117 A 
HETATM    5  C5  UNL     1     -37.220  14.573  -3.912  1.00 20.00     0.053 C 
HETATM    6  C6  UNL     1     -35.821  17.160  -2.691  1.00 20.00     0.045 C 
HETATM    7  O7  UNL     1     -35.108  12.654  -4.463  1.00 20.00    -0.280 OA
HETATM    8  S8  UNL     1     -33.170  14.215  -3.607  1.00 20.00    -0.083 SA
ENDROOT
TORSDOF 0
ENDMDL
MODEL 9
REMARK VINA RESULT:      -3.7      1.810      2.812
REMARK  0 active torsions:
REMARK  status: ('A' for Active; 'I' for Inactive)
ROOT
HETATM    1  C1  UNL     1     -34.730  15.558  -2.954  1.00 20.00    -0.002 A 
HETATM    2  C2  UNL     1     -34.440  14.395  -3.563  1.00 20.00    -0.064 A 
HETATM    3  C3  UNL     1     -36.156  15.925  -3.116  1.00 20.00     0.215 A 
HETATM    4  C4  UNL     1     -35.554  13.688  -4.275  1.00 20.00     0.117 A 
HETATM    5  C5  UNL     1     -33.846  16.473  -2.180  1.00 20.00     0.053 C 
HETATM    6  C6  UNL     1     -33.103  13.723  -3.604  1.00 20.00     0.045 C 
HETATM    7  O7  UNL     1     -36.676  16.931  -2.659  1.00 20.00    -0.280 OA
HETATM    8  S8  UNL     1     -37.018  14.726  -4.053  1.00 20.00    -0.083 SA
ENDROOT
TORSDOF 0
ENDMDL
