MODEL 1
REMARK VINA RESULT:      -3.9      0.000      0.000
REMARK  1 active torsions:
REMARK  status: ('A' for Active; 'I' for Inactive)
REMARK    1  A    between atoms: C2_2  and  O3_3 
ROOT
HETATM    1  C2  UNL     1     -35.016   4.857   4.787  1.00 20.00     0.524 C 
HETATM    2  F4  UNL     1     -35.046   3.507   4.792  1.00 20.00    -0.144 F 
HETATM    3  F5  UNL     1     -36.098   5.307   4.117  1.00 20.00    -0.144 F 
HETATM    4  F6  UNL     1     -33.896   5.258   4.150  1.00 20.00    -0.144 F 
ENDROOT
BRANCH   1   5
HETATM    5  O3  UNL     1     -35.026   5.324   6.125  1.00 20.00    -0.303 OA
HETATM    6  C1  UNL     1     -34.083   6.367   6.336  1.00 20.00     0.211 C 
ENDBRANCH   1   5
TORSDOF 1
ENDMDL
MODEL 2
REMARK VINA RESULT:      -3.8      1.025      1.795
REMARK  1 active torsions:
REMARK  status: ('A' for Active; 'I' for Inactive)
REMARK    1  A    between atoms: C2_2  and  O3_3 
ROOT
HETATM    1  C2  UNL     1     -35.006   5.141   3.999  1.00 20.00     0.524 C 
HETATM    2  F4  UNL     1     -34.274   5.045   2.869  1.00 20.00    -0.144 F 
HETATM    3  F5  UNL     1     -35.162   3.903   4.516  1.00 20.00    -0.144 F 
HETATM    4  F6  UNL     1     -36.216   5.648   3.684  1.00 20.00    -0.144 F 
ENDROOT
BRANCH   1   5
HETATM    5  O3  UNL     1     -34.332   5.985   4.916  1.00 20.00    -0.303 OA
HETATM    6  C1  UNL     1     -34.512   5.567   6.263  1.00 20.00     0.211 C 
ENDBRANCH   1   5
TORSDOF 1
ENDMDL
MODEL 3
REMARK VINA RESULT:      -3.8      1.028      1.801
REMARK  1 active torsions:
REMARK  status: ('A' for Active; 'I' for Inactive)
REMARK    1  A    between atoms: C2_2  and  O3_3 
ROOT
HETATM    1  C2  UNL     1     -34.990   5.128   3.996  1.00 20.00     0.524 C 
HETATM    2  F4  UNL     1     -36.210   5.637   3.724  1.00 20.00    -0.144 F 
HETATM    3  F5  UNL     1     -34.292   5.049   2.843  1.00 20.00    -0.144 F 
HETATM    4  F6  UNL     1     -35.147   3.889   4.507  1.00 20.00    -0.144 F 
ENDROOT
BRANCH   1   5
HETATM    5  O3  UNL     1     -34.332   5.973   4.923  1.00 20.00    -0.303 OA
HETATM    6  C1  UNL     1     -34.533   5.556   6.267  1.00 20.00     0.211 C 
ENDBRANCH   1   5
TORSDOF 1
ENDMDL
MODEL 4
REMARK VINA RESULT:      -3.8      1.539      2.124
REMARK  1 active torsions:
REMARK  status: ('A' for Active; 'I' for Inactive)
REMARK    1  A    between atoms: C2_2  and  O3_3 
ROOT
HETATM    1  C2  UNL     1     -34.963   4.773   5.283  1.00 20.00     0.524 C 
HETATM    2  F4  UNL     1     -35.919   5.102   4.388  1.00 20.00    -0.144 F 
HETATM    3  F5  UNL     1     -34.868   3.427   5.334  1.00 20.00    -0.144 F 
HETATM    4  F6  UNL     1     -35.330   5.240   6.494  1.00 20.00    -0.144 F 
ENDROOT
BRANCH   1   5
HETATM    5  O3  UNL     1     -33.732   5.346   4.876  1.00 20.00    -0.303 OA
HETATM    6  C1  UNL     1     -33.909   6.350   3.886  1.00 20.00     0.211 C 
ENDBRANCH   1   5
TORSDOF 1
ENDMDL
MODEL 5
REMARK VINA RESULT:      -3.8      1.536      1.882
REMARK  1 active torsions:
REMARK  status: ('A' for Active; 'I' for Inactive)
REMARK    1  A    between atoms: C2_2  and  O3_3 
ROOT
HETATM    1  C2  UNL     1     -34.968   4.775   5.265  1.00 20.00     0.524 C 
HETATM    2  F4  UNL     1     -35.324   5.242   6.481  1.00 20.00    -0.144 F 
HETATM    3  F5  UNL     1     -35.933   5.103   4.379  1.00 20.00    -0.144 F 
HETATM    4  F6  UNL     1     -34.866   3.431   5.335  1.00 20.00    -0.144 F 
ENDROOT
BRANCH   1   5
HETATM    5  O3  UNL     1     -33.729   5.353   4.893  1.00 20.00    -0.303 OA
HETATM    6  C1  UNL     1     -33.880   6.343   3.885  1.00 20.00     0.211 C 
ENDBRANCH   1   5
TORSDOF 1
ENDMDL
MODEL 6
REMARK VINA RESULT:      -3.8      1.537      1.839
REMARK  1 active torsions:
REMARK  status: ('A' for Active; 'I' for Inactive)
REMARK    1  A    between atoms: C2_2  and  O3_3 
ROOT
HETATM    1  C2  UNL     1     -34.976   4.785   5.270  1.00 20.00     0.524 C 
HETATM    2  F4  UNL     1     -34.866   3.441   5.319  1.00 20.00    -0.144 F 
HETATM    3  F5  UNL     1     -35.339   5.230   6.492  1.00 20.00    -0.144 F 
HETATM    4  F6  UNL     1     -35.935   5.104   4.376  1.00 20.00    -0.144 F 
ENDROOT
BRANCH   1   5
HETATM    5  O3  UNL     1     -33.729   5.338   4.886  1.00 20.00    -0.303 OA
HETATM    6  C1  UNL     1     -33.870   6.335   3.882  1.00 20.00     0.211 C 
ENDBRANCH   1   5
TORSDOF 1
ENDMDL
MODEL 7
REMARK VINA RESULT:      -3.8      1.789      2.011
REMARK  1 active torsions:
REMARK  status: ('A' for Active; 'I' for Inactive)
REMARK    1  A    between atoms: C2_2  and  O3_3 
ROOT
HETATM    1  C2  UNL     1     -34.996   5.377   3.774  1.00 20.00     0.524 C 
HETATM    2  F4  UNL     1     -36.224   5.794   3.399  1.00 20.00    -0.144 F 
HETATM    3  F5  UNL     1     -34.396   6.374   4.460  1.00 20.00    -0.144 F 
HETATM    4  F6  UNL     1     -34.278   5.104   2.665  1.00 20.00    -0.144 F 
ENDROOT
BRANCH   1   5
HETATM    5  O3  UNL     1     -35.127   4.221   4.584  1.00 20.00    -0.303 OA
HETATM    6  C1  UNL     1     -34.892   4.499   5.958  1.00 20.00     0.211 C 
ENDBRANCH   1   5
TORSDOF 1
ENDMDL
MODEL 8
REMARK VINA RESULT:      -3.8      1.776      2.216
REMARK  1 active torsions:
REMARK  status: ('A' for Active; 'I' for Inactive)
REMARK    1  A    between atoms: C2_2  and  O3_3 
ROOT
HETATM    1  C2  UNL     1     -35.015   5.381   3.765  1.00 20.00     0.524 C 
HETATM    2  F4  UNL     1     -34.407   6.376   4.446  1.00 20.00    -0.144 F 
HETATM    3  F5  UNL     1     -34.278   5.100   2.669  1.00 20.00    -0.144 F 
HETATM    4  F6  UNL     1     -36.237   5.807   3.383  1.00 20.00    -0.144 F 
ENDROOT
BRANCH   1   5
HETATM    5  O3  UNL     1     -35.120   4.243   4.603  1.00 20.00    -0.303 OA
HETATM    6  C1  UNL     1     -34.909   4.563   5.971  1.00 20.00     0.211 C 
ENDBRANCH   1   5
TORSDOF 1
ENDMDL
MODEL 9
REMARK VINA RESULT:      -3.7      1.891      2.354
REMARK  1 active torsions:
REMARK  status: ('A' for Active; 'I' for Inactive)
REMARK    1  A    between atoms: C2_2  and  O3_3 
ROOT
HETATM    1  C2  UNL     1     -34.853   4.900   5.829  1.00 20.00     0.524 C 
HETATM    2  F4  UNL     1     -35.778   4.758   6.803  1.00 20.00    -0.144 F 
HETATM    3  F5  UNL     1     -33.963   3.890   5.932  1.00 20.00    -0.144 F 
HETATM    4  F6  UNL     1     -34.216   6.076   6.012  1.00 20.00    -0.144 F 
ENDROOT
BRANCH   1   5
HETATM    5  O3  UNL     1     -35.500   4.871   4.569  1.00 20.00    -0.303 OA
HETATM    6  C1  UNL     1     -34.699   5.440   3.541  1.00 20.00     0.211 C 
ENDBRANCH   1   5
TORSDOF 1
ENDMDL
