MODEL 1
REMARK VINA RESULT:      -3.9      0.000      0.000
REMARK  2 active torsions:
REMARK  status: ('A' for Active; 'I' for Inactive)
REMARK    1  A    between atoms: C3_3  and  C6_6 
REMARK    2  A    between atoms: C6_6  and  C7_7 
ROOT
HETATM    1  C1  UNL     1     -34.416  15.389  -5.842  1.00 20.00     0.281 C 
HETATM    2  C2  UNL     1     -34.700  13.973  -5.370  1.00 20.00     0.106 C 
HETATM    3  C3  UNL     1     -33.120  15.452  -3.864  1.00 20.00     0.282 C 
HETATM    4  N8  UNL     1     -33.118  15.805  -5.291  1.00 20.00     0.098 N 
HETATM    5  S9  UNL     1     -34.160  13.975  -3.647  1.00 20.00    -0.132 SA
HETATM    6  H24 UNL     1     -32.356  15.332  -5.774  1.00 20.00     0.317 HD
ENDROOT
BRANCH   3   7
HETATM    7  C6  UNL     1     -33.650  16.604  -3.017  1.00 20.00     0.050 C 
BRANCH   7   8
HETATM    8  C7  UNL     1     -34.858  16.221  -2.144  1.00 20.00    -0.020 C 
HETATM    9  C4  UNL     1     -34.678  16.638  -0.685  1.00 20.00     0.009 C 
HETATM   10  C5  UNL     1     -36.130  16.853  -2.711  1.00 20.00     0.009 C 
ENDBRANCH   7   8
ENDBRANCH   3   7
TORSDOF 2
ENDMDL
MODEL 2
REMARK VINA RESULT:      -3.9      0.982      1.491
REMARK  2 active torsions:
REMARK  status: ('A' for Active; 'I' for Inactive)
REMARK    1  A    between atoms: C3_3  and  C6_6 
REMARK    2  A    between atoms: C6_6  and  C7_7 
ROOT
HETATM    1  C1  UNL     1     -34.225  15.456  -5.829  1.00 20.00     0.281 C 
HETATM    2  C2  UNL     1     -34.732  14.031  -5.977  1.00 20.00     0.106 C 
HETATM    3  C3  UNL     1     -33.994  14.803  -3.566  1.00 20.00     0.282 C 
HETATM    4  N8  UNL     1     -33.320  15.503  -4.671  1.00 20.00     0.098 N 
HETATM    5  S9  UNL     1     -35.053  13.507  -4.280  1.00 20.00    -0.132 SA
HETATM    6  H24 UNL     1     -32.434  15.051  -4.890  1.00 20.00     0.317 HD
ENDROOT
BRANCH   3   7
HETATM    7  C6  UNL     1     -34.826  15.771  -2.733  1.00 20.00     0.050 C 
BRANCH   7   8
HETATM    8  C7  UNL     1     -33.982  16.674  -1.815  1.00 20.00    -0.020 C 
HETATM    9  C4  UNL     1     -33.751  18.061  -2.414  1.00 20.00     0.009 C 
HETATM   10  C5  UNL     1     -34.660  16.805  -0.450  1.00 20.00     0.009 C 
ENDBRANCH   7   8
ENDBRANCH   3   7
TORSDOF 2
ENDMDL
MODEL 3
REMARK VINA RESULT:      -3.7      1.463      1.723
REMARK  2 active torsions:
REMARK  status: ('A' for Active; 'I' for Inactive)
REMARK    1  A    between atoms: C3_3  and  C6_6 
REMARK    2  A    between atoms: C6_6  and  C7_7 
ROOT
HETATM    1  C1  UNL     1     -34.666  14.873  -5.994  1.00 20.00     0.281 C 
HETATM    2  C2  UNL     1     -36.171  14.893  -5.779  1.00 20.00     0.106 C 
HETATM    3  C3  UNL     1     -34.676  14.074  -3.767  1.00 20.00     0.282 C 
HETATM    4  N8  UNL     1     -34.088  13.861  -5.098  1.00 20.00     0.098 N 
HETATM    5  S9  UNL     1     -36.354  14.741  -3.990  1.00 20.00    -0.132 SA
HETATM    6  H24 UNL     1     -34.299  12.923  -5.434  1.00 20.00     0.317 HD
ENDROOT
BRANCH   3   7
HETATM    7  C6  UNL     1     -33.827  15.034  -2.942  1.00 20.00     0.050 C 
BRANCH   7   8
HETATM    8  C7  UNL     1     -34.568  16.323  -2.544  1.00 20.00    -0.020 C 
HETATM    9  C4  UNL     1     -34.615  16.525  -1.030  1.00 20.00     0.009 C 
HETATM   10  C5  UNL     1     -33.902  17.531  -3.207  1.00 20.00     0.009 C 
ENDBRANCH   7   8
ENDBRANCH   3   7
TORSDOF 2
ENDMDL
MODEL 4
REMARK VINA RESULT:      -3.6      1.604      2.105
REMARK  2 active torsions:
REMARK  status: ('A' for Active; 'I' for Inactive)
REMARK    1  A    between atoms: C3_3  and  C6_6 
REMARK    2  A    between atoms: C6_6  and  C7_7 
ROOT
HETATM    1  C1  UNL     1     -35.840  14.034  -4.259  1.00 20.00     0.281 C 
HETATM    2  C2  UNL     1     -34.481  13.535  -4.722  1.00 20.00     0.106 C 
HETATM    3  C3  UNL     1     -34.548  15.838  -3.439  1.00 20.00     0.282 C 
HETATM    4  N8  UNL     1     -35.783  15.500  -4.163  1.00 20.00     0.098 N 
HETATM    5  S9  UNL     1     -33.310  14.555  -3.800  1.00 20.00    -0.132 SA
HETATM    6  H24 UNL     1     -35.778  15.920  -5.090  1.00 20.00     0.317 HD
ENDROOT
BRANCH   3   7
HETATM    7  C6  UNL     1     -34.802  15.926  -1.938  1.00 20.00     0.050 C 
BRANCH   7   8
HETATM    8  C7  UNL     1     -33.975  17.019  -1.238  1.00 20.00    -0.020 C 
HETATM    9  C4  UNL     1     -33.775  18.252  -2.119  1.00 20.00     0.009 C 
HETATM   10  C5  UNL     1     -34.652  17.422   0.073  1.00 20.00     0.009 C 
ENDBRANCH   7   8
ENDBRANCH   3   7
TORSDOF 2
ENDMDL
MODEL 5
REMARK VINA RESULT:      -3.5      1.801      2.407
REMARK  2 active torsions:
REMARK  status: ('A' for Active; 'I' for Inactive)
REMARK    1  A    between atoms: C3_3  and  C6_6 
REMARK    2  A    between atoms: C6_6  and  C7_7 
ROOT
HETATM    1  C1  UNL     1     -35.338  14.147  -3.839  1.00 20.00     0.281 C 
HETATM    2  C2  UNL     1     -34.202  14.512  -4.780  1.00 20.00     0.106 C 
HETATM    3  C3  UNL     1     -34.926  16.323  -3.006  1.00 20.00     0.282 C 
HETATM    4  N8  UNL     1     -35.992  15.391  -3.404  1.00 20.00     0.098 N 
HETATM    5  S9  UNL     1     -33.454  15.964  -4.013  1.00 20.00    -0.132 SA
HETATM    6  H24 UNL     1     -36.547  15.787  -4.161  1.00 20.00     0.317 HD
ENDROOT
BRANCH   3   7
HETATM    7  C6  UNL     1     -34.604  16.182  -1.522  1.00 20.00     0.050 C 
BRANCH   7   8
HETATM    8  C7  UNL     1     -34.613  17.520  -0.761  1.00 20.00    -0.020 C 
HETATM    9  C4  UNL     1     -35.114  17.369   0.675  1.00 20.00     0.009 C 
HETATM   10  C5  UNL     1     -33.209  18.127  -0.760  1.00 20.00     0.009 C 
ENDBRANCH   7   8
ENDBRANCH   3   7
TORSDOF 2
ENDMDL
MODEL 6
REMARK VINA RESULT:      -3.5      2.276      4.142
REMARK  2 active torsions:
REMARK  status: ('A' for Active; 'I' for Inactive)
REMARK    1  A    between atoms: C3_3  and  C6_6 
REMARK    2  A    between atoms: C6_6  and  C7_7 
ROOT
HETATM    1  C1  UNL     1     -35.551  17.551  -1.473  1.00 20.00     0.281 C 
HETATM    2  C2  UNL     1     -34.642  18.425  -2.321  1.00 20.00     0.106 C 
HETATM    3  C3  UNL     1     -34.408  15.814  -2.601  1.00 20.00     0.282 C 
HETATM    4  N8  UNL     1     -34.891  16.251  -1.282  1.00 20.00     0.098 N 
HETATM    5  S9  UNL     1     -34.004  17.296  -3.577  1.00 20.00    -0.132 SA
HETATM    6  H24 UNL     1     -34.114  16.336  -0.629  1.00 20.00     0.317 HD
ENDROOT
BRANCH   3   7
HETATM    7  C6  UNL     1     -35.461  14.975  -3.318  1.00 20.00     0.050 C 
BRANCH   7   8
HETATM    8  C7  UNL     1     -34.870  13.800  -4.117  1.00 20.00    -0.020 C 
HETATM    9  C4  UNL     1     -35.012  13.993  -5.627  1.00 20.00     0.009 C 
HETATM   10  C5  UNL     1     -33.396  13.613  -3.754  1.00 20.00     0.009 C 
ENDBRANCH   7   8
ENDBRANCH   3   7
TORSDOF 2
ENDMDL
MODEL 7
REMARK VINA RESULT:      -3.4      2.686      4.518
REMARK  2 active torsions:
REMARK  status: ('A' for Active; 'I' for Inactive)
REMARK    1  A    between atoms: C3_3  and  C6_6 
REMARK    2  A    between atoms: C6_6  and  C7_7 
ROOT
HETATM    1  C1  UNL     1     -35.761  17.946  -0.365  1.00 20.00     0.281 C 
HETATM    2  C2  UNL     1     -34.914  19.090  -0.897  1.00 20.00     0.106 C 
HETATM    3  C3  UNL     1     -34.230  16.648  -1.617  1.00 20.00     0.282 C 
HETATM    4  N8  UNL     1     -34.926  16.737  -0.324  1.00 20.00     0.098 N 
HETATM    5  S9  UNL     1     -33.962  18.338  -2.233  1.00 20.00    -0.132 SA
HETATM    6  H24 UNL     1     -34.254  16.791   0.439  1.00 20.00     0.317 HD
ENDROOT
BRANCH   3   7
HETATM    7  C6  UNL     1     -35.044  15.838  -2.621  1.00 20.00     0.050 C 
BRANCH   7   8
HETATM    8  C7  UNL     1     -34.315  14.583  -3.133  1.00 20.00    -0.020 C 
HETATM    9  C4  UNL     1     -35.139  13.811  -4.164  1.00 20.00     0.009 C 
HETATM   10  C5  UNL     1     -32.966  14.976  -3.738  1.00 20.00     0.009 C 
ENDBRANCH   7   8
ENDBRANCH   3   7
TORSDOF 2
ENDMDL
MODEL 8
REMARK VINA RESULT:      -3.4      2.494      4.256
REMARK  2 active torsions:
REMARK  status: ('A' for Active; 'I' for Inactive)
REMARK    1  A    between atoms: C3_3  and  C6_6 
REMARK    2  A    between atoms: C6_6  and  C7_7 
ROOT
HETATM    1  C1  UNL     1     -36.331  18.006  -1.996  1.00 20.00     0.281 C 
HETATM    2  C2  UNL     1     -36.077  18.369  -0.542  1.00 20.00     0.106 C 
HETATM    3  C3  UNL     1     -34.828  16.250  -1.491  1.00 20.00     0.282 C 
HETATM    4  N8  UNL     1     -36.103  16.563  -2.155  1.00 20.00     0.098 N 
HETATM    5  S9  UNL     1     -34.611  17.410  -0.106  1.00 20.00    -0.132 SA
HETATM    6  H24 UNL     1     -36.863  16.031  -1.734  1.00 20.00     0.317 HD
ENDROOT
BRANCH   3   7
HETATM    7  C6  UNL     1     -33.662  16.363  -2.468  1.00 20.00     0.050 C 
BRANCH   7   8
HETATM    8  C7  UNL     1     -33.923  15.674  -3.819  1.00 20.00    -0.020 C 
HETATM    9  C4  UNL     1     -33.240  16.395  -4.982  1.00 20.00     0.009 C 
HETATM   10  C5  UNL     1     -33.450  14.220  -3.761  1.00 20.00     0.009 C 
ENDBRANCH   7   8
ENDBRANCH   3   7
TORSDOF 2
ENDMDL
MODEL 9
REMARK VINA RESULT:      -3.3     13.424     14.771
REMARK  2 active torsions:
REMARK  status: ('A' for Active; 'I' for Inactive)
REMARK    1  A    between atoms: C3_3  and  C6_6 
REMARK    2  A    between atoms: C6_6  and  C7_7 
ROOT
HETATM    1  C1  UNL     1     -41.162   5.145  -0.161  1.00 20.00     0.281 C 
HETATM    2  C2  UNL     1     -41.474   6.426  -0.918  1.00 20.00     0.106 C 
HETATM    3  C3  UNL     1     -41.598   4.165  -2.269  1.00 20.00     0.282 C 
HETATM    4  N8  UNL     1     -40.674   4.149  -1.125  1.00 20.00     0.098 N 
HETATM    5  S9  UNL     1     -42.266   5.849  -2.434  1.00 20.00    -0.132 SA
HETATM    6  H24 UNL     1     -39.729   4.377  -1.428  1.00 20.00     0.317 HD
ENDROOT
BRANCH   3   7
HETATM    7  C6  UNL     1     -42.728   3.161  -2.072  1.00 20.00     0.050 C 
BRANCH   7   8
HETATM    8  C7  UNL     1     -42.792   2.084  -3.170  1.00 20.00    -0.020 C 
HETATM    9  C4  UNL     1     -41.432   1.833  -3.820  1.00 20.00     0.009 C 
HETATM   10  C5  UNL     1     -43.336   0.779  -2.587  1.00 20.00     0.009 C 
ENDBRANCH   7   8
ENDBRANCH   3   7
TORSDOF 2
ENDMDL
