MODEL 1
REMARK VINA RESULT:      -4.9      0.000      0.000
REMARK  3 active torsions:
REMARK  status: ('A' for Active; 'I' for Inactive)
REMARK    1  A    between atoms: C4_4  and  C11_11 
REMARK    2  A    between atoms: C5_5  and  C9_9 
REMARK    3  A    between atoms: C8_8  and  C11_11 
ROOT
HETATM    1  C1  UNL     1     -33.475  13.686  -3.791  1.00 20.00    -0.030 C 
HETATM    2  C2  UNL     1     -33.021  14.945  -3.722  1.00 20.00    -0.025 C 
HETATM    3  C6  UNL     1     -34.700  13.294  -4.555  1.00 20.00     0.027 C 
HETATM    4  C7  UNL     1     -35.567  14.485  -4.975  1.00 20.00     0.016 C 
HETATM    5  C8  UNL     1     -33.669  16.113  -4.423  1.00 20.00     0.025 C 
HETATM    6  C9  UNL     1     -34.741  15.685  -5.450  1.00 20.00     0.055 C 
ENDROOT
BRANCH   5   7
HETATM    7  C11 UNL     1     -34.263  17.062  -3.377  1.00 20.00     0.011 C 
HETATM    8  C10 UNL     1     -33.843  18.501  -3.663  1.00 20.00     0.015 C 
BRANCH   7   9
HETATM    9  C4  UNL     1     -33.822  16.651  -1.997  1.00 20.00    -0.032 C 
HETATM   10  C3  UNL     1     -34.636  16.615  -0.935  1.00 20.00     0.007 C 
ENDBRANCH   7   9
ENDBRANCH   5   7
BRANCH   6  11
HETATM   11  C5  UNL     1     -34.108  15.367  -6.776  1.00 20.00     0.236 C 
HETATM   12  O12 UNL     1     -34.713  14.847  -7.707  1.00 20.00    -0.306 OA
ENDBRANCH   6  11
TORSDOF 3
ENDMDL
MODEL 2
REMARK VINA RESULT:      -4.7      1.944      2.660
REMARK  3 active torsions:
REMARK  status: ('A' for Active; 'I' for Inactive)
REMARK    1  A    between atoms: C4_4  and  C11_11 
REMARK    2  A    between atoms: C5_5  and  C9_9 
REMARK    3  A    between atoms: C8_8  and  C11_11 
ROOT
HETATM    1  C1  UNL     1     -34.571  14.870  -6.162  1.00 20.00    -0.030 C 
HETATM    2  C2  UNL     1     -34.668  16.009  -5.463  1.00 20.00    -0.025 C 
HETATM    3  C6  UNL     1     -35.047  13.547  -5.651  1.00 20.00     0.027 C 
HETATM    4  C7  UNL     1     -35.352  13.544  -4.150  1.00 20.00     0.016 C 
HETATM    5  C8  UNL     1     -35.291  16.103  -4.092  1.00 20.00     0.025 C 
HETATM    6  C9  UNL     1     -36.054  14.823  -3.683  1.00 20.00     0.055 C 
ENDROOT
BRANCH   5   7
HETATM    7  C11 UNL     1     -34.204  16.443  -3.067  1.00 20.00     0.011 C 
HETATM    8  C10 UNL     1     -32.947  15.616  -3.329  1.00 20.00     0.015 C 
BRANCH   7   9
HETATM    9  C4  UNL     1     -34.713  16.196  -1.672  1.00 20.00    -0.032 C 
HETATM   10  C3  UNL     1     -34.397  16.957  -0.619  1.00 20.00     0.007 C 
ENDBRANCH   7   9
ENDBRANCH   5   7
BRANCH   6  11
HETATM   11  C5  UNL     1     -37.459  14.850  -4.215  1.00 20.00     0.236 C 
HETATM   12  O12 UNL     1     -38.364  14.153  -3.771  1.00 20.00    -0.306 OA
ENDBRANCH   6  11
TORSDOF 3
ENDMDL
MODEL 3
REMARK VINA RESULT:      -4.7      1.940      2.780
REMARK  3 active torsions:
REMARK  status: ('A' for Active; 'I' for Inactive)
REMARK    1  A    between atoms: C4_4  and  C11_11 
REMARK    2  A    between atoms: C5_5  and  C9_9 
REMARK    3  A    between atoms: C8_8  and  C11_11 
ROOT
HETATM    1  C1  UNL     1     -34.188  15.523  -5.656  1.00 20.00    -0.030 C 
HETATM    2  C2  UNL     1     -34.408  16.581  -4.864  1.00 20.00    -0.025 C 
HETATM    3  C6  UNL     1     -34.562  14.123  -5.283  1.00 20.00     0.027 C 
HETATM    4  C7  UNL     1     -34.913  13.958  -3.802  1.00 20.00     0.016 C 
HETATM    5  C8  UNL     1     -35.079  16.497  -3.516  1.00 20.00     0.025 C 
HETATM    6  C9  UNL     1     -35.739  15.125  -3.251  1.00 20.00     0.055 C 
ENDROOT
BRANCH   5   7
HETATM    7  C11 UNL     1     -34.059  16.833  -2.423  1.00 20.00     0.011 C 
HETATM    8  C10 UNL     1     -34.631  16.515  -1.044  1.00 20.00     0.015 C 
BRANCH   7   9
HETATM    9  C4  UNL     1     -33.669  18.284  -2.509  1.00 20.00    -0.032 C 
HETATM   10  C3  UNL     1     -33.249  19.005  -1.463  1.00 20.00     0.007 C 
ENDBRANCH   7   9
ENDBRANCH   5   7
BRANCH   6  11
HETATM   11  C5  UNL     1     -37.124  15.081  -3.834  1.00 20.00     0.236 C 
HETATM   12  O12 UNL     1     -37.853  14.097  -3.771  1.00 20.00    -0.306 OA
ENDBRANCH   6  11
TORSDOF 3
ENDMDL
MODEL 4
REMARK VINA RESULT:      -4.7      1.630      2.717
REMARK  3 active torsions:
REMARK  status: ('A' for Active; 'I' for Inactive)
REMARK    1  A    between atoms: C4_4  and  C11_11 
REMARK    2  A    between atoms: C5_5  and  C9_9 
REMARK    3  A    between atoms: C8_8  and  C11_11 
ROOT
HETATM    1  C1  UNL     1     -35.460  16.084  -5.951  1.00 20.00    -0.030 C 
HETATM    2  C2  UNL     1     -36.176  15.791  -4.857  1.00 20.00    -0.025 C 
HETATM    3  C6  UNL     1     -33.968  15.996  -6.007  1.00 20.00     0.027 C 
HETATM    4  C7  UNL     1     -33.311  15.863  -4.630  1.00 20.00     0.016 C 
HETATM    5  C8  UNL     1     -35.571  15.314  -3.560  1.00 20.00     0.025 C 
HETATM    6  C9  UNL     1     -34.080  14.929  -3.690  1.00 20.00     0.055 C 
ENDROOT
BRANCH   5   7
HETATM    7  C11 UNL     1     -35.766  16.391  -2.487  1.00 20.00     0.011 C 
HETATM    8  C10 UNL     1     -35.812  17.776  -3.125  1.00 20.00     0.015 C 
BRANCH   7   9
HETATM    9  C4  UNL     1     -34.656  16.316  -1.473  1.00 20.00    -0.032 C 
HETATM   10  C3  UNL     1     -34.645  17.009  -0.329  1.00 20.00     0.007 C 
ENDBRANCH   7   9
ENDBRANCH   5   7
BRANCH   6  11
HETATM   11  C5  UNL     1     -33.939  13.509  -4.164  1.00 20.00     0.236 C 
HETATM   12  O12 UNL     1     -34.887  12.744  -4.301  1.00 20.00    -0.306 OA
ENDBRANCH   6  11
TORSDOF 3
ENDMDL
MODEL 5
REMARK VINA RESULT:      -4.6      1.266      1.429
REMARK  3 active torsions:
REMARK  status: ('A' for Active; 'I' for Inactive)
REMARK    1  A    between atoms: C4_4  and  C11_11 
REMARK    2  A    between atoms: C5_5  and  C9_9 
REMARK    3  A    between atoms: C8_8  and  C11_11 
ROOT
HETATM    1  C1  UNL     1     -33.341  13.864  -3.760  1.00 20.00    -0.030 C 
HETATM    2  C2  UNL     1     -33.431  15.120  -3.305  1.00 20.00    -0.025 C 
HETATM    3  C6  UNL     1     -34.389  13.219  -4.611  1.00 20.00     0.027 C 
HETATM    4  C7  UNL     1     -35.711  13.993  -4.646  1.00 20.00     0.016 C 
HETATM    5  C8  UNL     1     -34.581  16.046  -3.614  1.00 20.00     0.025 C 
HETATM    6  C9  UNL     1     -35.510  15.510  -4.726  1.00 20.00     0.055 C 
ENDROOT
BRANCH   5   7
HETATM    7  C11 UNL     1     -35.369  16.318  -2.328  1.00 20.00     0.011 C 
HETATM    8  C10 UNL     1     -36.323  17.493  -2.525  1.00 20.00     0.015 C 
BRANCH   7   9
HETATM    9  C4  UNL     1     -34.422  16.596  -1.191  1.00 20.00    -0.032 C 
HETATM   10  C3  UNL     1     -34.791  17.158  -0.035  1.00 20.00     0.007 C 
ENDBRANCH   7   9
ENDBRANCH   5   7
BRANCH   6  11
HETATM   11  C5  UNL     1     -34.979  15.877  -6.083  1.00 20.00     0.236 C 
HETATM   12  O12 UNL     1     -34.117  16.729  -6.265  1.00 20.00    -0.306 OA
ENDBRANCH   6  11
TORSDOF 3
ENDMDL
MODEL 6
REMARK VINA RESULT:      -4.6      1.750      3.337
REMARK  3 active torsions:
REMARK  status: ('A' for Active; 'I' for Inactive)
REMARK    1  A    between atoms: C4_4  and  C11_11 
REMARK    2  A    between atoms: C5_5  and  C9_9 
REMARK    3  A    between atoms: C8_8  and  C11_11 
ROOT
HETATM    1  C1  UNL     1     -33.635  16.248  -2.651  1.00 20.00    -0.030 C 
HETATM    2  C2  UNL     1     -33.284  16.147  -3.940  1.00 20.00    -0.025 C 
HETATM    3  C6  UNL     1     -34.963  15.805  -2.122  1.00 20.00     0.027 C 
HETATM    4  C7  UNL     1     -35.998  15.532  -3.217  1.00 20.00     0.016 C 
HETATM    5  C8  UNL     1     -34.168  15.553  -5.008  1.00 20.00     0.025 C 
HETATM    6  C9  UNL     1     -35.403  14.820  -4.436  1.00 20.00     0.055 C 
ENDROOT
BRANCH   5   7
HETATM    7  C11 UNL     1     -34.591  16.656  -5.983  1.00 20.00     0.011 C 
HETATM    8  C10 UNL     1     -34.629  16.119  -7.411  1.00 20.00     0.015 C 
BRANCH   7   9
HETATM    9  C4  UNL     1     -33.644  17.823  -5.886  1.00 20.00    -0.032 C 
HETATM   10  C3  UNL     1     -33.944  19.061  -6.294  1.00 20.00     0.007 C 
ENDBRANCH   7   9
ENDBRANCH   5   7
BRANCH   6  11
HETATM   11  C5  UNL     1     -35.057  13.403  -4.072  1.00 20.00     0.236 C 
HETATM   12  O12 UNL     1     -34.772  12.543  -4.898  1.00 20.00    -0.306 OA
ENDBRANCH   6  11
TORSDOF 3
ENDMDL
MODEL 7
REMARK VINA RESULT:      -4.6      2.281      4.223
REMARK  3 active torsions:
REMARK  status: ('A' for Active; 'I' for Inactive)
REMARK    1  A    between atoms: C4_4  and  C11_11 
REMARK    2  A    between atoms: C5_5  and  C9_9 
REMARK    3  A    between atoms: C8_8  and  C11_11 
ROOT
HETATM    1  C1  UNL     1     -33.491  13.518  -3.873  1.00 20.00    -0.030 C 
HETATM    2  C2  UNL     1     -34.811  13.637  -4.067  1.00 20.00    -0.025 C 
HETATM    3  C6  UNL     1     -32.595  14.678  -3.571  1.00 20.00     0.027 C 
HETATM    4  C7  UNL     1     -33.250  16.039  -3.824  1.00 20.00     0.016 C 
HETATM    5  C8  UNL     1     -35.559  14.944  -3.981  1.00 20.00     0.025 C 
HETATM    6  C9  UNL     1     -34.715  16.088  -3.376  1.00 20.00     0.055 C 
ENDROOT
BRANCH   5   7
HETATM    7  C11 UNL     1     -36.076  15.323  -5.372  1.00 20.00     0.011 C 
HETATM    8  C10 UNL     1     -37.597  15.207  -5.426  1.00 20.00     0.015 C 
BRANCH   7   9
HETATM    9  C4  UNL     1     -35.445  14.439  -6.416  1.00 20.00    -0.032 C 
HETATM   10  C3  UNL     1     -34.751  14.901  -7.462  1.00 20.00     0.007 C 
ENDBRANCH   7   9
ENDBRANCH   5   7
BRANCH   6  11
HETATM   11  C5  UNL     1     -34.783  16.062  -1.875  1.00 20.00     0.236 C 
HETATM   12  O12 UNL     1     -34.067  16.747  -1.153  1.00 20.00    -0.306 OA
ENDBRANCH   6  11
TORSDOF 3
ENDMDL
MODEL 8
REMARK VINA RESULT:      -4.4      1.700      2.790
REMARK  3 active torsions:
REMARK  status: ('A' for Active; 'I' for Inactive)
REMARK    1  A    between atoms: C4_4  and  C11_11 
REMARK    2  A    between atoms: C5_5  and  C9_9 
REMARK    3  A    between atoms: C8_8  and  C11_11 
ROOT
HETATM    1  C1  UNL     1     -36.869  15.860  -4.335  1.00 20.00    -0.030 C 
HETATM    2  C2  UNL     1     -36.218  15.505  -3.219  1.00 20.00    -0.025 C 
HETATM    3  C6  UNL     1     -36.232  15.884  -5.688  1.00 20.00     0.027 C 
HETATM    4  C7  UNL     1     -34.704  15.787  -5.648  1.00 20.00     0.016 C 
HETATM    5  C8  UNL     1     -34.776  15.062  -3.193  1.00 20.00     0.025 C 
HETATM    6  C9  UNL     1     -34.199  14.790  -4.600  1.00 20.00     0.055 C 
ENDROOT
BRANCH   5   7
HETATM    7  C11 UNL     1     -33.940  16.111  -2.453  1.00 20.00     0.011 C 
HETATM    8  C10 UNL     1     -34.623  16.514  -1.149  1.00 20.00     0.015 C 
BRANCH   7   9
HETATM    9  C4  UNL     1     -33.730  17.317  -3.330  1.00 20.00    -0.032 C 
HETATM   10  C3  UNL     1     -34.110  18.555  -2.997  1.00 20.00     0.007 C 
ENDBRANCH   7   9
ENDBRANCH   5   7
BRANCH   6  11
HETATM   11  C5  UNL     1     -34.518  13.389  -5.043  1.00 20.00     0.236 C 
HETATM   12  O12 UNL     1     -35.049  12.555  -4.318  1.00 20.00    -0.306 OA
ENDBRANCH   6  11
TORSDOF 3
ENDMDL
MODEL 9
REMARK VINA RESULT:      -4.4      2.027      4.280
REMARK  3 active torsions:
REMARK  status: ('A' for Active; 'I' for Inactive)
REMARK    1  A    between atoms: C4_4  and  C11_11 
REMARK    2  A    between atoms: C5_5  and  C9_9 
REMARK    3  A    between atoms: C8_8  and  C11_11 
ROOT
HETATM    1  C1  UNL     1     -34.542  16.798  -0.565  1.00 20.00    -0.030 C 
HETATM    2  C2  UNL     1     -34.769  16.137  -1.708  1.00 20.00    -0.025 C 
HETATM    3  C6  UNL     1     -33.993  18.189  -0.512  1.00 20.00     0.027 C 
HETATM    4  C7  UNL     1     -33.411  18.668  -1.846  1.00 20.00     0.016 C 
HETATM    5  C8  UNL     1     -34.526  16.720  -3.078  1.00 20.00     0.025 C 
HETATM    6  C9  UNL     1     -34.254  18.241  -3.052  1.00 20.00     0.055 C 
ENDROOT
BRANCH   5   7
HETATM    7  C11 UNL     1     -33.370  15.970  -3.747  1.00 20.00     0.011 C 
HETATM    8  C10 UNL     1     -33.248  16.377  -5.213  1.00 20.00     0.015 C 
BRANCH   7   9
HETATM    9  C4  UNL     1     -33.582  14.484  -3.630  1.00 20.00    -0.032 C 
HETATM   10  C3  UNL     1     -34.293  13.762  -4.503  1.00 20.00     0.007 C 
ENDBRANCH   7   9
ENDBRANCH   5   7
BRANCH   6  11
HETATM   11  C5  UNL     1     -35.546  19.011  -3.061  1.00 20.00     0.236 C 
HETATM   12  O12 UNL     1     -36.594  18.568  -3.518  1.00 20.00    -0.306 OA
ENDBRANCH   6  11
TORSDOF 3
ENDMDL
