MODEL 1
REMARK VINA RESULT:      -4.4      0.000      0.000
REMARK  4 active torsions:
REMARK  status: ('A' for Active; 'I' for Inactive)
REMARK    1  A    between atoms: C2_2  and  C7_7 
REMARK    2  A    between atoms: C7_7  and  C9_9 
REMARK    3  A    between atoms: C8_8  and  C9_9 
REMARK    4  A    between atoms: C9_9  and  O10_10 
ROOT
HETATM    1  C6  UNL     1     -34.109  13.342  -4.579  1.00 20.00     0.047 C 
HETATM    2  C9  UNL     1     -33.973  14.837  -4.228  1.00 20.00     0.064 C 
ENDROOT
BRANCH   2   3
HETATM    3  C7  UNL     1     -34.779  15.171  -2.921  1.00 20.00     0.037 C 
HETATM    4  C3  UNL     1     -36.230  15.611  -3.179  1.00 20.00     0.017 C 
BRANCH   3   5
HETATM    5  C2  UNL     1     -34.124  16.260  -2.095  1.00 20.00    -0.030 C 
HETATM    6  C1  UNL     1     -34.568  16.664  -0.898  1.00 20.00     0.007 C 
ENDBRANCH   3   5
ENDBRANCH   2   3
BRANCH   2   7
HETATM    7  C8  UNL     1     -34.383  15.748  -5.440  1.00 20.00     0.012 C 
HETATM    8  C4  UNL     1     -33.487  16.989  -5.597  1.00 20.00     0.012 C 
HETATM    9  C5  UNL     1     -34.442  15.009  -6.781  1.00 20.00     0.012 C 
ENDBRANCH   2   7
BRANCH   2  10
HETATM   10  O10 UNL     1     -32.579  15.086  -3.978  1.00 20.00    -0.389 OA
HETATM   11  H28 UNL     1     -32.171  15.195  -4.847  1.00 20.00     0.210 HD
ENDBRANCH   2  10
TORSDOF 4
ENDMDL
MODEL 2
REMARK VINA RESULT:      -4.3      1.594      2.442
REMARK  4 active torsions:
REMARK  status: ('A' for Active; 'I' for Inactive)
REMARK    1  A    between atoms: C2_2  and  C7_7 
REMARK    2  A    between atoms: C7_7  and  C9_9 
REMARK    3  A    between atoms: C8_8  and  C9_9 
REMARK    4  A    between atoms: C9_9  and  O10_10 
ROOT
HETATM    1  C6  UNL     1     -36.571  14.377  -4.124  1.00 20.00     0.047 C 
HETATM    2  C9  UNL     1     -35.199  14.070  -4.759  1.00 20.00     0.064 C 
ENDROOT
BRANCH   2   3
HETATM    3  C7  UNL     1     -34.052  14.791  -3.962  1.00 20.00     0.037 C 
HETATM    4  C3  UNL     1     -32.917  13.852  -3.517  1.00 20.00     0.017 C 
BRANCH   3   5
HETATM    5  C2  UNL     1     -34.560  15.496  -2.720  1.00 20.00    -0.030 C 
HETATM    6  C1  UNL     1     -33.923  16.508  -2.118  1.00 20.00     0.007 C 
ENDBRANCH   3   5
ENDBRANCH   2   3
BRANCH   2   7
HETATM    7  C8  UNL     1     -35.186  14.424  -6.289  1.00 20.00     0.012 C 
HETATM    8  C4  UNL     1     -36.551  14.905  -6.812  1.00 20.00     0.012 C 
HETATM    9  C5  UNL     1     -34.117  15.450  -6.681  1.00 20.00     0.012 C 
ENDBRANCH   2   7
BRANCH   2  10
HETATM   10  O10 UNL     1     -34.998  12.651  -4.662  1.00 20.00    -0.389 OA
HETATM   11  H28 UNL     1     -34.701  12.488  -3.756  1.00 20.00     0.210 HD
ENDBRANCH   2  10
TORSDOF 4
ENDMDL
MODEL 3
REMARK VINA RESULT:      -4.3      1.221      1.704
REMARK  4 active torsions:
REMARK  status: ('A' for Active; 'I' for Inactive)
REMARK    1  A    between atoms: C2_2  and  C7_7 
REMARK    2  A    between atoms: C7_7  and  C9_9 
REMARK    3  A    between atoms: C8_8  and  C9_9 
REMARK    4  A    between atoms: C9_9  and  O10_10 
ROOT
HETATM    1  C6  UNL     1     -33.468  13.982  -3.703  1.00 20.00     0.047 C 
HETATM    2  C9  UNL     1     -33.752  15.274  -4.496  1.00 20.00     0.064 C 
ENDROOT
BRANCH   2   3
HETATM    3  C7  UNL     1     -34.515  16.314  -3.598  1.00 20.00     0.037 C 
HETATM    4  C3  UNL     1     -33.810  17.677  -3.487  1.00 20.00     0.017 C 
BRANCH   3   5
HETATM    5  C2  UNL     1     -34.738  15.811  -2.186  1.00 20.00    -0.030 C 
HETATM    6  C1  UNL     1     -34.569  16.557  -1.088  1.00 20.00     0.007 C 
ENDBRANCH   3   5
ENDBRANCH   2   3
BRANCH   2   7
HETATM    7  C8  UNL     1     -34.507  14.965  -5.838  1.00 20.00     0.012 C 
HETATM    8  C4  UNL     1     -36.024  14.788  -5.653  1.00 20.00     0.012 C 
HETATM    9  C5  UNL     1     -34.261  15.999  -6.942  1.00 20.00     0.012 C 
ENDBRANCH   2   7
BRANCH   2  10
HETATM   10  O10 UNL     1     -32.479  15.834  -4.859  1.00 20.00    -0.389 OA
HETATM   11  H28 UNL     1     -32.537  16.776  -4.653  1.00 20.00     0.210 HD
ENDBRANCH   2  10
TORSDOF 4
ENDMDL
MODEL 4
REMARK VINA RESULT:      -4.2      0.778      3.768
REMARK  4 active torsions:
REMARK  status: ('A' for Active; 'I' for Inactive)
REMARK    1  A    between atoms: C2_2  and  C7_7 
REMARK    2  A    between atoms: C7_7  and  C9_9 
REMARK    3  A    between atoms: C8_8  and  C9_9 
REMARK    4  A    between atoms: C9_9  and  O10_10 
ROOT
HETATM    1  C6  UNL     1     -33.353  16.820  -4.778  1.00 20.00     0.047 C 
HETATM    2  C9  UNL     1     -33.746  15.468  -4.150  1.00 20.00     0.064 C 
ENDROOT
BRANCH   2   3
HETATM    3  C7  UNL     1     -34.661  14.650  -5.132  1.00 20.00     0.037 C 
HETATM    4  C3  UNL     1     -34.558  13.125  -4.956  1.00 20.00     0.017 C 
BRANCH   3   5
HETATM    5  C2  UNL     1     -34.367  14.952  -6.588  1.00 20.00    -0.030 C 
HETATM    6  C1  UNL     1     -35.171  14.609  -7.602  1.00 20.00     0.007 C 
ENDBRANCH   3   5
ENDBRANCH   2   3
BRANCH   2   7
HETATM    7  C8  UNL     1     -34.401  15.664  -2.736  1.00 20.00     0.012 C 
HETATM    8  C4  UNL     1     -33.761  16.804  -1.924  1.00 20.00     0.012 C 
HETATM    9  C5  UNL     1     -35.918  15.876  -2.777  1.00 20.00     0.012 C 
ENDBRANCH   2   7
BRANCH   2  10
HETATM   10  O10 UNL     1     -32.529  14.731  -3.943  1.00 20.00    -0.389 OA
HETATM   11  H28 UNL     1     -31.811  15.341  -4.156  1.00 20.00     0.210 HD
ENDBRANCH   2  10
TORSDOF 4
ENDMDL
MODEL 5
REMARK VINA RESULT:      -4.1      1.469      3.393
REMARK  4 active torsions:
REMARK  status: ('A' for Active; 'I' for Inactive)
REMARK    1  A    between atoms: C2_2  and  C7_7 
REMARK    2  A    between atoms: C7_7  and  C9_9 
REMARK    3  A    between atoms: C8_8  and  C9_9 
REMARK    4  A    between atoms: C9_9  and  O10_10 
ROOT
HETATM    1  C6  UNL     1     -33.474  13.940  -3.775  1.00 20.00     0.047 C 
HETATM    2  C9  UNL     1     -34.930  14.321  -4.106  1.00 20.00     0.064 C 
ENDROOT
BRANCH   2   3
HETATM    3  C7  UNL     1     -35.002  15.071  -5.486  1.00 20.00     0.037 C 
HETATM    4  C3  UNL     1     -35.201  14.139  -6.693  1.00 20.00     0.017 C 
BRANCH   3   5
HETATM    5  C2  UNL     1     -33.765  15.901  -5.761  1.00 20.00    -0.030 C 
HETATM    6  C1  UNL     1     -33.684  17.221  -5.553  1.00 20.00     0.007 C 
ENDBRANCH   3   5
ENDBRANCH   2   3
BRANCH   2   7
HETATM    7  C8  UNL     1     -35.586  15.140  -2.938  1.00 20.00     0.012 C 
HETATM    8  C4  UNL     1     -34.565  15.940  -2.110  1.00 20.00     0.012 C 
HETATM    9  C5  UNL     1     -36.704  16.085  -3.391  1.00 20.00     0.012 C 
ENDBRANCH   2   7
BRANCH   2  10
HETATM   10  O10 UNL     1     -35.672  13.094  -4.217  1.00 20.00    -0.389 OA
HETATM   11  H28 UNL     1     -35.060  12.450  -4.597  1.00 20.00     0.210 HD
ENDBRANCH   2  10
TORSDOF 4
ENDMDL
MODEL 6
REMARK VINA RESULT:      -4.0      1.210      3.911
REMARK  4 active torsions:
REMARK  status: ('A' for Active; 'I' for Inactive)
REMARK    1  A    between atoms: C2_2  and  C7_7 
REMARK    2  A    between atoms: C7_7  and  C9_9 
REMARK    3  A    between atoms: C8_8  and  C9_9 
REMARK    4  A    between atoms: C9_9  and  O10_10 
ROOT
HETATM    1  C6  UNL     1     -33.665  17.767  -3.979  1.00 20.00     0.047 C 
HETATM    2  C9  UNL     1     -33.836  16.387  -4.645  1.00 20.00     0.064 C 
ENDROOT
BRANCH   2   3
HETATM    3  C7  UNL     1     -34.650  16.519  -5.983  1.00 20.00     0.037 C 
HETATM    4  C3  UNL     1     -36.175  16.479  -5.792  1.00 20.00     0.017 C 
BRANCH   3   5
HETATM    5  C2  UNL     1     -34.297  15.440  -6.987  1.00 20.00    -0.030 C 
HETATM    6  C1  UNL     1     -35.147  14.490  -7.397  1.00 20.00     0.007 C 
ENDBRANCH   3   5
ENDBRANCH   2   3
BRANCH   2   7
HETATM    7  C8  UNL     1     -34.470  15.349  -3.652  1.00 20.00     0.012 C 
HETATM    8  C4  UNL     1     -33.734  13.998  -3.634  1.00 20.00     0.012 C 
HETATM    9  C5  UNL     1     -34.598  15.862  -2.214  1.00 20.00     0.012 C 
ENDBRANCH   2   7
BRANCH   2  10
HETATM   10  O10 UNL     1     -32.519  15.905  -4.960  1.00 20.00    -0.389 OA
HETATM   11  H28 UNL     1     -32.584  14.941  -4.963  1.00 20.00     0.210 HD
ENDBRANCH   2  10
TORSDOF 4
ENDMDL
MODEL 7
REMARK VINA RESULT:      -4.0     12.192     13.536
REMARK  4 active torsions:
REMARK  status: ('A' for Active; 'I' for Inactive)
REMARK    1  A    between atoms: C2_2  and  C7_7 
REMARK    2  A    between atoms: C7_7  and  C9_9 
REMARK    3  A    between atoms: C8_8  and  C9_9 
REMARK    4  A    between atoms: C9_9  and  O10_10 
ROOT
HETATM    1  C6  UNL     1     -42.157   4.720   0.148  1.00 20.00     0.047 C 
HETATM    2  C9  UNL     1     -41.572   4.631  -1.276  1.00 20.00     0.064 C 
ENDROOT
BRANCH   2   3
HETATM    3  C7  UNL     1     -41.447   6.064  -1.910  1.00 20.00     0.037 C 
HETATM    4  C3  UNL     1     -41.188   7.180  -0.883  1.00 20.00     0.017 C 
BRANCH   3   5
HETATM    5  C2  UNL     1     -42.680   6.461  -2.697  1.00 20.00    -0.030 C 
HETATM    6  C1  UNL     1     -42.718   7.475  -3.571  1.00 20.00     0.007 C 
ENDBRANCH   3   5
ENDBRANCH   2   3
BRANCH   2   7
HETATM    7  C8  UNL     1     -42.401   3.644  -2.173  1.00 20.00     0.012 C 
HETATM    8  C4  UNL     1     -41.520   2.723  -3.035  1.00 20.00     0.012 C 
HETATM    9  C5  UNL     1     -43.400   2.783  -1.392  1.00 20.00     0.012 C 
ENDBRANCH   2   7
BRANCH   2  10
HETATM   10  O10 UNL     1     -40.254   4.072  -1.155  1.00 20.00    -0.389 OA
HETATM   11  H28 UNL     1     -39.711   4.533  -1.808  1.00 20.00     0.210 HD
ENDBRANCH   2  10
TORSDOF 4
ENDMDL
MODEL 8
REMARK VINA RESULT:      -4.0      1.163      1.715
REMARK  4 active torsions:
REMARK  status: ('A' for Active; 'I' for Inactive)
REMARK    1  A    between atoms: C2_2  and  C7_7 
REMARK    2  A    between atoms: C7_7  and  C9_9 
REMARK    3  A    between atoms: C8_8  and  C9_9 
REMARK    4  A    between atoms: C9_9  and  O10_10 
ROOT
HETATM    1  C6  UNL     1     -34.362  14.912  -6.171  1.00 20.00     0.047 C 
HETATM    2  C9  UNL     1     -33.911  15.745  -4.955  1.00 20.00     0.064 C 
ENDROOT
BRANCH   2   3
HETATM    3  C7  UNL     1     -34.184  14.962  -3.619  1.00 20.00     0.037 C 
HETATM    4  C3  UNL     1     -34.855  13.593  -3.825  1.00 20.00     0.017 C 
BRANCH   3   5
HETATM    5  C2  UNL     1     -35.051  15.744  -2.654  1.00 20.00    -0.030 C 
HETATM    6  C1  UNL     1     -34.610  16.267  -1.503  1.00 20.00     0.007 C 
ENDBRANCH   3   5
ENDBRANCH   2   3
BRANCH   2   7
HETATM    7  C8  UNL     1     -34.569  17.171  -4.964  1.00 20.00     0.012 C 
HETATM    8  C4  UNL     1     -33.548  18.310  -5.132  1.00 20.00     0.012 C 
HETATM    9  C5  UNL     1     -35.674  17.339  -6.012  1.00 20.00     0.012 C 
ENDBRANCH   2   7
BRANCH   2  10
HETATM   10  O10 UNL     1     -32.493  15.944  -5.083  1.00 20.00    -0.389 OA
HETATM   11  H28 UNL     1     -32.381  16.856  -5.383  1.00 20.00     0.210 HD
ENDBRANCH   2  10
TORSDOF 4
ENDMDL
MODEL 9
REMARK VINA RESULT:      -4.0      1.465      2.159
REMARK  4 active torsions:
REMARK  status: ('A' for Active; 'I' for Inactive)
REMARK    1  A    between atoms: C2_2  and  C7_7 
REMARK    2  A    between atoms: C7_7  and  C9_9 
REMARK    3  A    between atoms: C8_8  and  C9_9 
REMARK    4  A    between atoms: C9_9  and  O10_10 
ROOT
HETATM    1  C6  UNL     1     -32.582  14.256  -3.436  1.00 20.00     0.047 C 
HETATM    2  C9  UNL     1     -33.375  15.397  -4.104  1.00 20.00     0.064 C 
ENDROOT
BRANCH   2   3
HETATM    3  C7  UNL     1     -33.748  16.500  -3.048  1.00 20.00     0.037 C 
HETATM    4  C3  UNL     1     -34.737  16.022  -1.971  1.00 20.00     0.017 C 
BRANCH   3   5
HETATM    5  C2  UNL     1     -34.347  17.737  -3.686  1.00 20.00    -0.030 C 
HETATM    6  C1  UNL     1     -33.788  18.952  -3.638  1.00 20.00     0.007 C 
ENDBRANCH   3   5
ENDBRANCH   2   3
BRANCH   2   7
HETATM    7  C8  UNL     1     -34.630  14.846  -4.871  1.00 20.00     0.012 C 
HETATM    8  C4  UNL     1     -34.540  15.033  -6.396  1.00 20.00     0.012 C 
HETATM    9  C5  UNL     1     -34.947  13.377  -4.571  1.00 20.00     0.012 C 
ENDBRANCH   2   7
BRANCH   2  10
HETATM   10  O10 UNL     1     -32.514  15.986  -5.092  1.00 20.00    -0.389 OA
HETATM   11  H28 UNL     1     -32.456  16.924  -4.866  1.00 20.00     0.210 HD
ENDBRANCH   2  10
TORSDOF 4
ENDMDL
