MODEL 1
REMARK VINA RESULT:      -3.7      0.000      0.000
REMARK  2 active torsions:
REMARK  status: ('A' for Active; 'I' for Inactive)
REMARK    1  A    between atoms: C2_2  and  C3_3 
REMARK    2  A    between atoms: C3_3  and  N4_4 
ROOT
HETATM    1  C1  UNL     1     -34.490  15.033  -5.540  1.00 20.00     0.055 C 
HETATM    2  C3  UNL     1     -34.334  14.666  -4.061  1.00 20.00     0.145 C 
HETATM    3 CL7  UNL     1     -32.662  15.129  -3.559  1.00 20.00    -0.097 Cl
ENDROOT
BRANCH   2   4
HETATM    4  C2  UNL     1     -35.314  15.426  -3.152  1.00 20.00     0.160 C 
HETATM    5 CL6  UNL     1     -34.543  16.100  -1.688  1.00 20.00    -0.127 Cl
ENDBRANCH   2   4
BRANCH   2   6
HETATM    6  N4  UNL     1     -34.450  13.184  -3.794  1.00 20.00    -0.036 NA
HETATM    7  O5  UNL     1     -34.862  12.528  -4.757  1.00 20.00    -0.099 OA
ENDBRANCH   2   6
TORSDOF 2
ENDMDL
MODEL 2
REMARK VINA RESULT:      -3.6      1.315      1.580
REMARK  2 active torsions:
REMARK  status: ('A' for Active; 'I' for Inactive)
REMARK    1  A    between atoms: C2_2  and  C3_3 
REMARK    2  A    between atoms: C3_3  and  N4_4 
ROOT
HETATM    1  C1  UNL     1     -36.280  15.038  -3.475  1.00 20.00     0.055 C 
HETATM    2  C3  UNL     1     -34.796  14.801  -3.772  1.00 20.00     0.145 C 
HETATM    3 CL7  UNL     1     -34.511  15.244  -5.500  1.00 20.00    -0.097 Cl
ENDROOT
BRANCH   2   4
HETATM    4  C2  UNL     1     -33.869  15.677  -2.913  1.00 20.00     0.160 C 
HETATM    5 CL6  UNL     1     -34.631  16.238  -1.399  1.00 20.00    -0.127 Cl
ENDBRANCH   2   4
BRANCH   2   6
HETATM    6  N4  UNL     1     -34.380  13.355  -3.642  1.00 20.00    -0.036 NA
HETATM    7  O5  UNL     1     -34.946  12.594  -4.434  1.00 20.00    -0.099 OA
ENDBRANCH   2   6
TORSDOF 2
ENDMDL
MODEL 3
REMARK VINA RESULT:      -3.5      1.560      2.516
REMARK  2 active torsions:
REMARK  status: ('A' for Active; 'I' for Inactive)
REMARK    1  A    between atoms: C2_2  and  C3_3 
REMARK    2  A    between atoms: C3_3  and  N4_4 
ROOT
HETATM    1  C1  UNL     1     -34.524  15.611  -2.572  1.00 20.00     0.055 C 
HETATM    2  C3  UNL     1     -34.947  14.749  -3.767  1.00 20.00     0.145 C 
HETATM    3 CL7  UNL     1     -36.750  14.637  -3.744  1.00 20.00    -0.097 Cl
ENDROOT
BRANCH   2   4
HETATM    4  C2  UNL     1     -34.540  15.360  -5.117  1.00 20.00     0.160 C 
HETATM    5 CL6  UNL     1     -33.112  16.427  -5.008  1.00 20.00    -0.127 Cl
ENDBRANCH   2   4
BRANCH   2   6
HETATM    6  N4  UNL     1     -34.445  13.327  -3.689  1.00 20.00    -0.036 NA
HETATM    7  O5  UNL     1     -34.884  12.586  -4.575  1.00 20.00    -0.099 OA
ENDBRANCH   2   6
TORSDOF 2
ENDMDL
MODEL 4
REMARK VINA RESULT:      -3.5      1.592      2.492
REMARK  2 active torsions:
REMARK  status: ('A' for Active; 'I' for Inactive)
REMARK    1  A    between atoms: C2_2  and  C3_3 
REMARK    2  A    between atoms: C3_3  and  N4_4 
ROOT
HETATM    1  C1  UNL     1     -32.978  15.500  -4.066  1.00 20.00     0.055 C 
HETATM    2  C3  UNL     1     -34.351  14.832  -3.945  1.00 20.00     0.145 C 
HETATM    3 CL7  UNL     1     -35.198  15.580  -2.536  1.00 20.00    -0.097 Cl
ENDROOT
BRANCH   2   4
HETATM    4  C2  UNL     1     -35.233  15.054  -5.183  1.00 20.00     0.160 C 
HETATM    5 CL6  UNL     1     -34.316  15.046  -6.716  1.00 20.00    -0.127 Cl
ENDBRANCH   2   4
BRANCH   2   6
HETATM    6  N4  UNL     1     -34.275  13.354  -3.644  1.00 20.00    -0.036 NA
HETATM    7  O5  UNL     1     -35.063  12.663  -4.298  1.00 20.00    -0.099 OA
ENDBRANCH   2   6
TORSDOF 2
ENDMDL
MODEL 5
REMARK VINA RESULT:      -3.4      1.226      1.226
REMARK  2 active torsions:
REMARK  status: ('A' for Active; 'I' for Inactive)
REMARK    1  A    between atoms: C2_2  and  C3_3 
REMARK    2  A    between atoms: C3_3  and  N4_4 
ROOT
HETATM    1  C1  UNL     1     -34.475  14.970  -5.567  1.00 20.00     0.055 C 
HETATM    2  C3  UNL     1     -34.297  14.612  -4.088  1.00 20.00     0.145 C 
HETATM    3 CL7  UNL     1     -32.623  15.093  -3.610  1.00 20.00    -0.097 Cl
ENDROOT
BRANCH   2   4
HETATM    4  C2  UNL     1     -35.273  15.366  -3.171  1.00 20.00     0.160 C 
HETATM    5 CL6  UNL     1     -36.987  14.983  -3.495  1.00 20.00    -0.127 Cl
ENDBRANCH   2   4
BRANCH   2   6
HETATM    6  N4  UNL     1     -34.395  13.130  -3.813  1.00 20.00    -0.036 NA
HETATM    7  O5  UNL     1     -34.939  12.484  -4.715  1.00 20.00    -0.099 OA
ENDBRANCH   2   6
TORSDOF 2
ENDMDL
MODEL 6
REMARK VINA RESULT:      -3.2     12.339     12.614
REMARK  2 active torsions:
REMARK  status: ('A' for Active; 'I' for Inactive)
REMARK    1  A    between atoms: C2_2  and  C3_3 
REMARK    2  A    between atoms: C3_3  and  N4_4 
ROOT
HETATM    1  C1  UNL     1     -35.793   5.764   3.742  1.00 20.00     0.055 C 
HETATM    2  C3  UNL     1     -34.474   5.460   4.460  1.00 20.00     0.145 C 
HETATM    3 CL7  UNL     1     -34.647   3.848   5.255  1.00 20.00    -0.097 Cl
ENDROOT
BRANCH   2   4
HETATM    4  C2  UNL     1     -33.278   5.374   3.499  1.00 20.00     0.160 C 
HETATM    5 CL6  UNL     1     -32.270   6.848   3.489  1.00 20.00    -0.127 Cl
ENDBRANCH   2   4
BRANCH   2   6
HETATM    6  N4  UNL     1     -34.155   6.435   5.569  1.00 20.00    -0.036 NA
HETATM    7  O5  UNL     1     -34.477   6.042   6.696  1.00 20.00    -0.099 OA
ENDBRANCH   2   6
TORSDOF 2
ENDMDL
MODEL 7
REMARK VINA RESULT:      -3.2     12.410     12.699
REMARK  2 active torsions:
REMARK  status: ('A' for Active; 'I' for Inactive)
REMARK    1  A    between atoms: C2_2  and  C3_3 
REMARK    2  A    between atoms: C3_3  and  N4_4 
ROOT
HETATM    1  C1  UNL     1     -34.582   3.624   4.970  1.00 20.00     0.055 C 
HETATM    2  C3  UNL     1     -34.517   5.154   4.914  1.00 20.00     0.145 C 
HETATM    3 CL7  UNL     1     -35.884   5.718   3.877  1.00 20.00    -0.097 Cl
ENDROOT
BRANCH   2   4
HETATM    4  C2  UNL     1     -34.684   5.809   6.294  1.00 20.00     0.160 C 
HETATM    5 CL6  UNL     1     -33.475   7.081   6.624  1.00 20.00    -0.127 Cl
ENDBRANCH   2   4
BRANCH   2   6
HETATM    6  N4  UNL     1     -33.260   5.677   4.260  1.00 20.00    -0.036 NA
HETATM    7  O5  UNL     1     -33.390   5.953   3.062  1.00 20.00    -0.099 OA
ENDBRANCH   2   6
TORSDOF 2
ENDMDL
MODEL 8
REMARK VINA RESULT:      -3.1      1.883      2.523
REMARK  2 active torsions:
REMARK  status: ('A' for Active; 'I' for Inactive)
REMARK    1  A    between atoms: C2_2  and  C3_3 
REMARK    2  A    between atoms: C3_3  and  N4_4 
ROOT
HETATM    1  C1  UNL     1     -34.557  13.613  -3.780  1.00 20.00     0.055 C 
HETATM    2  C3  UNL     1     -35.140  15.024  -3.656  1.00 20.00     0.145 C 
HETATM    3 CL7  UNL     1     -34.344  15.819  -2.243  1.00 20.00    -0.097 Cl
ENDROOT
BRANCH   2   4
HETATM    4  C2  UNL     1     -34.862  15.895  -4.892  1.00 20.00     0.160 C 
HETATM    5 CL6  UNL     1     -33.183  16.500  -4.966  1.00 20.00    -0.127 Cl
ENDBRANCH   2   4
BRANCH   2   6
HETATM    6  N4  UNL     1     -36.621  15.038  -3.358  1.00 20.00    -0.036 NA
HETATM    7  O5  UNL     1     -37.242  14.085  -3.840  1.00 20.00    -0.099 OA
ENDBRANCH   2   6
TORSDOF 2
ENDMDL
MODEL 9
REMARK VINA RESULT:      -3.0     12.327     12.656
REMARK  2 active torsions:
REMARK  status: ('A' for Active; 'I' for Inactive)
REMARK    1  A    between atoms: C2_2  and  C3_3 
REMARK    2  A    between atoms: C3_3  and  N4_4 
ROOT
HETATM    1  C1  UNL     1     -34.072   6.559   5.615  1.00 20.00     0.055 C 
HETATM    2  C3  UNL     1     -34.282   5.483   4.544  1.00 20.00     0.145 C 
HETATM    3 CL7  UNL     1     -35.871   5.810   3.750  1.00 20.00    -0.097 Cl
ENDROOT
BRANCH   2   4
HETATM    4  C2  UNL     1     -33.204   5.515   3.448  1.00 20.00     0.160 C 
HETATM    5 CL6  UNL     1     -32.141   6.947   3.543  1.00 20.00    -0.127 Cl
ENDBRANCH   2   4
BRANCH   2   6
HETATM    6  N4  UNL     1     -34.381   4.086   5.109  1.00 20.00    -0.036 NA
HETATM    7  O5  UNL     1     -35.123   3.990   6.092  1.00 20.00    -0.099 OA
ENDBRANCH   2   6
TORSDOF 2
ENDMDL
