MODEL 1
REMARK VINA RESULT:      -5.7      0.000      0.000
REMARK  0 active torsions:
REMARK  status: ('A' for Active; 'I' for Inactive)
ROOT
HETATM    1  C1  UNL     1     -33.706  16.302  -2.659  1.00 20.00     0.002 A 
HETATM    2  C2  UNL     1     -34.019  15.012  -3.105  1.00 20.00     0.016 A 
HETATM    3  C3  UNL     1     -33.656  17.391  -3.555  1.00 20.00     0.007 A 
HETATM    4  C4  UNL     1     -34.236  14.852  -4.456  1.00 20.00     0.017 A 
HETATM    5  C5  UNL     1     -33.882  17.199  -4.922  1.00 20.00    -0.051 A 
HETATM    6  C6  UNL     1     -34.128  15.905  -5.349  1.00 20.00    -0.033 A 
HETATM    7  C7  UNL     1     -34.725  13.704  -5.213  1.00 20.00     0.160 C 
HETATM    8  C8  UNL     1     -33.999  18.337  -5.900  1.00 20.00     0.039 C 
HETATM    9  C9  UNL     1     -35.074  14.156  -6.624  1.00 20.00     0.093 C 
HETATM   10  C10 UNL     1     -34.158  17.895  -7.372  1.00 20.00     0.005 C 
HETATM   11  C11 UNL     1     -35.001  16.615  -7.535  1.00 20.00     0.010 C 
HETATM   12  C12 UNL     1     -34.322  15.486  -6.770  1.00 20.00     0.027 C 
HETATM   13  O13 UNL     1     -34.880  12.590  -4.749  1.00 20.00    -0.292 OA
ENDROOT
TORSDOF 0
ENDMDL
MODEL 2
REMARK VINA RESULT:      -5.6      0.815      3.138
REMARK  0 active torsions:
REMARK  status: ('A' for Active; 'I' for Inactive)
ROOT
HETATM    1  C1  UNL     1     -34.423  16.229  -7.335  1.00 20.00     0.002 A 
HETATM    2  C2  UNL     1     -34.584  14.930  -6.840  1.00 20.00     0.016 A 
HETATM    3  C3  UNL     1     -34.232  17.322  -6.463  1.00 20.00     0.007 A 
HETATM    4  C4  UNL     1     -34.588  14.776  -5.471  1.00 20.00     0.017 A 
HETATM    5  C5  UNL     1     -34.239  17.137  -5.077  1.00 20.00    -0.051 A 
HETATM    6  C6  UNL     1     -34.463  15.853  -4.610  1.00 20.00    -0.033 A 
HETATM    7  C7  UNL     1     -34.576  13.572  -4.647  1.00 20.00     0.160 C 
HETATM    8  C8  UNL     1     -33.886  18.229  -4.103  1.00 20.00     0.039 C 
HETATM    9  C9  UNL     1     -34.270  13.961  -3.208  1.00 20.00     0.093 C 
HETATM   10  C10 UNL     1     -34.046  17.832  -2.619  1.00 20.00     0.005 C 
HETATM   11  C11 UNL     1     -33.673  16.363  -2.337  1.00 20.00     0.010 C 
HETATM   12  C12 UNL     1     -34.577  15.464  -3.171  1.00 20.00     0.027 C 
HETATM   13  O13 UNL     1     -34.725  12.443  -5.077  1.00 20.00    -0.292 OA
ENDROOT
TORSDOF 0
ENDMDL
MODEL 3
REMARK VINA RESULT:      -5.4      2.053      4.549
REMARK  0 active torsions:
REMARK  status: ('A' for Active; 'I' for Inactive)
ROOT
HETATM    1  C1  UNL     1     -35.283  15.439  -7.892  1.00 20.00     0.002 A 
HETATM    2  C2  UNL     1     -34.762  16.686  -7.527  1.00 20.00     0.016 A 
HETATM    3  C3  UNL     1     -35.223  14.338  -7.011  1.00 20.00     0.007 A 
HETATM    4  C4  UNL     1     -34.158  16.776  -6.292  1.00 20.00     0.017 A 
HETATM    5  C5  UNL     1     -34.605  14.458  -5.762  1.00 20.00    -0.051 A 
HETATM    6  C6  UNL     1     -34.042  15.684  -5.449  1.00 20.00    -0.033 A 
HETATM    7  C7  UNL     1     -33.665  17.934  -5.555  1.00 20.00     0.160 C 
HETATM    8  C8  UNL     1     -34.648  13.374  -4.720  1.00 20.00     0.039 C 
HETATM    9  C9  UNL     1     -33.378  17.520  -4.119  1.00 20.00     0.093 C 
HETATM   10  C10 UNL     1     -33.823  13.681  -3.451  1.00 20.00     0.005 C 
HETATM   11  C11 UNL     1     -33.850  15.170  -3.052  1.00 20.00     0.010 C 
HETATM   12  C12 UNL     1     -33.279  15.990  -4.201  1.00 20.00     0.027 C 
HETATM   13  O13 UNL     1     -33.570  19.055  -6.019  1.00 20.00    -0.292 OA
ENDROOT
TORSDOF 0
ENDMDL
MODEL 4
REMARK VINA RESULT:      -5.4      1.984      4.228
REMARK  0 active torsions:
REMARK  status: ('A' for Active; 'I' for Inactive)
ROOT
HETATM    1  C1  UNL     1     -34.148  17.918  -6.765  1.00 20.00     0.002 A 
HETATM    2  C2  UNL     1     -33.868  18.414  -5.486  1.00 20.00     0.016 A 
HETATM    3  C3  UNL     1     -34.376  16.542  -6.979  1.00 20.00     0.007 A 
HETATM    4  C4  UNL     1     -33.786  17.495  -4.463  1.00 20.00     0.017 A 
HETATM    5  C5  UNL     1     -34.288  15.632  -5.921  1.00 20.00    -0.051 A 
HETATM    6  C6  UNL     1     -33.947  16.137  -4.678  1.00 20.00    -0.033 A 
HETATM    7  C7  UNL     1     -33.668  17.684  -3.020  1.00 20.00     0.160 C 
HETATM    8  C8  UNL     1     -34.672  14.183  -6.052  1.00 20.00     0.039 C 
HETATM    9  C9  UNL     1     -33.932  16.356  -2.325  1.00 20.00     0.093 C 
HETATM   10  C10 UNL     1     -34.410  13.340  -4.785  1.00 20.00     0.005 C 
HETATM   11  C11 UNL     1     -34.660  14.114  -3.476  1.00 20.00     0.010 C 
HETATM   12  C12 UNL     1     -33.734  15.323  -3.443  1.00 20.00     0.027 C 
HETATM   13  O13 UNL     1     -33.458  18.755  -2.482  1.00 20.00    -0.292 OA
ENDROOT
TORSDOF 0
ENDMDL
MODEL 5
REMARK VINA RESULT:      -5.2      1.643      3.676
REMARK  0 active torsions:
REMARK  status: ('A' for Active; 'I' for Inactive)
ROOT
HETATM    1  C1  UNL     1     -34.737  13.422  -4.689  1.00 20.00     0.002 A 
HETATM    2  C2  UNL     1     -34.648  14.200  -5.850  1.00 20.00     0.016 A 
HETATM    3  C3  UNL     1     -34.571  13.997  -3.412  1.00 20.00     0.007 A 
HETATM    4  C4  UNL     1     -34.353  15.536  -5.687  1.00 20.00     0.017 A 
HETATM    5  C5  UNL     1     -34.273  15.357  -3.276  1.00 20.00    -0.051 A 
HETATM    6  C6  UNL     1     -34.128  16.093  -4.440  1.00 20.00    -0.033 A 
HETATM    7  C7  UNL     1     -34.341  16.633  -6.649  1.00 20.00     0.160 C 
HETATM    8  C8  UNL     1     -34.241  16.060  -1.946  1.00 20.00     0.039 C 
HETATM    9  C9  UNL     1     -34.254  17.951  -5.894  1.00 20.00     0.093 C 
HETATM   10  C10 UNL     1     -33.802  17.539  -2.020  1.00 20.00     0.005 C 
HETATM   11  C11 UNL     1     -34.300  18.259  -3.289  1.00 20.00     0.010 C 
HETATM   12  C12 UNL     1     -33.742  17.535  -4.507  1.00 20.00     0.027 C 
HETATM   13  O13 UNL     1     -34.451  16.493  -7.853  1.00 20.00    -0.292 OA
ENDROOT
TORSDOF 0
ENDMDL
MODEL 6
REMARK VINA RESULT:      -5.1      2.728      3.845
REMARK  0 active torsions:
REMARK  status: ('A' for Active; 'I' for Inactive)
ROOT
HETATM    1  C1  UNL     1     -38.266  15.600  -4.085  1.00 20.00     0.002 A 
HETATM    2  C2  UNL     1     -37.408  14.530  -4.369  1.00 20.00     0.016 A 
HETATM    3  C3  UNL     1     -37.830  16.699  -3.314  1.00 20.00     0.007 A 
HETATM    4  C4  UNL     1     -36.142  14.583  -3.829  1.00 20.00     0.017 A 
HETATM    5  C5  UNL     1     -36.537  16.726  -2.780  1.00 20.00    -0.051 A 
HETATM    6  C6  UNL     1     -35.729  15.629  -3.021  1.00 20.00    -0.033 A 
HETATM    7  C7  UNL     1     -34.976  13.734  -4.051  1.00 20.00     0.160 C 
HETATM    8  C8  UNL     1     -35.963  17.932  -2.087  1.00 20.00     0.039 C 
HETATM    9  C9  UNL     1     -33.750  14.411  -3.453  1.00 20.00     0.093 C 
HETATM   10  C10 UNL     1     -34.553  17.713  -1.495  1.00 20.00     0.005 C 
HETATM   11  C11 UNL     1     -33.667  16.793  -2.359  1.00 20.00     0.010 C 
HETATM   12  C12 UNL     1     -34.348  15.437  -2.481  1.00 20.00     0.027 C 
HETATM   13  O13 UNL     1     -34.995  12.688  -4.674  1.00 20.00    -0.292 OA
ENDROOT
TORSDOF 0
ENDMDL
MODEL 7
REMARK VINA RESULT:      -5.1      1.614      3.145
REMARK  0 active torsions:
REMARK  status: ('A' for Active; 'I' for Inactive)
ROOT
HETATM    1  C1  UNL     1     -34.641  13.310  -4.415  1.00 20.00     0.002 A 
HETATM    2  C2  UNL     1     -34.417  14.188  -3.348  1.00 20.00     0.016 A 
HETATM    3  C3  UNL     1     -34.758  13.787  -5.738  1.00 20.00     0.007 A 
HETATM    4  C4  UNL     1     -34.358  15.532  -3.644  1.00 20.00     0.017 A 
HETATM    5  C5  UNL     1     -34.692  15.158  -6.010  1.00 20.00    -0.051 A 
HETATM    6  C6  UNL     1     -34.534  16.011  -4.932  1.00 20.00    -0.033 A 
HETATM    7  C7  UNL     1     -33.992  16.676  -2.814  1.00 20.00     0.160 C 
HETATM    8  C8  UNL     1     -34.651  15.714  -7.408  1.00 20.00     0.039 C 
HETATM    9  C9  UNL     1     -33.789  17.891  -3.709  1.00 20.00     0.093 C 
HETATM   10  C10 UNL     1     -34.671  17.257  -7.477  1.00 20.00     0.005 C 
HETATM   11  C11 UNL     1     -33.891  17.929  -6.330  1.00 20.00     0.010 C 
HETATM   12  C12 UNL     1     -34.512  17.503  -5.006  1.00 20.00     0.027 C 
HETATM   13  O13 UNL     1     -33.819  16.624  -1.611  1.00 20.00    -0.292 OA
ENDROOT
TORSDOF 0
ENDMDL
MODEL 8
REMARK VINA RESULT:      -5.1      6.556      8.621
REMARK  0 active torsions:
REMARK  status: ('A' for Active; 'I' for Inactive)
ROOT
HETATM    1  C1  UNL     1     -35.687  17.763   3.396  1.00 20.00     0.002 A 
HETATM    2  C2  UNL     1     -34.592  18.139   4.183  1.00 20.00     0.016 A 
HETATM    3  C3  UNL     1     -35.619  17.801   1.987  1.00 20.00     0.007 A 
HETATM    4  C4  UNL     1     -33.468  18.582   3.521  1.00 20.00     0.017 A 
HETATM    5  C5  UNL     1     -34.464  18.255   1.341  1.00 20.00    -0.051 A 
HETATM    6  C6  UNL     1     -33.417  18.680   2.141  1.00 20.00    -0.033 A 
HETATM    7  C7  UNL     1     -32.131  18.893   4.017  1.00 20.00     0.160 C 
HETATM    8  C8  UNL     1     -34.272  18.171  -0.149  1.00 20.00     0.039 C 
HETATM    9  C9  UNL     1     -31.186  19.037   2.833  1.00 20.00     0.093 C 
HETATM   10  C10 UNL     1     -32.962  18.812  -0.657  1.00 20.00     0.005 C 
HETATM   11  C11 UNL     1     -31.776  18.623   0.310  1.00 20.00     0.010 C 
HETATM   12  C12 UNL     1     -32.133  19.263   1.645  1.00 20.00     0.027 C 
HETATM   13  O13 UNL     1     -31.832  18.957   5.195  1.00 20.00    -0.292 OA
ENDROOT
TORSDOF 0
ENDMDL
MODEL 9
REMARK VINA RESULT:      -5.0      6.197      7.928
REMARK  0 active torsions:
REMARK  status: ('A' for Active; 'I' for Inactive)
ROOT
HETATM    1  C1  UNL     1     -32.078  18.707   4.000  1.00 20.00     0.002 A 
HETATM    2  C2  UNL     1     -33.410  18.339   4.221  1.00 20.00     0.016 A 
HETATM    3  C3  UNL     1     -31.596  18.947   2.696  1.00 20.00     0.007 A 
HETATM    4  C4  UNL     1     -34.211  18.187   3.111  1.00 20.00     0.017 A 
HETATM    5  C5  UNL     1     -32.432  18.786   1.586  1.00 20.00    -0.051 A 
HETATM    6  C6  UNL     1     -33.728  18.361   1.825  1.00 20.00    -0.033 A 
HETATM    7  C7  UNL     1     -35.650  17.971   2.996  1.00 20.00     0.160 C 
HETATM    8  C8  UNL     1     -32.026  19.177   0.191  1.00 20.00     0.039 C 
HETATM    9  C9  UNL     1     -36.068  18.185   1.548  1.00 20.00     0.093 C 
HETATM   10  C10 UNL     1     -33.068  18.828  -0.895  1.00 20.00     0.005 C 
HETATM   11  C11 UNL     1     -34.524  18.988  -0.415  1.00 20.00     0.010 C 
HETATM   12  C12 UNL     1     -34.747  18.064   0.774  1.00 20.00     0.027 C 
HETATM   13  O13 UNL     1     -36.385  17.725   3.934  1.00 20.00    -0.292 OA
ENDROOT
TORSDOF 0
ENDMDL
