MODEL 1
REMARK VINA RESULT:      -4.9      0.000      0.000
REMARK  1 active torsions:
REMARK  status: ('A' for Active; 'I' for Inactive)
REMARK    1  A    between atoms: C4_4  and  C11_11 
ROOT
HETATM    1  C1  UNL     1     -33.907  16.864  -5.425  1.00 20.00     0.053 C 
HETATM    2  C2  UNL     1     -34.257  15.574  -5.465  1.00 20.00    -0.072 C 
HETATM    3  C3  UNL     1     -33.918  17.251  -4.011  1.00 20.00     0.155 C 
HETATM    4  C4  UNL     1     -34.116  16.056  -3.112  1.00 20.00     0.075 C 
HETATM    5  C5  UNL     1     -34.593  14.959  -4.111  1.00 20.00    -0.013 C 
HETATM    6  C6  UNL     1     -34.359  14.789  -6.732  1.00 20.00     0.044 C 
HETATM    7  C7  UNL     1     -33.808  13.662  -3.861  1.00 20.00     0.020 C 
HETATM    8  C8  UNL     1     -36.099  14.662  -4.036  1.00 20.00     0.020 C 
HETATM    9  O12 UNL     1     -33.739  18.402  -3.638  1.00 20.00    -0.293 OA
ENDROOT
BRANCH   4  10
HETATM   10  C11 UNL     1     -35.027  16.374  -1.939  1.00 20.00    -0.010 C 
HETATM   11  C9  UNL     1     -34.222  16.909  -0.754  1.00 20.00     0.010 C 
HETATM   12  C10 UNL     1     -36.107  17.378  -2.345  1.00 20.00     0.010 C 
ENDBRANCH   4  10
TORSDOF 1
ENDMDL
MODEL 2
REMARK VINA RESULT:      -4.8      2.003      3.160
REMARK  1 active torsions:
REMARK  status: ('A' for Active; 'I' for Inactive)
REMARK    1  A    between atoms: C4_4  and  C11_11 
ROOT
HETATM    1  C1  UNL     1     -34.948  13.392  -5.732  1.00 20.00     0.053 C 
HETATM    2  C2  UNL     1     -35.294  14.476  -6.434  1.00 20.00    -0.072 C 
HETATM    3  C3  UNL     1     -34.692  13.851  -4.363  1.00 20.00     0.155 C 
HETATM    4  C4  UNL     1     -35.089  15.296  -4.182  1.00 20.00     0.075 C 
HETATM    5  C5  UNL     1     -35.263  15.784  -5.651  1.00 20.00    -0.013 C 
HETATM    6  C6  UNL     1     -35.646  14.438  -7.885  1.00 20.00     0.044 C 
HETATM    7  C7  UNL     1     -36.583  16.561  -5.780  1.00 20.00     0.020 C 
HETATM    8  C8  UNL     1     -34.107  16.664  -6.156  1.00 20.00     0.020 C 
HETATM    9  O12 UNL     1     -34.256  13.117  -3.489  1.00 20.00    -0.293 OA
ENDROOT
BRANCH   4  10
HETATM   10  C11 UNL     1     -34.098  16.050  -3.310  1.00 20.00    -0.010 C 
HETATM   11  C9  UNL     1     -34.570  16.084  -1.855  1.00 20.00     0.010 C 
HETATM   12  C10 UNL     1     -32.706  15.424  -3.402  1.00 20.00     0.010 C 
ENDBRANCH   4  10
TORSDOF 1
ENDMDL
MODEL 3
REMARK VINA RESULT:      -4.7      2.121      3.249
REMARK  1 active torsions:
REMARK  status: ('A' for Active; 'I' for Inactive)
REMARK    1  A    between atoms: C4_4  and  C11_11 
ROOT
HETATM    1  C1  UNL     1     -35.114  14.077  -6.498  1.00 20.00     0.053 C 
HETATM    2  C2  UNL     1     -35.045  15.407  -6.609  1.00 20.00    -0.072 C 
HETATM    3  C3  UNL     1     -35.035  13.778  -5.064  1.00 20.00     0.155 C 
HETATM    4  C4  UNL     1     -35.104  15.036  -4.234  1.00 20.00     0.075 C 
HETATM    5  C5  UNL     1     -34.860  16.153  -5.292  1.00 20.00    -0.013 C 
HETATM    6  C6  UNL     1     -35.099  16.126  -7.918  1.00 20.00     0.044 C 
HETATM    7  C7  UNL     1     -35.904  17.266  -5.113  1.00 20.00     0.020 C 
HETATM    8  C8  UNL     1     -33.452  16.767  -5.237  1.00 20.00     0.020 C 
HETATM    9  O12 UNL     1     -34.969  12.638  -4.628  1.00 20.00    -0.293 OA
ENDROOT
BRANCH   4  10
HETATM   10  C11 UNL     1     -34.157  14.983  -3.046  1.00 20.00    -0.010 C 
HETATM   11  C9  UNL     1     -32.704  14.880  -3.513  1.00 20.00     0.010 C 
HETATM   12  C10 UNL     1     -34.341  16.207  -2.148  1.00 20.00     0.010 C 
ENDBRANCH   4  10
TORSDOF 1
ENDMDL
MODEL 4
REMARK VINA RESULT:      -4.7      1.707      3.989
REMARK  1 active torsions:
REMARK  status: ('A' for Active; 'I' for Inactive)
REMARK    1  A    between atoms: C4_4  and  C11_11 
ROOT
HETATM    1  C1  UNL     1     -36.195  16.636  -3.518  1.00 20.00     0.053 C 
HETATM    2  C2  UNL     1     -35.122  16.018  -3.014  1.00 20.00    -0.072 C 
HETATM    3  C3  UNL     1     -36.285  16.226  -4.923  1.00 20.00     0.155 C 
HETATM    4  C4  UNL     1     -35.293  15.136  -5.245  1.00 20.00     0.075 C 
HETATM    5  C5  UNL     1     -34.339  15.174  -4.014  1.00 20.00    -0.013 C 
HETATM    6  C6  UNL     1     -34.680  16.165  -1.595  1.00 20.00     0.044 C 
HETATM    7  C7  UNL     1     -34.110  13.744  -3.500  1.00 20.00     0.020 C 
HETATM    8  C8  UNL     1     -32.980  15.833  -4.299  1.00 20.00     0.020 C 
HETATM    9  O12 UNL     1     -37.105  16.696  -5.699  1.00 20.00    -0.293 OA
ENDROOT
BRANCH   4  10
HETATM   10  C11 UNL     1     -34.668  15.326  -6.617  1.00 20.00    -0.010 C 
HETATM   11  C9  UNL     1     -35.405  14.499  -7.671  1.00 20.00     0.010 C 
HETATM   12  C10 UNL     1     -34.660  16.804  -7.011  1.00 20.00     0.010 C 
ENDBRANCH   4  10
TORSDOF 1
ENDMDL
MODEL 5
REMARK VINA RESULT:      -4.6      2.164      4.295
REMARK  1 active torsions:
REMARK  status: ('A' for Active; 'I' for Inactive)
REMARK    1  A    between atoms: C4_4  and  C11_11 
ROOT
HETATM    1  C1  UNL     1     -34.359  14.150  -3.271  1.00 20.00     0.053 C 
HETATM    2  C2  UNL     1     -34.266  15.482  -3.340  1.00 20.00    -0.072 C 
HETATM    3  C3  UNL     1     -34.569  13.680  -4.644  1.00 20.00     0.155 C 
HETATM    4  C4  UNL     1     -34.412  14.801  -5.642  1.00 20.00     0.075 C 
HETATM    5  C5  UNL     1     -34.453  16.067  -4.735  1.00 20.00    -0.013 C 
HETATM    6  C6  UNL     1     -34.041  16.353  -2.146  1.00 20.00     0.044 C 
HETATM    7  C7  UNL     1     -33.303  17.011  -5.119  1.00 20.00     0.020 C 
HETATM    8  C8  UNL     1     -35.782  16.838  -4.801  1.00 20.00     0.020 C 
HETATM    9  O12 UNL     1     -34.795  12.510  -4.916  1.00 20.00    -0.293 OA
ENDROOT
BRANCH   4  10
HETATM   10  C11 UNL     1     -35.437  14.711  -6.760  1.00 20.00    -0.010 C 
HETATM   11  C9  UNL     1     -36.837  15.048  -6.243  1.00 20.00     0.010 C 
HETATM   12  C10 UNL     1     -35.061  15.637  -7.918  1.00 20.00     0.010 C 
ENDBRANCH   4  10
TORSDOF 1
ENDMDL
MODEL 6
REMARK VINA RESULT:      -4.5      1.710      3.989
REMARK  1 active torsions:
REMARK  status: ('A' for Active; 'I' for Inactive)
REMARK    1  A    between atoms: C4_4  and  C11_11 
ROOT
HETATM    1  C1  UNL     1     -36.805  16.676  -3.347  1.00 20.00     0.053 C 
HETATM    2  C2  UNL     1     -36.231  17.402  -2.381  1.00 20.00    -0.072 C 
HETATM    3  C3  UNL     1     -35.839  15.634  -3.708  1.00 20.00     0.155 C 
HETATM    4  C4  UNL     1     -34.663  15.618  -2.763  1.00 20.00     0.075 C 
HETATM    5  C5  UNL     1     -34.812  16.978  -2.017  1.00 20.00    -0.013 C 
HETATM    6  C6  UNL     1     -36.894  18.569  -1.727  1.00 20.00     0.044 C 
HETATM    7  C7  UNL     1     -34.652  16.753  -0.506  1.00 20.00     0.020 C 
HETATM    8  C8  UNL     1     -33.815  18.053  -2.478  1.00 20.00     0.020 C 
HETATM    9  O12 UNL     1     -36.018  14.859  -4.637  1.00 20.00    -0.293 OA
ENDROOT
BRANCH   4  10
HETATM   10  C11 UNL     1     -33.354  15.363  -3.492  1.00 20.00    -0.010 C 
HETATM   11  C9  UNL     1     -33.086  13.863  -3.620  1.00 20.00     0.010 C 
HETATM   12  C10 UNL     1     -33.363  16.022  -4.872  1.00 20.00     0.010 C 
ENDBRANCH   4  10
TORSDOF 1
ENDMDL
MODEL 7
REMARK VINA RESULT:      -4.4      1.571      3.980
REMARK  1 active torsions:
REMARK  status: ('A' for Active; 'I' for Inactive)
REMARK    1  A    between atoms: C4_4  and  C11_11 
ROOT
HETATM    1  C1  UNL     1     -33.726  16.223  -2.296  1.00 20.00     0.053 C 
HETATM    2  C2  UNL     1     -34.946  16.765  -2.370  1.00 20.00    -0.072 C 
HETATM    3  C3  UNL     1     -33.489  15.565  -3.585  1.00 20.00     0.155 C 
HETATM    4  C4  UNL     1     -34.578  15.886  -4.578  1.00 20.00     0.075 C 
HETATM    5  C5  UNL     1     -35.690  16.497  -3.673  1.00 20.00    -0.013 C 
HETATM    6  C6  UNL     1     -35.569  17.540  -1.255  1.00 20.00     0.044 C 
HETATM    7  C7  UNL     1     -36.215  17.793  -4.310  1.00 20.00     0.020 C 
HETATM    8  C8  UNL     1     -36.871  15.548  -3.411  1.00 20.00     0.020 C 
HETATM    9  O12 UNL     1     -32.498  14.884  -3.808  1.00 20.00    -0.293 OA
ENDROOT
BRANCH   4  10
HETATM   10  C11 UNL     1     -34.951  14.677  -5.420  1.00 20.00    -0.010 C 
HETATM   11  C9  UNL     1     -34.417  14.822  -6.846  1.00 20.00     0.010 C 
HETATM   12  C10 UNL     1     -34.428  13.389  -4.784  1.00 20.00     0.010 C 
ENDBRANCH   4  10
TORSDOF 1
ENDMDL
MODEL 8
REMARK VINA RESULT:      -4.3      1.550      2.314
REMARK  1 active torsions:
REMARK  status: ('A' for Active; 'I' for Inactive)
REMARK    1  A    between atoms: C4_4  and  C11_11 
ROOT
HETATM    1  C1  UNL     1     -36.509  15.979  -4.062  1.00 20.00     0.053 C 
HETATM    2  C2  UNL     1     -35.443  15.496  -4.707  1.00 20.00    -0.072 C 
HETATM    3  C3  UNL     1     -35.995  16.922  -3.064  1.00 20.00     0.155 C 
HETATM    4  C4  UNL     1     -34.516  17.161  -3.241  1.00 20.00     0.075 C 
HETATM    5  C5  UNL     1     -34.099  16.003  -4.197  1.00 20.00    -0.013 C 
HETATM    6  C6  UNL     1     -35.536  14.500  -5.817  1.00 20.00     0.044 C 
HETATM    7  C7  UNL     1     -33.230  16.565  -5.333  1.00 20.00     0.020 C 
HETATM    8  C8  UNL     1     -33.343  14.861  -3.499  1.00 20.00     0.020 C 
HETATM    9  O12 UNL     1     -36.711  17.465  -2.235  1.00 20.00    -0.293 OA
ENDROOT
BRANCH   4  10
HETATM   10  C11 UNL     1     -33.794  17.257  -1.906  1.00 20.00    -0.010 C 
HETATM   11  C9  UNL     1     -33.469  18.712  -1.567  1.00 20.00     0.010 C 
HETATM   12  C10 UNL     1     -34.627  16.624  -0.791  1.00 20.00     0.010 C 
ENDBRANCH   4  10
TORSDOF 1
ENDMDL
MODEL 9
REMARK VINA RESULT:      -4.3      2.007      4.046
REMARK  1 active torsions:
REMARK  status: ('A' for Active; 'I' for Inactive)
REMARK    1  A    between atoms: C4_4  and  C11_11 
ROOT
HETATM    1  C1  UNL     1     -37.261  16.465  -3.464  1.00 20.00     0.053 C 
HETATM    2  C2  UNL     1     -36.118  17.138  -3.292  1.00 20.00    -0.072 C 
HETATM    3  C3  UNL     1     -36.896  15.047  -3.546  1.00 20.00     0.155 C 
HETATM    4  C4  UNL     1     -35.438  14.832  -3.218  1.00 20.00     0.075 C 
HETATM    5  C5  UNL     1     -34.860  16.277  -3.291  1.00 20.00    -0.013 C 
HETATM    6  C6  UNL     1     -36.054  18.624  -3.154  1.00 20.00     0.044 C 
HETATM    7  C7  UNL     1     -33.986  16.542  -2.055  1.00 20.00     0.020 C 
HETATM    8  C8  UNL     1     -34.039  16.556  -4.560  1.00 20.00     0.020 C 
HETATM    9  O12 UNL     1     -37.706  14.168  -3.803  1.00 20.00    -0.293 OA
ENDROOT
BRANCH   4  10
HETATM   10  C11 UNL     1     -34.805  13.782  -4.116  1.00 20.00    -0.010 C 
HETATM   11  C9  UNL     1     -34.960  14.162  -5.590  1.00 20.00     0.010 C 
HETATM   12  C10 UNL     1     -33.328  13.589  -3.769  1.00 20.00     0.010 C 
ENDBRANCH   4  10
TORSDOF 1
ENDMDL
