MODEL 1
REMARK VINA RESULT:      -4.1      0.000      0.000
REMARK  2 active torsions:
REMARK  status: ('A' for Active; 'I' for Inactive)
REMARK    1  A    between atoms: C1_1  and  C5_5 
REMARK    2  A    between atoms: C2_2  and  C6_6 
ROOT
HETATM    1  C1  UNL     1     -34.556  16.435  -1.645  1.00 20.00    -0.063 C 
HETATM    2  C2  UNL     1     -34.736  15.608  -2.497  1.00 20.00    -0.063 C 
ENDROOT
BRANCH   1   3
HETATM    3  C5  UNL     1     -34.340  17.421  -0.629  1.00 20.00     0.141 A 
HETATM    4  C3  UNL     1     -33.060  18.219  -0.647  1.00 20.00     0.221 A 
HETATM    5  O9  UNL     1     -34.290  18.757  -1.148  1.00 20.00    -0.362 OA
HETATM    6  C7  UNL     1     -35.119  17.300   0.640  1.00 20.00     0.063 C 
ENDBRANCH   1   3
BRANCH   2   7
HETATM    7  C6  UNL     1     -34.955  14.600  -3.534  1.00 20.00     0.141 A 
HETATM    8  C4  UNL     1     -33.788  14.198  -4.376  1.00 20.00     0.221 A 
HETATM    9  O10 UNL     1     -34.232  13.403  -3.269  1.00 20.00    -0.362 OA
HETATM   10  C8  UNL     1     -36.348  14.407  -3.995  1.00 20.00     0.063 C 
ENDBRANCH   2   7
TORSDOF 2
ENDMDL
MODEL 2
REMARK VINA RESULT:      -4.0      1.243      1.998
REMARK  2 active torsions:
REMARK  status: ('A' for Active; 'I' for Inactive)
REMARK    1  A    between atoms: C1_1  and  C5_5 
REMARK    2  A    between atoms: C2_2  and  C6_6 
ROOT
HETATM    1  C1  UNL     1     -34.512  16.452  -1.693  1.00 20.00    -0.063 C 
HETATM    2  C2  UNL     1     -34.575  15.620  -2.557  1.00 20.00    -0.063 C 
ENDROOT
BRANCH   1   3
HETATM    3  C5  UNL     1     -34.437  17.445  -0.664  1.00 20.00     0.141 A 
HETATM    4  C3  UNL     1     -35.714  18.069  -0.156  1.00 20.00     0.221 A 
HETATM    5  O9  UNL     1     -35.046  17.025   0.565  1.00 20.00    -0.362 OA
HETATM    6  C7  UNL     1     -33.138  18.159  -0.476  1.00 20.00     0.063 C 
ENDBRANCH   1   3
BRANCH   2   7
HETATM    7  C6  UNL     1     -34.652  14.607  -3.609  1.00 20.00     0.141 A 
HETATM    8  C4  UNL     1     -36.006  14.216  -4.106  1.00 20.00     0.221 A 
HETATM    9  O10 UNL     1     -35.176  15.141  -4.820  1.00 20.00    -0.362 OA
HETATM   10  C8  UNL     1     -33.480  13.717  -3.767  1.00 20.00     0.063 C 
ENDBRANCH   2   7
TORSDOF 2
ENDMDL
MODEL 3
REMARK VINA RESULT:      -4.0      1.246      4.868
REMARK  2 active torsions:
REMARK  status: ('A' for Active; 'I' for Inactive)
REMARK    1  A    between atoms: C1_1  and  C5_5 
REMARK    2  A    between atoms: C2_2  and  C6_6 
ROOT
HETATM    1  C1  UNL     1     -34.563  15.633  -2.510  1.00 20.00    -0.063 C 
HETATM    2  C2  UNL     1     -34.510  16.465  -1.646  1.00 20.00    -0.063 C 
ENDROOT
BRANCH   1   3
HETATM    3  C5  UNL     1     -34.625  14.641  -3.542  1.00 20.00     0.141 A 
HETATM    4  C3  UNL     1     -35.974  14.220  -4.070  1.00 20.00     0.221 A 
HETATM    5  O9  UNL     1     -35.143  15.150  -4.778  1.00 20.00    -0.362 OA
HETATM    6  C7  UNL     1     -33.448  13.736  -3.712  1.00 20.00     0.063 C 
ENDBRANCH   1   3
BRANCH   2   7
HETATM    7  C6  UNL     1     -34.445  17.479  -0.594  1.00 20.00     0.141 A 
HETATM    8  C4  UNL     1     -35.731  18.069  -0.112  1.00 20.00     0.221 A 
HETATM    9  O10 UNL     1     -35.057  17.030   0.610  1.00 20.00    -0.362 OA
HETATM   10  C8  UNL     1     -33.156  18.184  -0.422  1.00 20.00     0.063 C 
ENDBRANCH   2   7
TORSDOF 2
ENDMDL
MODEL 4
REMARK VINA RESULT:      -4.0      0.888      1.444
REMARK  2 active torsions:
REMARK  status: ('A' for Active; 'I' for Inactive)
REMARK    1  A    between atoms: C1_1  and  C5_5 
REMARK    2  A    between atoms: C2_2  and  C6_6 
ROOT
HETATM    1  C1  UNL     1     -34.426  16.560  -1.518  1.00 20.00    -0.063 C 
HETATM    2  C2  UNL     1     -34.556  15.755  -2.399  1.00 20.00    -0.063 C 
ENDROOT
BRANCH   1   3
HETATM    3  C5  UNL     1     -34.271  17.522  -0.468  1.00 20.00     0.141 A 
HETATM    4  C3  UNL     1     -32.994  18.322  -0.392  1.00 20.00     0.221 A 
HETATM    5  O9  UNL     1     -34.195  18.870  -0.951  1.00 20.00    -0.362 OA
HETATM    6  C7  UNL     1     -35.122  17.369   0.751  1.00 20.00     0.063 C 
ENDBRANCH   1   3
BRANCH   2   7
HETATM    7  C6  UNL     1     -34.715  14.774  -3.472  1.00 20.00     0.141 A 
HETATM    8  C4  UNL     1     -36.102  14.449  -3.924  1.00 20.00     0.221 A 
HETATM    9  O10 UNL     1     -35.264  15.359  -4.647  1.00 20.00    -0.362 OA
HETATM   10  C8  UNL     1     -33.587  13.843  -3.699  1.00 20.00     0.063 C 
ENDBRANCH   2   7
TORSDOF 2
ENDMDL
MODEL 5
REMARK VINA RESULT:      -4.0      0.898      4.800
REMARK  2 active torsions:
REMARK  status: ('A' for Active; 'I' for Inactive)
REMARK    1  A    between atoms: C1_1  and  C5_5 
REMARK    2  A    between atoms: C2_2  and  C6_6 
ROOT
HETATM    1  C1  UNL     1     -34.523  15.776  -2.374  1.00 20.00    -0.063 C 
HETATM    2  C2  UNL     1     -34.403  16.580  -1.491  1.00 20.00    -0.063 C 
ENDROOT
BRANCH   1   3
HETATM    3  C5  UNL     1     -34.666  14.815  -3.427  1.00 20.00     0.141 A 
HETATM    4  C3  UNL     1     -36.052  14.460  -3.908  1.00 20.00     0.221 A 
HETATM    5  O9  UNL     1     -35.216  15.377  -4.626  1.00 20.00    -0.362 OA
HETATM    6  C7  UNL     1     -33.534  13.872  -3.671  1.00 20.00     0.063 C 
ENDBRANCH   1   3
BRANCH   2   7
HETATM    7  C6  UNL     1     -34.256  17.560  -0.416  1.00 20.00     0.141 A 
HETATM    8  C4  UNL     1     -32.974  18.326  -0.337  1.00 20.00     0.221 A 
HETATM    9  O10 UNL     1     -34.157  18.888  -0.920  1.00 20.00    -0.362 OA
HETATM   10  C8  UNL     1     -35.135  17.397   0.763  1.00 20.00     0.063 C 
ENDBRANCH   2   7
TORSDOF 2
ENDMDL
MODEL 6
REMARK VINA RESULT:      -4.0      1.521      1.918
REMARK  2 active torsions:
REMARK  status: ('A' for Active; 'I' for Inactive)
REMARK    1  A    between atoms: C1_1  and  C5_5 
REMARK    2  A    between atoms: C2_2  and  C6_6 
ROOT
HETATM    1  C1  UNL     1     -34.220  16.936  -1.234  1.00 20.00    -0.063 C 
HETATM    2  C2  UNL     1     -34.068  16.238  -2.200  1.00 20.00    -0.063 C 
ENDROOT
BRANCH   1   3
HETATM    3  C5  UNL     1     -34.402  17.767  -0.082  1.00 20.00     0.141 A 
HETATM    4  C3  UNL     1     -35.792  18.245   0.261  1.00 20.00     0.221 A 
HETATM    5  O9  UNL     1     -35.185  17.139   0.943  1.00 20.00    -0.362 OA
HETATM    6  C7  UNL     1     -33.214  18.508   0.440  1.00 20.00     0.063 C 
ENDBRANCH   1   3
BRANCH   2   7
HETATM    7  C6  UNL     1     -33.883  15.388  -3.375  1.00 20.00     0.141 A 
HETATM    8  C4  UNL     1     -33.121  15.951  -4.532  1.00 20.00     0.221 A 
HETATM    9  O10 UNL     1     -32.512  15.065  -3.583  1.00 20.00    -0.362 OA
HETATM   10  C8  UNL     1     -34.829  14.263  -3.543  1.00 20.00     0.063 C 
ENDBRANCH   2   7
TORSDOF 2
ENDMDL
MODEL 7
REMARK VINA RESULT:      -4.0      1.587      4.804
REMARK  2 active torsions:
REMARK  status: ('A' for Active; 'I' for Inactive)
REMARK    1  A    between atoms: C1_1  and  C5_5 
REMARK    2  A    between atoms: C2_2  and  C6_6 
ROOT
HETATM    1  C1  UNL     1     -33.771  16.347  -2.577  1.00 20.00    -0.063 C 
HETATM    2  C2  UNL     1     -33.865  17.001  -1.574  1.00 20.00    -0.063 C 
ENDROOT
BRANCH   1   3
HETATM    3  C5  UNL     1     -33.656  15.566  -3.773  1.00 20.00     0.141 A 
HETATM    4  C3  UNL     1     -33.989  16.207  -5.097  1.00 20.00     0.221 A 
HETATM    5  O9  UNL     1     -32.634  16.045  -4.657  1.00 20.00    -0.362 OA
HETATM    6  C7  UNL     1     -33.687  14.078  -3.641  1.00 20.00     0.063 C 
ENDBRANCH   1   3
BRANCH   2   7
HETATM    7  C6  UNL     1     -33.981  17.798  -0.354  1.00 20.00     0.141 A 
HETATM    8  C4  UNL     1     -32.812  18.639   0.046  1.00 20.00     0.221 A 
HETATM    9  O10 UNL     1     -33.949  19.194  -0.629  1.00 20.00    -0.362 OA
HETATM   10  C8  UNL     1     -35.002  17.372   0.629  1.00 20.00     0.063 C 
ENDBRANCH   2   7
TORSDOF 2
ENDMDL
MODEL 8
REMARK VINA RESULT:      -3.8      1.028      4.860
REMARK  2 active torsions:
REMARK  status: ('A' for Active; 'I' for Inactive)
REMARK    1  A    between atoms: C1_1  and  C5_5 
REMARK    2  A    between atoms: C2_2  and  C6_6 
ROOT
HETATM    1  C1  UNL     1     -34.013  16.005  -2.613  1.00 20.00    -0.063 C 
HETATM    2  C2  UNL     1     -34.039  16.747  -1.669  1.00 20.00    -0.063 C 
ENDROOT
BRANCH   1   3
HETATM    3  C5  UNL     1     -33.984  15.120  -3.739  1.00 20.00     0.141 A 
HETATM    4  C3  UNL     1     -33.223  13.822  -3.628  1.00 20.00     0.221 A 
HETATM    5  O9  UNL     1     -34.649  13.874  -3.489  1.00 20.00    -0.362 OA
HETATM    6  C7  UNL     1     -34.275  15.695  -5.087  1.00 20.00     0.063 C 
ENDBRANCH   1   3
BRANCH   2   7
HETATM    7  C6  UNL     1     -34.070  17.650  -0.520  1.00 20.00     0.141 A 
HETATM    8  C4  UNL     1     -32.855  18.477  -0.247  1.00 20.00     0.221 A 
HETATM    9  O10 UNL     1     -34.002  19.016  -0.918  1.00 20.00    -0.362 OA
HETATM   10  C8  UNL     1     -35.059  17.351   0.540  1.00 20.00     0.063 C 
ENDBRANCH   2   7
TORSDOF 2
ENDMDL
MODEL 9
REMARK VINA RESULT:      -3.6     12.814     14.901
REMARK  2 active torsions:
REMARK  status: ('A' for Active; 'I' for Inactive)
REMARK    1  A    between atoms: C1_1  and  C5_5 
REMARK    2  A    between atoms: C2_2  and  C6_6 
ROOT
HETATM    1  C1  UNL     1     -41.967   3.756  -2.474  1.00 20.00    -0.063 C 
HETATM    2  C2  UNL     1     -42.215   2.795  -3.149  1.00 20.00    -0.063 C 
ENDROOT
BRANCH   1   3
HETATM    3  C5  UNL     1     -41.671   4.902  -1.667  1.00 20.00     0.141 A 
HETATM    4  C3  UNL     1     -41.601   4.742  -0.168  1.00 20.00     0.221 A 
HETATM    5  O9  UNL     1     -40.419   4.792  -0.977  1.00 20.00    -0.362 OA
HETATM    6  C7  UNL     1     -41.914   6.253  -2.256  1.00 20.00     0.063 C 
ENDBRANCH   1   3
BRANCH   2   7
HETATM    7  C6  UNL     1     -42.518   1.624  -3.972  1.00 20.00     0.141 A 
HETATM    8  C4  UNL     1     -43.417   1.812  -5.151  1.00 20.00     0.221 A 
HETATM    9  O10 UNL     1     -41.992   1.753  -5.288  1.00 20.00    -0.362 OA
HETATM   10  C8  UNL     1     -42.328   0.298  -3.344  1.00 20.00     0.063 C 
ENDBRANCH   2   7
TORSDOF 2
ENDMDL
