MODEL 1
REMARK VINA RESULT:      -4.0      0.000      0.000
REMARK  2 active torsions:
REMARK  status: ('A' for Active; 'I' for Inactive)
REMARK    1  A    between atoms: C1_1  and  C5_5 
REMARK    2  A    between atoms: C2_2  and  C6_6 
ROOT
HETATM    1  C1  UNL     1     -34.431  16.563  -1.597  1.00 20.00    -0.063 C 
HETATM    2  C2  UNL     1     -34.546  15.729  -2.453  1.00 20.00    -0.063 C 
ENDROOT
BRANCH   1   3
HETATM    3  C5  UNL     1     -34.295  17.557  -0.576  1.00 20.00     0.141 A 
HETATM    4  C3  UNL     1     -33.820  18.938  -0.960  1.00 20.00     0.221 A 
HETATM    5  O9  UNL     1     -32.937  17.972  -0.375  1.00 20.00    -0.362 OA
HETATM    6  C7  UNL     1     -35.057  17.363   0.694  1.00 20.00     0.063 C 
ENDBRANCH   1   3
BRANCH   2   7
HETATM    7  C6  UNL     1     -34.685  14.714  -3.496  1.00 20.00     0.141 A 
HETATM    8  C4  UNL     1     -33.535  13.787  -3.729  1.00 20.00     0.221 A 
HETATM    9  O10 UNL     1     -33.772  14.926  -4.567  1.00 20.00    -0.362 OA
HETATM   10  C8  UNL     1     -36.063  14.357  -3.903  1.00 20.00     0.063 C 
ENDBRANCH   2   7
TORSDOF 2
ENDMDL
MODEL 2
REMARK VINA RESULT:      -3.9      0.864      1.389
REMARK  2 active torsions:
REMARK  status: ('A' for Active; 'I' for Inactive)
REMARK    1  A    between atoms: C1_1  and  C5_5 
REMARK    2  A    between atoms: C2_2  and  C6_6 
ROOT
HETATM    1  C1  UNL     1     -34.364  16.549  -1.743  1.00 20.00    -0.063 C 
HETATM    2  C2  UNL     1     -34.445  15.717  -2.605  1.00 20.00    -0.063 C 
ENDROOT
BRANCH   1   3
HETATM    3  C5  UNL     1     -34.267  17.539  -0.714  1.00 20.00     0.141 A 
HETATM    4  C3  UNL     1     -33.826  18.935  -1.083  1.00 20.00     0.221 A 
HETATM    5  O9  UNL     1     -32.923  17.990  -0.494  1.00 20.00    -0.362 OA
HETATM    6  C7  UNL     1     -35.038  17.316   0.546  1.00 20.00     0.063 C 
ENDBRANCH   1   3
BRANCH   2   7
HETATM    7  C6  UNL     1     -34.544  14.705  -3.656  1.00 20.00     0.141 A 
HETATM    8  C4  UNL     1     -35.422  14.999  -4.830  1.00 20.00     0.221 A 
HETATM    9  O10 UNL     1     -35.857  14.164  -3.749  1.00 20.00    -0.362 OA
HETATM   10  C8  UNL     1     -33.447  13.715  -3.737  1.00 20.00     0.063 C 
ENDBRANCH   2   7
TORSDOF 2
ENDMDL
MODEL 3
REMARK VINA RESULT:      -3.9      0.902      4.834
REMARK  2 active torsions:
REMARK  status: ('A' for Active; 'I' for Inactive)
REMARK    1  A    between atoms: C1_1  and  C5_5 
REMARK    2  A    between atoms: C2_2  and  C6_6 
ROOT
HETATM    1  C1  UNL     1     -34.585  15.776  -2.358  1.00 20.00    -0.063 C 
HETATM    2  C2  UNL     1     -34.453  16.578  -1.473  1.00 20.00    -0.063 C 
ENDROOT
BRANCH   1   3
HETATM    3  C5  UNL     1     -34.743  14.821  -3.413  1.00 20.00     0.141 A 
HETATM    4  C3  UNL     1     -33.617  13.857  -3.698  1.00 20.00     0.221 A 
HETATM    5  O9  UNL     1     -33.828  15.028  -4.498  1.00 20.00    -0.362 OA
HETATM    6  C7  UNL     1     -36.131  14.489  -3.854  1.00 20.00     0.063 C 
ENDBRANCH   1   3
BRANCH   2   7
HETATM    7  C6  UNL     1     -34.292  17.553  -0.397  1.00 20.00     0.141 A 
HETATM    8  C4  UNL     1     -35.155  17.407   0.816  1.00 20.00     0.221 A 
HETATM    9  O10 UNL     1     -35.461  18.347  -0.222  1.00 20.00    -0.362 OA
HETATM   10  C8  UNL     1     -33.013  18.297  -0.352  1.00 20.00     0.063 C 
ENDBRANCH   2   7
TORSDOF 2
ENDMDL
MODEL 4
REMARK VINA RESULT:      -3.9      0.904      1.418
REMARK  2 active torsions:
REMARK  status: ('A' for Active; 'I' for Inactive)
REMARK    1  A    between atoms: C1_1  and  C5_5 
REMARK    2  A    between atoms: C2_2  and  C6_6 
ROOT
HETATM    1  C1  UNL     1     -34.455  16.578  -1.460  1.00 20.00    -0.063 C 
HETATM    2  C2  UNL     1     -34.591  15.780  -2.348  1.00 20.00    -0.063 C 
ENDROOT
BRANCH   1   3
HETATM    3  C5  UNL     1     -34.293  17.530  -0.404  1.00 20.00     0.141 A 
HETATM    4  C3  UNL     1     -35.156  17.406   0.829  1.00 20.00     0.221 A 
HETATM    5  O9  UNL     1     -35.453  18.351  -0.207  1.00 20.00    -0.362 OA
HETATM    6  C7  UNL     1     -33.006  18.283  -0.333  1.00 20.00     0.063 C 
ENDBRANCH   1   3
BRANCH   2   7
HETATM    7  C6  UNL     1     -34.756  14.807  -3.426  1.00 20.00     0.141 A 
HETATM    8  C4  UNL     1     -33.631  13.858  -3.692  1.00 20.00     0.221 A 
HETATM    9  O10 UNL     1     -33.835  15.032  -4.488  1.00 20.00    -0.362 OA
HETATM   10  C8  UNL     1     -36.142  14.504  -3.848  1.00 20.00     0.063 C 
ENDBRANCH   2   7
TORSDOF 2
ENDMDL
MODEL 5
REMARK VINA RESULT:      -3.9      0.876      4.791
REMARK  2 active torsions:
REMARK  status: ('A' for Active; 'I' for Inactive)
REMARK    1  A    between atoms: C1_1  and  C5_5 
REMARK    2  A    between atoms: C2_2  and  C6_6 
ROOT
HETATM    1  C1  UNL     1     -34.485  15.693  -2.634  1.00 20.00    -0.063 C 
HETATM    2  C2  UNL     1     -34.393  16.526  -1.774  1.00 20.00    -0.063 C 
ENDROOT
BRANCH   1   3
HETATM    3  C5  UNL     1     -34.597  14.700  -3.660  1.00 20.00     0.141 A 
HETATM    4  C3  UNL     1     -35.501  14.967  -4.839  1.00 20.00     0.221 A 
HETATM    5  O9  UNL     1     -35.910  14.131  -3.749  1.00 20.00    -0.362 OA
HETATM    6  C7  UNL     1     -33.498  13.696  -3.782  1.00 20.00     0.063 C 
ENDBRANCH   1   3
BRANCH   2   7
HETATM    7  C6  UNL     1     -34.278  17.540  -0.727  1.00 20.00     0.141 A 
HETATM    8  C4  UNL     1     -33.823  18.908  -1.123  1.00 20.00     0.221 A 
HETATM    9  O10 UNL     1     -32.930  17.953  -0.535  1.00 20.00    -0.362 OA
HETATM   10  C8  UNL     1     -35.050  17.310   0.515  1.00 20.00     0.063 C 
ENDBRANCH   2   7
TORSDOF 2
ENDMDL
MODEL 6
REMARK VINA RESULT:      -3.9      1.248      4.894
REMARK  2 active torsions:
REMARK  status: ('A' for Active; 'I' for Inactive)
REMARK    1  A    between atoms: C1_1  and  C5_5 
REMARK    2  A    between atoms: C2_2  and  C6_6 
ROOT
HETATM    1  C1  UNL     1     -34.503  15.787  -2.447  1.00 20.00    -0.063 C 
HETATM    2  C2  UNL     1     -34.395  16.575  -1.547  1.00 20.00    -0.063 C 
ENDROOT
BRANCH   1   3
HETATM    3  C5  UNL     1     -34.631  14.849  -3.521  1.00 20.00     0.141 A 
HETATM    4  C3  UNL     1     -35.496  15.208  -4.705  1.00 20.00     0.221 A 
HETATM    5  O9  UNL     1     -35.965  14.340  -3.664  1.00 20.00    -0.362 OA
HETATM    6  C7  UNL     1     -33.573  13.805  -3.667  1.00 20.00     0.063 C 
ENDBRANCH   1   3
BRANCH   2   7
HETATM    7  C6  UNL     1     -34.264  17.533  -0.451  1.00 20.00     0.141 A 
HETATM    8  C4  UNL     1     -35.153  17.361   0.740  1.00 20.00     0.221 A 
HETATM    9  O10 UNL     1     -35.441  18.317  -0.289  1.00 20.00    -0.362 OA
HETATM   10  C8  UNL     1     -32.991  18.282  -0.365  1.00 20.00     0.063 C 
ENDBRANCH   2   7
TORSDOF 2
ENDMDL
MODEL 7
REMARK VINA RESULT:      -3.7      3.485      5.419
REMARK  2 active torsions:
REMARK  status: ('A' for Active; 'I' for Inactive)
REMARK    1  A    between atoms: C1_1  and  C5_5 
REMARK    2  A    between atoms: C2_2  and  C6_6 
ROOT
HETATM    1  C1  UNL     1     -36.625  14.447  -4.039  1.00 20.00    -0.063 C 
HETATM    2  C2  UNL     1     -37.792  14.722  -3.973  1.00 20.00    -0.063 C 
ENDROOT
BRANCH   1   3
HETATM    3  C5  UNL     1     -35.234  14.119  -4.118  1.00 20.00     0.141 A 
HETATM    4  C3  UNL     1     -34.699  13.503  -5.388  1.00 20.00     0.221 A 
HETATM    5  O9  UNL     1     -34.995  12.710  -4.231  1.00 20.00    -0.362 OA
HETATM    6  C7  UNL     1     -34.299  14.813  -3.182  1.00 20.00     0.063 C 
ENDBRANCH   1   3
BRANCH   2   7
HETATM    7  C6  UNL     1     -39.213  15.055  -3.893  1.00 20.00     0.141 A 
HETATM    8  C4  UNL     1     -39.593  16.358  -3.264  1.00 20.00     0.221 A 
HETATM    9  O10 UNL     1     -39.667  15.120  -2.546  1.00 20.00    -0.362 OA
HETATM   10  C8  UNL     1     -40.119  14.355  -4.830  1.00 20.00     0.063 C 
ENDBRANCH   2   7
TORSDOF 2
ENDMDL
MODEL 8
REMARK VINA RESULT:      -3.7      3.481      5.037
REMARK  2 active torsions:
REMARK  status: ('A' for Active; 'I' for Inactive)
REMARK    1  A    between atoms: C1_1  and  C5_5 
REMARK    2  A    between atoms: C2_2  and  C6_6 
ROOT
HETATM    1  C1  UNL     1     -37.793  14.723  -3.963  1.00 20.00    -0.063 C 
HETATM    2  C2  UNL     1     -36.625  14.449  -4.029  1.00 20.00    -0.063 C 
ENDROOT
BRANCH   1   3
HETATM    3  C5  UNL     1     -39.184  15.049  -3.882  1.00 20.00     0.141 A 
HETATM    4  C3  UNL     1     -39.591  16.361  -3.254  1.00 20.00     0.221 A 
HETATM    5  O9  UNL     1     -39.666  15.124  -2.533  1.00 20.00    -0.362 OA
HETATM    6  C7  UNL     1     -40.120  14.354  -4.816  1.00 20.00     0.063 C 
ENDBRANCH   1   3
BRANCH   2   7
HETATM    7  C6  UNL     1     -35.205  14.115  -4.111  1.00 20.00     0.141 A 
HETATM    8  C4  UNL     1     -34.701  13.500  -5.379  1.00 20.00     0.221 A 
HETATM    9  O10 UNL     1     -34.995  12.712  -4.218  1.00 20.00    -0.362 OA
HETATM   10  C8  UNL     1     -34.296  14.818  -3.178  1.00 20.00     0.063 C 
ENDBRANCH   2   7
TORSDOF 2
ENDMDL
MODEL 9
REMARK VINA RESULT:      -3.7     12.555     14.382
REMARK  2 active torsions:
REMARK  status: ('A' for Active; 'I' for Inactive)
REMARK    1  A    between atoms: C1_1  and  C5_5 
REMARK    2  A    between atoms: C2_2  and  C6_6 
ROOT
HETATM    1  C1  UNL     1     -41.860   4.553  -2.003  1.00 20.00    -0.063 C 
HETATM    2  C2  UNL     1     -42.094   3.481  -2.492  1.00 20.00    -0.063 C 
ENDROOT
BRANCH   1   3
HETATM    3  C5  UNL     1     -41.581   5.830  -1.419  1.00 20.00     0.141 A 
HETATM    4  C3  UNL     1     -42.516   6.981  -1.699  1.00 20.00     0.221 A 
HETATM    5  O9  UNL     1     -41.270   6.836  -2.393  1.00 20.00    -0.362 OA
HETATM    6  C7  UNL     1     -40.699   5.869  -0.214  1.00 20.00     0.063 C 
ENDBRANCH   1   3
BRANCH   2   7
HETATM    7  C6  UNL     1     -42.379   2.178  -3.089  1.00 20.00     0.141 A 
HETATM    8  C4  UNL     1     -41.367   1.600  -4.027  1.00 20.00     0.221 A 
HETATM    9  O10 UNL     1     -42.546   2.265  -4.499  1.00 20.00    -0.362 OA
HETATM   10  C8  UNL     1     -43.364   1.322  -2.390  1.00 20.00     0.063 C 
ENDBRANCH   2   7
TORSDOF 2
ENDMDL
