MODEL 1
REMARK VINA RESULT:      -4.7      0.000      0.000
REMARK  3 active torsions:
REMARK  status: ('A' for Active; 'I' for Inactive)
REMARK    1  A    between atoms: C3_3  and  C10_10 
REMARK    2  A    between atoms: C7_7  and  C11_11 
REMARK    3  A    between atoms: C10_10  and  C11_11 
ROOT
HETATM    1  C1  UNL     1     -33.397  15.662  -2.811  1.00 20.00    -0.024 C 
HETATM    2  C2  UNL     1     -34.165  16.690  -2.411  1.00 20.00    -0.087 C 
HETATM    3  C4  UNL     1     -32.800  15.551  -4.184  1.00 20.00     0.032 C 
HETATM    4  C5  UNL     1     -34.476  17.855  -3.318  1.00 20.00     0.034 C 
HETATM    5  C6  UNL     1     -33.615  17.898  -4.585  1.00 20.00     0.009 C 
HETATM    6  C7  UNL     1     -33.417  16.513  -5.214  1.00 20.00    -0.007 C 
HETATM    7  C8  UNL     1     -34.767  16.744  -1.038  1.00 20.00     0.043 C 
ENDROOT
BRANCH   6   8
HETATM    8  C11 UNL     1     -34.727  15.960  -5.787  1.00 20.00    -0.008 C 
HETATM    9  C9  UNL     1     -35.085  16.707  -7.076  1.00 20.00     0.011 C 
BRANCH   8  10
HETATM   10  C10 UNL     1     -34.601  14.449  -6.034  1.00 20.00     0.074 C 
BRANCH  10  11
HETATM   11  C3  UNL     1     -35.429  13.600  -5.096  1.00 20.00     0.231 C 
HETATM   12  O12 UNL     1     -34.993  12.687  -4.405  1.00 20.00    -0.307 OA
ENDBRANCH  10  11
ENDBRANCH   8  10
ENDBRANCH   6   8
TORSDOF 3
ENDMDL
MODEL 2
REMARK VINA RESULT:      -4.6      1.689      4.158
REMARK  3 active torsions:
REMARK  status: ('A' for Active; 'I' for Inactive)
REMARK    1  A    between atoms: C3_3  and  C10_10 
REMARK    2  A    between atoms: C7_7  and  C11_11 
REMARK    3  A    between atoms: C10_10  and  C11_11 
ROOT
HETATM    1  C1  UNL     1     -33.913  15.924  -6.006  1.00 20.00    -0.024 C 
HETATM    2  C2  UNL     1     -34.577  14.757  -6.057  1.00 20.00    -0.087 C 
HETATM    3  C4  UNL     1     -33.166  16.407  -4.796  1.00 20.00     0.032 C 
HETATM    4  C5  UNL     1     -34.607  13.802  -4.890  1.00 20.00     0.034 C 
HETATM    5  C6  UNL     1     -33.593  14.141  -3.791  1.00 20.00     0.009 C 
HETATM    6  C7  UNL     1     -33.508  15.645  -3.504  1.00 20.00    -0.007 C 
HETATM    7  C8  UNL     1     -35.337  14.329  -7.278  1.00 20.00     0.043 C 
ENDROOT
BRANCH   6   8
HETATM    8  C11 UNL     1     -34.797  16.172  -2.865  1.00 20.00    -0.008 C 
HETATM    9  C9  UNL     1     -34.607  16.305  -1.350  1.00 20.00     0.011 C 
BRANCH   8  10
HETATM   10  C10 UNL     1     -35.192  17.515  -3.497  1.00 20.00     0.074 C 
BRANCH  10  11
HETATM   11  C3  UNL     1     -36.602  17.548  -4.043  1.00 20.00     0.231 C 
HETATM   12  O12 UNL     1     -37.207  16.579  -4.486  1.00 20.00    -0.307 OA
ENDBRANCH  10  11
ENDBRANCH   8  10
ENDBRANCH   6   8
TORSDOF 3
ENDMDL
MODEL 3
REMARK VINA RESULT:      -4.5      2.121      2.970
REMARK  3 active torsions:
REMARK  status: ('A' for Active; 'I' for Inactive)
REMARK    1  A    between atoms: C3_3  and  C10_10 
REMARK    2  A    between atoms: C7_7  and  C11_11 
REMARK    3  A    between atoms: C10_10  and  C11_11 
ROOT
HETATM    1  C1  UNL     1     -35.774  15.578  -2.800  1.00 20.00    -0.024 C 
HETATM    2  C2  UNL     1     -34.454  15.795  -2.669  1.00 20.00    -0.087 C 
HETATM    3  C4  UNL     1     -36.370  14.654  -3.823  1.00 20.00     0.032 C 
HETATM    4  C5  UNL     1     -33.439  15.095  -3.537  1.00 20.00     0.034 C 
HETATM    5  C6  UNL     1     -34.018  13.930  -4.346  1.00 20.00     0.009 C 
HETATM    6  C7  UNL     1     -35.396  14.247  -4.942  1.00 20.00    -0.007 C 
HETATM    7  C8  UNL     1     -33.905  16.752  -1.652  1.00 20.00     0.043 C 
ENDROOT
BRANCH   6   8
HETATM    8  C11 UNL     1     -35.307  15.323  -6.030  1.00 20.00    -0.008 C 
HETATM    9  C9  UNL     1     -34.507  14.788  -7.223  1.00 20.00     0.011 C 
BRANCH   8  10
HETATM   10  C10 UNL     1     -36.715  15.764  -6.454  1.00 20.00     0.074 C 
BRANCH  10  11
HETATM   11  C3  UNL     1     -37.190  15.149  -7.751  1.00 20.00     0.231 C 
HETATM   12  O12 UNL     1     -38.279  14.613  -7.917  1.00 20.00    -0.307 OA
ENDBRANCH  10  11
ENDBRANCH   8  10
ENDBRANCH   6   8
TORSDOF 3
ENDMDL
MODEL 4
REMARK VINA RESULT:      -4.5      1.961      2.568
REMARK  3 active torsions:
REMARK  status: ('A' for Active; 'I' for Inactive)
REMARK    1  A    between atoms: C3_3  and  C10_10 
REMARK    2  A    between atoms: C7_7  and  C11_11 
REMARK    3  A    between atoms: C10_10  and  C11_11 
ROOT
HETATM    1  C1  UNL     1     -33.755  17.293  -1.103  1.00 20.00    -0.024 C 
HETATM    2  C2  UNL     1     -34.874  17.634  -0.439  1.00 20.00    -0.087 C 
HETATM    3  C4  UNL     1     -33.710  17.026  -2.580  1.00 20.00     0.032 C 
HETATM    4  C5  UNL     1     -36.197  17.808  -1.140  1.00 20.00     0.034 C 
HETATM    5  C6  UNL     1     -36.085  17.853  -2.668  1.00 20.00     0.009 C 
HETATM    6  C7  UNL     1     -35.093  16.822  -3.221  1.00 20.00    -0.007 C 
HETATM    7  C8  UNL     1     -34.878  17.860   1.044  1.00 20.00     0.043 C 
ENDROOT
BRANCH   6   8
HETATM    8  C11 UNL     1     -35.599  15.389  -3.023  1.00 20.00    -0.008 C 
HETATM    9  C9  UNL     1     -36.834  15.150  -3.899  1.00 20.00     0.011 C 
BRANCH   8  10
HETATM   10  C10 UNL     1     -34.483  14.384  -3.345  1.00 20.00     0.074 C 
BRANCH  10  11
HETATM   11  C3  UNL     1     -34.632  13.707  -4.689  1.00 20.00     0.231 C 
HETATM   12  O12 UNL     1     -34.772  12.501  -4.857  1.00 20.00    -0.307 OA
ENDBRANCH  10  11
ENDBRANCH   8  10
ENDBRANCH   6   8
TORSDOF 3
ENDMDL
MODEL 5
REMARK VINA RESULT:      -4.5      1.550      1.630
REMARK  3 active torsions:
REMARK  status: ('A' for Active; 'I' for Inactive)
REMARK    1  A    between atoms: C3_3  and  C10_10 
REMARK    2  A    between atoms: C7_7  and  C11_11 
REMARK    3  A    between atoms: C10_10  and  C11_11 
ROOT
HETATM    1  C1  UNL     1     -34.367  14.910  -2.942  1.00 20.00    -0.024 C 
HETATM    2  C2  UNL     1     -34.210  16.183  -2.539  1.00 20.00    -0.087 C 
HETATM    3  C4  UNL     1     -34.179  14.455  -4.361  1.00 20.00     0.032 C 
HETATM    4  C5  UNL     1     -33.797  17.278  -3.490  1.00 20.00     0.034 C 
HETATM    5  C6  UNL     1     -33.297  16.762  -4.844  1.00 20.00     0.009 C 
HETATM    6  C7  UNL     1     -34.143  15.602  -5.386  1.00 20.00    -0.007 C 
HETATM    7  C8  UNL     1     -34.440  16.597  -1.115  1.00 20.00     0.043 C 
ENDROOT
BRANCH   6   8
HETATM    8  C11 UNL     1     -35.554  16.061  -5.767  1.00 20.00    -0.008 C 
HETATM    9  C9  UNL     1     -35.531  16.707  -7.156  1.00 20.00     0.011 C 
BRANCH   8  10
HETATM   10  C10 UNL     1     -36.527  14.874  -5.719  1.00 20.00     0.074 C 
BRANCH  10  11
HETATM   11  C3  UNL     1     -37.641  15.031  -4.708  1.00 20.00     0.231 C 
HETATM   12  O12 UNL     1     -37.899  14.229  -3.817  1.00 20.00    -0.307 OA
ENDBRANCH  10  11
ENDBRANCH   8  10
ENDBRANCH   6   8
TORSDOF 3
ENDMDL
MODEL 6
REMARK VINA RESULT:      -4.4      2.971      4.958
REMARK  3 active torsions:
REMARK  status: ('A' for Active; 'I' for Inactive)
REMARK    1  A    between atoms: C3_3  and  C10_10 
REMARK    2  A    between atoms: C7_7  and  C11_11 
REMARK    3  A    between atoms: C10_10  and  C11_11 
ROOT
HETATM    1  C1  UNL     1     -35.363  15.089  -3.094  1.00 20.00    -0.024 C 
HETATM    2  C2  UNL     1     -34.178  14.801  -3.659  1.00 20.00    -0.087 C 
HETATM    3  C4  UNL     1     -35.767  16.468  -2.660  1.00 20.00     0.032 C 
HETATM    4  C5  UNL     1     -33.145  15.864  -3.936  1.00 20.00     0.034 C 
HETATM    5  C6  UNL     1     -33.679  17.294  -3.794  1.00 20.00     0.009 C 
HETATM    6  C7  UNL     1     -34.599  17.466  -2.579  1.00 20.00    -0.007 C 
HETATM    7  C8  UNL     1     -33.805  13.401  -4.048  1.00 20.00     0.043 C 
ENDROOT
BRANCH   6   8
HETATM    8  C11 UNL     1     -33.829  17.326  -1.262  1.00 20.00    -0.008 C 
HETATM    9  C9  UNL     1     -33.064  18.621  -0.968  1.00 20.00     0.011 C 
BRANCH   8  10
HETATM   10  C10 UNL     1     -34.794  16.975  -0.119  1.00 20.00     0.074 C 
BRANCH  10  11
HETATM   11  C3  UNL     1     -34.958  18.073   0.908  1.00 20.00     0.231 C 
HETATM   12  O12 UNL     1     -34.720  17.957   2.104  1.00 20.00    -0.307 OA
ENDBRANCH  10  11
ENDBRANCH   8  10
ENDBRANCH   6   8
TORSDOF 3
ENDMDL
MODEL 7
REMARK VINA RESULT:      -4.4      2.586      4.613
REMARK  3 active torsions:
REMARK  status: ('A' for Active; 'I' for Inactive)
REMARK    1  A    between atoms: C3_3  and  C10_10 
REMARK    2  A    between atoms: C7_7  and  C11_11 
REMARK    3  A    between atoms: C10_10  and  C11_11 
ROOT
HETATM    1  C1  UNL     1     -34.185  14.207  -4.929  1.00 20.00    -0.024 C 
HETATM    2  C2  UNL     1     -34.985  14.741  -5.867  1.00 20.00    -0.087 C 
HETATM    3  C4  UNL     1     -34.527  14.160  -3.468  1.00 20.00     0.032 C 
HETATM    4  C5  UNL     1     -36.333  15.327  -5.528  1.00 20.00     0.034 C 
HETATM    5  C6  UNL     1     -36.813  14.991  -4.112  1.00 20.00     0.009 C 
HETATM    6  C7  UNL     1     -35.692  15.082  -3.068  1.00 20.00    -0.007 C 
HETATM    7  C8  UNL     1     -34.588  14.794  -7.312  1.00 20.00     0.043 C 
ENDROOT
BRANCH   6   8
HETATM    8  C11 UNL     1     -35.223  16.527  -2.867  1.00 20.00    -0.008 C 
HETATM    9  C9  UNL     1     -36.424  17.420  -2.535  1.00 20.00     0.011 C 
BRANCH   8  10
HETATM   10  C10 UNL     1     -34.158  16.589  -1.762  1.00 20.00     0.074 C 
BRANCH  10  11
HETATM   11  C3  UNL     1     -34.707  16.934  -0.396  1.00 20.00     0.231 C 
HETATM   12  O12 UNL     1     -34.181  17.706   0.398  1.00 20.00    -0.307 OA
ENDBRANCH  10  11
ENDBRANCH   8  10
ENDBRANCH   6   8
TORSDOF 3
ENDMDL
MODEL 8
REMARK VINA RESULT:      -4.3      2.206      3.018
REMARK  3 active torsions:
REMARK  status: ('A' for Active; 'I' for Inactive)
REMARK    1  A    between atoms: C3_3  and  C10_10 
REMARK    2  A    between atoms: C7_7  and  C11_11 
REMARK    3  A    between atoms: C10_10  and  C11_11 
ROOT
HETATM    1  C1  UNL     1     -35.577  15.725  -2.666  1.00 20.00    -0.024 C 
HETATM    2  C2  UNL     1     -34.267  16.002  -2.550  1.00 20.00    -0.087 C 
HETATM    3  C4  UNL     1     -36.141  14.763  -3.672  1.00 20.00     0.032 C 
HETATM    4  C5  UNL     1     -33.229  15.336  -3.419  1.00 20.00     0.034 C 
HETATM    5  C6  UNL     1     -33.764  14.136  -4.208  1.00 20.00     0.009 C 
HETATM    6  C7  UNL     1     -35.159  14.386  -4.795  1.00 20.00    -0.007 C 
HETATM    7  C8  UNL     1     -33.752  16.994  -1.550  1.00 20.00     0.043 C 
ENDROOT
BRANCH   6   8
HETATM    8  C11 UNL     1     -35.128  15.450  -5.896  1.00 20.00    -0.008 C 
HETATM    9  C9  UNL     1     -34.465  14.877  -7.153  1.00 20.00     0.011 C 
BRANCH   8  10
HETATM   10  C10 UNL     1     -36.550  15.948  -6.192  1.00 20.00     0.074 C 
BRANCH  10  11
HETATM   11  C3  UNL     1     -36.721  17.444  -6.055  1.00 20.00     0.231 C 
HETATM   12  O12 UNL     1     -35.839  18.224  -5.712  1.00 20.00    -0.307 OA
ENDBRANCH  10  11
ENDBRANCH   8  10
ENDBRANCH   6   8
TORSDOF 3
ENDMDL
MODEL 9
REMARK VINA RESULT:      -4.2      2.196      4.208
REMARK  3 active torsions:
REMARK  status: ('A' for Active; 'I' for Inactive)
REMARK    1  A    between atoms: C3_3  and  C10_10 
REMARK    2  A    between atoms: C7_7  and  C11_11 
REMARK    3  A    between atoms: C10_10  and  C11_11 
ROOT
HETATM    1  C1  UNL     1     -35.980  17.156  -5.738  1.00 20.00    -0.024 C 
HETATM    2  C2  UNL     1     -36.608  16.079  -6.240  1.00 20.00    -0.087 C 
HETATM    3  C4  UNL     1     -34.526  17.174  -5.364  1.00 20.00     0.032 C 
HETATM    4  C5  UNL     1     -35.886  14.782  -6.501  1.00 20.00     0.034 C 
HETATM    5  C6  UNL     1     -34.359  14.900  -6.426  1.00 20.00     0.009 C 
HETATM    6  C7  UNL     1     -33.889  15.778  -5.260  1.00 20.00    -0.007 C 
HETATM    7  C8  UNL     1     -38.072  16.097  -6.570  1.00 20.00     0.043 C 
ENDROOT
BRANCH   6   8
HETATM    8  C11 UNL     1     -34.183  15.124  -3.905  1.00 20.00    -0.008 C 
HETATM    9  C9  UNL     1     -33.481  13.765  -3.822  1.00 20.00     0.011 C 
BRANCH   8  10
HETATM   10  C10 UNL     1     -33.743  16.052  -2.763  1.00 20.00     0.074 C 
BRANCH  10  11
HETATM   11  C3  UNL     1     -34.782  16.232  -1.679  1.00 20.00     0.231 C 
HETATM   12  O12 UNL     1     -34.545  16.588  -0.531  1.00 20.00    -0.307 OA
ENDBRANCH  10  11
ENDBRANCH   8  10
ENDBRANCH   6   8
TORSDOF 3
ENDMDL
