MODEL 1
REMARK VINA RESULT:      -2.9      0.000      0.000
REMARK  4 active torsions:
REMARK  status: ('A' for Active; 'I' for Inactive)
REMARK    1  A    between atoms: C1_1  and  C3_3 
REMARK    2  A    between atoms: C1_1  and  S4_4 
REMARK    3  A    between atoms: C2_2  and  C3_3 
REMARK    4  A    between atoms: C3_3  and  S5_5 
ROOT
HETATM    1  C3  UNL     1     -34.101   6.248   4.344  1.00 20.00     0.067 C 
ENDROOT
BRANCH   1   2
HETATM    2  C1  UNL     1     -32.760   6.124   3.599  1.00 20.00     0.086 C 
BRANCH   2   3
HETATM    3  S4  UNL     1     -32.211   7.615   2.710  1.00 20.00    -0.181 SA
HETATM    4  H12 UNL     1     -32.953   7.403   1.617  1.00 20.00     0.101 HD
ENDBRANCH   2   3
ENDBRANCH   1   2
BRANCH   1   5
HETATM    5  C2  UNL     1     -35.082   5.084   4.164  1.00 20.00     0.130 C 
HETATM    6 CL6  UNL     1     -35.008   3.940   5.530  1.00 20.00    -0.129 Cl
ENDBRANCH   1   5
BRANCH   1   7
HETATM    7  S5  UNL     1     -33.824   6.496   6.141  1.00 20.00    -0.176 SA
HETATM    8  H13 UNL     1     -35.053   6.114   6.509  1.00 20.00     0.102 HD
ENDBRANCH   1   7
TORSDOF 4
ENDMDL
MODEL 2
REMARK VINA RESULT:      -2.6      3.014      3.811
REMARK  4 active torsions:
REMARK  status: ('A' for Active; 'I' for Inactive)
REMARK    1  A    between atoms: C1_1  and  C3_3 
REMARK    2  A    between atoms: C1_1  and  S4_4 
REMARK    3  A    between atoms: C2_2  and  C3_3 
REMARK    4  A    between atoms: C3_3  and  S5_5 
ROOT
HETATM    1  C3  UNL     1     -33.736   6.575   4.099  1.00 20.00     0.067 C 
ENDROOT
BRANCH   1   2
HETATM    2  C1  UNL     1     -33.843   6.302   5.609  1.00 20.00     0.086 C 
BRANCH   2   3
HETATM    3  S4  UNL     1     -34.774   4.808   6.077  1.00 20.00    -0.181 SA
HETATM    4  H12 UNL     1     -34.067   4.548   7.183  1.00 20.00     0.101 HD
ENDBRANCH   2   3
ENDBRANCH   1   2
BRANCH   1   5
HETATM    5  C2  UNL     1     -32.318   6.605   3.519  1.00 20.00     0.130 C 
HETATM    6 CL6  UNL     1     -32.125   7.904   2.312  1.00 20.00    -0.129 Cl
ENDBRANCH   1   5
BRANCH   1   7
HETATM    7  S5  UNL     1     -34.723   5.355   3.148  1.00 20.00    -0.176 SA
HETATM    8  H13 UNL     1     -33.665   4.689   2.668  1.00 20.00     0.102 HD
ENDBRANCH   1   7
TORSDOF 4
ENDMDL
MODEL 3
REMARK VINA RESULT:      -2.6      2.378      2.511
REMARK  4 active torsions:
REMARK  status: ('A' for Active; 'I' for Inactive)
REMARK    1  A    between atoms: C1_1  and  C3_3 
REMARK    2  A    between atoms: C1_1  and  S4_4 
REMARK    3  A    between atoms: C2_2  and  C3_3 
REMARK    4  A    between atoms: C3_3  and  S5_5 
ROOT
HETATM    1  C3  UNL     1     -33.999   5.480   5.159  1.00 20.00     0.067 C 
ENDROOT
BRANCH   1   2
HETATM    2  C1  UNL     1     -33.984   6.415   3.937  1.00 20.00     0.086 C 
BRANCH   2   3
HETATM    3  S4  UNL     1     -32.350   6.711   3.189  1.00 20.00    -0.181 SA
HETATM    4  H12 UNL     1     -31.706   6.911   4.346  1.00 20.00     0.101 HD
ENDBRANCH   2   3
ENDBRANCH   1   2
BRANCH   1   5
HETATM    5  C2  UNL     1     -34.336   6.135   6.503  1.00 20.00     0.130 C 
HETATM    6 CL6  UNL     1     -33.211   7.464   6.891  1.00 20.00    -0.129 Cl
ENDBRANCH   1   5
BRANCH   1   7
HETATM    7  S5  UNL     1     -35.155   4.081   4.892  1.00 20.00    -0.176 SA
HETATM    8  H13 UNL     1     -36.206   4.680   5.466  1.00 20.00     0.102 HD
ENDBRANCH   1   7
TORSDOF 4
ENDMDL
MODEL 4
REMARK VINA RESULT:      -2.6     11.734     12.416
REMARK  4 active torsions:
REMARK  status: ('A' for Active; 'I' for Inactive)
REMARK    1  A    between atoms: C1_1  and  C3_3 
REMARK    2  A    between atoms: C1_1  and  S4_4 
REMARK    3  A    between atoms: C2_2  and  C3_3 
REMARK    4  A    between atoms: C3_3  and  S5_5 
ROOT
HETATM    1  C3  UNL     1     -33.585  15.334  -3.378  1.00 20.00     0.067 C 
ENDROOT
BRANCH   1   2
HETATM    2  C1  UNL     1     -34.846  15.739  -2.594  1.00 20.00     0.086 C 
BRANCH   2   3
HETATM    3  S4  UNL     1     -34.557  16.708  -1.079  1.00 20.00    -0.181 SA
HETATM    4  H12 UNL     1     -33.318  16.251  -0.861  1.00 20.00     0.101 HD
ENDBRANCH   2   3
ENDBRANCH   1   2
BRANCH   1   5
HETATM    5  C2  UNL     1     -33.515  13.872  -3.832  1.00 20.00     0.130 C 
HETATM    6 CL6  UNL     1     -35.127  13.231  -4.245  1.00 20.00    -0.129 Cl
ENDBRANCH   1   5
BRANCH   1   7
HETATM    7  S5  UNL     1     -33.364  16.408  -4.849  1.00 20.00    -0.176 SA
HETATM    8  H13 UNL     1     -32.026  16.362  -4.833  1.00 20.00     0.102 HD
ENDBRANCH   1   7
TORSDOF 4
ENDMDL
MODEL 5
REMARK VINA RESULT:      -2.6     11.942     12.521
REMARK  4 active torsions:
REMARK  status: ('A' for Active; 'I' for Inactive)
REMARK    1  A    between atoms: C1_1  and  C3_3 
REMARK    2  A    between atoms: C1_1  and  S4_4 
REMARK    3  A    between atoms: C2_2  and  C3_3 
REMARK    4  A    between atoms: C3_3  and  S5_5 
ROOT
HETATM    1  C3  UNL     1     -34.219  14.758  -3.255  1.00 20.00     0.067 C 
ENDROOT
BRANCH   1   2
HETATM    2  C1  UNL     1     -33.061  15.401  -4.038  1.00 20.00     0.086 C 
BRANCH   2   3
HETATM    3  S4  UNL     1     -33.482  16.905  -4.975  1.00 20.00    -0.181 SA
HETATM    4  H12 UNL     1     -32.261  17.089  -5.492  1.00 20.00     0.101 HD
ENDBRANCH   2   3
ENDBRANCH   1   2
BRANCH   1   5
HETATM    5  C2  UNL     1     -35.236  15.725  -2.640  1.00 20.00     0.130 C 
HETATM    6 CL6  UNL     1     -34.664  16.382  -1.083  1.00 20.00    -0.129 Cl
ENDBRANCH   1   5
BRANCH   1   7
HETATM    7  S5  UNL     1     -35.126  13.559  -4.308  1.00 20.00    -0.176 SA
HETATM    8  H13 UNL     1     -34.366  12.508  -3.979  1.00 20.00     0.102 HD
ENDBRANCH   1   7
TORSDOF 4
ENDMDL
MODEL 6
REMARK VINA RESULT:      -2.5     11.916     12.694
REMARK  4 active torsions:
REMARK  status: ('A' for Active; 'I' for Inactive)
REMARK    1  A    between atoms: C1_1  and  C3_3 
REMARK    2  A    between atoms: C1_1  and  S4_4 
REMARK    3  A    between atoms: C2_2  and  C3_3 
REMARK    4  A    between atoms: C3_3  and  S5_5 
ROOT
HETATM    1  C3  UNL     1     -34.328  15.872  -3.488  1.00 20.00     0.067 C 
ENDROOT
BRANCH   1   2
HETATM    2  C1  UNL     1     -34.364  14.339  -3.361  1.00 20.00     0.086 C 
BRANCH   2   3
HETATM    3  S4  UNL     1     -34.731  13.428  -4.895  1.00 20.00    -0.181 SA
HETATM    4  H12 UNL     1     -35.332  14.448  -5.518  1.00 20.00     0.101 HD
ENDBRANCH   2   3
ENDBRANCH   1   2
BRANCH   1   5
HETATM    5  C2  UNL     1     -33.722  16.633  -2.304  1.00 20.00     0.130 C 
HETATM    6 CL6  UNL     1     -34.708  16.452  -0.829  1.00 20.00    -0.129 Cl
ENDBRANCH   1   5
BRANCH   1   7
HETATM    7  S5  UNL     1     -33.440  16.375  -5.013  1.00 20.00    -0.176 SA
HETATM    8  H13 UNL     1     -33.712  15.252  -5.689  1.00 20.00     0.102 HD
ENDBRANCH   1   7
TORSDOF 4
ENDMDL
MODEL 7
REMARK VINA RESULT:      -2.4     12.173     12.491
REMARK  4 active torsions:
REMARK  status: ('A' for Active; 'I' for Inactive)
REMARK    1  A    between atoms: C1_1  and  C3_3 
REMARK    2  A    between atoms: C1_1  and  S4_4 
REMARK    3  A    between atoms: C2_2  and  C3_3 
REMARK    4  A    between atoms: C3_3  and  S5_5 
ROOT
HETATM    1  C3  UNL     1     -34.858  14.374  -3.561  1.00 20.00     0.067 C 
ENDROOT
BRANCH   1   2
HETATM    2  C1  UNL     1     -34.374  13.708  -4.861  1.00 20.00     0.086 C 
BRANCH   2   3
HETATM    3  S4  UNL     1     -35.092  14.367  -6.400  1.00 20.00    -0.181 SA
HETATM    4  H12 UNL     1     -36.038  15.102  -5.805  1.00 20.00     0.101 HD
ENDBRANCH   2   3
ENDBRANCH   1   2
BRANCH   1   5
HETATM    5  C2  UNL     1     -34.015  15.548  -3.052  1.00 20.00     0.130 C 
HETATM    6 CL6  UNL     1     -34.631  16.179  -1.501  1.00 20.00    -0.129 Cl
ENDBRANCH   1   5
BRANCH   1   7
HETATM    7  S5  UNL     1     -36.595  14.940  -3.732  1.00 20.00    -0.176 SA
HETATM    8  H13 UNL     1     -36.812  15.065  -2.417  1.00 20.00     0.102 HD
ENDBRANCH   1   7
TORSDOF 4
ENDMDL
MODEL 8
REMARK VINA RESULT:      -2.4     12.523     13.152
REMARK  4 active torsions:
REMARK  status: ('A' for Active; 'I' for Inactive)
REMARK    1  A    between atoms: C1_1  and  C3_3 
REMARK    2  A    between atoms: C1_1  and  S4_4 
REMARK    3  A    between atoms: C2_2  and  C3_3 
REMARK    4  A    between atoms: C3_3  and  S5_5 
ROOT
HETATM    1  C3  UNL     1     -33.169  15.421  -3.667  1.00 20.00     0.067 C 
ENDROOT
BRANCH   1   2
HETATM    2  C1  UNL     1     -33.422  13.908  -3.780  1.00 20.00     0.086 C 
BRANCH   2   3
HETATM    3  S4  UNL     1     -35.054  13.427  -4.431  1.00 20.00    -0.181 SA
HETATM    4  H12 UNL     1     -34.590  12.542  -5.321  1.00 20.00     0.101 HD
ENDBRANCH   2   3
ENDBRANCH   1   2
BRANCH   1   5
HETATM    5  C2  UNL     1     -33.289  16.223  -4.968  1.00 20.00     0.130 C 
HETATM    6 CL6  UNL     1     -33.538  17.960  -4.652  1.00 20.00    -0.129 Cl
ENDBRANCH   1   5
BRANCH   1   7
HETATM    7  S5  UNL     1     -34.284  16.174  -2.420  1.00 20.00    -0.176 SA
HETATM    8  H13 UNL     1     -35.312  16.342  -3.261  1.00 20.00     0.102 HD
ENDBRANCH   1   7
TORSDOF 4
ENDMDL
MODEL 9
REMARK VINA RESULT:      -2.3     12.038     12.398
REMARK  4 active torsions:
REMARK  status: ('A' for Active; 'I' for Inactive)
REMARK    1  A    between atoms: C1_1  and  C3_3 
REMARK    2  A    between atoms: C1_1  and  S4_4 
REMARK    3  A    between atoms: C2_2  and  C3_3 
REMARK    4  A    between atoms: C3_3  and  S5_5 
ROOT
HETATM    1  C3  UNL     1     -34.849  15.627  -2.473  1.00 20.00     0.067 C 
ENDROOT
BRANCH   1   2
HETATM    2  C1  UNL     1     -36.106  16.066  -3.244  1.00 20.00     0.086 C 
BRANCH   2   3
HETATM    3  S4  UNL     1     -37.059  14.727  -4.029  1.00 20.00    -0.181 SA
HETATM    4  H12 UNL     1     -36.135  14.426  -4.951  1.00 20.00     0.101 HD
ENDBRANCH   2   3
ENDBRANCH   1   2
BRANCH   1   5
HETATM    5  C2  UNL     1     -33.564  15.499  -3.297  1.00 20.00     0.130 C 
HETATM    6 CL6  UNL     1     -33.237  13.807  -3.753  1.00 20.00    -0.129 Cl
ENDBRANCH   1   5
BRANCH   1   7
HETATM    7  S5  UNL     1     -34.524  16.759  -1.066  1.00 20.00    -0.176 SA
HETATM    8  H13 UNL     1     -35.347  16.136  -0.215  1.00 20.00     0.102 HD
ENDBRANCH   1   7
TORSDOF 4
ENDMDL
