MODEL 1
REMARK VINA RESULT:      -4.4      0.000      0.000
REMARK  4 active torsions:
REMARK  status: ('A' for Active; 'I' for Inactive)
REMARK    1  A    between atoms: C4_4  and  C5_5 
REMARK    2  A    between atoms: C5_5  and  C7_7 
REMARK    3  A    between atoms: C6_6  and  O8_8 
REMARK    4  A    between atoms: C7_7  and  O8_8 
ROOT
HETATM    1  C3  UNL     1     -35.569   5.810   3.273  1.00 20.00     0.039 C 
HETATM    2  C7  UNL     1     -34.184   5.532   3.839  1.00 20.00     0.117 C 
ENDROOT
BRANCH   2   3
HETATM    3  C5  UNL     1     -33.940   6.310   5.136  1.00 20.00     0.031 C 
BRANCH   3   4
HETATM    4  C4  UNL     1     -34.504   5.581   6.359  1.00 20.00    -0.002 C 
HETATM    5  C1  UNL     1     -34.826   4.130   6.042  1.00 20.00     0.005 C 
ENDBRANCH   3   4
ENDBRANCH   2   3
BRANCH   2   6
HETATM    6  O8  UNL     1     -33.209   5.891   2.862  1.00 20.00    -0.387 OA
BRANCH   6   7
HETATM    7  C6  UNL     1     -32.283   6.836   3.378  1.00 20.00     0.163 C 
HETATM    8  C2  UNL     1     -32.056   7.917   2.343  1.00 20.00     0.033 C 
ENDBRANCH   6   7
ENDBRANCH   2   6
TORSDOF 4
ENDMDL
MODEL 2
REMARK VINA RESULT:      -4.4      1.151      3.629
REMARK  4 active torsions:
REMARK  status: ('A' for Active; 'I' for Inactive)
REMARK    1  A    between atoms: C4_4  and  C5_5 
REMARK    2  A    between atoms: C5_5  and  C7_7 
REMARK    3  A    between atoms: C6_6  and  O8_8 
REMARK    4  A    between atoms: C7_7  and  O8_8 
ROOT
HETATM    1  C3  UNL     1     -35.523   5.764   3.375  1.00 20.00     0.039 C 
HETATM    2  C7  UNL     1     -34.202   5.989   4.096  1.00 20.00     0.117 C 
ENDROOT
BRANCH   2   3
HETATM    3  C5  UNL     1     -33.015   5.919   3.130  1.00 20.00     0.031 C 
BRANCH   3   4
HETATM    4  C4  UNL     1     -32.034   7.077   3.338  1.00 20.00    -0.002 C 
HETATM    5  C1  UNL     1     -32.092   8.069   2.188  1.00 20.00     0.005 C 
ENDBRANCH   3   4
ENDBRANCH   2   3
BRANCH   2   6
HETATM    6  O8  UNL     1     -34.062   5.002   5.115  1.00 20.00    -0.387 OA
BRANCH   6   7
HETATM    7  C6  UNL     1     -34.482   5.499   6.378  1.00 20.00     0.163 C 
HETATM    8  C2  UNL     1     -33.871   6.866   6.596  1.00 20.00     0.033 C 
ENDBRANCH   6   7
ENDBRANCH   2   6
TORSDOF 4
ENDMDL
MODEL 3
REMARK VINA RESULT:      -4.2      1.203      1.308
REMARK  4 active torsions:
REMARK  status: ('A' for Active; 'I' for Inactive)
REMARK    1  A    between atoms: C4_4  and  C5_5 
REMARK    2  A    between atoms: C5_5  and  C7_7 
REMARK    3  A    between atoms: C6_6  and  O8_8 
REMARK    4  A    between atoms: C7_7  and  O8_8 
ROOT
HETATM    1  C3  UNL     1     -33.905   5.354   2.593  1.00 20.00     0.039 C 
HETATM    2  C7  UNL     1     -33.188   6.193   3.642  1.00 20.00     0.117 C 
ENDROOT
BRANCH   2   3
HETATM    3  C5  UNL     1     -33.936   6.182   4.979  1.00 20.00     0.031 C 
BRANCH   3   4
HETATM    4  C4  UNL     1     -35.108   5.197   4.974  1.00 20.00    -0.002 C 
HETATM    5  C1  UNL     1     -34.863   4.037   5.926  1.00 20.00     0.005 C 
ENDBRANCH   3   4
ENDBRANCH   2   3
BRANCH   2   6
HETATM    6  O8  UNL     1     -33.069   7.528   3.157  1.00 20.00    -0.387 OA
BRANCH   6   7
HETATM    7  C6  UNL     1     -31.859   7.712   2.436  1.00 20.00     0.163 C 
HETATM    8  C2  UNL     1     -32.086   8.741   1.349  1.00 20.00     0.033 C 
ENDBRANCH   6   7
ENDBRANCH   2   6
TORSDOF 4
ENDMDL
MODEL 4
REMARK VINA RESULT:      -4.2      1.288      4.043
REMARK  4 active torsions:
REMARK  status: ('A' for Active; 'I' for Inactive)
REMARK    1  A    between atoms: C4_4  and  C5_5 
REMARK    2  A    between atoms: C5_5  and  C7_7 
REMARK    3  A    between atoms: C6_6  and  O8_8 
REMARK    4  A    between atoms: C7_7  and  O8_8 
ROOT
HETATM    1  C3  UNL     1     -34.423   5.357   2.668  1.00 20.00     0.039 C 
HETATM    2  C7  UNL     1     -33.705   6.342   3.580  1.00 20.00     0.117 C 
ENDROOT
BRANCH   2   3
HETATM    3  C5  UNL     1     -32.193   6.336   3.334  1.00 20.00     0.031 C 
BRANCH   3   4
HETATM    4  C4  UNL     1     -31.635   7.751   3.151  1.00 20.00    -0.002 C 
HETATM    5  C1  UNL     1     -32.033   8.336   1.806  1.00 20.00     0.005 C 
ENDBRANCH   3   4
ENDBRANCH   2   3
BRANCH   2   6
HETATM    6  O8  UNL     1     -33.982   5.996   4.936  1.00 20.00    -0.387 OA
BRANCH   6   7
HETATM    7  C6  UNL     1     -35.097   5.121   5.029  1.00 20.00     0.163 C 
HETATM    8  C2  UNL     1     -34.828   4.094   6.108  1.00 20.00     0.033 C 
ENDBRANCH   6   7
ENDBRANCH   2   6
TORSDOF 4
ENDMDL
MODEL 5
REMARK VINA RESULT:      -3.9      1.286      4.298
REMARK  4 active torsions:
REMARK  status: ('A' for Active; 'I' for Inactive)
REMARK    1  A    between atoms: C4_4  and  C5_5 
REMARK    2  A    between atoms: C5_5  and  C7_7 
REMARK    3  A    between atoms: C6_6  and  O8_8 
REMARK    4  A    between atoms: C7_7  and  O8_8 
ROOT
HETATM    1  C3  UNL     1     -33.503   5.547   2.538  1.00 20.00     0.039 C 
HETATM    2  C7  UNL     1     -33.331   6.811   3.368  1.00 20.00     0.117 C 
ENDROOT
BRANCH   2   3
HETATM    3  C5  UNL     1     -31.977   7.478   3.102  1.00 20.00     0.031 C 
BRANCH   3   4
HETATM    4  C4  UNL     1     -31.914   8.118   1.712  1.00 20.00    -0.002 C 
HETATM    5  C1  UNL     1     -32.523   9.511   1.714  1.00 20.00     0.005 C 
ENDBRANCH   3   4
ENDBRANCH   2   3
BRANCH   2   6
HETATM    6  O8  UNL     1     -33.447   6.472   4.748  1.00 20.00    -0.387 OA
BRANCH   6   7
HETATM    7  C6  UNL     1     -34.407   5.445   4.949  1.00 20.00     0.163 C 
HETATM    8  C2  UNL     1     -34.661   5.293   6.434  1.00 20.00     0.033 C 
ENDBRANCH   6   7
ENDBRANCH   2   6
TORSDOF 4
ENDMDL
MODEL 6
REMARK VINA RESULT:      -3.6     11.614     12.319
REMARK  4 active torsions:
REMARK  status: ('A' for Active; 'I' for Inactive)
REMARK    1  A    between atoms: C4_4  and  C5_5 
REMARK    2  A    between atoms: C5_5  and  C7_7 
REMARK    3  A    between atoms: C6_6  and  O8_8 
REMARK    4  A    between atoms: C7_7  and  O8_8 
ROOT
HETATM    1  C3  UNL     1     -33.249  16.499  -5.034  1.00 20.00     0.039 C 
HETATM    2  C7  UNL     1     -33.859  15.701  -3.890  1.00 20.00     0.117 C 
ENDROOT
BRANCH   2   3
HETATM    3  C5  UNL     1     -33.620  16.383  -2.539  1.00 20.00     0.031 C 
BRANCH   3   4
HETATM    4  C4  UNL     1     -34.828  16.253  -1.606  1.00 20.00    -0.002 C 
HETATM    5  C1  UNL     1     -34.627  17.042  -0.323  1.00 20.00     0.005 C 
ENDBRANCH   3   4
ENDBRANCH   2   3
BRANCH   2   6
HETATM    6  O8  UNL     1     -33.288  14.395  -3.887  1.00 20.00    -0.387 OA
BRANCH   6   7
HETATM    7  C6  UNL     1     -34.103  13.473  -4.597  1.00 20.00     0.163 C 
HETATM    8  C2  UNL     1     -35.547  13.680  -4.194  1.00 20.00     0.033 C 
ENDBRANCH   6   7
ENDBRANCH   2   6
TORSDOF 4
ENDMDL
MODEL 7
REMARK VINA RESULT:      -3.6     11.506     12.558
REMARK  4 active torsions:
REMARK  status: ('A' for Active; 'I' for Inactive)
REMARK    1  A    between atoms: C4_4  and  C5_5 
REMARK    2  A    between atoms: C5_5  and  C7_7 
REMARK    3  A    between atoms: C6_6  and  O8_8 
REMARK    4  A    between atoms: C7_7  and  O8_8 
ROOT
HETATM    1  C3  UNL     1     -33.368  13.654  -3.759  1.00 20.00     0.039 C 
HETATM    2  C7  UNL     1     -33.457  15.172  -3.685  1.00 20.00     0.117 C 
ENDROOT
BRANCH   2   3
HETATM    3  C5  UNL     1     -34.461  15.626  -2.621  1.00 20.00     0.031 C 
BRANCH   3   4
HETATM    4  C4  UNL     1     -33.899  16.746  -1.741  1.00 20.00    -0.002 C 
HETATM    5  C1  UNL     1     -34.691  16.890  -0.451  1.00 20.00     0.005 C 
ENDBRANCH   3   4
ENDBRANCH   2   3
BRANCH   2   6
HETATM    6  O8  UNL     1     -33.840  15.670  -4.965  1.00 20.00    -0.387 OA
BRANCH   6   7
HETATM    7  C6  UNL     1     -34.586  14.706  -5.693  1.00 20.00     0.163 C 
HETATM    8  C2  UNL     1     -34.428  14.978  -7.174  1.00 20.00     0.033 C 
ENDBRANCH   6   7
ENDBRANCH   2   6
TORSDOF 4
ENDMDL
MODEL 8
REMARK VINA RESULT:      -3.5      1.273      2.248
REMARK  4 active torsions:
REMARK  status: ('A' for Active; 'I' for Inactive)
REMARK    1  A    between atoms: C4_4  and  C5_5 
REMARK    2  A    between atoms: C5_5  and  C7_7 
REMARK    3  A    between atoms: C6_6  and  O8_8 
REMARK    4  A    between atoms: C7_7  and  O8_8 
ROOT
HETATM    1  C3  UNL     1     -33.326   7.391   6.762  1.00 20.00     0.039 C 
HETATM    2  C7  UNL     1     -34.007   6.444   5.783  1.00 20.00     0.117 C 
ENDROOT
BRANCH   2   3
HETATM    3  C5  UNL     1     -34.548   5.198   6.490  1.00 20.00     0.031 C 
BRANCH   3   4
HETATM    4  C4  UNL     1     -34.830   4.056   5.509  1.00 20.00    -0.002 C 
HETATM    5  C1  UNL     1     -35.664   4.530   4.329  1.00 20.00     0.005 C 
ENDBRANCH   3   4
ENDBRANCH   2   3
BRANCH   2   6
HETATM    6  O8  UNL     1     -33.065   6.068   4.780  1.00 20.00    -0.387 OA
BRANCH   6   7
HETATM    7  C6  UNL     1     -33.216   6.855   3.608  1.00 20.00     0.163 C 
HETATM    8  C2  UNL     1     -31.850   7.317   3.147  1.00 20.00     0.033 C 
ENDBRANCH   6   7
ENDBRANCH   2   6
TORSDOF 4
ENDMDL
MODEL 9
REMARK VINA RESULT:      -3.5     11.442     12.375
REMARK  4 active torsions:
REMARK  status: ('A' for Active; 'I' for Inactive)
REMARK    1  A    between atoms: C4_4  and  C5_5 
REMARK    2  A    between atoms: C5_5  and  C7_7 
REMARK    3  A    between atoms: C6_6  and  O8_8 
REMARK    4  A    between atoms: C7_7  and  O8_8 
ROOT
HETATM    1  C3  UNL     1     -33.519  16.851  -4.445  1.00 20.00     0.039 C 
HETATM    2  C7  UNL     1     -33.441  16.051  -3.151  1.00 20.00     0.117 C 
ENDROOT
BRANCH   2   3
HETATM    3  C5  UNL     1     -34.464  14.910  -3.133  1.00 20.00     0.031 C 
BRANCH   3   4
HETATM    4  C4  UNL     1     -33.917  13.638  -3.787  1.00 20.00    -0.002 C 
HETATM    5  C1  UNL     1     -34.785  13.196  -4.954  1.00 20.00     0.005 C 
ENDBRANCH   3   4
ENDBRANCH   2   3
BRANCH   2   6
HETATM    6  O8  UNL     1     -33.670  16.932  -2.054  1.00 20.00    -0.387 OA
BRANCH   6   7
HETATM    7  C6  UNL     1     -34.699  16.444  -1.205  1.00 20.00     0.163 C 
HETATM    8  C2  UNL     1     -34.735  17.282   0.055  1.00 20.00     0.033 C 
ENDBRANCH   6   7
ENDBRANCH   2   6
TORSDOF 4
ENDMDL
