MODEL 1
REMARK VINA RESULT:      -4.6      0.000      0.000
REMARK  2 active torsions:
REMARK  status: ('A' for Active; 'I' for Inactive)
REMARK    1  A    between atoms: C5_5  and  O12_12 
REMARK    2  A    between atoms: C11_11  and  O12_12 
ROOT
HETATM    1  C1  UNL     1     -34.733  17.524  -3.748  1.00 20.00     0.036 C 
HETATM    2  C2  UNL     1     -34.019  15.653  -5.286  1.00 20.00     0.013 C 
HETATM    3  C3  UNL     1     -35.106  15.111  -3.057  1.00 20.00     0.040 C 
HETATM    4  C4  UNL     1     -33.697  17.070  -4.784  1.00 20.00    -0.015 C 
HETATM    5  C5  UNL     1     -34.857  16.545  -2.580  1.00 20.00     0.122 C 
HETATM    6  C6  UNL     1     -34.134  14.608  -4.153  1.00 20.00    -0.045 C 
HETATM    7  C7  UNL     1     -33.650  18.052  -5.956  1.00 20.00     0.010 C 
HETATM    8  C8  UNL     1     -34.698  13.298  -4.744  1.00 20.00     0.015 C 
HETATM    9  C9  UNL     1     -32.744  14.286  -3.572  1.00 20.00     0.015 C 
ENDROOT
BRANCH   5  10
HETATM   10  O12 UNL     1     -33.684  16.587  -1.775  1.00 20.00    -0.386 OA
BRANCH  10  11
HETATM   11  C11 UNL     1     -33.764  17.612  -0.794  1.00 20.00     0.163 C 
HETATM   12  C10 UNL     1     -34.850  17.260   0.199  1.00 20.00     0.033 C 
ENDBRANCH  10  11
ENDBRANCH   5  10
TORSDOF 2
ENDMDL
MODEL 2
REMARK VINA RESULT:      -4.3      1.434      3.237
REMARK  2 active torsions:
REMARK  status: ('A' for Active; 'I' for Inactive)
REMARK    1  A    between atoms: C5_5  and  O12_12 
REMARK    2  A    between atoms: C11_11  and  O12_12 
ROOT
HETATM    1  C1  UNL     1     -33.441  15.174  -4.117  1.00 20.00     0.036 C 
HETATM    2  C2  UNL     1     -34.800  15.195  -6.244  1.00 20.00     0.013 C 
HETATM    3  C3  UNL     1     -33.567  17.290  -5.511  1.00 20.00     0.040 C 
HETATM    4  C4  UNL     1     -34.694  14.634  -4.818  1.00 20.00    -0.015 C 
HETATM    5  C5  UNL     1     -33.391  16.701  -4.108  1.00 20.00     0.122 C 
HETATM    6  C6  UNL     1     -34.780  16.740  -6.303  1.00 20.00    -0.045 C 
HETATM    7  C7  UNL     1     -34.671  13.105  -4.847  1.00 20.00     0.010 C 
HETATM    8  C8  UNL     1     -34.640  17.177  -7.777  1.00 20.00     0.015 C 
HETATM    9  C9  UNL     1     -36.107  17.319  -5.778  1.00 20.00     0.015 C 
ENDROOT
BRANCH   5  10
HETATM   10  O12 UNL     1     -34.390  17.223  -3.239  1.00 20.00    -0.386 OA
BRANCH  10  11
HETATM   11  C11 UNL     1     -33.873  17.460  -1.937  1.00 20.00     0.163 C 
HETATM   12  C10 UNL     1     -34.640  16.617  -0.941  1.00 20.00     0.033 C 
ENDBRANCH  10  11
ENDBRANCH   5  10
TORSDOF 2
ENDMDL
MODEL 3
REMARK VINA RESULT:      -4.3      2.237      3.778
REMARK  2 active torsions:
REMARK  status: ('A' for Active; 'I' for Inactive)
REMARK    1  A    between atoms: C5_5  and  O12_12 
REMARK    2  A    between atoms: C11_11  and  O12_12 
ROOT
HETATM    1  C1  UNL     1     -36.178  16.993  -2.199  1.00 20.00     0.036 C 
HETATM    2  C2  UNL     1     -33.758  16.333  -2.488  1.00 20.00     0.013 C 
HETATM    3  C3  UNL     1     -35.359  16.163  -4.452  1.00 20.00     0.040 C 
HETATM    4  C4  UNL     1     -34.951  16.371  -1.520  1.00 20.00    -0.015 C 
HETATM    5  C5  UNL     1     -36.551  16.278  -3.497  1.00 20.00     0.122 C 
HETATM    6  C6  UNL     1     -34.063  15.600  -3.815  1.00 20.00    -0.045 C 
HETATM    7  C7  UNL     1     -34.587  17.153  -0.257  1.00 20.00     0.010 C 
HETATM    8  C8  UNL     1     -32.893  15.840  -4.793  1.00 20.00     0.015 C 
HETATM    9  C9  UNL     1     -34.160  14.080  -3.583  1.00 20.00     0.015 C 
ENDROOT
BRANCH   5  10
HETATM   10  O12 UNL     1     -37.069  14.983  -3.215  1.00 20.00    -0.386 OA
BRANCH  10  11
HETATM   11  C11 UNL     1     -38.235  14.712  -3.981  1.00 20.00     0.163 C 
HETATM   12  C10 UNL     1     -39.412  15.430  -3.357  1.00 20.00     0.033 C 
ENDBRANCH  10  11
ENDBRANCH   5  10
TORSDOF 2
ENDMDL
MODEL 4
REMARK VINA RESULT:      -4.3      1.459      3.940
REMARK  2 active torsions:
REMARK  status: ('A' for Active; 'I' for Inactive)
REMARK    1  A    between atoms: C5_5  and  O12_12 
REMARK    2  A    between atoms: C11_11  and  O12_12 
ROOT
HETATM    1  C1  UNL     1     -35.027  16.545  -1.538  1.00 20.00     0.036 C 
HETATM    2  C2  UNL     1     -33.863  18.275  -2.961  1.00 20.00     0.013 C 
HETATM    3  C3  UNL     1     -35.686  16.826  -3.972  1.00 20.00     0.040 C 
HETATM    4  C4  UNL     1     -33.702  17.270  -1.809  1.00 20.00    -0.015 C 
HETATM    5  C5  UNL     1     -35.584  15.862  -2.786  1.00 20.00     0.122 C 
HETATM    6  C6  UNL     1     -34.401  17.641  -4.264  1.00 20.00    -0.045 C 
HETATM    7  C7  UNL     1     -33.216  17.981  -0.545  1.00 20.00     0.010 C 
HETATM    8  C8  UNL     1     -34.753  18.771  -5.255  1.00 20.00     0.015 C 
HETATM    9  C9  UNL     1     -33.318  16.770  -4.929  1.00 20.00     0.015 C 
ENDROOT
BRANCH   5  10
HETATM   10  O12 UNL     1     -34.774  14.747  -3.142  1.00 20.00    -0.386 OA
BRANCH  10  11
HETATM   11  C11 UNL     1     -35.460  13.863  -4.017  1.00 20.00     0.163 C 
HETATM   12  C10 UNL     1     -34.453  13.181  -4.918  1.00 20.00     0.033 C 
ENDBRANCH  10  11
ENDBRANCH   5  10
TORSDOF 2
ENDMDL
MODEL 5
REMARK VINA RESULT:      -4.2      1.528      3.801
REMARK  2 active torsions:
REMARK  status: ('A' for Active; 'I' for Inactive)
REMARK    1  A    between atoms: C5_5  and  O12_12 
REMARK    2  A    between atoms: C11_11  and  O12_12 
ROOT
HETATM    1  C1  UNL     1     -33.744  17.256  -3.291  1.00 20.00     0.036 C 
HETATM    2  C2  UNL     1     -34.711  14.950  -2.945  1.00 20.00     0.013 C 
HETATM    3  C3  UNL     1     -33.883  15.641  -5.244  1.00 20.00     0.040 C 
HETATM    4  C4  UNL     1     -34.785  16.427  -2.527  1.00 20.00    -0.015 C 
HETATM    5  C5  UNL     1     -33.881  17.109  -4.806  1.00 20.00     0.122 C 
HETATM    6  C6  UNL     1     -34.867  14.730  -4.467  1.00 20.00    -0.045 C 
HETATM    7  C7  UNL     1     -34.572  16.565  -1.019  1.00 20.00     0.010 C 
HETATM    8  C8  UNL     1     -34.530  13.259  -4.792  1.00 20.00     0.015 C 
HETATM    9  C9  UNL     1     -36.325  14.972  -4.902  1.00 20.00     0.015 C 
ENDROOT
BRANCH   5  10
HETATM   10  O12 UNL     1     -35.070  17.748  -5.259  1.00 20.00    -0.386 OA
BRANCH  10  11
HETATM   11  C11 UNL     1     -34.936  18.207  -6.596  1.00 20.00     0.163 C 
HETATM   12  C10 UNL     1     -33.695  19.066  -6.701  1.00 20.00     0.033 C 
ENDBRANCH  10  11
ENDBRANCH   5  10
TORSDOF 2
ENDMDL
MODEL 6
REMARK VINA RESULT:      -4.2      1.784      4.052
REMARK  2 active torsions:
REMARK  status: ('A' for Active; 'I' for Inactive)
REMARK    1  A    between atoms: C5_5  and  O12_12 
REMARK    2  A    between atoms: C11_11  and  O12_12 
ROOT
HETATM    1  C1  UNL     1     -33.279  16.420  -5.146  1.00 20.00     0.036 C 
HETATM    2  C2  UNL     1     -34.208  17.733  -3.199  1.00 20.00     0.013 C 
HETATM    3  C3  UNL     1     -34.011  15.206  -3.042  1.00 20.00     0.040 C 
HETATM    4  C4  UNL     1     -34.104  17.645  -4.730  1.00 20.00    -0.015 C 
HETATM    5  C5  UNL     1     -33.830  15.121  -4.560  1.00 20.00     0.122 C 
HETATM    6  C6  UNL     1     -34.782  16.456  -2.545  1.00 20.00    -0.045 C 
HETATM    7  C7  UNL     1     -33.483  18.923  -5.296  1.00 20.00     0.010 C 
HETATM    8  C8  UNL     1     -34.606  16.561  -1.015  1.00 20.00     0.015 C 
HETATM    9  C9  UNL     1     -36.292  16.336  -2.825  1.00 20.00     0.015 C 
ENDROOT
BRANCH   5  10
HETATM   10  O12 UNL     1     -35.070  14.789  -5.175  1.00 20.00    -0.386 OA
BRANCH  10  11
HETATM   11  C11 UNL     1     -34.893  14.415  -6.534  1.00 20.00     0.163 C 
HETATM   12  C10 UNL     1     -36.033  14.980  -7.353  1.00 20.00     0.033 C 
ENDBRANCH  10  11
ENDBRANCH   5  10
TORSDOF 2
ENDMDL
MODEL 7
REMARK VINA RESULT:      -4.2      1.495      3.815
REMARK  2 active torsions:
REMARK  status: ('A' for Active; 'I' for Inactive)
REMARK    1  A    between atoms: C5_5  and  O12_12 
REMARK    2  A    between atoms: C11_11  and  O12_12 
ROOT
HETATM    1  C1  UNL     1     -33.463  16.786  -5.038  1.00 20.00     0.036 C 
HETATM    2  C2  UNL     1     -33.768  18.429  -3.144  1.00 20.00     0.013 C 
HETATM    3  C3  UNL     1     -33.752  15.936  -2.665  1.00 20.00     0.040 C 
HETATM    4  C4  UNL     1     -34.053  18.142  -4.627  1.00 20.00    -0.015 C 
HETATM    5  C5  UNL     1     -33.959  15.643  -4.154  1.00 20.00     0.122 C 
HETATM    6  C6  UNL     1     -34.268  17.319  -2.192  1.00 20.00    -0.045 C 
HETATM    7  C7  UNL     1     -33.485  19.258  -5.505  1.00 20.00     0.010 C 
HETATM    8  C8  UNL     1     -33.712  17.591  -0.778  1.00 20.00     0.015 C 
HETATM    9  C9  UNL     1     -35.805  17.344  -2.092  1.00 20.00     0.015 C 
ENDROOT
BRANCH   5  10
HETATM   10  O12 UNL     1     -35.336  15.387  -4.406  1.00 20.00    -0.386 OA
BRANCH  10  11
HETATM   11  C11 UNL     1     -35.662  14.023  -4.176  1.00 20.00     0.163 C 
HETATM   12  C10 UNL     1     -34.627  13.149  -4.850  1.00 20.00     0.033 C 
ENDBRANCH  10  11
ENDBRANCH   5  10
TORSDOF 2
ENDMDL
MODEL 8
REMARK VINA RESULT:      -4.2      2.271      3.321
REMARK  2 active torsions:
REMARK  status: ('A' for Active; 'I' for Inactive)
REMARK    1  A    between atoms: C5_5  and  O12_12 
REMARK    2  A    between atoms: C11_11  and  O12_12 
ROOT
HETATM    1  C1  UNL     1     -36.253  15.012  -5.622  1.00 20.00     0.036 C 
HETATM    2  C2  UNL     1     -33.993  15.939  -4.983  1.00 20.00     0.013 C 
HETATM    3  C3  UNL     1     -34.852  13.823  -3.872  1.00 20.00     0.040 C 
HETATM    4  C4  UNL     1     -35.423  16.288  -5.425  1.00 20.00    -0.015 C 
HETATM    5  C5  UNL     1     -36.266  14.127  -4.376  1.00 20.00     0.122 C 
HETATM    6  C6  UNL     1     -33.935  15.062  -3.711  1.00 20.00    -0.045 C 
HETATM    7  C7  UNL     1     -35.397  17.111  -6.714  1.00 20.00     0.010 C 
HETATM    8  C8  UNL     1     -32.484  14.574  -3.512  1.00 20.00     0.015 C 
HETATM    9  C9  UNL     1     -34.315  15.889  -2.468  1.00 20.00     0.015 C 
ENDROOT
BRANCH   5  10
HETATM   10  O12 UNL     1     -37.023  14.743  -3.341  1.00 20.00    -0.386 OA
BRANCH  10  11
HETATM   11  C11 UNL     1     -38.382  14.909  -3.719  1.00 20.00     0.163 C 
HETATM   12  C10 UNL     1     -38.847  16.286  -3.297  1.00 20.00     0.033 C 
ENDBRANCH  10  11
ENDBRANCH   5  10
TORSDOF 2
ENDMDL
MODEL 9
REMARK VINA RESULT:      -4.1      1.630      2.797
REMARK  2 active torsions:
REMARK  status: ('A' for Active; 'I' for Inactive)
REMARK    1  A    between atoms: C5_5  and  O12_12 
REMARK    2  A    between atoms: C11_11  and  O12_12 
ROOT
HETATM    1  C1  UNL     1     -33.728  15.920  -3.253  1.00 20.00     0.036 C 
HETATM    2  C2  UNL     1     -35.250  14.562  -4.743  1.00 20.00     0.013 C 
HETATM    3  C3  UNL     1     -35.814  16.984  -4.229  1.00 20.00     0.040 C 
HETATM    4  C4  UNL     1     -34.306  14.525  -3.530  1.00 20.00    -0.015 C 
HETATM    5  C5  UNL     1     -34.817  16.975  -3.067  1.00 20.00     0.122 C 
HETATM    6  C6  UNL     1     -36.391  15.596  -4.606  1.00 20.00    -0.045 C 
HETATM    7  C7  UNL     1     -33.179  13.518  -3.763  1.00 20.00     0.010 C 
HETATM    8  C8  UNL     1     -37.112  15.719  -5.965  1.00 20.00     0.015 C 
HETATM    9  C9  UNL     1     -37.433  15.118  -3.577  1.00 20.00     0.015 C 
ENDROOT
BRANCH   5  10
HETATM   10  O12 UNL     1     -35.508  16.759  -1.842  1.00 20.00    -0.386 OA
BRANCH  10  11
HETATM   11  C11 UNL     1     -34.612  16.718  -0.740  1.00 20.00     0.163 C 
HETATM   12  C10 UNL     1     -35.176  17.560   0.385  1.00 20.00     0.033 C 
ENDBRANCH  10  11
ENDBRANCH   5  10
TORSDOF 2
ENDMDL
