MODEL 1
REMARK VINA RESULT:      -4.9      0.000      0.000
REMARK  0 active torsions:
REMARK  status: ('A' for Active; 'I' for Inactive)
ROOT
HETATM    1  C1  UNL     1     -34.920  14.808  -6.845  1.00 20.00     0.095 C 
HETATM    2  C2  UNL     1     -34.739  16.469  -1.335  1.00 20.00     0.095 C 
HETATM    3  C3  UNL     1     -33.288  15.596  -5.238  1.00 20.00    -0.007 C 
HETATM    4  C4  UNL     1     -36.327  15.511  -2.891  1.00 20.00    -0.007 C 
HETATM    5  C5  UNL     1     -34.392  14.901  -5.534  1.00 20.00     0.024 C 
HETATM    6  C6  UNL     1     -35.079  15.637  -2.429  1.00 20.00     0.024 C 
HETATM    7  C7  UNL     1     -32.916  15.479  -3.798  1.00 20.00     0.039 C 
HETATM    8  C8  UNL     1     -36.419  14.526  -4.009  1.00 20.00     0.039 C 
HETATM    9  C9  UNL     1     -34.956  14.192  -4.334  1.00 20.00     0.042 C 
HETATM   10  C10 UNL     1     -34.110  14.751  -3.161  1.00 20.00     0.042 C 
HETATM   11  N11 UNL     1     -35.354  14.730  -7.918  1.00 20.00    -0.192 NA
HETATM   12  N12 UNL     1     -34.459  17.150  -0.438  1.00 20.00    -0.192 NA
ENDROOT
TORSDOF 0
ENDMDL
MODEL 2
REMARK VINA RESULT:      -4.9      0.963      4.739
REMARK  0 active torsions:
REMARK  status: ('A' for Active; 'I' for Inactive)
ROOT
HETATM    1  C1  UNL     1     -34.028  16.646  -1.798  1.00 20.00     0.095 C 
HETATM    2  C2  UNL     1     -35.336  14.769  -7.082  1.00 20.00     0.095 C 
HETATM    3  C3  UNL     1     -35.102  14.737  -2.834  1.00 20.00    -0.007 C 
HETATM    4  C4  UNL     1     -34.107  16.583  -6.051  1.00 20.00    -0.007 C 
HETATM    5  C5  UNL     1     -34.171  15.697  -2.841  1.00 20.00     0.024 C 
HETATM    6  C6  UNL     1     -34.516  15.310  -6.064  1.00 20.00     0.024 C 
HETATM    7  C7  UNL     1     -34.993  13.837  -4.019  1.00 20.00     0.039 C 
HETATM    8  C8  UNL     1     -33.202  16.876  -4.902  1.00 20.00     0.039 C 
HETATM    9  C9  UNL     1     -33.269  15.606  -4.041  1.00 20.00     0.042 C 
HETATM   10  C10 UNL     1     -33.950  14.522  -4.915  1.00 20.00     0.042 C 
HETATM   11  N11 UNL     1     -33.910  17.423  -0.945  1.00 20.00    -0.192 NA
HETATM   12  N12 UNL     1     -36.010  14.325  -7.917  1.00 20.00    -0.192 NA
ENDROOT
TORSDOF 0
ENDMDL
MODEL 3
REMARK VINA RESULT:      -4.9      3.786      6.185
REMARK  0 active torsions:
REMARK  status: ('A' for Active; 'I' for Inactive)
ROOT
HETATM    1  C1  UNL     1     -33.859  17.103  -1.855  1.00 20.00     0.095 C 
HETATM    2  C2  UNL     1     -32.722  18.697   3.559  1.00 20.00     0.095 C 
HETATM    3  C3  UNL     1     -34.942  17.077   0.312  1.00 20.00    -0.007 C 
HETATM    4  C4  UNL     1     -31.721  18.884   1.363  1.00 20.00    -0.007 C 
HETATM    5  C5  UNL     1     -34.133  17.657  -0.581  1.00 20.00     0.024 C 
HETATM    6  C6  UNL     1     -32.798  18.841   2.153  1.00 20.00     0.024 C 
HETATM    7  C7  UNL     1     -35.105  17.899   1.546  1.00 20.00     0.039 C 
HETATM    8  C8  UNL     1     -32.077  19.104  -0.070  1.00 20.00     0.039 C 
HETATM    9  C9  UNL     1     -33.608  18.981  -0.096  1.00 20.00     0.042 C 
HETATM   10  C10 UNL     1     -34.075  19.027   1.382  1.00 20.00     0.042 C 
HETATM   11  N11 UNL     1     -33.636  16.650  -2.900  1.00 20.00    -0.192 NA
HETATM   12  N12 UNL     1     -32.661  18.578   4.712  1.00 20.00    -0.192 NA
ENDROOT
TORSDOF 0
ENDMDL
MODEL 4
REMARK VINA RESULT:      -4.9      3.778      7.248
REMARK  0 active torsions:
REMARK  status: ('A' for Active; 'I' for Inactive)
ROOT
HETATM    1  C1  UNL     1     -32.802  18.683   3.574  1.00 20.00     0.095 C 
HETATM    2  C2  UNL     1     -33.788  17.108  -1.876  1.00 20.00     0.095 C 
HETATM    3  C3  UNL     1     -31.755  18.906   1.401  1.00 20.00    -0.007 C 
HETATM    4  C4  UNL     1     -34.917  17.045   0.266  1.00 20.00    -0.007 C 
HETATM    5  C5  UNL     1     -32.849  18.837   2.166  1.00 20.00     0.024 C 
HETATM    6  C6  UNL     1     -34.099  17.647  -0.604  1.00 20.00     0.024 C 
HETATM    7  C7  UNL     1     -32.085  19.130  -0.037  1.00 20.00     0.039 C 
HETATM    8  C8  UNL     1     -35.123  17.855   1.502  1.00 20.00     0.039 C 
HETATM    9  C9  UNL     1     -34.113  19.004   1.369  1.00 20.00     0.042 C 
HETATM   10  C10 UNL     1     -33.612  18.976  -0.098  1.00 20.00     0.042 C 
HETATM   11  N11 UNL     1     -32.764  18.558   4.727  1.00 20.00    -0.192 NA
HETATM   12  N12 UNL     1     -33.532  16.666  -2.918  1.00 20.00    -0.192 NA
ENDROOT
TORSDOF 0
ENDMDL
MODEL 5
REMARK VINA RESULT:      -4.8      0.052      4.775
REMARK  0 active torsions:
REMARK  status: ('A' for Active; 'I' for Inactive)
ROOT
HETATM    1  C1  UNL     1     -34.765  16.531  -1.339  1.00 20.00     0.095 C 
HETATM    2  C2  UNL     1     -34.911  14.837  -6.840  1.00 20.00     0.095 C 
HETATM    3  C3  UNL     1     -36.347  15.573  -2.904  1.00 20.00    -0.007 C 
HETATM    4  C4  UNL     1     -33.288  15.624  -5.225  1.00 20.00    -0.007 C 
HETATM    5  C5  UNL     1     -35.102  15.694  -2.431  1.00 20.00     0.024 C 
HETATM    6  C6  UNL     1     -34.394  14.936  -5.526  1.00 20.00     0.024 C 
HETATM    7  C7  UNL     1     -36.436  14.582  -4.015  1.00 20.00     0.039 C 
HETATM    8  C8  UNL     1     -32.928  15.514  -3.781  1.00 20.00     0.039 C 
HETATM    9  C9  UNL     1     -34.132  14.797  -3.150  1.00 20.00     0.042 C 
HETATM   10  C10 UNL     1     -34.972  14.238  -4.327  1.00 20.00     0.042 C 
HETATM   11  N11 UNL     1     -34.488  17.216  -0.445  1.00 20.00    -0.192 NA
HETATM   12  N12 UNL     1     -35.336  14.756  -7.917  1.00 20.00    -0.192 NA
ENDROOT
TORSDOF 0
ENDMDL
MODEL 6
REMARK VINA RESULT:      -4.8      0.954      1.214
REMARK  0 active torsions:
REMARK  status: ('A' for Active; 'I' for Inactive)
ROOT
HETATM    1  C1  UNL     1     -35.461  14.840  -7.089  1.00 20.00     0.095 C 
HETATM    2  C2  UNL     1     -34.076  16.660  -1.805  1.00 20.00     0.095 C 
HETATM    3  C3  UNL     1     -34.217  16.644  -6.057  1.00 20.00    -0.007 C 
HETATM    4  C4  UNL     1     -35.163  14.763  -2.846  1.00 20.00    -0.007 C 
HETATM    5  C5  UNL     1     -34.624  15.371  -6.076  1.00 20.00     0.024 C 
HETATM    6  C6  UNL     1     -34.234  15.724  -2.855  1.00 20.00     0.024 C 
HETATM    7  C7  UNL     1     -33.295  16.925  -4.917  1.00 20.00     0.039 C 
HETATM    8  C8  UNL     1     -35.072  13.875  -4.042  1.00 20.00     0.039 C 
HETATM    9  C9  UNL     1     -34.042  14.570  -4.944  1.00 20.00     0.042 C 
HETATM   10  C10 UNL     1     -33.350  15.646  -4.069  1.00 20.00     0.042 C 
HETATM   11  N11 UNL     1     -36.145  14.405  -7.918  1.00 20.00    -0.192 NA
HETATM   12  N12 UNL     1     -33.947  17.428  -0.944  1.00 20.00    -0.192 NA
ENDROOT
TORSDOF 0
ENDMDL
MODEL 7
REMARK VINA RESULT:      -4.8      2.033      3.104
REMARK  0 active torsions:
REMARK  status: ('A' for Active; 'I' for Inactive)
ROOT
HETATM    1  C1  UNL     1     -35.251  13.707  -4.236  1.00 20.00     0.095 C 
HETATM    2  C2  UNL     1     -36.113  18.096  -0.610  1.00 20.00     0.095 C 
HETATM    3  C3  UNL     1     -37.033  15.224  -3.611  1.00 20.00    -0.007 C 
HETATM    4  C4  UNL     1     -34.287  16.698  -1.367  1.00 20.00    -0.007 C 
HETATM    5  C5  UNL     1     -35.737  14.971  -3.820  1.00 20.00     0.024 C 
HETATM    6  C6  UNL     1     -35.435  17.344  -1.599  1.00 20.00     0.024 C 
HETATM    7  C7  UNL     1     -37.278  16.648  -3.240  1.00 20.00     0.039 C 
HETATM    8  C8  UNL     1     -33.752  16.036  -2.593  1.00 20.00     0.039 C 
HETATM    9  C9  UNL     1     -34.880  16.192  -3.623  1.00 20.00     0.042 C 
HETATM   10  C10 UNL     1     -35.871  17.228  -3.033  1.00 20.00     0.042 C 
HETATM   11  N11 UNL     1     -34.852  12.673  -4.577  1.00 20.00    -0.192 NA
HETATM   12  N12 UNL     1     -36.671  18.713   0.199  1.00 20.00    -0.192 NA
ENDROOT
TORSDOF 0
ENDMDL
MODEL 8
REMARK VINA RESULT:      -4.8      2.049      4.593
REMARK  0 active torsions:
REMARK  status: ('A' for Active; 'I' for Inactive)
ROOT
HETATM    1  C1  UNL     1     -36.081  18.140  -0.642  1.00 20.00     0.095 C 
HETATM    2  C2  UNL     1     -35.219  13.691  -4.194  1.00 20.00     0.095 C 
HETATM    3  C3  UNL     1     -34.248  16.752  -1.403  1.00 20.00    -0.007 C 
HETATM    4  C4  UNL     1     -37.011  15.195  -3.568  1.00 20.00    -0.007 C 
HETATM    5  C5  UNL     1     -35.408  17.378  -1.628  1.00 20.00     0.024 C 
HETATM    6  C6  UNL     1     -35.715  14.956  -3.795  1.00 20.00     0.024 C 
HETATM    7  C7  UNL     1     -33.726  16.074  -2.625  1.00 20.00     0.039 C 
HETATM    8  C8  UNL     1     -37.271  16.623  -3.221  1.00 20.00     0.039 C 
HETATM    9  C9  UNL     1     -35.869  17.227  -3.051  1.00 20.00     0.042 C 
HETATM   10  C10 UNL     1     -34.875  16.192  -3.638  1.00 20.00     0.042 C 
HETATM   11  N11 UNL     1     -36.633  18.765   0.165  1.00 20.00    -0.192 NA
HETATM   12  N12 UNL     1     -34.811  12.655  -4.521  1.00 20.00    -0.192 NA
ENDROOT
TORSDOF 0
ENDMDL
MODEL 9
REMARK VINA RESULT:      -4.3      1.537      1.733
REMARK  0 active torsions:
REMARK  status: ('A' for Active; 'I' for Inactive)
ROOT
HETATM    1  C1  UNL     1     -36.241  15.597  -6.363  1.00 20.00     0.095 C 
HETATM    2  C2  UNL     1     -33.598  17.406  -1.578  1.00 20.00     0.095 C 
HETATM    3  C3  UNL     1     -34.727  17.360  -5.680  1.00 20.00    -0.007 C 
HETATM    4  C4  UNL     1     -34.965  15.544  -2.305  1.00 20.00    -0.007 C 
HETATM    5  C5  UNL     1     -35.173  16.104  -5.582  1.00 20.00     0.024 C 
HETATM    6  C6  UNL     1     -34.029  16.468  -2.547  1.00 20.00     0.024 C 
HETATM    7  C7  UNL     1     -33.556  17.614  -4.791  1.00 20.00     0.039 C 
HETATM    8  C8  UNL     1     -35.188  14.644  -3.474  1.00 20.00     0.039 C 
HETATM    9  C9  UNL     1     -34.372  15.290  -4.603  1.00 20.00     0.042 C 
HETATM   10  C10 UNL     1     -33.457  16.346  -3.931  1.00 20.00     0.042 C 
HETATM   11  N11 UNL     1     -37.116  15.182  -7.002  1.00 20.00    -0.192 NA
HETATM   12  N12 UNL     1     -33.243  18.176  -0.785  1.00 20.00    -0.192 NA
ENDROOT
TORSDOF 0
ENDMDL
