MODEL 1
REMARK VINA RESULT:      -4.3      0.000      0.000
REMARK  2 active torsions:
REMARK  status: ('A' for Active; 'I' for Inactive)
REMARK    1  A    between atoms: C1_1  and  C4_4 
REMARK    2  A    between atoms: C4_4  and  C5_5 
ROOT
HETATM    1  C1  UNL     1     -34.235   5.927   3.959  1.00 20.00     0.244 A 
HETATM    2  C3  UNL     1     -32.357   7.069   2.933  1.00 20.00     0.147 C 
HETATM    3  N6  UNL     1     -32.883   5.808   3.441  1.00 20.00    -0.168 NA
HETATM    4  O7  UNL     1     -34.032   5.526   2.602  1.00 20.00    -0.279 OA
ENDROOT
BRANCH   1   5
HETATM    5  C4  UNL     1     -34.778   4.865   4.844  1.00 20.00     0.051 C 
BRANCH   5   6
HETATM    6  C5  UNL     1     -34.748   5.289   6.311  1.00 20.00    -0.001 C 
HETATM    7  C2  UNL     1     -34.002   6.601   6.497  1.00 20.00     0.005 C 
ENDBRANCH   5   6
ENDBRANCH   1   5
TORSDOF 2
ENDMDL
MODEL 2
REMARK VINA RESULT:      -4.3      1.407      1.792
REMARK  2 active torsions:
REMARK  status: ('A' for Active; 'I' for Inactive)
REMARK    1  A    between atoms: C1_1  and  C4_4 
REMARK    2  A    between atoms: C4_4  and  C5_5 
ROOT
HETATM    1  C1  UNL     1     -33.347   6.594   3.466  1.00 20.00     0.244 A 
HETATM    2  C3  UNL     1     -31.955   8.032   2.094  1.00 20.00     0.147 C 
HETATM    3  N6  UNL     1     -32.108   7.346   3.372  1.00 20.00    -0.168 NA
HETATM    4  O7  UNL     1     -32.155   5.938   3.028  1.00 20.00    -0.279 OA
ENDROOT
BRANCH   1   5
HETATM    5  C4  UNL     1     -33.842   6.158   4.796  1.00 20.00     0.051 C 
BRANCH   5   6
HETATM    6  C5  UNL     1     -34.913   5.077   4.668  1.00 20.00    -0.001 C 
HETATM    7  C2  UNL     1     -34.971   4.199   5.909  1.00 20.00     0.005 C 
ENDBRANCH   5   6
ENDBRANCH   1   5
TORSDOF 2
ENDMDL
MODEL 3
REMARK VINA RESULT:      -3.8      1.807      3.522
REMARK  2 active torsions:
REMARK  status: ('A' for Active; 'I' for Inactive)
REMARK    1  A    between atoms: C1_1  and  C4_4 
REMARK    2  A    between atoms: C4_4  and  C5_5 
ROOT
HETATM    1  C1  UNL     1     -34.111   5.481   4.146  1.00 20.00     0.244 A 
HETATM    2  C3  UNL     1     -34.925   3.961   5.854  1.00 20.00     0.147 C 
HETATM    3  N6  UNL     1     -34.890   5.334   5.364  1.00 20.00    -0.168 NA
HETATM    4  O7  UNL     1     -35.523   5.274   4.061  1.00 20.00    -0.279 OA
ENDROOT
BRANCH   1   5
HETATM    5  C4  UNL     1     -33.656   6.829   3.724  1.00 20.00     0.051 C 
BRANCH   5   6
HETATM    6  C5  UNL     1     -32.270   6.777   3.084  1.00 20.00    -0.001 C 
HETATM    7  C2  UNL     1     -32.015   7.993   2.206  1.00 20.00     0.005 C 
ENDBRANCH   5   6
ENDBRANCH   1   5
TORSDOF 2
ENDMDL
MODEL 4
REMARK VINA RESULT:      -3.8      1.721      3.558
REMARK  2 active torsions:
REMARK  status: ('A' for Active; 'I' for Inactive)
REMARK    1  A    between atoms: C1_1  and  C4_4 
REMARK    2  A    between atoms: C4_4  and  C5_5 
ROOT
HETATM    1  C1  UNL     1     -34.122   6.003   4.136  1.00 20.00     0.244 A 
HETATM    2  C3  UNL     1     -35.180   4.847   5.988  1.00 20.00     0.147 C 
HETATM    3  N6  UNL     1     -33.953   5.064   5.232  1.00 20.00    -0.168 NA
HETATM    4  O7  UNL     1     -33.661   6.474   5.404  1.00 20.00    -0.279 OA
ENDROOT
BRANCH   1   5
HETATM    5  C4  UNL     1     -33.111   6.054   3.050  1.00 20.00     0.051 C 
BRANCH   5   6
HETATM    6  C5  UNL     1     -32.101   7.177   3.279  1.00 20.00    -0.001 C 
HETATM    7  C2  UNL     1     -32.073   8.149   2.110  1.00 20.00     0.005 C 
ENDBRANCH   5   6
ENDBRANCH   1   5
TORSDOF 2
ENDMDL
MODEL 5
REMARK VINA RESULT:      -3.4     11.794     12.002
REMARK  2 active torsions:
REMARK  status: ('A' for Active; 'I' for Inactive)
REMARK    1  A    between atoms: C1_1  and  C4_4 
REMARK    2  A    between atoms: C4_4  and  C5_5 
ROOT
HETATM    1  C1  UNL     1     -34.584  14.723  -3.389  1.00 20.00     0.244 A 
HETATM    2  C3  UNL     1     -34.947  13.467  -5.433  1.00 20.00     0.147 C 
HETATM    3  N6  UNL     1     -33.983  14.155  -4.584  1.00 20.00    -0.168 NA
HETATM    4  O7  UNL     1     -34.003  13.418  -3.335  1.00 20.00    -0.279 OA
ENDROOT
BRANCH   1   5
HETATM    5  C4  UNL     1     -33.851  15.760  -2.620  1.00 20.00     0.051 C 
BRANCH   5   6
HETATM    6  C5  UNL     1     -34.702  16.319  -1.482  1.00 20.00    -0.001 C 
HETATM    7  C2  UNL     1     -33.966  17.408  -0.717  1.00 20.00     0.005 C 
ENDBRANCH   5   6
ENDBRANCH   1   5
TORSDOF 2
ENDMDL
MODEL 6
REMARK VINA RESULT:      -3.3     11.904     12.563
REMARK  2 active torsions:
REMARK  status: ('A' for Active; 'I' for Inactive)
REMARK    1  A    between atoms: C1_1  and  C4_4 
REMARK    2  A    between atoms: C4_4  and  C5_5 
ROOT
HETATM    1  C1  UNL     1     -35.929  14.479  -3.849  1.00 20.00     0.244 A 
HETATM    2  C3  UNL     1     -37.382  16.349  -4.378  1.00 20.00     0.147 C 
HETATM    3  N6  UNL     1     -36.852  15.061  -4.809  1.00 20.00    -0.168 NA
HETATM    4  O7  UNL     1     -37.313  14.122  -3.804  1.00 20.00    -0.279 OA
ENDROOT
BRANCH   1   5
HETATM    5  C4  UNL     1     -35.020  13.386  -4.275  1.00 20.00     0.051 C 
BRANCH   5   6
HETATM    6  C5  UNL     1     -33.581  13.653  -3.840  1.00 20.00    -0.001 C 
HETATM    7  C2  UNL     1     -33.303  15.143  -3.716  1.00 20.00     0.005 C 
ENDBRANCH   5   6
ENDBRANCH   1   5
TORSDOF 2
ENDMDL
MODEL 7
REMARK VINA RESULT:      -3.2      2.128      3.203
REMARK  2 active torsions:
REMARK  status: ('A' for Active; 'I' for Inactive)
REMARK    1  A    between atoms: C1_1  and  C4_4 
REMARK    2  A    between atoms: C4_4  and  C5_5 
ROOT
HETATM    1  C1  UNL     1     -34.040   5.547   5.259  1.00 20.00     0.244 A 
HETATM    2  C3  UNL     1     -33.305   7.190   6.886  1.00 20.00     0.147 C 
HETATM    3  N6  UNL     1     -34.412   6.683   6.085  1.00 20.00    -0.168 NA
HETATM    4  O7  UNL     1     -34.609   5.324   6.551  1.00 20.00    -0.279 OA
ENDROOT
BRANCH   1   5
HETATM    5  C4  UNL     1     -34.908   5.150   4.122  1.00 20.00     0.051 C 
BRANCH   5   6
HETATM    6  C5  UNL     1     -34.241   5.443   2.780  1.00 20.00    -0.001 C 
HETATM    7  C2  UNL     1     -32.887   6.111   2.963  1.00 20.00     0.005 C 
ENDBRANCH   5   6
ENDBRANCH   1   5
TORSDOF 2
ENDMDL
MODEL 8
REMARK VINA RESULT:      -3.2     12.642     13.267
REMARK  2 active torsions:
REMARK  status: ('A' for Active; 'I' for Inactive)
REMARK    1  A    between atoms: C1_1  and  C4_4 
REMARK    2  A    between atoms: C4_4  and  C5_5 
ROOT
HETATM    1  C1  UNL     1     -33.777  16.006  -3.945  1.00 20.00     0.244 A 
HETATM    2  C3  UNL     1     -34.333  15.806  -6.298  1.00 20.00     0.147 C 
HETATM    3  N6  UNL     1     -33.937  16.696  -5.214  1.00 20.00    -0.168 NA
HETATM    4  O7  UNL     1     -32.641  16.202  -4.790  1.00 20.00    -0.279 OA
ENDROOT
BRANCH   1   5
HETATM    5  C4  UNL     1     -33.752  16.787  -2.683  1.00 20.00     0.051 C 
BRANCH   5   6
HETATM    6  C5  UNL     1     -34.699  16.195  -1.640  1.00 20.00    -0.001 C 
HETATM    7  C2  UNL     1     -34.671  16.993  -0.345  1.00 20.00     0.005 C 
ENDBRANCH   5   6
ENDBRANCH   1   5
TORSDOF 2
ENDMDL
MODEL 9
REMARK VINA RESULT:      -3.2     12.037     12.498
REMARK  2 active torsions:
REMARK  status: ('A' for Active; 'I' for Inactive)
REMARK    1  A    between atoms: C1_1  and  C4_4 
REMARK    2  A    between atoms: C4_4  and  C5_5 
ROOT
HETATM    1  C1  UNL     1     -34.246  15.909  -2.659  1.00 20.00     0.244 A 
HETATM    2  C3  UNL     1     -34.661  16.922  -0.494  1.00 20.00     0.147 C 
HETATM    3  N6  UNL     1     -33.732  16.769  -1.607  1.00 20.00    -0.168 NA
HETATM    4  O7  UNL     1     -34.433  17.323  -2.748  1.00 20.00    -0.279 OA
ENDROOT
BRANCH   1   5
HETATM    5  C4  UNL     1     -33.313  15.342  -3.666  1.00 20.00     0.051 C 
BRANCH   5   6
HETATM    6  C5  UNL     1     -33.430  13.821  -3.744  1.00 20.00    -0.001 C 
HETATM    7  C2  UNL     1     -34.810  13.392  -4.218  1.00 20.00     0.005 C 
ENDBRANCH   5   6
ENDBRANCH   1   5
TORSDOF 2
ENDMDL
