MODEL 1
REMARK VINA RESULT:      -4.1      0.000      0.000
REMARK  1 active torsions:
REMARK  status: ('A' for Active; 'I' for Inactive)
REMARK    1  A    between atoms: C3_3  and  C6_6 
ROOT
HETATM    1  C1  UNL     1     -33.998   6.073   6.099  1.00 20.00     0.202 C 
HETATM    2  C2  UNL     1     -34.941   5.207   5.298  1.00 20.00     0.144 C 
HETATM    3  C3  UNL     1     -33.775   6.533   3.890  1.00 20.00     0.260 C 
HETATM    4  C4  UNL     1     -35.058   3.787   5.810  1.00 20.00     0.042 C 
HETATM    5  O7  UNL     1     -33.672   7.127   5.192  1.00 20.00    -0.359 OA
HETATM    6  O8  UNL     1     -34.356   5.226   3.994  1.00 20.00    -0.354 OA
ENDROOT
BRANCH   3   7
HETATM    7  C6  UNL     1     -32.399   6.422   3.263  1.00 20.00     0.056 C 
HETATM    8  C5  UNL     1     -32.013   7.670   2.529  1.00 20.00     0.010 C 
ENDBRANCH   3   7
TORSDOF 1
ENDMDL
MODEL 2
REMARK VINA RESULT:      -4.0      1.125      3.693
REMARK  1 active torsions:
REMARK  status: ('A' for Active; 'I' for Inactive)
REMARK    1  A    between atoms: C3_3  and  C6_6 
ROOT
HETATM    1  C1  UNL     1     -33.106   5.528   2.567  1.00 20.00     0.202 C 
HETATM    2  C2  UNL     1     -33.087   6.864   3.270  1.00 20.00     0.144 C 
HETATM    3  C3  UNL     1     -34.879   5.683   3.972  1.00 20.00     0.260 C 
HETATM    4  C4  UNL     1     -31.703   7.326   3.675  1.00 20.00     0.042 C 
HETATM    5  O7  UNL     1     -34.455   5.088   2.737  1.00 20.00    -0.359 OA
HETATM    6  O8  UNL     1     -33.897   6.627   4.423  1.00 20.00    -0.354 OA
ENDROOT
BRANCH   3   7
HETATM    7  C6  UNL     1     -35.063   4.609   5.026  1.00 20.00     0.056 C 
HETATM    8  C5  UNL     1     -34.606   5.064   6.378  1.00 20.00     0.010 C 
ENDBRANCH   3   7
TORSDOF 1
ENDMDL
MODEL 3
REMARK VINA RESULT:      -3.8      1.209      1.806
REMARK  1 active torsions:
REMARK  status: ('A' for Active; 'I' for Inactive)
REMARK    1  A    between atoms: C3_3  and  C6_6 
ROOT
HETATM    1  C1  UNL     1     -35.214   5.380   3.838  1.00 20.00     0.202 C 
HETATM    2  C2  UNL     1     -34.292   5.037   4.984  1.00 20.00     0.144 C 
HETATM    3  C3  UNL     1     -33.065   5.790   3.244  1.00 20.00     0.260 C 
HETATM    4  C4  UNL     1     -34.832   5.422   6.344  1.00 20.00     0.042 C 
HETATM    5  O7  UNL     1     -34.338   5.404   2.709  1.00 20.00    -0.359 OA
HETATM    6  O8  UNL     1     -33.115   5.788   4.678  1.00 20.00    -0.354 OA
ENDROOT
BRANCH   3   7
HETATM    7  C6  UNL     1     -32.700   7.180   2.758  1.00 20.00     0.056 C 
HETATM    8  C5  UNL     1     -31.509   7.733   3.479  1.00 20.00     0.010 C 
ENDBRANCH   3   7
TORSDOF 1
ENDMDL
MODEL 4
REMARK VINA RESULT:      -3.7     11.776     12.710
REMARK  1 active torsions:
REMARK  status: ('A' for Active; 'I' for Inactive)
REMARK    1  A    between atoms: C3_3  and  C6_6 
ROOT
HETATM    1  C1  UNL     1     -34.249  13.313  -4.886  1.00 20.00     0.202 C 
HETATM    2  C2  UNL     1     -35.268  14.210  -5.546  1.00 20.00     0.144 C 
HETATM    3  C3  UNL     1     -35.030  14.821  -3.385  1.00 20.00     0.260 C 
HETATM    4  C4  UNL     1     -34.915  14.604  -6.964  1.00 20.00     0.042 C 
HETATM    5  O7  UNL     1     -34.512  13.488  -3.493  1.00 20.00    -0.359 OA
HETATM    6  O8  UNL     1     -35.279  15.356  -4.693  1.00 20.00    -0.354 OA
ENDROOT
BRANCH   3   7
HETATM    7  C6  UNL     1     -34.033  15.707  -2.663  1.00 20.00     0.056 C 
HETATM    8  C5  UNL     1     -34.624  16.334  -1.437  1.00 20.00     0.010 C 
ENDBRANCH   3   7
TORSDOF 1
ENDMDL
MODEL 5
REMARK VINA RESULT:      -3.5     11.751     12.667
REMARK  1 active torsions:
REMARK  status: ('A' for Active; 'I' for Inactive)
REMARK    1  A    between atoms: C3_3  and  C6_6 
ROOT
HETATM    1  C1  UNL     1     -34.068  15.426  -5.153  1.00 20.00     0.202 C 
HETATM    2  C2  UNL     1     -34.039  14.193  -4.282  1.00 20.00     0.144 C 
HETATM    3  C3  UNL     1     -33.317  15.966  -3.083  1.00 20.00     0.260 C 
HETATM    4  C4  UNL     1     -35.218  13.266  -4.488  1.00 20.00     0.042 C 
HETATM    5  O7  UNL     1     -33.205  16.333  -4.465  1.00 20.00    -0.359 OA
HETATM    6  O8  UNL     1     -34.051  14.739  -2.962  1.00 20.00    -0.354 OA
ENDROOT
BRANCH   3   7
HETATM    7  C6  UNL     1     -34.035  17.058  -2.315  1.00 20.00     0.056 C 
HETATM    8  C5  UNL     1     -34.619  16.552  -1.031  1.00 20.00     0.010 C 
ENDBRANCH   3   7
TORSDOF 1
ENDMDL
MODEL 6
REMARK VINA RESULT:      -3.5     12.031     12.864
REMARK  1 active torsions:
REMARK  status: ('A' for Active; 'I' for Inactive)
REMARK    1  A    between atoms: C3_3  and  C6_6 
ROOT
HETATM    1  C1  UNL     1     -35.896  15.008  -3.414  1.00 20.00     0.202 C 
HETATM    2  C2  UNL     1     -34.405  14.909  -3.199  1.00 20.00     0.144 C 
HETATM    3  C3  UNL     1     -34.958  13.795  -5.084  1.00 20.00     0.260 C 
HETATM    4  C4  UNL     1     -33.772  16.184  -2.685  1.00 20.00     0.042 C 
HETATM    5  O7  UNL     1     -36.167  13.941  -4.325  1.00 20.00    -0.359 OA
HETATM    6  O8  UNL     1     -33.918  14.595  -4.505  1.00 20.00    -0.354 OA
ENDROOT
BRANCH   3   7
HETATM    7  C6  UNL     1     -35.191  14.234  -6.516  1.00 20.00     0.056 C 
HETATM    8  C5  UNL     1     -34.258  15.332  -6.926  1.00 20.00     0.010 C 
ENDBRANCH   3   7
TORSDOF 1
ENDMDL
MODEL 7
REMARK VINA RESULT:      -3.5      9.466     10.243
REMARK  1 active torsions:
REMARK  status: ('A' for Active; 'I' for Inactive)
REMARK    1  A    between atoms: C3_3  and  C6_6 
ROOT
HETATM    1  C1  UNL     1     -42.020   5.666   0.162  1.00 20.00     0.202 C 
HETATM    2  C2  UNL     1     -41.180   6.503  -0.772  1.00 20.00     0.144 C 
HETATM    3  C3  UNL     1     -41.198   4.366  -1.503  1.00 20.00     0.260 C 
HETATM    4  C4  UNL     1     -41.744   7.881  -1.040  1.00 20.00     0.042 C 
HETATM    5  O7  UNL     1     -41.601   4.331  -0.126  1.00 20.00    -0.359 OA
HETATM    6  O8  UNL     1     -41.167   5.722  -1.969  1.00 20.00    -0.354 OA
ENDROOT
BRANCH   3   7
HETATM    7  C6  UNL     1     -42.173   3.568  -2.347  1.00 20.00     0.056 C 
HETATM    8  C5  UNL     1     -41.477   2.551  -3.199  1.00 20.00     0.010 C 
ENDBRANCH   3   7
TORSDOF 1
ENDMDL
MODEL 8
REMARK VINA RESULT:      -3.4     12.288     13.698
REMARK  1 active torsions:
REMARK  status: ('A' for Active; 'I' for Inactive)
REMARK    1  A    between atoms: C3_3  and  C6_6 
ROOT
HETATM    1  C1  UNL     1     -34.037  17.576  -4.783  1.00 20.00     0.202 C 
HETATM    2  C2  UNL     1     -33.457  16.267  -5.262  1.00 20.00     0.144 C 
HETATM    3  C3  UNL     1     -33.592  16.238  -3.008  1.00 20.00     0.260 C 
HETATM    4  C4  UNL     1     -34.102  15.733  -6.523  1.00 20.00     0.042 C 
HETATM    5  O7  UNL     1     -33.664  17.615  -3.404  1.00 20.00    -0.359 OA
HETATM    6  O8  UNL     1     -33.703  15.391  -4.160  1.00 20.00    -0.354 OA
ENDROOT
BRANCH   3   7
HETATM    7  C6  UNL     1     -34.716  15.919  -2.041  1.00 20.00     0.056 C 
HETATM    8  C5  UNL     1     -34.596  16.694  -0.765  1.00 20.00     0.010 C 
ENDBRANCH   3   7
TORSDOF 1
ENDMDL
MODEL 9
REMARK VINA RESULT:      -3.4     12.318     13.523
REMARK  1 active torsions:
REMARK  status: ('A' for Active; 'I' for Inactive)
REMARK    1  A    between atoms: C3_3  and  C6_6 
ROOT
HETATM    1  C1  UNL     1     -33.883  16.380  -5.928  1.00 20.00     0.202 C 
HETATM    2  C2  UNL     1     -34.337  14.944  -5.827  1.00 20.00     0.144 C 
HETATM    3  C3  UNL     1     -33.198  15.495  -3.957  1.00 20.00     0.260 C 
HETATM    4  C4  UNL     1     -35.728  14.698  -6.372  1.00 20.00     0.042 C 
HETATM    5  O7  UNL     1     -32.842  16.464  -4.953  1.00 20.00    -0.359 OA
HETATM    6  O8  UNL     1     -34.297  14.698  -4.420  1.00 20.00    -0.354 OA
ENDROOT
BRANCH   3   7
HETATM    7  C6  UNL     1     -33.593  16.196  -2.671  1.00 20.00     0.056 C 
HETATM    8  C5  UNL     1     -35.002  15.882  -2.270  1.00 20.00     0.010 C 
ENDBRANCH   3   7
TORSDOF 1
ENDMDL
