MODEL 1
REMARK VINA RESULT:      -5.3      0.000      0.000
REMARK  2 active torsions:
REMARK  status: ('A' for Active; 'I' for Inactive)
REMARK    1  A    between atoms: C2_2  and  C3_3 
REMARK    2  A    between atoms: C3_3  and  O10_10 
ROOT
HETATM    1  C1  UNL     1     -33.679   5.835   4.098  1.00 20.00    -0.074 C 
HETATM    2  C2  UNL     1     -32.965   6.219   3.035  1.00 20.00     0.085 C 
HETATM    3  C4  UNL     1     -34.554   4.615   4.143  1.00 20.00     0.034 C 
HETATM    4  C5  UNL     1     -33.716   6.566   5.411  1.00 20.00     0.034 C 
HETATM    5  C6  UNL     1     -35.355   4.814   5.425  1.00 20.00     0.005 C 
HETATM    6  C7  UNL     1     -34.400   5.568   6.340  1.00 20.00     0.005 C 
ENDROOT
BRANCH   2   7
HETATM    7  C3  UNL     1     -32.137   7.440   3.103  1.00 20.00     0.282 C 
HETATM    8  O9  UNL     1     -31.160   7.593   3.819  1.00 20.00    -0.260 OA
BRANCH   7   9
HETATM    9  O10 UNL     1     -32.663   8.342   2.232  1.00 20.00    -0.323 OA
HETATM   10  C8  UNL     1     -31.831   8.679   1.117  1.00 20.00     0.213 C 
ENDBRANCH   7   9
ENDBRANCH   2   7
TORSDOF 2
ENDMDL
MODEL 2
REMARK VINA RESULT:      -5.0      1.004      1.574
REMARK  2 active torsions:
REMARK  status: ('A' for Active; 'I' for Inactive)
REMARK    1  A    between atoms: C2_2  and  C3_3 
REMARK    2  A    between atoms: C3_3  and  O10_10 
ROOT
HETATM    1  C1  UNL     1     -33.673   6.235   4.746  1.00 20.00    -0.074 C 
HETATM    2  C2  UNL     1     -32.743   7.093   4.313  1.00 20.00     0.085 C 
HETATM    3  C4  UNL     1     -34.146   6.135   6.168  1.00 20.00     0.034 C 
HETATM    4  C5  UNL     1     -34.388   5.240   3.876  1.00 20.00     0.034 C 
HETATM    5  C6  UNL     1     -34.944   4.836   6.175  1.00 20.00     0.005 C 
HETATM    6  C7  UNL     1     -35.525   4.757   4.770  1.00 20.00     0.005 C 
ENDROOT
BRANCH   2   7
HETATM    7  C3  UNL     1     -32.355   7.104   2.888  1.00 20.00     0.282 C 
HETATM    8  O9  UNL     1     -31.960   6.137   2.256  1.00 20.00    -0.260 OA
BRANCH   7   9
HETATM    9  O10 UNL     1     -32.518   8.373   2.427  1.00 20.00    -0.323 OA
HETATM   10  C8  UNL     1     -31.873   8.664   1.183  1.00 20.00     0.213 C 
ENDBRANCH   7   9
ENDBRANCH   2   7
TORSDOF 2
ENDMDL
MODEL 3
REMARK VINA RESULT:      -4.6     11.255     11.940
REMARK  2 active torsions:
REMARK  status: ('A' for Active; 'I' for Inactive)
REMARK    1  A    between atoms: C2_2  and  C3_3 
REMARK    2  A    between atoms: C3_3  and  O10_10 
ROOT
HETATM    1  C1  UNL     1     -34.372  15.465  -3.037  1.00 20.00    -0.074 C 
HETATM    2  C2  UNL     1     -33.706  14.559  -3.761  1.00 20.00     0.085 C 
HETATM    3  C4  UNL     1     -33.737  16.403  -2.050  1.00 20.00     0.034 C 
HETATM    4  C5  UNL     1     -35.857  15.684  -3.100  1.00 20.00     0.034 C 
HETATM    5  C6  UNL     1     -34.934  16.976  -1.302  1.00 20.00     0.005 C 
HETATM    6  C7  UNL     1     -36.042  16.996  -2.345  1.00 20.00     0.005 C 
ENDROOT
BRANCH   2   7
HETATM    7  C3  UNL     1     -34.435  13.687  -4.704  1.00 20.00     0.282 C 
HETATM    8  O9  UNL     1     -35.018  12.657  -4.407  1.00 20.00    -0.260 OA
BRANCH   7   9
HETATM    9  O10 UNL     1     -34.332  14.243  -5.941  1.00 20.00    -0.323 OA
HETATM   10  C8  UNL     1     -35.570  14.434  -6.635  1.00 20.00     0.213 C 
ENDBRANCH   7   9
ENDBRANCH   2   7
TORSDOF 2
ENDMDL
MODEL 4
REMARK VINA RESULT:      -4.2     10.243     11.369
REMARK  2 active torsions:
REMARK  status: ('A' for Active; 'I' for Inactive)
REMARK    1  A    between atoms: C2_2  and  C3_3 
REMARK    2  A    between atoms: C3_3  and  O10_10 
ROOT
HETATM    1  C1  UNL     1     -41.891   5.197  -1.965  1.00 20.00    -0.074 C 
HETATM    2  C2  UNL     1     -42.485   4.377  -2.838  1.00 20.00     0.085 C 
HETATM    3  C4  UNL     1     -42.152   6.673  -1.868  1.00 20.00     0.034 C 
HETATM    4  C5  UNL     1     -40.873   4.768  -0.947  1.00 20.00     0.034 C 
HETATM    5  C6  UNL     1     -41.026   7.162  -0.963  1.00 20.00     0.005 C 
HETATM    6  C7  UNL     1     -40.766   5.984  -0.034  1.00 20.00     0.005 C 
ENDROOT
BRANCH   2   7
HETATM    7  C3  UNL     1     -42.151   2.938  -2.845  1.00 20.00     0.282 C 
HETATM    8  O9  UNL     1     -41.181   2.440  -3.392  1.00 20.00    -0.260 OA
BRANCH   7   9
HETATM    9  O10 UNL     1     -43.115   2.289  -2.136  1.00 20.00    -0.323 OA
HETATM   10  C8  UNL     1     -43.384   0.946  -2.551  1.00 20.00     0.213 C 
ENDBRANCH   7   9
ENDBRANCH   2   7
TORSDOF 2
ENDMDL
MODEL 5
REMARK VINA RESULT:      -4.2     10.934     12.077
REMARK  2 active torsions:
REMARK  status: ('A' for Active; 'I' for Inactive)
REMARK    1  A    between atoms: C2_2  and  C3_3 
REMARK    2  A    between atoms: C3_3  and  O10_10 
ROOT
HETATM    1  C1  UNL     1     -34.380  16.995  -1.091  1.00 20.00    -0.074 C 
HETATM    2  C2  UNL     1     -34.800  16.096  -1.986  1.00 20.00     0.085 C 
HETATM    3  C4  UNL     1     -34.905  17.113   0.312  1.00 20.00     0.034 C 
HETATM    4  C5  UNL     1     -33.319  18.027  -1.350  1.00 20.00     0.034 C 
HETATM    5  C6  UNL     1     -34.339  18.448   0.780  1.00 20.00     0.005 C 
HETATM    6  C7  UNL     1     -33.010  18.560   0.045  1.00 20.00     0.005 C 
ENDROOT
BRANCH   2   7
HETATM    7  C3  UNL     1     -34.212  16.071  -3.341  1.00 20.00     0.282 C 
HETATM    8  O9  UNL     1     -34.582  16.751  -4.284  1.00 20.00    -0.260 OA
BRANCH   7   9
HETATM    9  O10 UNL     1     -33.199  15.163  -3.332  1.00 20.00    -0.323 OA
HETATM   10  C8  UNL     1     -33.540  13.857  -3.807  1.00 20.00     0.213 C 
ENDBRANCH   7   9
ENDBRANCH   2   7
TORSDOF 2
ENDMDL
MODEL 6
REMARK VINA RESULT:      -4.2     11.416     12.269
REMARK  2 active torsions:
REMARK  status: ('A' for Active; 'I' for Inactive)
REMARK    1  A    between atoms: C2_2  and  C3_3 
REMARK    2  A    between atoms: C3_3  and  O10_10 
ROOT
HETATM    1  C1  UNL     1     -34.358  17.133  -0.747  1.00 20.00    -0.074 C 
HETATM    2  C2  UNL     1     -34.734  16.245  -1.674  1.00 20.00     0.085 C 
HETATM    3  C4  UNL     1     -35.027  17.311   0.585  1.00 20.00     0.034 C 
HETATM    4  C5  UNL     1     -33.207  18.088  -0.897  1.00 20.00     0.034 C 
HETATM    5  C6  UNL     1     -34.429  18.615   1.099  1.00 20.00     0.005 C 
HETATM    6  C7  UNL     1     -33.022  18.626   0.517  1.00 20.00     0.005 C 
ENDROOT
BRANCH   2   7
HETATM    7  C3  UNL     1     -34.001  16.157  -2.953  1.00 20.00     0.282 C 
HETATM    8  O9  UNL     1     -33.059  15.414  -3.178  1.00 20.00    -0.260 OA
BRANCH   7   9
HETATM    9  O10 UNL     1     -34.567  17.046  -3.814  1.00 20.00    -0.323 OA
HETATM   10  C8  UNL     1     -33.656  17.733  -4.677  1.00 20.00     0.213 C 
ENDBRANCH   7   9
ENDBRANCH   2   7
TORSDOF 2
ENDMDL
MODEL 7
REMARK VINA RESULT:      -4.2     11.107     11.813
REMARK  2 active torsions:
REMARK  status: ('A' for Active; 'I' for Inactive)
REMARK    1  A    between atoms: C2_2  and  C3_3 
REMARK    2  A    between atoms: C3_3  and  O10_10 
ROOT
HETATM    1  C1  UNL     1     -34.218  15.235  -3.132  1.00 20.00    -0.074 C 
HETATM    2  C2  UNL     1     -33.740  16.184  -2.321  1.00 20.00     0.085 C 
HETATM    3  C4  UNL     1     -33.369  14.267  -3.905  1.00 20.00     0.034 C 
HETATM    4  C5  UNL     1     -35.677  14.992  -3.396  1.00 20.00     0.034 C 
HETATM    5  C6  UNL     1     -34.362  13.639  -4.877  1.00 20.00     0.005 C 
HETATM    6  C7  UNL     1     -35.677  13.645  -4.110  1.00 20.00     0.005 C 
ENDROOT
BRANCH   2   7
HETATM    7  C3  UNL     1     -34.670  17.084  -1.609  1.00 20.00     0.282 C 
HETATM    8  O9  UNL     1     -35.208  18.069  -2.090  1.00 20.00    -0.260 OA
BRANCH   7   9
HETATM    9  O10 UNL     1     -34.808  16.613  -0.340  1.00 20.00    -0.323 OA
HETATM   10  C8  UNL     1     -35.172  17.588   0.642  1.00 20.00     0.213 C 
ENDBRANCH   7   9
ENDBRANCH   2   7
TORSDOF 2
ENDMDL
MODEL 8
REMARK VINA RESULT:      -4.1     11.034     12.395
REMARK  2 active torsions:
REMARK  status: ('A' for Active; 'I' for Inactive)
REMARK    1  A    between atoms: C2_2  and  C3_3 
REMARK    2  A    between atoms: C3_3  and  O10_10 
ROOT
HETATM    1  C1  UNL     1     -35.174  15.106  -3.563  1.00 20.00    -0.074 C 
HETATM    2  C2  UNL     1     -36.400  15.637  -3.499  1.00 20.00     0.085 C 
HETATM    3  C4  UNL     1     -33.955  15.693  -2.910  1.00 20.00     0.034 C 
HETATM    4  C5  UNL     1     -34.828  13.843  -4.299  1.00 20.00     0.034 C 
HETATM    5  C6  UNL     1     -32.814  14.902  -3.539  1.00 20.00     0.005 C 
HETATM    6  C7  UNL     1     -33.421  13.530  -3.801  1.00 20.00     0.005 C 
ENDROOT
BRANCH   2   7
HETATM    7  C3  UNL     1     -37.529  14.973  -4.183  1.00 20.00     0.282 C 
HETATM    8  O9  UNL     1     -38.261  14.133  -3.685  1.00 20.00    -0.260 OA
BRANCH   7   9
HETATM    9  O10 UNL     1     -37.592  15.469  -5.448  1.00 20.00    -0.323 OA
HETATM   10  C8  UNL     1     -37.734  16.890  -5.545  1.00 20.00     0.213 C 
ENDBRANCH   7   9
ENDBRANCH   2   7
TORSDOF 2
ENDMDL
MODEL 9
REMARK VINA RESULT:      -4.1     11.179     12.079
REMARK  2 active torsions:
REMARK  status: ('A' for Active; 'I' for Inactive)
REMARK    1  A    between atoms: C2_2  and  C3_3 
REMARK    2  A    between atoms: C3_3  and  O10_10 
ROOT
HETATM    1  C1  UNL     1     -33.914  16.974  -2.068  1.00 20.00    -0.074 C 
HETATM    2  C2  UNL     1     -33.721  16.465  -3.289  1.00 20.00     0.085 C 
HETATM    3  C4  UNL     1     -33.313  18.260  -1.576  1.00 20.00     0.034 C 
HETATM    4  C5  UNL     1     -34.759  16.339  -1.001  1.00 20.00     0.034 C 
HETATM    5  C6  UNL     1     -33.581  18.213  -0.076  1.00 20.00     0.005 C 
HETATM    6  C7  UNL     1     -34.893  17.448   0.037  1.00 20.00     0.005 C 
ENDROOT
BRANCH   2   7
HETATM    7  C3  UNL     1     -34.363  15.189  -3.666  1.00 20.00     0.282 C 
HETATM    8  O9  UNL     1     -33.899  14.077  -3.465  1.00 20.00    -0.260 OA
BRANCH   7   9
HETATM    9  O10 UNL     1     -35.546  15.486  -4.268  1.00 20.00    -0.323 OA
HETATM   10  C8  UNL     1     -36.637  14.618  -3.944  1.00 20.00     0.213 C 
ENDBRANCH   7   9
ENDBRANCH   2   7
TORSDOF 2
ENDMDL
