MODEL 1
REMARK VINA RESULT:      -4.1      0.000      0.000
REMARK  1 active torsions:
REMARK  status: ('A' for Active; 'I' for Inactive)
REMARK    1  A    between atoms: C7_7  and  O9_9 
ROOT
HETATM    1  C1  UNL     1     -33.461  15.091  -3.615  1.00 20.00    -0.023 C 
HETATM    2  C2  UNL     1     -33.938  15.968  -4.513  1.00 20.00    -0.023 C 
HETATM    3  C3  UNL     1     -34.423  13.170  -4.824  1.00 20.00     0.012 C 
HETATM    4  C4  UNL     1     -34.974  14.186  -5.864  1.00 20.00     0.012 C 
HETATM    5  C5  UNL     1     -34.473  13.974  -3.504  1.00 20.00     0.037 C 
HETATM    6  C6  UNL     1     -35.266  15.433  -4.997  1.00 20.00     0.037 C 
HETATM    7  C7  UNL     1     -35.751  14.805  -3.683  1.00 20.00     0.136 C 
ENDROOT
BRANCH   7   8
HETATM    8  O9  UNL     1     -36.910  14.011  -3.828  1.00 20.00    -0.389 OA
HETATM    9  C8  UNL     1     -38.088  14.805  -3.919  1.00 20.00     0.202 C 
ENDBRANCH   7   8
TORSDOF 1
ENDMDL
MODEL 2
REMARK VINA RESULT:      -3.9      1.672      3.039
REMARK  1 active torsions:
REMARK  status: ('A' for Active; 'I' for Inactive)
REMARK    1  A    between atoms: C7_7  and  O9_9 
ROOT
HETATM    1  C1  UNL     1     -33.538  13.716  -3.811  1.00 20.00    -0.023 C 
HETATM    2  C2  UNL     1     -34.687  13.370  -4.413  1.00 20.00    -0.023 C 
HETATM    3  C3  UNL     1     -34.612  15.571  -2.593  1.00 20.00     0.012 C 
HETATM    4  C4  UNL     1     -35.943  15.168  -3.288  1.00 20.00     0.012 C 
HETATM    5  C5  UNL     1     -33.551  15.220  -3.661  1.00 20.00     0.037 C 
HETATM    6  C6  UNL     1     -35.462  14.644  -4.661  1.00 20.00     0.037 C 
HETATM    7  C7  UNL     1     -34.279  15.573  -4.965  1.00 20.00     0.136 C 
ENDROOT
BRANCH   7   8
HETATM    8  O9  UNL     1     -34.636  16.938  -5.045  1.00 20.00    -0.389 OA
HETATM    9  C8  UNL     1     -33.526  17.756  -5.398  1.00 20.00     0.202 C 
ENDBRANCH   7   8
TORSDOF 1
ENDMDL
MODEL 3
REMARK VINA RESULT:      -3.9      1.840      2.888
REMARK  1 active torsions:
REMARK  status: ('A' for Active; 'I' for Inactive)
REMARK    1  A    between atoms: C7_7  and  O9_9 
ROOT
HETATM    1  C1  UNL     1     -34.789  13.533  -4.116  1.00 20.00    -0.023 C 
HETATM    2  C2  UNL     1     -33.475  13.696  -3.897  1.00 20.00    -0.023 C 
HETATM    3  C3  UNL     1     -35.048  15.847  -4.926  1.00 20.00     0.012 C 
HETATM    4  C4  UNL     1     -33.526  16.034  -4.674  1.00 20.00     0.012 C 
HETATM    5  C5  UNL     1     -35.457  14.855  -3.813  1.00 20.00     0.037 C 
HETATM    6  C6  UNL     1     -33.271  15.126  -3.449  1.00 20.00     0.037 C 
HETATM    7  C7  UNL     1     -34.566  15.298  -2.645  1.00 20.00     0.136 C 
ENDROOT
BRANCH   7   8
HETATM    8  O9  UNL     1     -34.809  16.630  -2.241  1.00 20.00    -0.389 OA
HETATM    9  C8  UNL     1     -34.617  16.802  -0.840  1.00 20.00     0.202 C 
ENDBRANCH   7   8
TORSDOF 1
ENDMDL
MODEL 4
REMARK VINA RESULT:      -3.9      1.771      2.690
REMARK  1 active torsions:
REMARK  status: ('A' for Active; 'I' for Inactive)
REMARK    1  A    between atoms: C7_7  and  O9_9 
ROOT
HETATM    1  C1  UNL     1     -35.662  15.398  -3.009  1.00 20.00    -0.023 C 
HETATM    2  C2  UNL     1     -34.397  15.686  -2.664  1.00 20.00    -0.023 C 
HETATM    3  C3  UNL     1     -34.979  13.370  -4.233  1.00 20.00     0.012 C 
HETATM    4  C4  UNL     1     -33.515  13.703  -3.833  1.00 20.00     0.012 C 
HETATM    5  C5  UNL     1     -35.617  14.772  -4.383  1.00 20.00     0.037 C 
HETATM    6  C6  UNL     1     -33.513  15.249  -3.810  1.00 20.00     0.037 C 
HETATM    7  C7  UNL     1     -34.459  15.590  -4.969  1.00 20.00     0.136 C 
ENDROOT
BRANCH   7   8
HETATM    8  O9  UNL     1     -34.018  15.105  -6.221  1.00 20.00    -0.389 OA
HETATM    9  C8  UNL     1     -34.840  15.569  -7.287  1.00 20.00     0.202 C 
ENDBRANCH   7   8
TORSDOF 1
ENDMDL
MODEL 5
REMARK VINA RESULT:      -3.8      0.898      1.830
REMARK  1 active torsions:
REMARK  status: ('A' for Active; 'I' for Inactive)
REMARK    1  A    between atoms: C7_7  and  O9_9 
ROOT
HETATM    1  C1  UNL     1     -34.555  15.951  -5.454  1.00 20.00    -0.023 C 
HETATM    2  C2  UNL     1     -34.395  14.730  -5.986  1.00 20.00    -0.023 C 
HETATM    3  C3  UNL     1     -34.665  15.053  -3.160  1.00 20.00     0.012 C 
HETATM    4  C4  UNL     1     -34.478  13.639  -3.777  1.00 20.00     0.012 C 
HETATM    5  C5  UNL     1     -35.463  15.798  -4.255  1.00 20.00     0.037 C 
HETATM    6  C6  UNL     1     -35.197  13.767  -5.140  1.00 20.00     0.037 C 
HETATM    7  C7  UNL     1     -36.374  14.690  -4.799  1.00 20.00     0.136 C 
ENDROOT
BRANCH   7   8
HETATM    8  O9  UNL     1     -37.244  14.161  -3.819  1.00 20.00    -0.389 OA
HETATM    9  C8  UNL     1     -38.517  14.797  -3.843  1.00 20.00     0.202 C 
ENDBRANCH   7   8
TORSDOF 1
ENDMDL
MODEL 6
REMARK VINA RESULT:      -3.8     10.915     12.312
REMARK  1 active torsions:
REMARK  status: ('A' for Active; 'I' for Inactive)
REMARK    1  A    between atoms: C7_7  and  O9_9 
ROOT
HETATM    1  C1  UNL     1     -41.094   6.835  -1.162  1.00 20.00    -0.023 C 
HETATM    2  C2  UNL     1     -40.666   6.146  -0.092  1.00 20.00    -0.023 C 
HETATM    3  C3  UNL     1     -43.360   5.876  -1.006  1.00 20.00     0.012 C 
HETATM    4  C4  UNL     1     -42.864   5.080   0.234  1.00 20.00     0.012 C 
HETATM    5  C5  UNL     1     -42.090   5.959  -1.885  1.00 20.00     0.037 C 
HETATM    6  C6  UNL     1     -41.380   4.813  -0.106  1.00 20.00     0.037 C 
HETATM    7  C7  UNL     1     -41.430   4.599  -1.625  1.00 20.00     0.136 C 
ENDROOT
BRANCH   7   8
HETATM    8  O9  UNL     1     -42.239   3.508  -2.016  1.00 20.00    -0.389 OA
HETATM    9  C8  UNL     1     -41.624   2.733  -3.040  1.00 20.00     0.202 C 
ENDBRANCH   7   8
TORSDOF 1
ENDMDL
MODEL 7
REMARK VINA RESULT:      -3.8      1.720      2.504
REMARK  1 active torsions:
REMARK  status: ('A' for Active; 'I' for Inactive)
REMARK    1  A    between atoms: C7_7  and  O9_9 
ROOT
HETATM    1  C1  UNL     1     -33.671  15.879  -5.337  1.00 20.00    -0.023 C 
HETATM    2  C2  UNL     1     -34.954  15.528  -5.515  1.00 20.00    -0.023 C 
HETATM    3  C3  UNL     1     -33.286  14.056  -3.723  1.00 20.00     0.012 C 
HETATM    4  C4  UNL     1     -34.772  13.650  -3.930  1.00 20.00     0.012 C 
HETATM    5  C5  UNL     1     -33.328  15.593  -3.893  1.00 20.00     0.037 C 
HETATM    6  C6  UNL     1     -35.462  15.009  -4.190  1.00 20.00     0.037 C 
HETATM    7  C7  UNL     1     -34.680  15.949  -3.263  1.00 20.00     0.136 C 
ENDROOT
BRANCH   7   8
HETATM    8  O9  UNL     1     -34.762  15.596  -1.897  1.00 20.00    -0.389 OA
HETATM    9  C8  UNL     1     -34.500  16.708  -1.046  1.00 20.00     0.202 C 
ENDBRANCH   7   8
TORSDOF 1
ENDMDL
MODEL 8
REMARK VINA RESULT:      -3.7     10.778     12.073
REMARK  1 active torsions:
REMARK  status: ('A' for Active; 'I' for Inactive)
REMARK    1  A    between atoms: C7_7  and  O9_9 
ROOT
HETATM    1  C1  UNL     1     -42.856   4.283   0.207  1.00 20.00    -0.023 C 
HETATM    2  C2  UNL     1     -42.853   5.553   0.644  1.00 20.00    -0.023 C 
HETATM    3  C3  UNL     1     -40.742   4.590  -1.023  1.00 20.00     0.012 C 
HETATM    4  C4  UNL     1     -40.738   6.059  -0.516  1.00 20.00     0.012 C 
HETATM    5  C5  UNL     1     -42.250   4.288  -1.177  1.00 20.00     0.037 C 
HETATM    6  C6  UNL     1     -42.245   6.399  -0.451  1.00 20.00     0.037 C 
HETATM    7  C7  UNL     1     -42.799   5.636  -1.662  1.00 20.00     0.136 C 
ENDROOT
BRANCH   7   8
HETATM    8  O9  UNL     1     -42.243   6.048  -2.894  1.00 20.00    -0.389 OA
HETATM    9  C8  UNL     1     -42.857   7.236  -3.381  1.00 20.00     0.202 C 
ENDBRANCH   7   8
TORSDOF 1
ENDMDL
MODEL 9
REMARK VINA RESULT:      -3.7      1.349      2.572
REMARK  1 active torsions:
REMARK  status: ('A' for Active; 'I' for Inactive)
REMARK    1  A    between atoms: C7_7  and  O9_9 
ROOT
HETATM    1  C1  UNL     1     -34.795  14.203  -5.738  1.00 20.00    -0.023 C 
HETATM    2  C2  UNL     1     -34.425  13.297  -4.819  1.00 20.00    -0.023 C 
HETATM    3  C3  UNL     1     -33.420  15.969  -4.704  1.00 20.00     0.012 C 
HETATM    4  C4  UNL     1     -32.991  14.919  -3.640  1.00 20.00     0.012 C 
HETATM    5  C5  UNL     1     -34.868  15.541  -5.039  1.00 20.00     0.037 C 
HETATM    6  C6  UNL     1     -34.252  14.034  -3.510  1.00 20.00     0.037 C 
HETATM    7  C7  UNL     1     -35.383  15.058  -3.676  1.00 20.00     0.136 C 
ENDROOT
BRANCH   7   8
HETATM    8  O9  UNL     1     -35.377  16.073  -2.693  1.00 20.00    -0.389 OA
HETATM    9  C8  UNL     1     -36.459  16.983  -2.866  1.00 20.00     0.202 C 
ENDBRANCH   7   8
TORSDOF 1
ENDMDL
