MODEL 1
REMARK VINA RESULT:      -4.5      0.000      0.000
REMARK  5 active torsions:
REMARK  status: ('A' for Active; 'I' for Inactive)
REMARK    1  A    between atoms: C1_1  and  C6_6 
REMARK    2  A    between atoms: C1_1  and  S11_11 
REMARK    3  A    between atoms: C6_6  and  C8_8 
REMARK    4  A    between atoms: C7_7  and  C9_9 
REMARK    5  A    between atoms: C9_9  and  S11_11 
ROOT
HETATM    1  C1  UNL     1     -32.507   6.518   3.252  1.00 20.00     0.186 C 
HETATM    2  O10 UNL     1     -31.984   5.456   2.937  1.00 20.00    -0.285 OA
ENDROOT
BRANCH   1   3
HETATM    3  C6  UNL     1     -31.887   7.881   3.004  1.00 20.00     0.094 C 
BRANCH   3   4
HETATM    4  C8  UNL     1     -32.446   8.580   1.754  1.00 20.00    -0.015 C 
HETATM    5  C3  UNL     1     -32.752  10.047   2.066  1.00 20.00     0.010 C 
HETATM    6  C4  UNL     1     -31.466   8.496   0.581  1.00 20.00     0.010 C 
ENDBRANCH   3   4
ENDBRANCH   1   3
BRANCH   1   7
HETATM    7  S11 UNL     1     -34.106   6.604   4.000  1.00 20.00    -0.088 SA
BRANCH   7   8
HETATM    8  C9  UNL     1     -33.725   6.013   5.663  1.00 20.00     0.051 C 
HETATM    9  C5  UNL     1     -33.656   7.213   6.604  1.00 20.00     0.022 C 
BRANCH   8  10
HETATM   10  C7  UNL     1     -34.759   4.990   6.158  1.00 20.00     0.011 C 
HETATM   11  C2  UNL     1     -35.113   3.924   5.129  1.00 20.00     0.006 C 
ENDBRANCH   8  10
ENDBRANCH   7   8
ENDBRANCH   1   7
TORSDOF 5
ENDMDL
MODEL 2
REMARK VINA RESULT:      -4.3      1.460      4.913
REMARK  5 active torsions:
REMARK  status: ('A' for Active; 'I' for Inactive)
REMARK    1  A    between atoms: C1_1  and  C6_6 
REMARK    2  A    between atoms: C1_1  and  S11_11 
REMARK    3  A    between atoms: C6_6  and  C8_8 
REMARK    4  A    between atoms: C7_7  and  C9_9 
REMARK    5  A    between atoms: C9_9  and  S11_11 
ROOT
HETATM    1  C1  UNL     1     -33.998   5.548   2.950  1.00 20.00     0.186 C 
HETATM    2  O10 UNL     1     -34.555   4.937   2.047  1.00 20.00    -0.285 OA
ENDROOT
BRANCH   1   3
HETATM    3  C6  UNL     1     -34.706   6.088   4.179  1.00 20.00     0.094 C 
BRANCH   3   4
HETATM    4  C8  UNL     1     -34.161   5.508   5.494  1.00 20.00    -0.015 C 
HETATM    5  C3  UNL     1     -34.002   6.620   6.533  1.00 20.00     0.010 C 
HETATM    6  C4  UNL     1     -35.080   4.414   6.046  1.00 20.00     0.010 C 
ENDBRANCH   3   4
ENDBRANCH   1   3
BRANCH   1   7
HETATM    7  S11 UNL     1     -32.254   5.839   2.965  1.00 20.00    -0.088 SA
BRANCH   7   8
HETATM    8  C9  UNL     1     -32.220   7.642   3.026  1.00 20.00     0.051 C 
HETATM    9  C5  UNL     1     -31.204   8.077   4.080  1.00 20.00     0.022 C 
BRANCH   8  10
HETATM   10  C7  UNL     1     -31.884   8.255   1.658  1.00 20.00     0.011 C 
HETATM   11  C2  UNL     1     -32.439   9.659   1.457  1.00 20.00     0.006 C 
ENDBRANCH   8  10
ENDBRANCH   7   8
ENDBRANCH   1   7
TORSDOF 5
ENDMDL
MODEL 3
REMARK VINA RESULT:      -4.2     10.855     12.557
REMARK  5 active torsions:
REMARK  status: ('A' for Active; 'I' for Inactive)
REMARK    1  A    between atoms: C1_1  and  C6_6 
REMARK    2  A    between atoms: C1_1  and  S11_11 
REMARK    3  A    between atoms: C6_6  and  C8_8 
REMARK    4  A    between atoms: C7_7  and  C9_9 
REMARK    5  A    between atoms: C9_9  and  S11_11 
ROOT
HETATM    1  C1  UNL     1     -35.205  13.867  -3.955  1.00 20.00     0.186 C 
HETATM    2  O10 UNL     1     -35.030  12.729  -4.372  1.00 20.00    -0.285 OA
ENDROOT
BRANCH   1   3
HETATM    3  C6  UNL     1     -34.162  14.668  -3.197  1.00 20.00     0.094 C 
BRANCH   3   4
HETATM    4  C8  UNL     1     -34.616  16.101  -2.876  1.00 20.00    -0.015 C 
HETATM    5  C3  UNL     1     -34.613  16.326  -1.362  1.00 20.00     0.010 C 
HETATM    6  C4  UNL     1     -33.717  17.138  -3.553  1.00 20.00     0.010 C 
ENDBRANCH   3   4
ENDBRANCH   1   3
BRANCH   1   7
HETATM    7  S11 UNL     1     -36.705  14.761  -4.234  1.00 20.00    -0.088 SA
BRANCH   7   8
HETATM    8  C9  UNL     1     -36.660  14.928  -6.031  1.00 20.00     0.051 C 
HETATM    9  C5  UNL     1     -37.988  15.518  -6.500  1.00 20.00     0.022 C 
BRANCH   8  10
HETATM   10  C7  UNL     1     -35.482  15.798  -6.495  1.00 20.00     0.011 C 
HETATM   11  C2  UNL     1     -34.445  15.043  -7.319  1.00 20.00     0.006 C 
ENDBRANCH   8  10
ENDBRANCH   7   8
ENDBRANCH   1   7
TORSDOF 5
ENDMDL
MODEL 4
REMARK VINA RESULT:      -4.2     11.025     12.245
REMARK  5 active torsions:
REMARK  status: ('A' for Active; 'I' for Inactive)
REMARK    1  A    between atoms: C1_1  and  C6_6 
REMARK    2  A    between atoms: C1_1  and  S11_11 
REMARK    3  A    between atoms: C6_6  and  C8_8 
REMARK    4  A    between atoms: C7_7  and  C9_9 
REMARK    5  A    between atoms: C9_9  and  S11_11 
ROOT
HETATM    1  C1  UNL     1     -35.183  13.708  -4.767  1.00 20.00     0.186 C 
HETATM    2  O10 UNL     1     -34.816  12.628  -4.321  1.00 20.00    -0.285 OA
ENDROOT
BRANCH   1   3
HETATM    3  C6  UNL     1     -35.159  14.076  -6.240  1.00 20.00     0.094 C 
BRANCH   3   4
HETATM    4  C8  UNL     1     -35.692  15.491  -6.517  1.00 20.00    -0.015 C 
HETATM    5  C3  UNL     1     -34.594  16.352  -7.146  1.00 20.00     0.010 C 
HETATM    6  C4  UNL     1     -36.913  15.457  -7.440  1.00 20.00     0.010 C 
ENDBRANCH   3   4
ENDBRANCH   1   3
BRANCH   1   7
HETATM    7  S11 UNL     1     -35.854  14.981  -3.740  1.00 20.00    -0.088 SA
BRANCH   7   8
HETATM    8  C9  UNL     1     -34.418  15.368  -2.716  1.00 20.00     0.051 C 
HETATM    9  C5  UNL     1     -33.341  15.992  -3.601  1.00 20.00     0.022 C 
BRANCH   8  10
HETATM   10  C7  UNL     1     -34.781  16.305  -1.554  1.00 20.00     0.011 C 
HETATM   11  C2  UNL     1     -33.702  17.332  -1.230  1.00 20.00     0.006 C 
ENDBRANCH   8  10
ENDBRANCH   7   8
ENDBRANCH   1   7
TORSDOF 5
ENDMDL
MODEL 5
REMARK VINA RESULT:      -4.1     10.695     12.351
REMARK  5 active torsions:
REMARK  status: ('A' for Active; 'I' for Inactive)
REMARK    1  A    between atoms: C1_1  and  C6_6 
REMARK    2  A    between atoms: C1_1  and  S11_11 
REMARK    3  A    between atoms: C6_6  and  C8_8 
REMARK    4  A    between atoms: C7_7  and  C9_9 
REMARK    5  A    between atoms: C9_9  and  S11_11 
ROOT
HETATM    1  C1  UNL     1     -34.092  13.859  -3.809  1.00 20.00     0.186 C 
HETATM    2  O10 UNL     1     -33.007  13.394  -3.485  1.00 20.00    -0.285 OA
ENDROOT
BRANCH   1   3
HETATM    3  C6  UNL     1     -34.832  14.927  -3.025  1.00 20.00     0.094 C 
BRANCH   3   4
HETATM    4  C8  UNL     1     -33.907  16.029  -2.483  1.00 20.00    -0.015 C 
HETATM    5  C3  UNL     1     -33.737  17.134  -3.529  1.00 20.00     0.010 C 
HETATM    6  C4  UNL     1     -34.451  16.627  -1.184  1.00 20.00     0.010 C 
ENDBRANCH   3   4
ENDBRANCH   1   3
BRANCH   1   7
HETATM    7  S11 UNL     1     -34.927  13.376  -5.291  1.00 20.00    -0.088 SA
BRANCH   7   8
HETATM    8  C9  UNL     1     -35.250  14.991  -6.030  1.00 20.00     0.051 C 
HETATM    9  C5  UNL     1     -34.410  15.125  -7.298  1.00 20.00     0.022 C 
BRANCH   8  10
HETATM   10  C7  UNL     1     -36.741  15.192  -6.338  1.00 20.00     0.011 C 
HETATM   11  C2  UNL     1     -37.467  16.073  -5.328  1.00 20.00     0.006 C 
ENDBRANCH   8  10
ENDBRANCH   7   8
ENDBRANCH   1   7
TORSDOF 5
ENDMDL
MODEL 6
REMARK VINA RESULT:      -4.1     11.042     12.576
REMARK  5 active torsions:
REMARK  status: ('A' for Active; 'I' for Inactive)
REMARK    1  A    between atoms: C1_1  and  C6_6 
REMARK    2  A    between atoms: C1_1  and  S11_11 
REMARK    3  A    between atoms: C6_6  and  C8_8 
REMARK    4  A    between atoms: C7_7  and  C9_9 
REMARK    5  A    between atoms: C9_9  and  S11_11 
ROOT
HETATM    1  C1  UNL     1     -34.809  13.651  -4.634  1.00 20.00     0.186 C 
HETATM    2  O10 UNL     1     -34.812  12.440  -4.815  1.00 20.00    -0.285 OA
ENDROOT
BRANCH   1   3
HETATM    3  C6  UNL     1     -35.857  14.600  -5.187  1.00 20.00     0.094 C 
BRANCH   3   4
HETATM    4  C8  UNL     1     -35.818  14.716  -6.720  1.00 20.00    -0.015 C 
HETATM    5  C3  UNL     1     -36.826  15.765  -7.193  1.00 20.00     0.010 C 
HETATM    6  C4  UNL     1     -34.417  15.084  -7.216  1.00 20.00     0.010 C 
ENDBRANCH   3   4
ENDBRANCH   1   3
BRANCH   1   7
HETATM    7  S11 UNL     1     -33.591  14.459  -3.639  1.00 20.00    -0.088 SA
BRANCH   7   8
HETATM    8  C9  UNL     1     -34.414  16.034  -3.322  1.00 20.00     0.051 C 
HETATM    9  C5  UNL     1     -34.581  16.204  -1.814  1.00 20.00     0.022 C 
BRANCH   8  10
HETATM   10  C7  UNL     1     -33.639  17.216  -3.923  1.00 20.00     0.011 C 
HETATM   11  C2  UNL     1     -34.460  18.070  -4.882  1.00 20.00     0.006 C 
ENDBRANCH   8  10
ENDBRANCH   7   8
ENDBRANCH   1   7
TORSDOF 5
ENDMDL
MODEL 7
REMARK VINA RESULT:      -4.1     11.088     12.949
REMARK  5 active torsions:
REMARK  status: ('A' for Active; 'I' for Inactive)
REMARK    1  A    between atoms: C1_1  and  C6_6 
REMARK    2  A    between atoms: C1_1  and  S11_11 
REMARK    3  A    between atoms: C6_6  and  C8_8 
REMARK    4  A    between atoms: C7_7  and  C9_9 
REMARK    5  A    between atoms: C9_9  and  S11_11 
ROOT
HETATM    1  C1  UNL     1     -35.142  13.732  -4.874  1.00 20.00     0.186 C 
HETATM    2  O10 UNL     1     -34.855  12.571  -4.612  1.00 20.00    -0.285 OA
ENDROOT
BRANCH   1   3
HETATM    3  C6  UNL     1     -35.481  14.784  -3.834  1.00 20.00     0.094 C 
BRANCH   3   4
HETATM    4  C8  UNL     1     -34.328  15.059  -2.855  1.00 20.00    -0.015 C 
HETATM    5  C3  UNL     1     -33.055  15.410  -3.629  1.00 20.00     0.010 C 
HETATM    6  C4  UNL     1     -34.674  16.196  -1.889  1.00 20.00     0.010 C 
ENDBRANCH   3   4
ENDBRANCH   1   3
BRANCH   1   7
HETATM    7  S11 UNL     1     -35.145  14.359  -6.528  1.00 20.00    -0.088 SA
BRANCH   7   8
HETATM    8  C9  UNL     1     -35.658  16.064  -6.234  1.00 20.00     0.051 C 
HETATM    9  C5  UNL     1     -34.575  16.999  -6.767  1.00 20.00     0.022 C 
BRANCH   8  10
HETATM   10  C7  UNL     1     -37.015  16.373  -6.885  1.00 20.00     0.011 C 
HETATM   11  C2  UNL     1     -37.663  15.172  -7.561  1.00 20.00     0.006 C 
ENDBRANCH   8  10
ENDBRANCH   7   8
ENDBRANCH   1   7
TORSDOF 5
ENDMDL
MODEL 8
REMARK VINA RESULT:      -4.0      1.457      1.882
REMARK  5 active torsions:
REMARK  status: ('A' for Active; 'I' for Inactive)
REMARK    1  A    between atoms: C1_1  and  C6_6 
REMARK    2  A    between atoms: C1_1  and  S11_11 
REMARK    3  A    between atoms: C6_6  and  C8_8 
REMARK    4  A    between atoms: C7_7  and  C9_9 
REMARK    5  A    between atoms: C9_9  and  S11_11 
ROOT
HETATM    1  C1  UNL     1     -31.777   7.455   3.262  1.00 20.00     0.186 C 
HETATM    2  O10 UNL     1     -31.372   7.959   4.302  1.00 20.00    -0.285 OA
ENDROOT
BRANCH   1   3
HETATM    3  C6  UNL     1     -31.547   8.044   1.882  1.00 20.00     0.094 C 
BRANCH   3   4
HETATM    4  C8  UNL     1     -32.722   8.906   1.390  1.00 20.00    -0.015 C 
HETATM    5  C3  UNL     1     -32.698  10.270   2.082  1.00 20.00     0.010 C 
HETATM    6  C4  UNL     1     -32.676   9.097  -0.129  1.00 20.00     0.010 C 
ENDBRANCH   3   4
ENDBRANCH   1   3
BRANCH   1   7
HETATM    7  S11 UNL     1     -32.652   5.919   3.229  1.00 20.00    -0.088 SA
BRANCH   7   8
HETATM    8  C9  UNL     1     -34.141   6.366   4.146  1.00 20.00     0.051 C 
HETATM    9  C5  UNL     1     -35.308   5.536   3.617  1.00 20.00     0.022 C 
BRANCH   8  10
HETATM   10  C7  UNL     1     -33.965   6.161   5.658  1.00 20.00     0.011 C 
HETATM   11  C2  UNL     1     -34.754   4.984   6.217  1.00 20.00     0.006 C 
ENDBRANCH   8  10
ENDBRANCH   7   8
ENDBRANCH   1   7
TORSDOF 5
ENDMDL
MODEL 9
REMARK VINA RESULT:      -4.0     11.279     11.893
REMARK  5 active torsions:
REMARK  status: ('A' for Active; 'I' for Inactive)
REMARK    1  A    between atoms: C1_1  and  C6_6 
REMARK    2  A    between atoms: C1_1  and  S11_11 
REMARK    3  A    between atoms: C6_6  and  C8_8 
REMARK    4  A    between atoms: C7_7  and  C9_9 
REMARK    5  A    between atoms: C9_9  and  S11_11 
ROOT
HETATM    1  C1  UNL     1     -33.543  16.598  -3.967  1.00 20.00     0.186 C 
HETATM    2  O10 UNL     1     -33.295  16.749  -5.157  1.00 20.00    -0.285 OA
ENDROOT
BRANCH   1   3
HETATM    3  C6  UNL     1     -33.349  15.296  -3.213  1.00 20.00     0.094 C 
BRANCH   3   4
HETATM    4  C8  UNL     1     -34.471  14.276  -3.468  1.00 20.00    -0.015 C 
HETATM    5  C3  UNL     1     -35.822  14.990  -3.546  1.00 20.00     0.010 C 
HETATM    6  C4  UNL     1     -34.227  13.490  -4.759  1.00 20.00     0.010 C 
ENDBRANCH   3   4
ENDBRANCH   1   3
BRANCH   1   7
HETATM    7  S11 UNL     1     -34.119  17.920  -2.943  1.00 20.00    -0.088 SA
BRANCH   7   8
HETATM    8  C9  UNL     1     -33.645  17.305  -1.314  1.00 20.00     0.051 C 
HETATM    9  C5  UNL     1     -32.872  18.402  -0.584  1.00 20.00     0.022 C 
BRANCH   8  10
HETATM   10  C7  UNL     1     -34.864  16.858  -0.494  1.00 20.00     0.011 C 
HETATM   11  C2  UNL     1     -35.017  17.591   0.834  1.00 20.00     0.006 C 
ENDBRANCH   8  10
ENDBRANCH   7   8
ENDBRANCH   1   7
TORSDOF 5
ENDMDL
