MODEL 1
REMARK VINA RESULT:      -4.4      0.000      0.000
REMARK  0 active torsions:
REMARK  status: ('A' for Active; 'I' for Inactive)
ROOT
HETATM    1  C1  UNL     1     -36.130  14.332  -4.518  1.00 20.00     0.219 C 
HETATM    2  C2  UNL     1     -34.976  13.352  -4.388  1.00 20.00     0.103 C 
HETATM    3  C3  UNL     1     -33.942  13.778  -3.350  1.00 20.00     0.009 C 
HETATM    4  C4  UNL     1     -32.912  14.809  -3.822  1.00 20.00     0.001 C 
HETATM    5  C5  UNL     1     -33.458  16.230  -3.963  1.00 20.00     0.002 C 
HETATM    6  C6  UNL     1     -33.806  16.642  -5.394  1.00 20.00     0.020 C 
HETATM    7  C7  UNL     1     -34.748  15.699  -6.137  1.00 20.00     0.125 C 
HETATM    8  C8  UNL     1     -37.042  16.396  -5.508  1.00 20.00     0.152 C 
HETATM    9  N9  UNL     1     -35.972  15.412  -5.385  1.00 20.00    -0.356 N 
HETATM   10  O10 UNL     1     -37.148  14.138  -3.845  1.00 20.00    -0.273 OA
ENDROOT
TORSDOF 0
ENDMDL
MODEL 2
REMARK VINA RESULT:      -4.3      1.642      2.110
REMARK  0 active torsions:
REMARK  status: ('A' for Active; 'I' for Inactive)
ROOT
HETATM    1  C1  UNL     1     -34.340  13.839  -4.905  1.00 20.00     0.219 C 
HETATM    2  C2  UNL     1     -33.486  14.353  -3.758  1.00 20.00     0.103 C 
HETATM    3  C3  UNL     1     -34.267  15.205  -2.763  1.00 20.00     0.009 C 
HETATM    4  C4  UNL     1     -34.476  16.670  -3.162  1.00 20.00     0.001 C 
HETATM    5  C5  UNL     1     -35.514  16.883  -4.265  1.00 20.00     0.002 C 
HETATM    6  C6  UNL     1     -34.927  17.093  -5.662  1.00 20.00     0.020 C 
HETATM    7  C7  UNL     1     -33.952  16.017  -6.133  1.00 20.00     0.125 C 
HETATM    8  C8  UNL     1     -35.348  14.222  -7.120  1.00 20.00     0.152 C 
HETATM    9  N9  UNL     1     -34.503  14.664  -6.016  1.00 20.00    -0.356 N 
HETATM   10  O10 UNL     1     -34.863  12.724  -4.798  1.00 20.00    -0.273 OA
ENDROOT
TORSDOF 0
ENDMDL
MODEL 3
REMARK VINA RESULT:      -4.2      1.777      2.164
REMARK  0 active torsions:
REMARK  status: ('A' for Active; 'I' for Inactive)
ROOT
HETATM    1  C1  UNL     1     -35.515  14.143  -4.425  1.00 20.00     0.219 C 
HETATM    2  C2  UNL     1     -34.116  14.667  -4.700  1.00 20.00     0.103 C 
HETATM    3  C3  UNL     1     -33.299  14.891  -3.432  1.00 20.00     0.009 C 
HETATM    4  C4  UNL     1     -33.562  16.207  -2.694  1.00 20.00     0.001 C 
HETATM    5  C5  UNL     1     -34.887  16.250  -1.930  1.00 20.00     0.002 C 
HETATM    6  C6  UNL     1     -36.015  16.991  -2.650  1.00 20.00     0.020 C 
HETATM    7  C7  UNL     1     -36.305  16.521  -4.073  1.00 20.00     0.125 C 
HETATM    8  C8  UNL     1     -37.866  14.608  -3.851  1.00 20.00     0.152 C 
HETATM    9  N9  UNL     1     -36.518  15.074  -4.159  1.00 20.00    -0.356 N 
HETATM   10  O10 UNL     1     -35.701  12.922  -4.434  1.00 20.00    -0.273 OA
ENDROOT
TORSDOF 0
ENDMDL
MODEL 4
REMARK VINA RESULT:      -4.2      2.096      3.679
REMARK  0 active torsions:
REMARK  status: ('A' for Active; 'I' for Inactive)
ROOT
HETATM    1  C1  UNL     1     -33.880  16.928  -4.095  1.00 20.00     0.219 C 
HETATM    2  C2  UNL     1     -33.295  16.647  -5.470  1.00 20.00     0.103 C 
HETATM    3  C3  UNL     1     -34.326  16.120  -6.463  1.00 20.00     0.009 C 
HETATM    4  C4  UNL     1     -34.631  14.621  -6.373  1.00 20.00     0.001 C 
HETATM    5  C5  UNL     1     -35.485  14.222  -5.169  1.00 20.00     0.002 C 
HETATM    6  C6  UNL     1     -34.699  13.637  -3.994  1.00 20.00     0.020 C 
HETATM    7  C7  UNL     1     -33.542  14.495  -3.487  1.00 20.00     0.125 C 
HETATM    8  C8  UNL     1     -34.536  16.091  -1.873  1.00 20.00     0.152 C 
HETATM    9  N9  UNL     1     -33.946  15.871  -3.189  1.00 20.00    -0.356 N 
HETATM   10  O10 UNL     1     -34.281  18.069  -3.846  1.00 20.00    -0.273 OA
ENDROOT
TORSDOF 0
ENDMDL
MODEL 5
REMARK VINA RESULT:      -4.2      1.407      3.018
REMARK  0 active torsions:
REMARK  status: ('A' for Active; 'I' for Inactive)
ROOT
HETATM    1  C1  UNL     1     -35.118  13.907  -4.276  1.00 20.00     0.219 C 
HETATM    2  C2  UNL     1     -36.375  14.648  -4.699  1.00 20.00     0.103 C 
HETATM    3  C3  UNL     1     -36.376  15.033  -6.176  1.00 20.00     0.009 C 
HETATM    4  C4  UNL     1     -35.600  16.304  -6.533  1.00 20.00     0.001 C 
HETATM    5  C5  UNL     1     -34.079  16.145  -6.504  1.00 20.00     0.002 C 
HETATM    6  C6  UNL     1     -33.405  16.674  -5.236  1.00 20.00     0.020 C 
HETATM    7  C7  UNL     1     -33.961  16.129  -3.923  1.00 20.00     0.125 C 
HETATM    8  C8  UNL     1     -32.775  13.991  -3.517  1.00 20.00     0.152 C 
HETATM    9  N9  UNL     1     -34.013  14.666  -3.893  1.00 20.00    -0.356 N 
HETATM   10  O10 UNL     1     -35.123  12.672  -4.302  1.00 20.00    -0.273 OA
ENDROOT
TORSDOF 0
ENDMDL
MODEL 6
REMARK VINA RESULT:      -4.1      1.445      1.938
REMARK  0 active torsions:
REMARK  status: ('A' for Active; 'I' for Inactive)
ROOT
HETATM    1  C1  UNL     1     -35.606  15.442  -6.023  1.00 20.00     0.219 C 
HETATM    2  C2  UNL     1     -34.854  14.123  -6.083  1.00 20.00     0.103 C 
HETATM    3  C3  UNL     1     -34.918  13.337  -4.777  1.00 20.00     0.009 C 
HETATM    4  C4  UNL     1     -33.925  13.766  -3.692  1.00 20.00     0.001 C 
HETATM    5  C5  UNL     1     -34.276  15.082  -2.998  1.00 20.00     0.002 C 
HETATM    6  C6  UNL     1     -33.500  16.299  -3.506  1.00 20.00     0.020 C 
HETATM    7  C7  UNL     1     -33.558  16.531  -5.013  1.00 20.00     0.125 C 
HETATM    8  C8  UNL     1     -35.629  17.832  -5.421  1.00 20.00     0.152 C 
HETATM    9  N9  UNL     1     -34.928  16.556  -5.530  1.00 20.00    -0.356 N 
HETATM   10  O10 UNL     1     -36.783  15.469  -6.399  1.00 20.00    -0.273 OA
ENDROOT
TORSDOF 0
ENDMDL
MODEL 7
REMARK VINA RESULT:      -4.1      1.696      2.545
REMARK  0 active torsions:
REMARK  status: ('A' for Active; 'I' for Inactive)
ROOT
HETATM    1  C1  UNL     1     -36.409  15.366  -4.913  1.00 20.00     0.219 C 
HETATM    2  C2  UNL     1     -36.756  15.564  -3.447  1.00 20.00     0.103 C 
HETATM    3  C3  UNL     1     -35.767  16.464  -2.713  1.00 20.00     0.009 C 
HETATM    4  C4  UNL     1     -34.477  15.788  -2.237  1.00 20.00     0.001 C 
HETATM    5  C5  UNL     1     -33.476  15.480  -3.352  1.00 20.00     0.002 C 
HETATM    6  C6  UNL     1     -33.484  14.029  -3.835  1.00 20.00     0.020 C 
HETATM    7  C7  UNL     1     -34.846  13.487  -4.261  1.00 20.00     0.125 C 
HETATM    8  C8  UNL     1     -35.130  14.151  -6.633  1.00 20.00     0.152 C 
HETATM    9  N9  UNL     1     -35.517  14.346  -5.239  1.00 20.00    -0.356 N 
HETATM   10  O10 UNL     1     -36.919  16.122  -5.747  1.00 20.00    -0.273 OA
ENDROOT
TORSDOF 0
ENDMDL
MODEL 8
REMARK VINA RESULT:      -4.1      2.215      3.261
REMARK  0 active torsions:
REMARK  status: ('A' for Active; 'I' for Inactive)
ROOT
HETATM    1  C1  UNL     1     -33.507  16.098  -4.201  1.00 20.00     0.219 C 
HETATM    2  C2  UNL     1     -33.222  14.682  -3.730  1.00 20.00     0.103 C 
HETATM    3  C3  UNL     1     -33.985  13.623  -4.520  1.00 20.00     0.009 C 
HETATM    4  C4  UNL     1     -35.437  13.390  -4.092  1.00 20.00     0.001 C 
HETATM    5  C5  UNL     1     -36.405  14.498  -4.510  1.00 20.00     0.002 C 
HETATM    6  C6  UNL     1     -36.749  15.496  -3.403  1.00 20.00     0.020 C 
HETATM    7  C7  UNL     1     -35.554  16.149  -2.714  1.00 20.00     0.125 C 
HETATM    8  C8  UNL     1     -34.943  18.099  -4.117  1.00 20.00     0.152 C 
HETATM    9  N9  UNL     1     -34.614  16.753  -3.662  1.00 20.00    -0.356 N 
HETATM   10  O10 UNL     1     -32.760  16.602  -5.045  1.00 20.00    -0.273 OA
ENDROOT
TORSDOF 0
ENDMDL
MODEL 9
REMARK VINA RESULT:      -4.1      2.028      3.544
REMARK  0 active torsions:
REMARK  status: ('A' for Active; 'I' for Inactive)
ROOT
HETATM    1  C1  UNL     1     -34.137  16.859  -4.932  1.00 20.00     0.219 C 
HETATM    2  C2  UNL     1     -33.952  16.122  -6.248  1.00 20.00     0.103 C 
HETATM    3  C3  UNL     1     -35.060  15.112  -6.530  1.00 20.00     0.009 C 
HETATM    4  C4  UNL     1     -34.915  13.753  -5.838  1.00 20.00     0.001 C 
HETATM    5  C5  UNL     1     -35.219  13.772  -4.339  1.00 20.00     0.002 C 
HETATM    6  C6  UNL     1     -33.984  13.818  -3.437  1.00 20.00     0.020 C 
HETATM    7  C7  UNL     1     -32.998  14.945  -3.732  1.00 20.00     0.125 C 
HETATM    8  C8  UNL     1     -33.832  16.920  -2.488  1.00 20.00     0.152 C 
HETATM    9  N9  UNL     1     -33.639  16.262  -3.776  1.00 20.00    -0.356 N 
HETATM   10  O10 UNL     1     -34.730  17.943  -4.941  1.00 20.00    -0.273 OA
ENDROOT
TORSDOF 0
ENDMDL
