MODEL 1
REMARK VINA RESULT:      -2.7      0.000      0.000
REMARK  1 active torsions:
REMARK  status: ('A' for Active; 'I' for Inactive)
REMARK       I    between atoms: C1_1  and  N3_3 
REMARK    1  A    between atoms: C1_1  and  S5_5 
ROOT
HETATM    1  C1  UNL     1     -34.376   5.633   4.362  1.00 20.00     0.276 C 
HETATM    2  C2  UNL     1     -32.629   6.815   3.051  1.00 20.00     0.150 C 
HETATM    3  N3  UNL     1     -33.162   6.273   4.279  1.00 20.00    -0.356 N 
HETATM    4  O4  UNL     1     -35.172   5.423   3.457  1.00 20.00    -0.261 OA
HETATM    5  H9  UNL     1     -32.614   6.380   5.127  1.00 20.00     0.162 HD
ENDROOT
BRANCH   1   6
HETATM    6  S5  UNL     1     -34.692   5.111   6.008  1.00 20.00    -0.082 SA
HETATM    7  H10 UNL     1     -34.593   6.319   6.582  1.00 20.00     0.112 HD
ENDBRANCH   1   6
TORSDOF 1
ENDMDL
MODEL 2
REMARK VINA RESULT:      -2.7      2.059      2.608
REMARK  1 active torsions:
REMARK  status: ('A' for Active; 'I' for Inactive)
REMARK       I    between atoms: C1_1  and  N3_3 
REMARK    1  A    between atoms: C1_1  and  S5_5 
ROOT
HETATM    1  C1  UNL     1     -33.904   5.915   3.962  1.00 20.00     0.276 C 
HETATM    2  C2  UNL     1     -34.723   5.449   6.260  1.00 20.00     0.150 C 
HETATM    3  N3  UNL     1     -33.785   6.029   5.327  1.00 20.00    -0.356 N 
HETATM    4  O4  UNL     1     -34.779   5.333   3.335  1.00 20.00    -0.261 OA
HETATM    5  H9  UNL     1     -32.991   6.539   5.701  1.00 20.00     0.162 HD
ENDROOT
BRANCH   1   6
HETATM    6  S5  UNL     1     -32.585   6.743   3.152  1.00 20.00    -0.082 SA
HETATM    7  H10 UNL     1     -32.407   7.702   4.072  1.00 20.00     0.112 HD
ENDBRANCH   1   6
TORSDOF 1
ENDMDL
MODEL 3
REMARK VINA RESULT:      -2.6     12.426     12.521
REMARK  1 active torsions:
REMARK  status: ('A' for Active; 'I' for Inactive)
REMARK       I    between atoms: C1_1  and  N3_3 
REMARK    1  A    between atoms: C1_1  and  S5_5 
ROOT
HETATM    1  C1  UNL     1     -34.506  13.825  -5.192  1.00 20.00     0.276 C 
HETATM    2  C2  UNL     1     -32.778  14.617  -3.594  1.00 20.00     0.150 C 
HETATM    3  N3  UNL     1     -33.605  14.773  -4.769  1.00 20.00    -0.356 N 
HETATM    4  O4  UNL     1     -34.752  12.744  -4.675  1.00 20.00    -0.261 OA
HETATM    5  H9  UNL     1     -33.507  15.624  -5.314  1.00 20.00     0.162 HD
ENDROOT
BRANCH   1   6
HETATM    6  S5  UNL     1     -35.328  14.358  -6.650  1.00 20.00    -0.082 SA
HETATM    7  H10 UNL     1     -36.471  14.737  -6.062  1.00 20.00     0.112 HD
ENDBRANCH   1   6
TORSDOF 1
ENDMDL
MODEL 4
REMARK VINA RESULT:      -2.5     12.339     12.638
REMARK  1 active torsions:
REMARK  status: ('A' for Active; 'I' for Inactive)
REMARK       I    between atoms: C1_1  and  N3_3 
REMARK    1  A    between atoms: C1_1  and  S5_5 
ROOT
HETATM    1  C1  UNL     1     -34.390  13.728  -4.929  1.00 20.00     0.276 C 
HETATM    2  C2  UNL     1     -35.364  14.317  -7.136  1.00 20.00     0.150 C 
HETATM    3  N3  UNL     1     -34.564  14.609  -5.970  1.00 20.00    -0.356 N 
HETATM    4  O4  UNL     1     -34.859  12.603  -4.817  1.00 20.00    -0.261 OA
HETATM    5  H9  UNL     1     -34.114  15.518  -5.913  1.00 20.00     0.162 HD
ENDROOT
BRANCH   1   6
HETATM    6  S5  UNL     1     -33.359  14.425  -3.691  1.00 20.00    -0.082 SA
HETATM    7  H10 UNL     1     -34.125  14.098  -2.640  1.00 20.00     0.112 HD
ENDBRANCH   1   6
TORSDOF 1
ENDMDL
MODEL 5
REMARK VINA RESULT:      -2.5     11.699     11.930
REMARK  1 active torsions:
REMARK  status: ('A' for Active; 'I' for Inactive)
REMARK       I    between atoms: C1_1  and  N3_3 
REMARK    1  A    between atoms: C1_1  and  S5_5 
ROOT
HETATM    1  C1  UNL     1     -34.917  13.832  -4.005  1.00 20.00     0.276 C 
HETATM    2  C2  UNL     1     -37.277  14.605  -3.966  1.00 20.00     0.150 C 
HETATM    3  N3  UNL     1     -35.857  14.815  -3.801  1.00 20.00    -0.356 N 
HETATM    4  O4  UNL     1     -35.110  12.673  -4.344  1.00 20.00    -0.261 OA
HETATM    5  H9  UNL     1     -35.539  15.734  -3.509  1.00 20.00     0.162 HD
ENDROOT
BRANCH   1   6
HETATM    6  S5  UNL     1     -33.300  14.449  -3.710  1.00 20.00    -0.082 SA
HETATM    7  H10 UNL     1     -33.354  14.410  -2.371  1.00 20.00     0.112 HD
ENDBRANCH   1   6
TORSDOF 1
ENDMDL
MODEL 6
REMARK VINA RESULT:      -2.4      2.535      3.093
REMARK  1 active torsions:
REMARK  status: ('A' for Active; 'I' for Inactive)
REMARK       I    between atoms: C1_1  and  N3_3 
REMARK    1  A    between atoms: C1_1  and  S5_5 
ROOT
HETATM    1  C1  UNL     1     -33.800   6.068   5.000  1.00 20.00     0.276 C 
HETATM    2  C2  UNL     1     -35.194   4.218   5.896  1.00 20.00     0.150 C 
HETATM    3  N3  UNL     1     -34.455   4.870   4.839  1.00 20.00    -0.356 N 
HETATM    4  O4  UNL     1     -33.733   6.753   6.012  1.00 20.00    -0.261 OA
HETATM    5  H9  UNL     1     -34.428   4.424   3.927  1.00 20.00     0.162 HD
ENDROOT
BRANCH   1   6
HETATM    6  S5  UNL     1     -33.016   6.553   3.505  1.00 20.00    -0.082 SA
HETATM    7  H10 UNL     1     -32.715   5.320   3.074  1.00 20.00     0.112 HD
ENDBRANCH   1   6
TORSDOF 1
ENDMDL
MODEL 7
REMARK VINA RESULT:      -2.3      9.848     10.039
REMARK  1 active torsions:
REMARK  status: ('A' for Active; 'I' for Inactive)
REMARK       I    between atoms: C1_1  and  N3_3 
REMARK    1  A    between atoms: C1_1  and  S5_5 
ROOT
HETATM    1  C1  UNL     1     -41.568   4.942  -1.875  1.00 20.00     0.276 C 
HETATM    2  C2  UNL     1     -41.624   2.728  -2.999  1.00 20.00     0.150 C 
HETATM    3  N3  UNL     1     -41.209   3.617  -1.938  1.00 20.00    -0.356 N 
HETATM    4  O4  UNL     1     -42.266   5.565  -2.664  1.00 20.00    -0.261 OA
HETATM    5  H9  UNL     1     -40.611   3.243  -1.207  1.00 20.00     0.162 HD
ENDROOT
BRANCH   1   6
HETATM    6  S5  UNL     1     -40.880   5.705  -0.451  1.00 20.00    -0.082 SA
HETATM    7  H10 UNL     1     -41.402   6.924  -0.653  1.00 20.00     0.112 HD
ENDBRANCH   1   6
TORSDOF 1
ENDMDL
MODEL 8
REMARK VINA RESULT:      -2.3     11.939     12.016
REMARK  1 active torsions:
REMARK  status: ('A' for Active; 'I' for Inactive)
REMARK       I    between atoms: C1_1  and  N3_3 
REMARK    1  A    between atoms: C1_1  and  S5_5 
ROOT
HETATM    1  C1  UNL     1     -33.830  14.601  -3.623  1.00 20.00     0.276 C 
HETATM    2  C2  UNL     1     -34.523  16.206  -1.859  1.00 20.00     0.150 C 
HETATM    3  N3  UNL     1     -34.800  15.189  -2.847  1.00 20.00    -0.356 N 
HETATM    4  O4  UNL     1     -32.627  14.825  -3.612  1.00 20.00    -0.261 OA
HETATM    5  H9  UNL     1     -35.765  14.901  -2.980  1.00 20.00     0.162 HD
ENDROOT
BRANCH   1   6
HETATM    6  S5  UNL     1     -34.537  13.414  -4.707  1.00 20.00    -0.082 SA
HETATM    7  H10 UNL     1     -34.133  12.324  -4.039  1.00 20.00     0.112 HD
ENDBRANCH   1   6
TORSDOF 1
ENDMDL
MODEL 9
REMARK VINA RESULT:      -2.3     10.251     10.410
REMARK  1 active torsions:
REMARK  status: ('A' for Active; 'I' for Inactive)
REMARK       I    between atoms: C1_1  and  N3_3 
REMARK    1  A    between atoms: C1_1  and  S5_5 
ROOT
HETATM    1  C1  UNL     1     -41.893   3.686  -2.614  1.00 20.00     0.276 C 
HETATM    2  C2  UNL     1     -40.781   4.989  -0.816  1.00 20.00     0.150 C 
HETATM    3  N3  UNL     1     -40.945   3.804  -1.625  1.00 20.00    -0.356 N 
HETATM    4  O4  UNL     1     -42.718   4.521  -2.961  1.00 20.00    -0.261 OA
HETATM    5  H9  UNL     1     -40.333   3.013  -1.446  1.00 20.00     0.162 HD
ENDROOT
BRANCH   1   6
HETATM    6  S5  UNL     1     -41.797   2.110  -3.383  1.00 20.00    -0.082 SA
HETATM    7  H10 UNL     1     -42.847   2.265  -4.201  1.00 20.00     0.112 HD
ENDBRANCH   1   6
TORSDOF 1
ENDMDL
