MODEL 1
REMARK VINA RESULT:      -4.7      0.000      0.000
REMARK  2 active torsions:
REMARK  status: ('A' for Active; 'I' for Inactive)
REMARK    1  A    between atoms: C4_4  and  C8_8 
REMARK    2  A    between atoms: C8_8  and  N9_9 
ROOT
HETATM    1  C1  UNL     1     -35.176   4.266   5.838  1.00 20.00    -0.003 A 
HETATM    2  C2  UNL     1     -35.039   4.745   4.487  1.00 20.00     0.004 A 
HETATM    3  C3  UNL     1     -34.606   5.136   6.683  1.00 20.00    -0.022 A 
HETATM    4  C4  UNL     1     -34.383   5.915   4.492  1.00 20.00    -0.049 A 
HETATM    5  C5  UNL     1     -34.035   6.288   5.908  1.00 20.00     0.063 A 
ENDROOT
BRANCH   4   6
HETATM    6  C8  UNL     1     -34.019   6.768   3.334  1.00 20.00     0.306 C 
BRANCH   6   7
HETATM    7  N9  UNL     1     -32.591   6.949   3.347  1.00 20.00     0.083 N 
HETATM    8  C6  UNL     1     -32.175   7.982   2.386  1.00 20.00     0.309 C 
HETATM    9  C7  UNL     1     -31.891   5.690   3.049  1.00 20.00     0.309 C 
ENDBRANCH   6   7
ENDBRANCH   4   6
TORSDOF 2
ENDMDL
MODEL 2
REMARK VINA RESULT:      -4.7      0.080      1.267
REMARK  2 active torsions:
REMARK  status: ('A' for Active; 'I' for Inactive)
REMARK    1  A    between atoms: C4_4  and  C8_8 
REMARK    2  A    between atoms: C8_8  and  N9_9 
ROOT
HETATM    1  C1  UNL     1     -34.558   5.175   6.703  1.00 20.00    -0.003 A 
HETATM    2  C2  UNL     1     -34.042   6.236   5.878  1.00 20.00     0.004 A 
HETATM    3  C3  UNL     1     -35.168   4.263   5.932  1.00 20.00    -0.022 A 
HETATM    4  C4  UNL     1     -34.329   5.983   4.591  1.00 20.00    -0.049 A 
HETATM    5  C5  UNL     1     -35.086   4.686   4.494  1.00 20.00     0.063 A 
ENDROOT
BRANCH   4   6
HETATM    6  C8  UNL     1     -33.994   6.798   3.399  1.00 20.00     0.306 C 
BRANCH   6   7
HETATM    7  N9  UNL     1     -32.563   6.945   3.348  1.00 20.00     0.083 N 
HETATM    8  C6  UNL     1     -32.168   8.012   2.417  1.00 20.00     0.309 C 
HETATM    9  C7  UNL     1     -31.911   5.685   2.957  1.00 20.00     0.309 C 
ENDBRANCH   6   7
ENDBRANCH   4   6
TORSDOF 2
ENDMDL
MODEL 3
REMARK VINA RESULT:      -3.8     11.606     12.576
REMARK  2 active torsions:
REMARK  status: ('A' for Active; 'I' for Inactive)
REMARK    1  A    between atoms: C4_4  and  C8_8 
REMARK    2  A    between atoms: C8_8  and  N9_9 
ROOT
HETATM    1  C1  UNL     1     -33.351  13.789  -3.873  1.00 20.00    -0.003 A 
HETATM    2  C2  UNL     1     -32.996  15.123  -3.465  1.00 20.00     0.004 A 
HETATM    3  C3  UNL     1     -34.684  13.648  -3.837  1.00 20.00    -0.022 A 
HETATM    4  C4  UNL     1     -34.109  15.814  -3.176  1.00 20.00    -0.049 A 
HETATM    5  C5  UNL     1     -35.312  14.935  -3.385  1.00 20.00     0.063 A 
ENDROOT
BRANCH   4   6
HETATM    6  C8  UNL     1     -34.223  17.220  -2.718  1.00 20.00     0.306 C 
BRANCH   6   7
HETATM    7  N9  UNL     1     -33.693  17.297  -1.382  1.00 20.00     0.083 N 
HETATM    8  C6  UNL     1     -34.704  16.919  -0.384  1.00 20.00     0.309 C 
HETATM    9  C7  UNL     1     -33.190  18.646  -1.085  1.00 20.00     0.309 C 
ENDBRANCH   6   7
ENDBRANCH   4   6
TORSDOF 2
ENDMDL
MODEL 4
REMARK VINA RESULT:      -3.8     11.712     12.641
REMARK  2 active torsions:
REMARK  status: ('A' for Active; 'I' for Inactive)
REMARK    1  A    between atoms: C4_4  and  C8_8 
REMARK    2  A    between atoms: C8_8  and  N9_9 
ROOT
HETATM    1  C1  UNL     1     -34.839  17.190   0.058  1.00 20.00    -0.003 A 
HETATM    2  C2  UNL     1     -34.809  16.356  -1.115  1.00 20.00     0.004 A 
HETATM    3  C3  UNL     1     -33.986  18.213  -0.096  1.00 20.00    -0.022 A 
HETATM    4  C4  UNL     1     -33.937  16.860  -2.001  1.00 20.00    -0.049 A 
HETATM    5  C5  UNL     1     -33.315  18.109  -1.435  1.00 20.00     0.063 A 
ENDROOT
BRANCH   4   6
HETATM    6  C8  UNL     1     -33.583  16.334  -3.341  1.00 20.00     0.306 C 
BRANCH   6   7
HETATM    7  N9  UNL     1     -34.397  15.174  -3.593  1.00 20.00     0.083 N 
HETATM    8  C6  UNL     1     -33.569  13.976  -3.797  1.00 20.00     0.309 C 
HETATM    9  C7  UNL     1     -35.266  15.376  -4.762  1.00 20.00     0.309 C 
ENDBRANCH   6   7
ENDBRANCH   4   6
TORSDOF 2
ENDMDL
MODEL 5
REMARK VINA RESULT:      -3.8      9.905     10.964
REMARK  2 active torsions:
REMARK  status: ('A' for Active; 'I' for Inactive)
REMARK    1  A    between atoms: C4_4  and  C8_8 
REMARK    2  A    between atoms: C8_8  and  N9_9 
ROOT
HETATM    1  C1  UNL     1     -40.644   5.855  -0.446  1.00 20.00    -0.003 A 
HETATM    2  C2  UNL     1     -41.134   4.637  -1.037  1.00 20.00     0.004 A 
HETATM    3  C3  UNL     1     -41.114   6.907  -1.129  1.00 20.00    -0.022 A 
HETATM    4  C4  UNL     1     -41.912   4.932  -2.089  1.00 20.00    -0.049 A 
HETATM    5  C5  UNL     1     -41.979   6.426  -2.258  1.00 20.00     0.063 A 
ENDROOT
BRANCH   4   6
HETATM    6  C8  UNL     1     -42.627   3.999  -2.993  1.00 20.00     0.306 C 
BRANCH   6   7
HETATM    7  N9  UNL     1     -42.241   2.657  -2.642  1.00 20.00     0.083 N 
HETATM    8  C6  UNL     1     -41.465   2.025  -3.719  1.00 20.00     0.309 C 
HETATM    9  C7  UNL     1     -43.416   1.828  -2.331  1.00 20.00     0.309 C 
ENDBRANCH   6   7
ENDBRANCH   4   6
TORSDOF 2
ENDMDL
MODEL 6
REMARK VINA RESULT:      -3.7     11.689     12.442
REMARK  2 active torsions:
REMARK  status: ('A' for Active; 'I' for Inactive)
REMARK    1  A    between atoms: C4_4  and  C8_8 
REMARK    2  A    between atoms: C8_8  and  N9_9 
ROOT
HETATM    1  C1  UNL     1     -35.042  13.359  -4.272  1.00 20.00    -0.003 A 
HETATM    2  C2  UNL     1     -35.805  14.469  -3.764  1.00 20.00     0.004 A 
HETATM    3  C3  UNL     1     -33.736  13.576  -4.058  1.00 20.00    -0.022 A 
HETATM    4  C4  UNL     1     -34.974  15.378  -3.232  1.00 20.00    -0.049 A 
HETATM    5  C5  UNL     1     -33.554  14.897  -3.367  1.00 20.00     0.063 A 
ENDROOT
BRANCH   4   6
HETATM    6  C8  UNL     1     -35.316  16.672  -2.595  1.00 20.00     0.306 C 
BRANCH   6   7
HETATM    7  N9  UNL     1     -34.251  17.018  -1.690  1.00 20.00     0.083 N 
HETATM    8  C6  UNL     1     -34.705  16.982  -0.292  1.00 20.00     0.309 C 
HETATM    9  C7  UNL     1     -33.703  18.349  -1.995  1.00 20.00     0.309 C 
ENDBRANCH   6   7
ENDBRANCH   4   6
TORSDOF 2
ENDMDL
MODEL 7
REMARK VINA RESULT:      -3.7     11.807     12.427
REMARK  2 active torsions:
REMARK  status: ('A' for Active; 'I' for Inactive)
REMARK    1  A    between atoms: C4_4  and  C8_8 
REMARK    2  A    between atoms: C8_8  and  N9_9 
ROOT
HETATM    1  C1  UNL     1     -35.508  13.675  -4.231  1.00 20.00    -0.003 A 
HETATM    2  C2  UNL     1     -35.516  14.858  -3.410  1.00 20.00     0.004 A 
HETATM    3  C3  UNL     1     -34.242  13.304  -4.470  1.00 20.00    -0.022 A 
HETATM    4  C4  UNL     1     -34.254  15.222  -3.137  1.00 20.00    -0.049 A 
HETATM    5  C5  UNL     1     -33.302  14.259  -3.793  1.00 20.00     0.063 A 
ENDROOT
BRANCH   4   6
HETATM    6  C8  UNL     1     -33.786  16.374  -2.329  1.00 20.00     0.306 C 
BRANCH   6   7
HETATM    7  N9  UNL     1     -34.935  16.977  -1.707  1.00 20.00     0.083 N 
HETATM    8  C6  UNL     1     -35.162  18.340  -2.212  1.00 20.00     0.309 C 
HETATM    9  C7  UNL     1     -34.792  17.014  -0.243  1.00 20.00     0.309 C 
ENDBRANCH   6   7
ENDBRANCH   4   6
TORSDOF 2
ENDMDL
MODEL 8
REMARK VINA RESULT:      -3.7     11.658     12.720
REMARK  2 active torsions:
REMARK  status: ('A' for Active; 'I' for Inactive)
REMARK    1  A    between atoms: C4_4  and  C8_8 
REMARK    2  A    between atoms: C8_8  and  N9_9 
ROOT
HETATM    1  C1  UNL     1     -34.023  17.749  -0.279  1.00 20.00    -0.003 A 
HETATM    2  C2  UNL     1     -34.697  16.564  -0.742  1.00 20.00     0.004 A 
HETATM    3  C3  UNL     1     -33.458  18.380  -1.317  1.00 20.00    -0.022 A 
HETATM    4  C4  UNL     1     -34.551  16.458  -2.072  1.00 20.00    -0.049 A 
HETATM    5  C5  UNL     1     -33.737  17.617  -2.580  1.00 20.00     0.063 A 
ENDROOT
BRANCH   4   6
HETATM    6  C8  UNL     1     -35.075  15.402  -2.971  1.00 20.00     0.306 C 
BRANCH   6   7
HETATM    7  N9  UNL     1     -34.084  15.147  -3.983  1.00 20.00     0.083 N 
HETATM    8  C6  UNL     1     -34.657  15.260  -5.332  1.00 20.00     0.309 C 
HETATM    9  C7  UNL     1     -33.482  13.815  -3.816  1.00 20.00     0.309 C 
ENDBRANCH   6   7
ENDBRANCH   4   6
TORSDOF 2
ENDMDL
MODEL 9
REMARK VINA RESULT:      -3.7     12.127     12.940
REMARK  2 active torsions:
REMARK  status: ('A' for Active; 'I' for Inactive)
REMARK    1  A    between atoms: C4_4  and  C8_8 
REMARK    2  A    between atoms: C8_8  and  N9_9 
ROOT
HETATM    1  C1  UNL     1     -34.752  16.759  -0.719  1.00 20.00    -0.003 A 
HETATM    2  C2  UNL     1     -34.957  17.351   0.578  1.00 20.00     0.004 A 
HETATM    3  C3  UNL     1     -33.665  17.296  -1.290  1.00 20.00    -0.022 A 
HETATM    4  C4  UNL     1     -33.996  18.258   0.813  1.00 20.00    -0.049 A 
HETATM    5  C5  UNL     1     -33.064  18.317  -0.367  1.00 20.00     0.063 A 
ENDROOT
BRANCH   4   6
HETATM    6  C8  UNL     1     -33.810  19.107   2.014  1.00 20.00     0.306 C 
BRANCH   6   7
HETATM    7  N9  UNL     1     -33.109  18.331   3.003  1.00 20.00     0.083 N 
HETATM    8  C6  UNL     1     -33.882  18.231   4.250  1.00 20.00     0.309 C 
HETATM    9  C7  UNL     1     -31.785  18.904   3.291  1.00 20.00     0.309 C 
ENDBRANCH   6   7
ENDBRANCH   4   6
TORSDOF 2
ENDMDL
