MODEL 1
REMARK VINA RESULT:      -4.8      0.000      0.000
REMARK  1 active torsions:
REMARK  status: ('A' for Active; 'I' for Inactive)
REMARK    1  A    between atoms: C5_5  and  C10_10 
ROOT
HETATM    1  C1  UNL     1     -35.326  15.320  -3.014  1.00 20.00    -0.018 C 
HETATM    2  C2  UNL     1     -34.842  15.842  -1.878  1.00 20.00    -0.025 C 
HETATM    3  C3  UNL     1     -33.721  16.706  -4.326  1.00 20.00     0.135 C 
HETATM    4  C4  UNL     1     -33.728  17.689  -3.176  1.00 20.00     0.087 C 
HETATM    5  C5  UNL     1     -34.899  15.733  -4.395  1.00 20.00     0.081 C 
HETATM    6  C6  UNL     1     -33.819  16.946  -1.840  1.00 20.00     0.010 C 
HETATM    7  C7  UNL     1     -34.127  17.935  -0.715  1.00 20.00     0.014 C 
HETATM    8  O11 UNL     1     -32.857  16.763  -5.201  1.00 20.00    -0.297 OA
ENDROOT
BRANCH   5   9
HETATM    9  C10 UNL     1     -34.538  14.507  -5.231  1.00 20.00    -0.008 C 
HETATM   10  C8  UNL     1     -34.894  13.221  -4.485  1.00 20.00     0.010 C 
HETATM   11  C9  UNL     1     -35.243  14.551  -6.586  1.00 20.00     0.010 C 
ENDBRANCH   5   9
TORSDOF 1
ENDMDL
MODEL 2
REMARK VINA RESULT:      -4.7      1.713      2.546
REMARK  1 active torsions:
REMARK  status: ('A' for Active; 'I' for Inactive)
REMARK    1  A    between atoms: C5_5  and  C10_10 
ROOT
HETATM    1  C1  UNL     1     -35.020  16.404  -4.972  1.00 20.00    -0.018 C 
HETATM    2  C2  UNL     1     -35.192  16.759  -3.691  1.00 20.00    -0.025 C 
HETATM    3  C3  UNL     1     -34.651  14.043  -4.261  1.00 20.00     0.135 C 
HETATM    4  C4  UNL     1     -34.179  14.583  -2.930  1.00 20.00     0.087 C 
HETATM    5  C5  UNL     1     -34.645  15.023  -5.435  1.00 20.00     0.081 C 
HETATM    6  C6  UNL     1     -34.998  15.815  -2.534  1.00 20.00     0.010 C 
HETATM    7  C7  UNL     1     -34.329  16.527  -1.357  1.00 20.00     0.014 C 
HETATM    8  O11 UNL     1     -34.932  12.851  -4.396  1.00 20.00    -0.297 OA
ENDROOT
BRANCH   5   9
HETATM    9  C10 UNL     1     -35.592  14.554  -6.536  1.00 20.00    -0.008 C 
HETATM   10  C8  UNL     1     -36.964  15.210  -6.385  1.00 20.00     0.010 C 
HETATM   11  C9  UNL     1     -35.007  14.853  -7.916  1.00 20.00     0.010 C 
ENDBRANCH   5   9
TORSDOF 1
ENDMDL
MODEL 3
REMARK VINA RESULT:      -4.6      1.296      4.219
REMARK  1 active torsions:
REMARK  status: ('A' for Active; 'I' for Inactive)
REMARK    1  A    between atoms: C5_5  and  C10_10 
ROOT
HETATM    1  C1  UNL     1     -35.732  16.216  -3.618  1.00 20.00    -0.018 C 
HETATM    2  C2  UNL     1     -35.900  16.120  -4.945  1.00 20.00    -0.025 C 
HETATM    3  C3  UNL     1     -33.630  14.885  -3.797  1.00 20.00     0.135 C 
HETATM    4  C4  UNL     1     -34.207  14.260  -5.047  1.00 20.00     0.087 C 
HETATM    5  C5  UNL     1     -34.627  15.548  -2.846  1.00 20.00     0.081 C 
HETATM    6  C6  UNL     1     -35.013  15.294  -5.838  1.00 20.00     0.010 C 
HETATM    7  C7  UNL     1     -35.833  14.595  -6.923  1.00 20.00     0.014 C 
HETATM    8  O11 UNL     1     -32.434  14.774  -3.529  1.00 20.00    -0.297 OA
ENDROOT
BRANCH   5   9
HETATM    9  C10 UNL     1     -33.923  16.557  -1.942  1.00 20.00    -0.008 C 
HETATM   10  C8  UNL     1     -33.784  17.907  -2.644  1.00 20.00     0.010 C 
HETATM   11  C9  UNL     1     -34.676  16.717  -0.621  1.00 20.00     0.010 C 
ENDBRANCH   5   9
TORSDOF 1
ENDMDL
MODEL 4
REMARK VINA RESULT:      -4.6      1.496      4.479
REMARK  1 active torsions:
REMARK  status: ('A' for Active; 'I' for Inactive)
REMARK    1  A    between atoms: C5_5  and  C10_10 
ROOT
HETATM    1  C1  UNL     1     -35.323  16.420  -4.683  1.00 20.00    -0.018 C 
HETATM    2  C2  UNL     1     -35.209  16.120  -5.984  1.00 20.00    -0.025 C 
HETATM    3  C3  UNL     1     -34.349  14.200  -4.095  1.00 20.00     0.135 C 
HETATM    4  C4  UNL     1     -34.875  13.690  -5.417  1.00 20.00     0.087 C 
HETATM    5  C5  UNL     1     -34.990  15.480  -3.556  1.00 20.00     0.081 C 
HETATM    6  C6  UNL     1     -34.760  14.775  -6.492  1.00 20.00     0.010 C 
HETATM    7  C7  UNL     1     -35.558  14.367  -7.730  1.00 20.00     0.014 C 
HETATM    8  O11 UNL     1     -33.517  13.557  -3.454  1.00 20.00    -0.297 OA
ENDROOT
BRANCH   5   9
HETATM    9  C10 UNL     1     -34.070  16.163  -2.547  1.00 20.00    -0.008 C 
HETATM   10  C8  UNL     1     -33.621  17.529  -3.062  1.00 20.00     0.010 C 
HETATM   11  C9  UNL     1     -34.765  16.305  -1.193  1.00 20.00     0.010 C 
ENDBRANCH   5   9
TORSDOF 1
ENDMDL
MODEL 5
REMARK VINA RESULT:      -4.4      1.122      4.145
REMARK  1 active torsions:
REMARK  status: ('A' for Active; 'I' for Inactive)
REMARK    1  A    between atoms: C5_5  and  C10_10 
ROOT
HETATM    1  C1  UNL     1     -34.388  15.535  -2.380  1.00 20.00    -0.018 C 
HETATM    2  C2  UNL     1     -34.966  15.008  -3.469  1.00 20.00    -0.025 C 
HETATM    3  C3  UNL     1     -33.660  17.503  -3.728  1.00 20.00     0.135 C 
HETATM    4  C4  UNL     1     -33.692  16.603  -4.943  1.00 20.00     0.087 C 
HETATM    5  C5  UNL     1     -33.587  16.808  -2.368  1.00 20.00     0.081 C 
HETATM    6  C6  UNL     1     -34.856  15.613  -4.844  1.00 20.00     0.010 C 
HETATM    7  C7  UNL     1     -34.705  14.524  -5.907  1.00 20.00     0.014 C 
HETATM    8  O11 UNL     1     -33.602  18.727  -3.850  1.00 20.00    -0.297 OA
ENDROOT
BRANCH   5   9
HETATM    9  C10 UNL     1     -34.076  17.736  -1.259  1.00 20.00    -0.008 C 
HETATM   10  C8  UNL     1     -34.930  16.969  -0.250  1.00 20.00     0.010 C 
HETATM   11  C9  UNL     1     -32.897  18.409  -0.558  1.00 20.00     0.010 C 
ENDBRANCH   5   9
TORSDOF 1
ENDMDL
MODEL 6
REMARK VINA RESULT:      -4.4      0.981      1.215
REMARK  1 active torsions:
REMARK  status: ('A' for Active; 'I' for Inactive)
REMARK    1  A    between atoms: C5_5  and  C10_10 
ROOT
HETATM    1  C1  UNL     1     -35.557  15.348  -4.029  1.00 20.00    -0.018 C 
HETATM    2  C2  UNL     1     -35.171  15.330  -2.746  1.00 20.00    -0.025 C 
HETATM    3  C3  UNL     1     -33.888  17.140  -4.499  1.00 20.00     0.135 C 
HETATM    4  C4  UNL     1     -34.001  17.539  -3.045  1.00 20.00     0.087 C 
HETATM    5  C5  UNL     1     -35.036  16.304  -5.067  1.00 20.00     0.081 C 
HETATM    6  C6  UNL     1     -34.176  16.300  -2.163  1.00 20.00     0.010 C 
HETATM    7  C7  UNL     1     -34.589  16.720  -0.752  1.00 20.00     0.014 C 
HETATM    8  O11 UNL     1     -32.962  17.552  -5.198  1.00 20.00    -0.297 OA
ENDROOT
BRANCH   5   9
HETATM    9  C10 UNL     1     -34.589  15.546  -6.314  1.00 20.00    -0.008 C 
HETATM   10  C8  UNL     1     -35.037  14.086  -6.249  1.00 20.00     0.010 C 
HETATM   11  C9  UNL     1     -35.131  16.215  -7.576  1.00 20.00     0.010 C 
ENDBRANCH   5   9
TORSDOF 1
ENDMDL
MODEL 7
REMARK VINA RESULT:      -4.3      3.896      5.755
REMARK  1 active torsions:
REMARK  status: ('A' for Active; 'I' for Inactive)
REMARK    1  A    between atoms: C5_5  and  C10_10 
ROOT
HETATM    1  C1  UNL     1     -34.801  18.042   1.431  1.00 20.00    -0.018 C 
HETATM    2  C2  UNL     1     -34.624  17.835   2.743  1.00 20.00    -0.025 C 
HETATM    3  C3  UNL     1     -32.456  18.871   1.252  1.00 20.00     0.135 C 
HETATM    4  C4  UNL     1     -32.550  19.263   2.710  1.00 20.00     0.087 C 
HETATM    5  C5  UNL     1     -33.780  18.662   0.516  1.00 20.00     0.081 C 
HETATM    6  C6  UNL     1     -33.376  18.234   3.486  1.00 20.00     0.010 C 
HETATM    7  C7  UNL     1     -33.720  18.782   4.872  1.00 20.00     0.014 C 
HETATM    8  O11 UNL     1     -31.366  18.819   0.681  1.00 20.00    -0.297 OA
ENDROOT
BRANCH   5   9
HETATM    9  C10 UNL     1     -33.579  17.796  -0.724  1.00 20.00    -0.008 C 
HETATM   10  C8  UNL     1     -34.628  16.686  -0.785  1.00 20.00     0.010 C 
HETATM   11  C9  UNL     1     -33.629  18.648  -1.992  1.00 20.00     0.010 C 
ENDBRANCH   5   9
TORSDOF 1
ENDMDL
MODEL 8
REMARK VINA RESULT:      -4.3      1.948      4.322
REMARK  1 active torsions:
REMARK  status: ('A' for Active; 'I' for Inactive)
REMARK    1  A    between atoms: C5_5  and  C10_10 
ROOT
HETATM    1  C1  UNL     1     -33.530  15.971  -2.965  1.00 20.00    -0.018 C 
HETATM    2  C2  UNL     1     -33.721  14.690  -3.308  1.00 20.00    -0.025 C 
HETATM    3  C3  UNL     1     -35.954  16.424  -3.337  1.00 20.00     0.135 C 
HETATM    4  C4  UNL     1     -35.955  15.269  -4.313  1.00 20.00     0.087 C 
HETATM    5  C5  UNL     1     -34.591  17.036  -3.008  1.00 20.00     0.081 C 
HETATM    6  C6  UNL     1     -35.031  14.152  -3.820  1.00 20.00     0.010 C 
HETATM    7  C7  UNL     1     -34.802  13.135  -4.939  1.00 20.00     0.014 C 
HETATM    8  O11 UNL     1     -37.010  16.894  -2.912  1.00 20.00    -0.297 OA
ENDROOT
BRANCH   5   9
HETATM    9  C10 UNL     1     -34.643  17.792  -1.683  1.00 20.00    -0.008 C 
HETATM   10  C8  UNL     1     -34.635  16.818  -0.505  1.00 20.00     0.010 C 
HETATM   11  C9  UNL     1     -33.476  18.772  -1.574  1.00 20.00     0.010 C 
ENDBRANCH   5   9
TORSDOF 1
ENDMDL
MODEL 9
REMARK VINA RESULT:      -4.3      1.771      2.184
REMARK  1 active torsions:
REMARK  status: ('A' for Active; 'I' for Inactive)
REMARK    1  A    between atoms: C5_5  and  C10_10 
ROOT
HETATM    1  C1  UNL     1     -34.619  16.063  -2.128  1.00 20.00    -0.018 C 
HETATM    2  C2  UNL     1     -34.637  16.464  -0.849  1.00 20.00    -0.025 C 
HETATM    3  C3  UNL     1     -34.046  18.383  -2.840  1.00 20.00     0.135 C 
HETATM    4  C4  UNL     1     -34.731  18.871  -1.583  1.00 20.00     0.087 C 
HETATM    5  C5  UNL     1     -34.405  16.972  -3.307  1.00 20.00     0.081 C 
HETATM    6  C6  UNL     1     -34.476  17.901  -0.426  1.00 20.00     0.010 C 
HETATM    7  C7  UNL     1     -35.404  18.231   0.743  1.00 20.00     0.014 C 
HETATM    8  O11 UNL     1     -33.314  19.129  -3.491  1.00 20.00    -0.297 OA
ENDROOT
BRANCH   5   9
HETATM    9  C10 UNL     1     -33.318  16.412  -4.222  1.00 20.00    -0.008 C 
HETATM   10  C8  UNL     1     -32.869  15.032  -3.745  1.00 20.00     0.010 C 
HETATM   11  C9  UNL     1     -33.811  16.344  -5.667  1.00 20.00     0.010 C 
ENDBRANCH   5   9
TORSDOF 1
ENDMDL
