MODEL 1
REMARK VINA RESULT:      -4.2      0.000      0.000
REMARK  3 active torsions:
REMARK  status: ('A' for Active; 'I' for Inactive)
REMARK    1  A    between atoms: C1_1  and  C4_4 
REMARK    2  A    between atoms: C2_2  and  C7_7 
REMARK    3  A    between atoms: C7_7  and  O8_8 
ROOT
HETATM    1  C1  UNL     1     -34.313  15.624  -2.816  1.00 20.00    -0.070 C 
HETATM    2  C2  UNL     1     -34.365  14.688  -3.568  1.00 20.00    -0.070 C 
ENDROOT
BRANCH   2   3
HETATM    3  C7  UNL     1     -34.428  13.544  -4.485  1.00 20.00     0.193 C 
HETATM    4  C6  UNL     1     -34.862  13.979  -5.876  1.00 20.00     0.053 C 
BRANCH   3   5
HETATM    5  O8  UNL     1     -35.370  12.587  -4.008  1.00 20.00    -0.384 OA
HETATM    6  H18 UNL     1     -34.903  12.041  -3.356  1.00 20.00     0.211 HD
ENDBRANCH   3   5
ENDBRANCH   2   3
BRANCH   1   7
HETATM    7  C4  UNL     1     -34.253  16.739  -1.929  1.00 20.00    -0.018 C 
HETATM    8  C3  UNL     1     -34.678  16.596  -0.664  1.00 20.00     0.028 C 
HETATM    9  C5  UNL     1     -33.714  18.043  -2.438  1.00 20.00     0.057 C 
ENDBRANCH   1   7
TORSDOF 3
ENDMDL
MODEL 2
REMARK VINA RESULT:      -4.2      2.033      2.374
REMARK  3 active torsions:
REMARK  status: ('A' for Active; 'I' for Inactive)
REMARK    1  A    between atoms: C1_1  and  C4_4 
REMARK    2  A    between atoms: C2_2  and  C7_7 
REMARK    3  A    between atoms: C7_7  and  O8_8 
ROOT
HETATM    1  C1  UNL     1     -33.817  16.745  -1.786  1.00 20.00    -0.070 C 
HETATM    2  C2  UNL     1     -33.714  16.114  -2.804  1.00 20.00    -0.070 C 
ENDROOT
BRANCH   2   3
HETATM    3  C7  UNL     1     -33.589  15.343  -4.046  1.00 20.00     0.193 C 
HETATM    4  C6  UNL     1     -33.426  13.859  -3.758  1.00 20.00     0.053 C 
BRANCH   3   5
HETATM    5  O8  UNL     1     -32.446  15.779  -4.778  1.00 20.00    -0.384 OA
HETATM    6  H18 UNL     1     -32.615  15.562  -5.708  1.00 20.00     0.211 HD
ENDBRANCH   3   5
ENDBRANCH   2   3
BRANCH   1   7
HETATM    7  C4  UNL     1     -33.939  17.499  -0.581  1.00 20.00    -0.018 C 
HETATM    8  C3  UNL     1     -34.977  17.267   0.236  1.00 20.00     0.028 C 
HETATM    9  C5  UNL     1     -32.899  18.532  -0.264  1.00 20.00     0.057 C 
ENDBRANCH   1   7
TORSDOF 3
ENDMDL
MODEL 3
REMARK VINA RESULT:      -4.1      2.040      2.623
REMARK  3 active torsions:
REMARK  status: ('A' for Active; 'I' for Inactive)
REMARK    1  A    between atoms: C1_1  and  C4_4 
REMARK    2  A    between atoms: C2_2  and  C7_7 
REMARK    3  A    between atoms: C7_7  and  O8_8 
ROOT
HETATM    1  C1  UNL     1     -33.781  16.780  -1.797  1.00 20.00    -0.070 C 
HETATM    2  C2  UNL     1     -33.692  16.140  -2.810  1.00 20.00    -0.070 C 
ENDROOT
BRANCH   2   3
HETATM    3  C7  UNL     1     -33.586  15.358  -4.047  1.00 20.00     0.193 C 
HETATM    4  C6  UNL     1     -33.436  13.875  -3.748  1.00 20.00     0.053 C 
BRANCH   3   5
HETATM    5  O8  UNL     1     -32.444  15.775  -4.791  1.00 20.00    -0.384 OA
HETATM    6  H18 UNL     1     -32.682  16.615  -5.215  1.00 20.00     0.211 HD
ENDBRANCH   3   5
ENDBRANCH   2   3
BRANCH   1   7
HETATM    7  C4  UNL     1     -33.881  17.545  -0.597  1.00 20.00    -0.018 C 
HETATM    8  C3  UNL     1     -32.942  18.463  -0.323  1.00 20.00     0.028 C 
HETATM    9  C5  UNL     1     -35.037  17.299   0.327  1.00 20.00     0.057 C 
ENDBRANCH   1   7
TORSDOF 3
ENDMDL
MODEL 4
REMARK VINA RESULT:      -4.1     11.510     12.165
REMARK  3 active torsions:
REMARK  status: ('A' for Active; 'I' for Inactive)
REMARK    1  A    between atoms: C1_1  and  C4_4 
REMARK    2  A    between atoms: C2_2  and  C7_7 
REMARK    3  A    between atoms: C7_7  and  O8_8 
ROOT
HETATM    1  C1  UNL     1     -33.221   6.476   3.870  1.00 20.00    -0.070 C 
HETATM    2  C2  UNL     1     -34.097   5.822   4.369  1.00 20.00    -0.070 C 
ENDROOT
BRANCH   2   3
HETATM    3  C7  UNL     1     -35.166   5.022   4.977  1.00 20.00     0.193 C 
HETATM    4  C6  UNL     1     -34.976   4.903   6.480  1.00 20.00     0.053 C 
BRANCH   3   5
HETATM    5  O8  UNL     1     -35.165   3.707   4.427  1.00 20.00    -0.384 OA
HETATM    6  H18 UNL     1     -36.068   3.538   4.114  1.00 20.00     0.211 HD
ENDBRANCH   3   5
ENDBRANCH   2   3
BRANCH   1   7
HETATM    7  C4  UNL     1     -32.180   7.257   3.285  1.00 20.00    -0.018 C 
HETATM    8  C3  UNL     1     -31.106   7.579   4.022  1.00 20.00     0.028 C 
HETATM    9  C5  UNL     1     -32.318   7.696   1.857  1.00 20.00     0.057 C 
ENDBRANCH   1   7
TORSDOF 3
ENDMDL
MODEL 5
REMARK VINA RESULT:      -3.9     11.339     12.109
REMARK  3 active torsions:
REMARK  status: ('A' for Active; 'I' for Inactive)
REMARK    1  A    between atoms: C1_1  and  C4_4 
REMARK    2  A    between atoms: C2_2  and  C7_7 
REMARK    3  A    between atoms: C7_7  and  O8_8 
ROOT
HETATM    1  C1  UNL     1     -33.698   5.932   4.319  1.00 20.00    -0.070 C 
HETATM    2  C2  UNL     1     -32.915   6.552   3.650  1.00 20.00    -0.070 C 
ENDROOT
BRANCH   2   3
HETATM    3  C7  UNL     1     -31.959   7.310   2.833  1.00 20.00     0.193 C 
HETATM    4  C6  UNL     1     -30.908   7.983   3.701  1.00 20.00     0.053 C 
BRANCH   3   5
HETATM    5  O8  UNL     1     -32.641   8.323   2.100  1.00 20.00    -0.384 OA
HETATM    6  H18 UNL     1     -32.572   8.080   1.163  1.00 20.00     0.211 HD
ENDBRANCH   3   5
ENDBRANCH   2   3
BRANCH   1   7
HETATM    7  C4  UNL     1     -34.623   5.196   5.117  1.00 20.00    -0.018 C 
HETATM    8  C3  UNL     1     -35.389   4.259   4.539  1.00 20.00     0.028 C 
HETATM    9  C5  UNL     1     -34.711   5.494   6.585  1.00 20.00     0.057 C 
ENDBRANCH   1   7
TORSDOF 3
ENDMDL
MODEL 6
REMARK VINA RESULT:      -3.8     10.059     10.806
REMARK  3 active torsions:
REMARK  status: ('A' for Active; 'I' for Inactive)
REMARK    1  A    between atoms: C1_1  and  C4_4 
REMARK    2  A    between atoms: C2_2  and  C7_7 
REMARK    3  A    between atoms: C7_7  and  O8_8 
ROOT
HETATM    1  C1  UNL     1     -33.278   6.911   3.506  1.00 20.00    -0.070 C 
HETATM    2  C2  UNL     1     -32.637   7.640   2.798  1.00 20.00    -0.070 C 
ENDROOT
BRANCH   2   3
HETATM    3  C7  UNL     1     -31.853   8.531   1.933  1.00 20.00     0.193 C 
HETATM    4  C6  UNL     1     -32.561   9.860   1.729  1.00 20.00     0.053 C 
BRANCH   3   5
HETATM    5  O8  UNL     1     -31.665   7.929   0.656  1.00 20.00    -0.384 OA
HETATM    6  H18 UNL     1     -30.709   7.915   0.495  1.00 20.00     0.211 HD
ENDBRANCH   3   5
ENDBRANCH   2   3
BRANCH   1   7
HETATM    7  C4  UNL     1     -34.045   6.048   4.344  1.00 20.00    -0.018 C 
HETATM    8  C3  UNL     1     -34.830   5.116   3.784  1.00 20.00     0.028 C 
HETATM    9  C5  UNL     1     -33.949   6.210   5.833  1.00 20.00     0.057 C 
ENDBRANCH   1   7
TORSDOF 3
ENDMDL
MODEL 7
REMARK VINA RESULT:      -3.8      9.886     10.542
REMARK  3 active torsions:
REMARK  status: ('A' for Active; 'I' for Inactive)
REMARK    1  A    between atoms: C1_1  and  C4_4 
REMARK    2  A    between atoms: C2_2  and  C7_7 
REMARK    3  A    between atoms: C7_7  and  O8_8 
ROOT
HETATM    1  C1  UNL     1     -32.670   7.680   2.543  1.00 20.00    -0.070 C 
HETATM    2  C2  UNL     1     -33.072   6.854   3.318  1.00 20.00    -0.070 C 
ENDROOT
BRANCH   2   3
HETATM    3  C7  UNL     1     -33.560   5.845   4.265  1.00 20.00     0.193 C 
HETATM    4  C6  UNL     1     -34.890   5.265   3.811  1.00 20.00     0.053 C 
BRANCH   3   5
HETATM    5  O8  UNL     1     -33.750   6.433   5.549  1.00 20.00    -0.384 OA
HETATM    6  H18 UNL     1     -34.693   6.342   5.758  1.00 20.00     0.211 HD
ENDBRANCH   3   5
ENDBRANCH   2   3
BRANCH   1   7
HETATM    7  C4  UNL     1     -32.201   8.664   1.622  1.00 20.00    -0.018 C 
HETATM    8  C3  UNL     1     -31.402   8.288   0.612  1.00 20.00     0.028 C 
HETATM    9  C5  UNL     1     -32.617  10.092   1.811  1.00 20.00     0.057 C 
ENDBRANCH   1   7
TORSDOF 3
ENDMDL
MODEL 8
REMARK VINA RESULT:      -3.8      2.477      4.645
REMARK  3 active torsions:
REMARK  status: ('A' for Active; 'I' for Inactive)
REMARK    1  A    between atoms: C1_1  and  C4_4 
REMARK    2  A    between atoms: C2_2  and  C7_7 
REMARK    3  A    between atoms: C7_7  and  O8_8 
ROOT
HETATM    1  C1  UNL     1     -34.578  15.427  -2.563  1.00 20.00    -0.070 C 
HETATM    2  C2  UNL     1     -34.633  16.323  -1.765  1.00 20.00    -0.070 C 
ENDROOT
BRANCH   2   3
HETATM    3  C7  UNL     1     -34.701  17.419  -0.790  1.00 20.00     0.193 C 
HETATM    4  C6  UNL     1     -33.327  18.018  -0.541  1.00 20.00     0.053 C 
BRANCH   3   5
HETATM    5  O8  UNL     1     -35.203  16.935   0.453  1.00 20.00    -0.384 OA
HETATM    6  H18 UNL     1     -36.097  17.299   0.550  1.00 20.00     0.211 HD
ENDBRANCH   3   5
ENDBRANCH   2   3
BRANCH   1   7
HETATM    7  C4  UNL     1     -34.507  14.363  -3.511  1.00 20.00    -0.018 C 
HETATM    8  C3  UNL     1     -33.326  13.770  -3.744  1.00 20.00     0.028 C 
HETATM    9  C5  UNL     1     -35.758  13.937  -4.220  1.00 20.00     0.057 C 
ENDBRANCH   1   7
TORSDOF 3
ENDMDL
MODEL 9
REMARK VINA RESULT:      -3.7      1.709      2.154
REMARK  3 active torsions:
REMARK  status: ('A' for Active; 'I' for Inactive)
REMARK    1  A    between atoms: C1_1  and  C4_4 
REMARK    2  A    between atoms: C2_2  and  C7_7 
REMARK    3  A    between atoms: C7_7  and  O8_8 
ROOT
HETATM    1  C1  UNL     1     -34.640  16.550  -1.334  1.00 20.00    -0.070 C 
HETATM    2  C2  UNL     1     -34.887  15.813  -2.250  1.00 20.00    -0.070 C 
ENDROOT
BRANCH   2   3
HETATM    3  C7  UNL     1     -35.189  14.912  -3.368  1.00 20.00     0.193 C 
HETATM    4  C6  UNL     1     -34.060  13.919  -3.593  1.00 20.00     0.053 C 
BRANCH   3   5
HETATM    5  O8  UNL     1     -35.363  15.662  -4.567  1.00 20.00    -0.384 OA
HETATM    6  H18 UNL     1     -36.103  16.269  -4.408  1.00 20.00     0.211 HD
ENDBRANCH   3   5
ENDBRANCH   2   3
BRANCH   1   7
HETATM    7  C4  UNL     1     -34.347  17.431  -0.250  1.00 20.00    -0.018 C 
HETATM    8  C3  UNL     1     -35.174  17.472   0.805  1.00 20.00     0.028 C 
HETATM    9  C5  UNL     1     -33.117  18.288  -0.324  1.00 20.00     0.057 C 
ENDBRANCH   1   7
TORSDOF 3
ENDMDL
