MODEL 1
REMARK VINA RESULT:      -5.4      0.000      0.000
REMARK  1 active torsions:
REMARK  status: ('A' for Active; 'I' for Inactive)
REMARK    1  A    between atoms: C3_3  and  C6_6 
ROOT
HETATM    1  C1  UNL     1     -34.511   5.247   6.602  1.00 20.00    -0.024 C 
HETATM    2  C2  UNL     1     -33.993   6.323   5.983  1.00 20.00    -0.076 C 
HETATM    3  C4  UNL     1     -35.137   4.085   5.889  1.00 20.00     0.028 C 
HETATM    4  C5  UNL     1     -34.910   4.084   4.377  1.00 20.00     0.009 C 
HETATM    5  C6  UNL     1     -34.010   6.461   4.476  1.00 20.00     0.079 C 
HETATM    6  C7  UNL     1     -35.010   5.500   3.795  1.00 20.00    -0.004 C 
HETATM    7  C8  UNL     1     -33.404   7.464   6.764  1.00 20.00     0.044 C 
HETATM    8  C9  UNL     1     -34.870   5.482   2.271  1.00 20.00     0.011 C 
ENDROOT
BRANCH   5   9
HETATM    9  C3  UNL     1     -32.595   6.235   4.020  1.00 20.00     0.240 C 
HETATM   10  O10 UNL     1     -31.925   7.089   3.449  1.00 20.00    -0.306 OA
ENDBRANCH   5   9
TORSDOF 1
ENDMDL
MODEL 2
REMARK VINA RESULT:      -4.4     12.440     14.221
REMARK  1 active torsions:
REMARK  status: ('A' for Active; 'I' for Inactive)
REMARK    1  A    between atoms: C3_3  and  C6_6 
ROOT
HETATM    1  C1  UNL     1     -34.142  16.335  -6.664  1.00 20.00    -0.024 C 
HETATM    2  C2  UNL     1     -34.920  15.282  -6.357  1.00 20.00    -0.076 C 
HETATM    3  C4  UNL     1     -33.497  17.231  -5.649  1.00 20.00     0.028 C 
HETATM    4  C5  UNL     1     -33.571  16.705  -4.215  1.00 20.00     0.009 C 
HETATM    5  C6  UNL     1     -35.229  14.911  -4.923  1.00 20.00     0.079 C 
HETATM    6  C7  UNL     1     -34.931  16.054  -3.928  1.00 20.00    -0.004 C 
HETATM    7  C8  UNL     1     -35.556  14.442  -7.430  1.00 20.00     0.044 C 
HETATM    8  C9  UNL     1     -35.032  15.609  -2.467  1.00 20.00     0.011 C 
ENDROOT
BRANCH   5   9
HETATM    9  C3  UNL     1     -34.429  13.671  -4.632  1.00 20.00     0.240 C 
HETATM   10  O10 UNL     1     -34.936  12.579  -4.399  1.00 20.00    -0.306 OA
ENDBRANCH   5   9
TORSDOF 1
ENDMDL
MODEL 3
REMARK VINA RESULT:      -4.4     12.339     13.278
REMARK  1 active torsions:
REMARK  status: ('A' for Active; 'I' for Inactive)
REMARK    1  A    between atoms: C3_3  and  C6_6 
ROOT
HETATM    1  C1  UNL     1     -33.683  17.004  -3.468  1.00 20.00    -0.024 C 
HETATM    2  C2  UNL     1     -34.444  16.140  -2.772  1.00 20.00    -0.076 C 
HETATM    3  C4  UNL     1     -33.289  16.813  -4.902  1.00 20.00     0.028 C 
HETATM    4  C5  UNL     1     -34.036  15.682  -5.610  1.00 20.00     0.009 C 
HETATM    5  C6  UNL     1     -34.969  14.863  -3.390  1.00 20.00     0.079 C 
HETATM    6  C7  UNL     1     -34.224  14.471  -4.686  1.00 20.00    -0.004 C 
HETATM    7  C8  UNL     1     -34.778  16.384  -1.326  1.00 20.00     0.044 C 
HETATM    8  C9  UNL     1     -34.893  13.311  -5.426  1.00 20.00     0.011 C 
ENDROOT
BRANCH   5   9
HETATM    9  C3  UNL     1     -36.439  15.082  -3.616  1.00 20.00     0.240 C 
HETATM   10  O10 UNL     1     -37.278  14.195  -3.503  1.00 20.00    -0.306 OA
ENDBRANCH   5   9
TORSDOF 1
ENDMDL
MODEL 4
REMARK VINA RESULT:      -4.3     11.864     13.430
REMARK  1 active torsions:
REMARK  status: ('A' for Active; 'I' for Inactive)
REMARK    1  A    between atoms: C3_3  and  C6_6 
ROOT
HETATM    1  C1  UNL     1     -35.158  13.925  -5.832  1.00 20.00    -0.024 C 
HETATM    2  C2  UNL     1     -35.972  14.972  -5.609  1.00 20.00    -0.076 C 
HETATM    3  C4  UNL     1     -34.198  13.373  -4.820  1.00 20.00     0.028 C 
HETATM    4  C5  UNL     1     -34.395  13.924  -3.407  1.00 20.00     0.009 C 
HETATM    5  C6  UNL     1     -35.979  15.708  -4.288  1.00 20.00     0.079 C 
HETATM    6  C7  UNL     1     -34.725  15.423  -3.432  1.00 20.00    -0.004 C 
HETATM    7  C8  UNL     1     -36.891  15.488  -6.681  1.00 20.00     0.044 C 
HETATM    8  C9  UNL     1     -34.834  15.988  -2.014  1.00 20.00     0.011 C 
ENDROOT
BRANCH   5   9
HETATM    9  C3  UNL     1     -37.252  15.309  -3.593  1.00 20.00     0.240 C 
HETATM   10  O10 UNL     1     -37.762  14.199  -3.706  1.00 20.00    -0.306 OA
ENDBRANCH   5   9
TORSDOF 1
ENDMDL
MODEL 5
REMARK VINA RESULT:      -4.3     12.176     13.506
REMARK  1 active torsions:
REMARK  status: ('A' for Active; 'I' for Inactive)
REMARK    1  A    between atoms: C3_3  and  C6_6 
ROOT
HETATM    1  C1  UNL     1     -34.447  13.992  -3.477  1.00 20.00    -0.024 C 
HETATM    2  C2  UNL     1     -34.656  15.314  -3.341  1.00 20.00    -0.076 C 
HETATM    3  C4  UNL     1     -34.654  13.234  -4.755  1.00 20.00     0.028 C 
HETATM    4  C5  UNL     1     -34.872  14.123  -5.980  1.00 20.00     0.009 C 
HETATM    5  C6  UNL     1     -35.142  16.167  -4.491  1.00 20.00     0.079 C 
HETATM    6  C7  UNL     1     -35.750  15.336  -5.642  1.00 20.00    -0.004 C 
HETATM    7  C8  UNL     1     -34.452  16.003  -2.020  1.00 20.00     0.044 C 
HETATM    8  C9  UNL     1     -36.038  16.174  -6.890  1.00 20.00     0.011 C 
ENDROOT
BRANCH   5   9
HETATM    9  C3  UNL     1     -33.960  16.984  -4.934  1.00 20.00     0.240 C 
HETATM   10  O10 UNL     1     -32.826  16.529  -5.038  1.00 20.00    -0.306 OA
ENDBRANCH   5   9
TORSDOF 1
ENDMDL
MODEL 6
REMARK VINA RESULT:      -4.2     12.313     13.328
REMARK  1 active torsions:
REMARK  status: ('A' for Active; 'I' for Inactive)
REMARK    1  A    between atoms: C3_3  and  C6_6 
ROOT
HETATM    1  C1  UNL     1     -36.097  15.235  -4.843  1.00 20.00    -0.024 C 
HETATM    2  C2  UNL     1     -35.091  14.522  -4.305  1.00 20.00    -0.076 C 
HETATM    3  C4  UNL     1     -36.578  16.551  -4.307  1.00 20.00     0.028 C 
HETATM    4  C5  UNL     1     -35.663  17.165  -3.247  1.00 20.00     0.009 C 
HETATM    5  C6  UNL     1     -34.348  14.995  -3.075  1.00 20.00     0.079 C 
HETATM    6  C7  UNL     1     -35.108  16.094  -2.299  1.00 20.00    -0.004 C 
HETATM    7  C8  UNL     1     -34.679  13.196  -4.881  1.00 20.00     0.044 C 
HETATM    8  C9  UNL     1     -34.265  16.724  -1.187  1.00 20.00     0.011 C 
ENDROOT
BRANCH   5   9
HETATM    9  C3  UNL     1     -32.999  15.456  -3.552  1.00 20.00     0.240 C 
HETATM   10  O10 UNL     1     -32.836  16.138  -4.558  1.00 20.00    -0.306 OA
ENDBRANCH   5   9
TORSDOF 1
ENDMDL
MODEL 7
REMARK VINA RESULT:      -4.2     12.514     14.063
REMARK  1 active torsions:
REMARK  status: ('A' for Active; 'I' for Inactive)
REMARK    1  A    between atoms: C3_3  and  C6_6 
ROOT
HETATM    1  C1  UNL     1     -33.612  16.793  -4.427  1.00 20.00    -0.024 C 
HETATM    2  C2  UNL     1     -33.439  15.460  -4.451  1.00 20.00    -0.076 C 
HETATM    3  C4  UNL     1     -34.525  17.541  -5.353  1.00 20.00     0.028 C 
HETATM    4  C5  UNL     1     -35.459  16.645  -6.167  1.00 20.00     0.009 C 
HETATM    5  C6  UNL     1     -34.159  14.580  -5.448  1.00 20.00     0.079 C 
HETATM    6  C7  UNL     1     -34.742  15.373  -6.640  1.00 20.00    -0.004 C 
HETATM    7  C8  UNL     1     -32.485  14.780  -3.508  1.00 20.00     0.044 C 
HETATM    8  C9  UNL     1     -35.654  14.523  -7.528  1.00 20.00     0.011 C 
ENDROOT
BRANCH   5   9
HETATM    9  C3  UNL     1     -35.219  13.849  -4.672  1.00 20.00     0.240 C 
HETATM   10  O10 UNL     1     -35.143  12.660  -4.380  1.00 20.00    -0.306 OA
ENDBRANCH   5   9
TORSDOF 1
ENDMDL
MODEL 8
REMARK VINA RESULT:      -4.2      1.520      3.009
REMARK  1 active torsions:
REMARK  status: ('A' for Active; 'I' for Inactive)
REMARK    1  A    between atoms: C3_3  and  C6_6 
ROOT
HETATM    1  C1  UNL     1     -33.695   6.281   2.796  1.00 20.00    -0.024 C 
HETATM    2  C2  UNL     1     -32.961   6.460   3.909  1.00 20.00    -0.076 C 
HETATM    3  C4  UNL     1     -34.983   5.513   2.750  1.00 20.00     0.028 C 
HETATM    4  C5  UNL     1     -35.550   5.163   4.127  1.00 20.00     0.009 C 
HETATM    5  C6  UNL     1     -33.377   5.876   5.241  1.00 20.00     0.079 C 
HETATM    6  C7  UNL     1     -34.437   4.760   5.104  1.00 20.00    -0.004 C 
HETATM    7  C8  UNL     1     -31.664   7.219   3.874  1.00 20.00     0.044 C 
HETATM    8  C9  UNL     1     -35.017   4.325   6.451  1.00 20.00     0.011 C 
ENDROOT
BRANCH   5   9
HETATM    9  C3  UNL     1     -33.864   7.032   6.070  1.00 20.00     0.240 C 
HETATM   10  O10 UNL     1     -33.249   7.478   7.033  1.00 20.00    -0.306 OA
ENDBRANCH   5   9
TORSDOF 1
ENDMDL
MODEL 9
REMARK VINA RESULT:      -4.1     12.298     13.492
REMARK  1 active torsions:
REMARK  status: ('A' for Active; 'I' for Inactive)
REMARK    1  A    between atoms: C3_3  and  C6_6 
ROOT
HETATM    1  C1  UNL     1     -35.944  16.837  -4.483  1.00 20.00    -0.024 C 
HETATM    2  C2  UNL     1     -36.082  15.595  -3.985  1.00 20.00    -0.076 C 
HETATM    3  C4  UNL     1     -34.624  17.476  -4.800  1.00 20.00     0.028 C 
HETATM    4  C5  UNL     1     -33.438  16.511  -4.763  1.00 20.00     0.009 C 
HETATM    5  C6  UNL     1     -34.885  14.720  -3.683  1.00 20.00     0.079 C 
HETATM    6  C7  UNL     1     -33.563  15.515  -3.602  1.00 20.00    -0.004 C 
HETATM    7  C8  UNL     1     -37.437  15.028  -3.667  1.00 20.00     0.044 C 
HETATM    8  C9  UNL     1     -32.332  14.610  -3.517  1.00 20.00     0.011 C 
ENDROOT
BRANCH   5   9
HETATM    9  C3  UNL     1     -34.857  13.666  -4.754  1.00 20.00     0.240 C 
HETATM   10  O10 UNL     1     -34.964  12.466  -4.524  1.00 20.00    -0.306 OA
ENDBRANCH   5   9
TORSDOF 1
ENDMDL
