MODEL 1
REMARK VINA RESULT:      -4.8      0.000      0.000
REMARK  0 active torsions:
REMARK  status: ('A' for Active; 'I' for Inactive)
ROOT
HETATM    1  C1  UNL     1     -34.049  13.681  -4.379  1.00 20.00     0.006 C 
HETATM    2  C2  UNL     1     -33.444  14.802  -3.525  1.00 20.00     0.006 C 
HETATM    3  C3  UNL     1     -36.373  14.414  -3.857  1.00 20.00     0.021 C 
HETATM    4  C4  UNL     1     -35.428  14.013  -4.996  1.00 20.00     0.005 C 
HETATM    5  C5  UNL     1     -34.485  15.506  -2.634  1.00 20.00    -0.005 C 
HETATM    6  C6  UNL     1     -35.822  15.751  -3.366  1.00 20.00     0.052 C 
HETATM    7  C7  UNL     1     -35.463  15.199  -6.001  1.00 20.00     0.005 C 
HETATM    8  C8  UNL     1     -33.904  16.787  -2.030  1.00 20.00     0.011 C 
HETATM    9  C9  UNL     1     -36.721  15.137  -6.886  1.00 20.00     0.027 C 
HETATM   10  C10 UNL     1     -34.237  15.307  -6.910  1.00 20.00     0.027 C 
HETATM   11  S11 UNL     1     -35.610  16.688  -4.928  1.00 20.00    -0.154 SA
ENDROOT
TORSDOF 0
ENDMDL
MODEL 2
REMARK VINA RESULT:      -4.6      1.108      3.597
REMARK  0 active torsions:
REMARK  status: ('A' for Active; 'I' for Inactive)
ROOT
HETATM    1  C1  UNL     1     -34.629  13.750  -4.781  1.00 20.00     0.006 C 
HETATM    2  C2  UNL     1     -34.976  14.479  -6.086  1.00 20.00     0.006 C 
HETATM    3  C3  UNL     1     -32.966  15.494  -4.144  1.00 20.00     0.021 C 
HETATM    4  C4  UNL     1     -34.157  14.673  -3.633  1.00 20.00     0.005 C 
HETATM    5  C5  UNL     1     -33.983  15.607  -6.426  1.00 20.00    -0.005 C 
HETATM    6  C6  UNL     1     -33.576  16.430  -5.185  1.00 20.00     0.052 C 
HETATM    7  C7  UNL     1     -35.191  15.716  -3.122  1.00 20.00     0.005 C 
HETATM    8  C8  UNL     1     -34.525  16.481  -7.558  1.00 20.00     0.011 C 
HETATM    9  C9  UNL     1     -34.812  16.228  -1.720  1.00 20.00     0.027 C 
HETATM   10  C10 UNL     1     -36.637  15.219  -3.079  1.00 20.00     0.027 C 
HETATM   11  S11 UNL     1     -35.020  17.125  -4.294  1.00 20.00    -0.154 SA
ENDROOT
TORSDOF 0
ENDMDL
MODEL 3
REMARK VINA RESULT:      -4.6      1.601      2.556
REMARK  0 active torsions:
REMARK  status: ('A' for Active; 'I' for Inactive)
ROOT
HETATM    1  C1  UNL     1     -33.602  17.714  -4.435  1.00 20.00     0.006 C 
HETATM    2  C2  UNL     1     -34.221  17.820  -3.035  1.00 20.00     0.006 C 
HETATM    3  C3  UNL     1     -32.928  15.345  -4.054  1.00 20.00     0.021 C 
HETATM    4  C4  UNL     1     -33.622  16.291  -5.042  1.00 20.00     0.005 C 
HETATM    5  C5  UNL     1     -33.845  16.638  -2.121  1.00 20.00    -0.005 C 
HETATM    6  C6  UNL     1     -33.879  15.284  -2.862  1.00 20.00     0.052 C 
HETATM    7  C7  UNL     1     -35.026  15.671  -5.292  1.00 20.00     0.005 C 
HETATM    8  C8  UNL     1     -34.706  16.637  -0.856  1.00 20.00     0.011 C 
HETATM    9  C9  UNL     1     -34.946  14.512  -6.303  1.00 20.00     0.027 C 
HETATM   10  C10 UNL     1     -36.088  16.660  -5.776  1.00 20.00     0.027 C 
HETATM   11  S11 UNL     1     -35.496  14.957  -3.661  1.00 20.00    -0.154 SA
ENDROOT
TORSDOF 0
ENDMDL
MODEL 4
REMARK VINA RESULT:      -4.5      1.141      3.736
REMARK  0 active torsions:
REMARK  status: ('A' for Active; 'I' for Inactive)
ROOT
HETATM    1  C1  UNL     1     -36.735  14.880  -4.092  1.00 20.00     0.006 C 
HETATM    2  C2  UNL     1     -36.382  15.081  -5.572  1.00 20.00     0.006 C 
HETATM    3  C3  UNL     1     -34.438  14.070  -3.562  1.00 20.00     0.021 C 
HETATM    4  C4  UNL     1     -35.543  15.037  -3.119  1.00 20.00     0.005 C 
HETATM    5  C5  UNL     1     -35.039  14.434  -5.962  1.00 20.00    -0.005 C 
HETATM    6  C6  UNL     1     -33.949  14.643  -4.889  1.00 20.00     0.052 C 
HETATM    7  C7  UNL     1     -34.872  16.439  -3.074  1.00 20.00     0.005 C 
HETATM    8  C8  UNL     1     -34.595  14.902  -7.349  1.00 20.00     0.011 C 
HETATM    9  C9  UNL     1     -34.055  16.620  -1.782  1.00 20.00     0.027 C 
HETATM   10  C10 UNL     1     -35.839  17.618  -3.203  1.00 20.00     0.027 C 
HETATM   11  S11 UNL     1     -33.688  16.412  -4.484  1.00 20.00    -0.154 SA
ENDROOT
TORSDOF 0
ENDMDL
MODEL 5
REMARK VINA RESULT:      -4.5      1.387      1.874
REMARK  0 active torsions:
REMARK  status: ('A' for Active; 'I' for Inactive)
ROOT
HETATM    1  C1  UNL     1     -33.286  16.636  -5.007  1.00 20.00     0.006 C 
HETATM    2  C2  UNL     1     -33.663  17.069  -3.584  1.00 20.00     0.006 C 
HETATM    3  C3  UNL     1     -34.140  14.326  -4.626  1.00 20.00     0.021 C 
HETATM    4  C4  UNL     1     -34.174  15.513  -5.595  1.00 20.00     0.005 C 
HETATM    5  C5  UNL     1     -34.028  15.882  -2.672  1.00 20.00    -0.005 C 
HETATM    6  C6  UNL     1     -34.891  14.826  -3.395  1.00 20.00     0.052 C 
HETATM    7  C7  UNL     1     -35.679  15.855  -5.780  1.00 20.00     0.005 C 
HETATM    8  C8  UNL     1     -34.669  16.375  -1.373  1.00 20.00     0.011 C 
HETATM    9  C9  UNL     1     -36.347  14.892  -6.779  1.00 20.00     0.027 C 
HETATM   10  C10 UNL     1     -35.962  17.290  -6.232  1.00 20.00     0.027 C 
HETATM   11  S11 UNL     1     -36.416  15.538  -4.123  1.00 20.00    -0.154 SA
ENDROOT
TORSDOF 0
ENDMDL
MODEL 6
REMARK VINA RESULT:      -4.4      1.161      3.770
REMARK  0 active torsions:
REMARK  status: ('A' for Active; 'I' for Inactive)
ROOT
HETATM    1  C1  UNL     1     -33.572  14.193  -3.860  1.00 20.00     0.006 C 
HETATM    2  C2  UNL     1     -34.720  13.885  -4.830  1.00 20.00     0.006 C 
HETATM    3  C3  UNL     1     -32.958  16.263  -5.104  1.00 20.00     0.021 C 
HETATM    4  C4  UNL     1     -33.244  15.698  -3.708  1.00 20.00     0.005 C 
HETATM    5  C5  UNL     1     -34.676  14.749  -6.106  1.00 20.00    -0.005 C 
HETATM    6  C6  UNL     1     -34.310  16.219  -5.811  1.00 20.00     0.052 C 
HETATM    7  C7  UNL     1     -34.374  16.591  -3.122  1.00 20.00     0.005 C 
HETATM    8  C8  UNL     1     -35.981  14.616  -6.894  1.00 20.00     0.011 C 
HETATM    9  C9  UNL     1     -33.805  17.915  -2.579  1.00 20.00     0.027 C 
HETATM   10  C10 UNL     1     -35.205  15.934  -2.018  1.00 20.00     0.027 C 
HETATM   11  S11 UNL     1     -35.426  16.992  -4.579  1.00 20.00    -0.154 SA
ENDROOT
TORSDOF 0
ENDMDL
MODEL 7
REMARK VINA RESULT:      -4.4      1.766      2.742
REMARK  0 active torsions:
REMARK  status: ('A' for Active; 'I' for Inactive)
ROOT
HETATM    1  C1  UNL     1     -34.523  16.050  -1.962  1.00 20.00     0.006 C 
HETATM    2  C2  UNL     1     -33.785  17.285  -2.497  1.00 20.00     0.006 C 
HETATM    3  C3  UNL     1     -36.139  16.085  -3.859  1.00 20.00     0.021 C 
HETATM    4  C4  UNL     1     -35.199  15.183  -3.050  1.00 20.00     0.005 C 
HETATM    5  C5  UNL     1     -34.554  18.004  -3.622  1.00 20.00    -0.005 C 
HETATM    6  C6  UNL     1     -35.201  17.018  -4.619  1.00 20.00     0.052 C 
HETATM    7  C7  UNL     1     -34.250  14.529  -4.095  1.00 20.00     0.005 C 
HETATM    8  C8  UNL     1     -33.662  19.037  -4.312  1.00 20.00     0.011 C 
HETATM    9  C9  UNL     1     -34.938  13.348  -4.803  1.00 20.00     0.027 C 
HETATM   10  C10 UNL     1     -32.913  14.042  -3.532  1.00 20.00     0.027 C 
HETATM   11  S11 UNL     1     -33.987  15.853  -5.347  1.00 20.00    -0.154 SA
ENDROOT
TORSDOF 0
ENDMDL
MODEL 8
REMARK VINA RESULT:      -4.3      1.405      2.231
REMARK  0 active torsions:
REMARK  status: ('A' for Active; 'I' for Inactive)
ROOT
HETATM    1  C1  UNL     1     -36.285  15.251  -3.366  1.00 20.00     0.006 C 
HETATM    2  C2  UNL     1     -35.314  15.741  -2.284  1.00 20.00     0.006 C 
HETATM    3  C3  UNL     1     -35.655  17.111  -4.901  1.00 20.00     0.021 C 
HETATM    4  C4  UNL     1     -35.862  15.594  -4.814  1.00 20.00     0.005 C 
HETATM    5  C5  UNL     1     -34.768  17.154  -2.564  1.00 20.00    -0.005 C 
HETATM    6  C6  UNL     1     -34.413  17.368  -4.051  1.00 20.00     0.052 C 
HETATM    7  C7  UNL     1     -34.529  14.964  -5.308  1.00 20.00     0.005 C 
HETATM    8  C8  UNL     1     -33.599  17.477  -1.629  1.00 20.00     0.011 C 
HETATM    9  C9  UNL     1     -34.452  14.967  -6.846  1.00 20.00     0.027 C 
HETATM   10  C10 UNL     1     -34.271  13.538  -4.815  1.00 20.00     0.027 C 
HETATM   11  S11 UNL     1     -33.234  16.113  -4.682  1.00 20.00    -0.154 SA
ENDROOT
TORSDOF 0
ENDMDL
MODEL 9
REMARK VINA RESULT:      -4.3      1.079      3.656
REMARK  0 active torsions:
REMARK  status: ('A' for Active; 'I' for Inactive)
ROOT
HETATM    1  C1  UNL     1     -36.466  14.400  -3.807  1.00 20.00     0.006 C 
HETATM    2  C2  UNL     1     -36.943  15.506  -4.758  1.00 20.00     0.006 C 
HETATM    3  C3  UNL     1     -34.799  13.570  -5.464  1.00 20.00     0.021 C 
HETATM    4  C4  UNL     1     -34.990  13.979  -3.998  1.00 20.00     0.005 C 
HETATM    5  C5  UNL     1     -36.421  15.326  -6.197  1.00 20.00    -0.005 C 
HETATM    6  C6  UNL     1     -34.945  14.877  -6.239  1.00 20.00     0.052 C 
HETATM    7  C7  UNL     1     -33.922  15.077  -3.732  1.00 20.00     0.005 C 
HETATM    8  C8  UNL     1     -36.675  16.587  -7.026  1.00 20.00     0.011 C 
HETATM    9  C9  UNL     1     -32.537  14.453  -3.483  1.00 20.00     0.027 C 
HETATM   10  C10 UNL     1     -34.243  16.017  -2.568  1.00 20.00     0.027 C 
HETATM   11  S11 UNL     1     -33.836  16.010  -5.317  1.00 20.00    -0.154 SA
ENDROOT
TORSDOF 0
ENDMDL
