MODEL 1
REMARK VINA RESULT:      -4.8      0.000      0.000
REMARK  4 active torsions:
REMARK  status: ('A' for Active; 'I' for Inactive)
REMARK    1  A    between atoms: C1_1  and  C4_4 
REMARK    2  A    between atoms: C2_2  and  C7_7 
REMARK    3  A    between atoms: C7_7  and  C8_8 
REMARK    4  A    between atoms: C8_8  and  O9_9 
ROOT
HETATM    1  C1  UNL     1     -33.119   6.712   3.422  1.00 20.00    -0.072 C 
HETATM    2  C2  UNL     1     -34.046   6.014   3.732  1.00 20.00    -0.099 C 
ENDROOT
BRANCH   2   3
HETATM    3  C7  UNL     1     -35.181   5.158   4.112  1.00 20.00     0.125 C 
BRANCH   3   4
HETATM    4  C8  UNL     1     -35.139   4.807   5.601  1.00 20.00     0.125 C 
HETATM    5  C6  UNL     1     -34.426   5.890   6.400  1.00 20.00     0.040 C 
BRANCH   4   6
HETATM    6  O9  UNL     1     -34.426   3.581   5.763  1.00 20.00    -0.395 OA
HETATM    7  H21 UNL     1     -33.652   3.784   6.310  1.00 20.00     0.210 HD
ENDBRANCH   4   6
ENDBRANCH   3   4
ENDBRANCH   2   3
BRANCH   1   8
HETATM    8  C4  UNL     1     -32.018   7.543   3.056  1.00 20.00    -0.018 C 
HETATM    9  C3  UNL     1     -31.012   7.720   3.925  1.00 20.00     0.028 C 
HETATM   10  C5  UNL     1     -32.019   8.196   1.705  1.00 20.00     0.057 C 
ENDBRANCH   1   8
TORSDOF 4
ENDMDL
MODEL 2
REMARK VINA RESULT:      -4.8      2.649      5.219
REMARK  4 active torsions:
REMARK  status: ('A' for Active; 'I' for Inactive)
REMARK    1  A    between atoms: C1_1  and  C4_4 
REMARK    2  A    between atoms: C2_2  and  C7_7 
REMARK    3  A    between atoms: C7_7  and  C8_8 
REMARK    4  A    between atoms: C8_8  and  O9_9 
ROOT
HETATM    1  C1  UNL     1     -33.453   6.363   4.123  1.00 20.00    -0.072 C 
HETATM    2  C2  UNL     1     -32.669   6.985   3.459  1.00 20.00    -0.099 C 
ENDROOT
BRANCH   2   3
HETATM    3  C7  UNL     1     -31.708   7.749   2.645  1.00 20.00     0.125 C 
BRANCH   3   4
HETATM    4  C8  UNL     1     -32.423   8.587   1.583  1.00 20.00     0.125 C 
HETATM    5  C6  UNL     1     -31.639   8.603   0.277  1.00 20.00     0.040 C 
BRANCH   4   6
HETATM    6  O9  UNL     1     -32.540   9.928   2.058  1.00 20.00    -0.395 OA
HETATM    7  H21 UNL     1     -31.646  10.303   2.042  1.00 20.00     0.210 HD
ENDBRANCH   4   6
ENDBRANCH   3   4
ENDBRANCH   2   3
BRANCH   1   8
HETATM    8  C4  UNL     1     -34.382   5.623   4.914  1.00 20.00    -0.018 C 
HETATM    9  C3  UNL     1     -35.203   4.747   4.314  1.00 20.00     0.028 C 
HETATM   10  C5  UNL     1     -34.414   5.848   6.397  1.00 20.00     0.057 C 
ENDBRANCH   1   8
TORSDOF 4
ENDMDL
MODEL 3
REMARK VINA RESULT:      -4.6     11.275     12.105
REMARK  4 active torsions:
REMARK  status: ('A' for Active; 'I' for Inactive)
REMARK    1  A    between atoms: C1_1  and  C4_4 
REMARK    2  A    between atoms: C2_2  and  C7_7 
REMARK    3  A    between atoms: C7_7  and  C8_8 
REMARK    4  A    between atoms: C8_8  and  O9_9 
ROOT
HETATM    1  C1  UNL     1     -34.495  15.764  -2.398  1.00 20.00    -0.072 C 
HETATM    2  C2  UNL     1     -34.004  14.889  -3.059  1.00 20.00    -0.099 C 
ENDROOT
BRANCH   2   3
HETATM    3  C7  UNL     1     -33.402  13.818  -3.870  1.00 20.00     0.125 C 
BRANCH   3   4
HETATM    4  C8  UNL     1     -34.421  13.217  -4.841  1.00 20.00     0.125 C 
HETATM    5  C6  UNL     1     -35.034  14.293  -5.729  1.00 20.00     0.040 C 
BRANCH   4   6
HETATM    6  O9  UNL     1     -35.466  12.603  -4.088  1.00 20.00    -0.395 OA
HETATM    7  H21 UNL     1     -36.234  13.191  -4.153  1.00 20.00     0.210 HD
ENDBRANCH   4   6
ENDBRANCH   3   4
ENDBRANCH   2   3
BRANCH   1   8
HETATM    8  C4  UNL     1     -35.080  16.801  -1.611  1.00 20.00    -0.018 C 
HETATM    9  C3  UNL     1     -34.666  16.979  -0.348  1.00 20.00     0.028 C 
HETATM   10  C5  UNL     1     -36.144  17.664  -2.224  1.00 20.00     0.057 C 
ENDBRANCH   1   8
TORSDOF 4
ENDMDL
MODEL 4
REMARK VINA RESULT:      -4.5     10.958     11.852
REMARK  4 active torsions:
REMARK  status: ('A' for Active; 'I' for Inactive)
REMARK    1  A    between atoms: C1_1  and  C4_4 
REMARK    2  A    between atoms: C2_2  and  C7_7 
REMARK    3  A    between atoms: C7_7  and  C8_8 
REMARK    4  A    between atoms: C8_8  and  O9_9 
ROOT
HETATM    1  C1  UNL     1     -34.676  16.559  -1.375  1.00 20.00    -0.072 C 
HETATM    2  C2  UNL     1     -34.959  15.840  -2.294  1.00 20.00    -0.099 C 
ENDROOT
BRANCH   2   3
HETATM    3  C7  UNL     1     -35.306  14.959  -3.422  1.00 20.00     0.125 C 
BRANCH   3   4
HETATM    4  C8  UNL     1     -34.508  13.655  -3.374  1.00 20.00     0.125 C 
HETATM    5  C6  UNL     1     -33.069  13.874  -3.825  1.00 20.00     0.040 C 
BRANCH   4   6
HETATM    6  O9  UNL     1     -35.119  12.710  -4.252  1.00 20.00    -0.395 OA
HETATM    7  H21 UNL     1     -35.461  13.216  -5.004  1.00 20.00     0.210 HD
ENDBRANCH   4   6
ENDBRANCH   3   4
ENDBRANCH   2   3
BRANCH   1   8
HETATM    8  C4  UNL     1     -34.340  17.411  -0.280  1.00 20.00    -0.018 C 
HETATM    9  C3  UNL     1     -35.133  17.433   0.802  1.00 20.00     0.028 C 
HETATM   10  C5  UNL     1     -33.106  18.259  -0.373  1.00 20.00     0.057 C 
ENDBRANCH   1   8
TORSDOF 4
ENDMDL
MODEL 5
REMARK VINA RESULT:      -4.5      2.323      4.851
REMARK  4 active torsions:
REMARK  status: ('A' for Active; 'I' for Inactive)
REMARK    1  A    between atoms: C1_1  and  C4_4 
REMARK    2  A    between atoms: C2_2  and  C7_7 
REMARK    3  A    between atoms: C7_7  and  C8_8 
REMARK    4  A    between atoms: C8_8  and  O9_9 
ROOT
HETATM    1  C1  UNL     1     -33.765   5.751   4.428  1.00 20.00    -0.072 C 
HETATM    2  C2  UNL     1     -33.196   6.140   3.444  1.00 20.00    -0.099 C 
ENDROOT
BRANCH   2   3
HETATM    3  C7  UNL     1     -32.499   6.616   2.238  1.00 20.00     0.125 C 
BRANCH   3   4
HETATM    4  C8  UNL     1     -32.184   8.110   2.333  1.00 20.00     0.125 C 
HETATM    5  C6  UNL     1     -31.682   8.651   0.999  1.00 20.00     0.040 C 
BRANCH   4   6
HETATM    6  O9  UNL     1     -31.164   8.303   3.312  1.00 20.00    -0.395 OA
HETATM    7  H21 UNL     1     -30.564   8.976   2.955  1.00 20.00     0.210 HD
ENDBRANCH   4   6
ENDBRANCH   3   4
ENDBRANCH   2   3
BRANCH   1   8
HETATM    8  C4  UNL     1     -34.439   5.288   5.598  1.00 20.00    -0.018 C 
HETATM    9  C3  UNL     1     -34.449   6.057   6.697  1.00 20.00     0.028 C 
HETATM   10  C5  UNL     1     -35.119   3.951   5.563  1.00 20.00     0.057 C 
ENDBRANCH   1   8
TORSDOF 4
ENDMDL
MODEL 6
REMARK VINA RESULT:      -4.4      1.449      2.143
REMARK  4 active torsions:
REMARK  status: ('A' for Active; 'I' for Inactive)
REMARK    1  A    between atoms: C1_1  and  C4_4 
REMARK    2  A    between atoms: C2_2  and  C7_7 
REMARK    3  A    between atoms: C7_7  and  C8_8 
REMARK    4  A    between atoms: C8_8  and  O9_9 
ROOT
HETATM    1  C1  UNL     1     -32.483   7.727   2.439  1.00 20.00    -0.072 C 
HETATM    2  C2  UNL     1     -32.738   6.844   3.211  1.00 20.00    -0.099 C 
ENDROOT
BRANCH   2   3
HETATM    3  C7  UNL     1     -33.052   5.761   4.158  1.00 20.00     0.125 C 
BRANCH   3   4
HETATM    4  C8  UNL     1     -34.491   5.867   4.667  1.00 20.00     0.125 C 
HETATM    5  C6  UNL     1     -34.708   4.981   5.888  1.00 20.00     0.040 C 
BRANCH   4   6
HETATM    6  O9  UNL     1     -35.377   5.439   3.634  1.00 20.00    -0.395 OA
HETATM    7  H21 UNL     1     -35.230   4.488   3.523  1.00 20.00     0.210 HD
ENDBRANCH   4   6
ENDBRANCH   3   4
ENDBRANCH   2   3
BRANCH   1   8
HETATM    8  C4  UNL     1     -32.179   8.776   1.519  1.00 20.00    -0.018 C 
HETATM    9  C3  UNL     1     -32.619  10.018   1.771  1.00 20.00     0.028 C 
HETATM   10  C5  UNL     1     -31.372   8.456   0.295  1.00 20.00     0.057 C 
ENDBRANCH   1   8
TORSDOF 4
ENDMDL
MODEL 7
REMARK VINA RESULT:      -4.3     12.153     12.896
REMARK  4 active torsions:
REMARK  status: ('A' for Active; 'I' for Inactive)
REMARK    1  A    between atoms: C1_1  and  C4_4 
REMARK    2  A    between atoms: C2_2  and  C7_7 
REMARK    3  A    between atoms: C7_7  and  C8_8 
REMARK    4  A    between atoms: C8_8  and  O9_9 
ROOT
HETATM    1  C1  UNL     1     -34.221  16.639  -1.423  1.00 20.00    -0.072 C 
HETATM    2  C2  UNL     1     -34.273  15.907  -2.373  1.00 20.00    -0.099 C 
ENDROOT
BRANCH   2   3
HETATM    3  C7  UNL     1     -34.338  15.009  -3.538  1.00 20.00     0.125 C 
BRANCH   3   4
HETATM    4  C8  UNL     1     -33.945  15.739  -4.824  1.00 20.00     0.125 C 
HETATM    5  C6  UNL     1     -34.400  14.965  -6.056  1.00 20.00     0.040 C 
BRANCH   4   6
HETATM    6  O9  UNL     1     -32.524  15.862  -4.866  1.00 20.00    -0.395 OA
HETATM    7  H21 UNL     1     -32.230  15.389  -5.659  1.00 20.00     0.210 HD
ENDBRANCH   4   6
ENDBRANCH   3   4
ENDBRANCH   2   3
BRANCH   1   8
HETATM    8  C4  UNL     1     -34.160  17.509  -0.292  1.00 20.00    -0.018 C 
HETATM    9  C3  UNL     1     -35.127  17.449   0.635  1.00 20.00     0.028 C 
HETATM   10  C5  UNL     1     -33.011  18.467  -0.175  1.00 20.00     0.057 C 
ENDBRANCH   1   8
TORSDOF 4
ENDMDL
MODEL 8
REMARK VINA RESULT:      -4.1      9.554     11.167
REMARK  4 active torsions:
REMARK  status: ('A' for Active; 'I' for Inactive)
REMARK    1  A    between atoms: C1_1  and  C4_4 
REMARK    2  A    between atoms: C2_2  and  C7_7 
REMARK    3  A    between atoms: C7_7  and  C8_8 
REMARK    4  A    between atoms: C8_8  and  O9_9 
ROOT
HETATM    1  C1  UNL     1     -41.632   3.737  -2.326  1.00 20.00    -0.072 C 
HETATM    2  C2  UNL     1     -41.210   4.517  -1.517  1.00 20.00    -0.099 C 
ENDROOT
BRANCH   2   3
HETATM    3  C7  UNL     1     -40.692   5.474  -0.524  1.00 20.00     0.125 C 
BRANCH   3   4
HETATM    4  C8  UNL     1     -41.173   6.896  -0.820  1.00 20.00     0.125 C 
HETATM    5  C6  UNL     1     -42.686   7.006  -0.671  1.00 20.00     0.040 C 
BRANCH   4   6
HETATM    6  O9  UNL     1     -40.826   7.228  -2.164  1.00 20.00    -0.395 OA
HETATM    7  H21 UNL     1     -40.974   6.428  -2.692  1.00 20.00     0.210 HD
ENDBRANCH   4   6
ENDBRANCH   3   4
ENDBRANCH   2   3
BRANCH   1   8
HETATM    8  C4  UNL     1     -42.132   2.808  -3.288  1.00 20.00    -0.018 C 
HETATM    9  C3  UNL     1     -43.411   2.897  -3.683  1.00 20.00     0.028 C 
HETATM   10  C5  UNL     1     -41.209   1.756  -3.829  1.00 20.00     0.057 C 
ENDBRANCH   1   8
TORSDOF 4
ENDMDL
MODEL 9
REMARK VINA RESULT:      -4.1     11.763     12.429
REMARK  4 active torsions:
REMARK  status: ('A' for Active; 'I' for Inactive)
REMARK    1  A    between atoms: C1_1  and  C4_4 
REMARK    2  A    between atoms: C2_2  and  C7_7 
REMARK    3  A    between atoms: C7_7  and  C8_8 
REMARK    4  A    between atoms: C8_8  and  O9_9 
ROOT
HETATM    1  C1  UNL     1     -34.539  16.519  -1.320  1.00 20.00    -0.072 C 
HETATM    2  C2  UNL     1     -34.738  15.745  -2.217  1.00 20.00    -0.099 C 
ENDROOT
BRANCH   2   3
HETATM    3  C7  UNL     1     -34.981  14.797  -3.316  1.00 20.00     0.125 C 
BRANCH   3   4
HETATM    4  C8  UNL     1     -36.356  15.022  -3.949  1.00 20.00     0.125 C 
HETATM    5  C6  UNL     1     -36.430  16.382  -4.633  1.00 20.00     0.040 C 
BRANCH   4   6
HETATM    6  O9  UNL     1     -37.347  14.976  -2.924  1.00 20.00    -0.395 OA
HETATM    7  H21 UNL     1     -38.133  14.570  -3.319  1.00 20.00     0.210 HD
ENDBRANCH   4   6
ENDBRANCH   3   4
ENDBRANCH   2   3
BRANCH   1   8
HETATM    8  C4  UNL     1     -34.304  17.437  -0.252  1.00 20.00    -0.018 C 
HETATM    9  C3  UNL     1     -35.164  17.482   0.776  1.00 20.00     0.028 C 
HETATM   10  C5  UNL     1     -33.097  18.326  -0.313  1.00 20.00     0.057 C 
ENDBRANCH   1   8
TORSDOF 4
ENDMDL
