MODEL 1
REMARK VINA RESULT:      -4.5      0.000      0.000
REMARK  0 active torsions:
REMARK  status: ('A' for Active; 'I' for Inactive)
ROOT
HETATM    1  C1  UNL     1     -35.871  15.394  -2.967  1.00 20.00     0.047 C 
HETATM    2  C2  UNL     1     -34.578  15.705  -3.101  1.00 20.00    -0.014 C 
HETATM    3  C3  UNL     1     -36.557  14.539  -3.963  1.00 20.00     0.152 C 
HETATM    4  C4  UNL     1     -34.301  14.018  -4.954  1.00 20.00     0.025 C 
HETATM    5  C5  UNL     1     -35.808  14.122  -5.215  1.00 20.00     0.056 C 
HETATM    6  C6  UNL     1     -33.662  15.203  -4.193  1.00 20.00    -0.029 C 
HETATM    7  C7  UNL     1     -36.187  15.040  -6.371  1.00 20.00     0.018 C 
HETATM    8  C8  UNL     1     -33.315  16.366  -5.138  1.00 20.00     0.019 C 
HETATM    9  C9  UNL     1     -32.349  14.708  -3.553  1.00 20.00     0.019 C 
HETATM   10  O10 UNL     1     -37.736  14.234  -3.787  1.00 20.00    -0.293 OA
ENDROOT
TORSDOF 0
ENDMDL
MODEL 2
REMARK VINA RESULT:      -4.5      1.534      2.452
REMARK  0 active torsions:
REMARK  status: ('A' for Active; 'I' for Inactive)
ROOT
HETATM    1  C1  UNL     1     -33.555  14.273  -3.823  1.00 20.00     0.047 C 
HETATM    2  C2  UNL     1     -33.360  15.594  -3.754  1.00 20.00    -0.014 C 
HETATM    3  C3  UNL     1     -34.775  13.713  -4.450  1.00 20.00     0.152 C 
HETATM    4  C4  UNL     1     -35.299  16.022  -5.307  1.00 20.00     0.025 C 
HETATM    5  C5  UNL     1     -35.872  14.661  -4.899  1.00 20.00     0.056 C 
HETATM    6  C6  UNL     1     -34.276  16.648  -4.331  1.00 20.00    -0.029 C 
HETATM    7  C7  UNL     1     -36.961  14.727  -3.835  1.00 20.00     0.018 C 
HETATM    8  C8  UNL     1     -34.970  17.400  -3.182  1.00 20.00     0.019 C 
HETATM    9  C9  UNL     1     -33.427  17.669  -5.116  1.00 20.00     0.019 C 
HETATM   10  O10 UNL     1     -34.903  12.493  -4.538  1.00 20.00    -0.293 OA
ENDROOT
TORSDOF 0
ENDMDL
MODEL 3
REMARK VINA RESULT:      -4.4      1.201      1.623
REMARK  0 active torsions:
REMARK  status: ('A' for Active; 'I' for Inactive)
ROOT
HETATM    1  C1  UNL     1     -36.831  16.172  -3.583  1.00 20.00     0.047 C 
HETATM    2  C2  UNL     1     -35.718  16.876  -3.356  1.00 20.00    -0.014 C 
HETATM    3  C3  UNL     1     -36.776  14.710  -3.816  1.00 20.00     0.152 C 
HETATM    4  C4  UNL     1     -34.365  14.765  -3.090  1.00 20.00     0.025 C 
HETATM    5  C5  UNL     1     -35.422  14.033  -3.925  1.00 20.00     0.056 C 
HETATM    6  C6  UNL     1     -34.324  16.303  -3.246  1.00 20.00    -0.029 C 
HETATM    7  C7  UNL     1     -35.054  13.853  -5.393  1.00 20.00     0.018 C 
HETATM    8  C8  UNL     1     -33.502  16.730  -4.474  1.00 20.00     0.019 C 
HETATM    9  C9  UNL     1     -33.641  16.893  -1.995  1.00 20.00     0.019 C 
HETATM   10  O10 UNL     1     -37.823  14.084  -3.977  1.00 20.00    -0.293 OA
ENDROOT
TORSDOF 0
ENDMDL
MODEL 4
REMARK VINA RESULT:      -4.4      1.905      3.602
REMARK  0 active torsions:
REMARK  status: ('A' for Active; 'I' for Inactive)
ROOT
HETATM    1  C1  UNL     1     -34.954  13.258  -4.607  1.00 20.00     0.047 C 
HETATM    2  C2  UNL     1     -36.098  13.920  -4.807  1.00 20.00    -0.014 C 
HETATM    3  C3  UNL     1     -33.894  13.811  -3.732  1.00 20.00     0.152 C 
HETATM    4  C4  UNL     1     -35.546  15.550  -2.965  1.00 20.00     0.025 C 
HETATM    5  C5  UNL     1     -34.065  15.207  -3.164  1.00 20.00     0.056 C 
HETATM    6  C6  UNL     1     -36.481  15.227  -4.153  1.00 20.00    -0.029 C 
HETATM    7  C7  UNL     1     -33.293  16.208  -4.015  1.00 20.00     0.018 C 
HETATM    8  C8  UNL     1     -36.469  16.345  -5.209  1.00 20.00     0.019 C 
HETATM    9  C9  UNL     1     -37.920  15.109  -3.610  1.00 20.00     0.019 C 
HETATM   10  O10 UNL     1     -32.872  13.156  -3.534  1.00 20.00    -0.293 OA
ENDROOT
TORSDOF 0
ENDMDL
MODEL 5
REMARK VINA RESULT:      -4.4      1.690      3.078
REMARK  0 active torsions:
REMARK  status: ('A' for Active; 'I' for Inactive)
ROOT
HETATM    1  C1  UNL     1     -35.244  14.490  -5.837  1.00 20.00     0.047 C 
HETATM    2  C2  UNL     1     -35.223  15.826  -5.871  1.00 20.00    -0.014 C 
HETATM    3  C3  UNL     1     -34.795  13.750  -4.634  1.00 20.00     0.152 C 
HETATM    4  C4  UNL     1     -34.756  15.943  -3.397  1.00 20.00     0.025 C 
HETATM    5  C5  UNL     1     -34.183  14.524  -3.481  1.00 20.00     0.056 C 
HETATM    6  C6  UNL     1     -34.821  16.728  -4.728  1.00 20.00    -0.029 C 
HETATM    7  C7  UNL     1     -32.663  14.460  -3.567  1.00 20.00     0.018 C 
HETATM    8  C8  UNL     1     -33.478  17.400  -5.060  1.00 20.00     0.019 C 
HETATM    9  C9  UNL     1     -35.879  17.841  -4.576  1.00 20.00     0.019 C 
HETATM   10  O10 UNL     1     -34.869  12.523  -4.618  1.00 20.00    -0.293 OA
ENDROOT
TORSDOF 0
ENDMDL
MODEL 6
REMARK VINA RESULT:      -4.4      1.718      2.895
REMARK  0 active torsions:
REMARK  status: ('A' for Active; 'I' for Inactive)
ROOT
HETATM    1  C1  UNL     1     -35.797  14.721  -3.699  1.00 20.00     0.047 C 
HETATM    2  C2  UNL     1     -35.883  15.685  -2.776  1.00 20.00    -0.014 C 
HETATM    3  C3  UNL     1     -34.537  14.485  -4.441  1.00 20.00     0.152 C 
HETATM    4  C4  UNL     1     -33.387  16.040  -2.828  1.00 20.00     0.025 C 
HETATM    5  C5  UNL     1     -33.374  15.438  -4.238  1.00 20.00     0.056 C 
HETATM    6  C6  UNL     1     -34.749  16.582  -2.335  1.00 20.00    -0.029 C 
HETATM    7  C7  UNL     1     -33.347  16.466  -5.363  1.00 20.00     0.018 C 
HETATM    8  C8  UNL     1     -35.010  18.012  -2.837  1.00 20.00     0.019 C 
HETATM    9  C9  UNL     1     -34.719  16.623  -0.793  1.00 20.00     0.019 C 
HETATM   10  O10 UNL     1     -34.477  13.561  -5.252  1.00 20.00    -0.293 OA
ENDROOT
TORSDOF 0
ENDMDL
MODEL 7
REMARK VINA RESULT:      -4.3      1.797      2.277
REMARK  0 active torsions:
REMARK  status: ('A' for Active; 'I' for Inactive)
ROOT
HETATM    1  C1  UNL     1     -34.893  14.471  -3.607  1.00 20.00     0.047 C 
HETATM    2  C2  UNL     1     -34.874  15.805  -3.530  1.00 20.00    -0.014 C 
HETATM    3  C3  UNL     1     -34.687  13.778  -4.900  1.00 20.00     0.152 C 
HETATM    4  C4  UNL     1     -33.993  15.990  -5.885  1.00 20.00     0.025 C 
HETATM    5  C5  UNL     1     -34.584  14.604  -6.169  1.00 20.00     0.056 C 
HETATM    6  C6  UNL     1     -34.593  16.747  -4.677  1.00 20.00    -0.029 C 
HETATM    7  C7  UNL     1     -35.932  14.626  -6.879  1.00 20.00     0.018 C 
HETATM    8  C8  UNL     1     -35.886  17.489  -5.054  1.00 20.00     0.019 C 
HETATM    9  C9  UNL     1     -33.564  17.800  -4.215  1.00 20.00     0.019 C 
HETATM   10  O10 UNL     1     -34.664  12.548  -4.930  1.00 20.00    -0.293 OA
ENDROOT
TORSDOF 0
ENDMDL
MODEL 8
REMARK VINA RESULT:      -4.2     11.277     12.824
REMARK  0 active torsions:
REMARK  status: ('A' for Active; 'I' for Inactive)
ROOT
HETATM    1  C1  UNL     1     -42.487   6.260  -2.674  1.00 20.00     0.047 C 
HETATM    2  C2  UNL     1     -42.696   4.972  -2.963  1.00 20.00    -0.014 C 
HETATM    3  C3  UNL     1     -41.719   6.659  -1.472  1.00 20.00     0.152 C 
HETATM    4  C4  UNL     1     -41.047   4.247  -1.198  1.00 20.00     0.025 C 
HETATM    5  C5  UNL     1     -41.280   5.587  -0.491  1.00 20.00     0.056 C 
HETATM    6  C6  UNL     1     -42.154   3.798  -2.180  1.00 20.00    -0.029 C 
HETATM    7  C7  UNL     1     -42.259   5.524   0.675  1.00 20.00     0.018 C 
HETATM    8  C8  UNL     1     -43.313   3.096  -1.452  1.00 20.00     0.019 C 
HETATM    9  C9  UNL     1     -41.537   2.785  -3.167  1.00 20.00     0.019 C 
HETATM   10  O10 UNL     1     -41.506   7.852  -1.259  1.00 20.00    -0.293 OA
ENDROOT
TORSDOF 0
ENDMDL
MODEL 9
REMARK VINA RESULT:      -4.2     10.758     11.970
REMARK  0 active torsions:
REMARK  status: ('A' for Active; 'I' for Inactive)
ROOT
HETATM    1  C1  UNL     1     -43.067   5.388  -3.087  1.00 20.00     0.047 C 
HETATM    2  C2  UNL     1     -42.521   4.733  -2.058  1.00 20.00    -0.014 C 
HETATM    3  C3  UNL     1     -42.942   6.859  -3.208  1.00 20.00     0.152 C 
HETATM    4  C4  UNL     1     -41.250   6.789  -1.344  1.00 20.00     0.025 C 
HETATM    5  C5  UNL     1     -42.295   7.638  -2.078  1.00 20.00     0.056 C 
HETATM    6  C6  UNL     1     -41.688   5.356  -0.962  1.00 20.00    -0.029 C 
HETATM    7  C7  UNL     1     -43.373   8.230  -1.178  1.00 20.00     0.018 C 
HETATM    8  C8  UNL     1     -42.481   5.333   0.355  1.00 20.00     0.019 C 
HETATM    9  C9  UNL     1     -40.416   4.506  -0.760  1.00 20.00     0.019 C 
HETATM   10  O10 UNL     1     -43.416   7.427  -4.191  1.00 20.00    -0.293 OA
ENDROOT
TORSDOF 0
ENDMDL
