MODEL 1
REMARK VINA RESULT:      -4.5      0.000      0.000
REMARK  0 active torsions:
REMARK  status: ('A' for Active; 'I' for Inactive)
ROOT
HETATM    1  C1  UNL     1     -34.752  13.833  -3.879  1.00 20.00     0.130 C 
HETATM    2  C2  UNL     1     -33.319  14.233  -3.629  1.00 20.00     0.079 C 
HETATM    3  C3  UNL     1     -32.952  15.533  -4.340  1.00 20.00     0.016 C 
HETATM    4  C4  UNL     1     -35.267  16.284  -3.590  1.00 20.00     0.020 C 
HETATM    5  C5  UNL     1     -35.811  14.849  -3.477  1.00 20.00     0.052 C 
HETATM    6  C6  UNL     1     -34.141  16.482  -4.633  1.00 20.00    -0.047 C 
HETATM    7  C7  UNL     1     -37.106  14.652  -4.261  1.00 20.00     0.018 C 
HETATM    8  C8  UNL     1     -33.652  17.943  -4.561  1.00 20.00     0.015 C 
HETATM    9  C9  UNL     1     -34.659  16.242  -6.066  1.00 20.00     0.015 C 
HETATM   10  O10 UNL     1     -35.034  12.715  -4.307  1.00 20.00    -0.298 OA
ENDROOT
TORSDOF 0
ENDMDL
MODEL 2
REMARK VINA RESULT:      -4.5      1.719      3.208
REMARK  0 active torsions:
REMARK  status: ('A' for Active; 'I' for Inactive)
ROOT
HETATM    1  C1  UNL     1     -35.270  14.933  -3.317  1.00 20.00     0.130 C 
HETATM    2  C2  UNL     1     -36.588  15.240  -3.984  1.00 20.00     0.079 C 
HETATM    3  C3  UNL     1     -36.433  15.486  -5.483  1.00 20.00     0.016 C 
HETATM    4  C4  UNL     1     -34.802  13.533  -5.362  1.00 20.00     0.020 C 
HETATM    5  C5  UNL     1     -34.506  13.737  -3.865  1.00 20.00     0.052 C 
HETATM    6  C6  UNL     1     -35.198  14.813  -6.136  1.00 20.00    -0.047 C 
HETATM    7  C7  UNL     1     -33.010  13.844  -3.577  1.00 20.00     0.018 C 
HETATM    8  C8  UNL     1     -35.544  14.425  -7.588  1.00 20.00     0.015 C 
HETATM    9  C9  UNL     1     -34.028  15.815  -6.195  1.00 20.00     0.015 C 
HETATM   10  O10 UNL     1     -34.889  15.571  -2.338  1.00 20.00    -0.298 OA
ENDROOT
TORSDOF 0
ENDMDL
MODEL 3
REMARK VINA RESULT:      -4.4      1.656      2.742
REMARK  0 active torsions:
REMARK  status: ('A' for Active; 'I' for Inactive)
ROOT
HETATM    1  C1  UNL     1     -33.932  15.401  -5.378  1.00 20.00     0.130 C 
HETATM    2  C2  UNL     1     -33.349  16.705  -4.891  1.00 20.00     0.079 C 
HETATM    3  C3  UNL     1     -34.021  17.194  -3.611  1.00 20.00     0.016 C 
HETATM    4  C4  UNL     1     -33.936  14.736  -2.946  1.00 20.00     0.020 C 
HETATM    5  C5  UNL     1     -33.878  14.237  -4.400  1.00 20.00     0.052 C 
HETATM    6  C6  UNL     1     -34.667  16.085  -2.741  1.00 20.00    -0.047 C 
HETATM    7  C7  UNL     1     -34.953  13.197  -4.703  1.00 20.00     0.018 C 
HETATM    8  C8  UNL     1     -34.561  16.483  -1.255  1.00 20.00     0.015 C 
HETATM    9  C9  UNL     1     -36.166  15.965  -3.079  1.00 20.00     0.015 C 
HETATM   10  O10 UNL     1     -34.348  15.282  -6.529  1.00 20.00    -0.298 OA
ENDROOT
TORSDOF 0
ENDMDL
MODEL 4
REMARK VINA RESULT:      -4.4      1.183      1.452
REMARK  0 active torsions:
REMARK  status: ('A' for Active; 'I' for Inactive)
ROOT
HETATM    1  C1  UNL     1     -34.865  13.873  -4.621  1.00 20.00     0.130 C 
HETATM    2  C2  UNL     1     -33.558  13.724  -3.883  1.00 20.00     0.079 C 
HETATM    3  C3  UNL     1     -33.039  15.059  -3.354  1.00 20.00     0.016 C 
HETATM    4  C4  UNL     1     -35.484  15.474  -2.773  1.00 20.00     0.020 C 
HETATM    5  C5  UNL     1     -36.012  14.491  -3.834  1.00 20.00     0.052 C 
HETATM    6  C6  UNL     1     -34.126  16.136  -3.106  1.00 20.00    -0.047 C 
HETATM    7  C7  UNL     1     -37.048  15.129  -4.756  1.00 20.00     0.018 C 
HETATM    8  C8  UNL     1     -33.700  17.017  -1.914  1.00 20.00     0.015 C 
HETATM    9  C9  UNL     1     -34.239  17.056  -4.339  1.00 20.00     0.015 C 
HETATM   10  O10 UNL     1     -35.003  13.441  -5.764  1.00 20.00    -0.298 OA
ENDROOT
TORSDOF 0
ENDMDL
MODEL 5
REMARK VINA RESULT:      -4.4      1.762      3.208
REMARK  0 active torsions:
REMARK  status: ('A' for Active; 'I' for Inactive)
ROOT
HETATM    1  C1  UNL     1     -33.568  15.470  -3.813  1.00 20.00     0.130 C 
HETATM    2  C2  UNL     1     -33.724  14.002  -4.122  1.00 20.00     0.079 C 
HETATM    3  C3  UNL     1     -34.821  13.743  -5.151  1.00 20.00     0.016 C 
HETATM    4  C4  UNL     1     -33.865  15.808  -6.295  1.00 20.00     0.020 C 
HETATM    5  C5  UNL     1     -33.259  16.374  -4.998  1.00 20.00     0.052 C 
HETATM    6  C6  UNL     1     -35.123  14.927  -6.105  1.00 20.00    -0.047 C 
HETATM    7  C7  UNL     1     -33.688  17.815  -4.734  1.00 20.00     0.018 C 
HETATM    8  C8  UNL     1     -35.550  14.373  -7.479  1.00 20.00     0.015 C 
HETATM    9  C9  UNL     1     -36.304  15.752  -5.555  1.00 20.00     0.015 C 
HETATM   10  O10 UNL     1     -33.610  15.885  -2.657  1.00 20.00    -0.298 OA
ENDROOT
TORSDOF 0
ENDMDL
MODEL 6
REMARK VINA RESULT:      -4.4      2.193      3.532
REMARK  0 active torsions:
REMARK  status: ('A' for Active; 'I' for Inactive)
ROOT
HETATM    1  C1  UNL     1     -34.338  17.367  -3.595  1.00 20.00     0.130 C 
HETATM    2  C2  UNL     1     -34.464  17.076  -5.070  1.00 20.00     0.079 C 
HETATM    3  C3  UNL     1     -34.050  15.647  -5.412  1.00 20.00     0.016 C 
HETATM    4  C4  UNL     1     -35.295  15.057  -3.270  1.00 20.00     0.020 C 
HETATM    5  C5  UNL     1     -35.130  16.462  -2.663  1.00 20.00     0.052 C 
HETATM    6  C6  UNL     1     -34.179  14.627  -4.251  1.00 20.00    -0.047 C 
HETATM    7  C7  UNL     1     -34.522  16.424  -1.263  1.00 20.00     0.018 C 
HETATM    8  C8  UNL     1     -34.537  13.244  -4.832  1.00 20.00     0.015 C 
HETATM    9  C9  UNL     1     -32.824  14.485  -3.529  1.00 20.00     0.015 C 
HETATM   10  O10 UNL     1     -33.693  18.334  -3.191  1.00 20.00    -0.298 OA
ENDROOT
TORSDOF 0
ENDMDL
MODEL 7
REMARK VINA RESULT:      -4.2      1.151      2.886
REMARK  0 active torsions:
REMARK  status: ('A' for Active; 'I' for Inactive)
ROOT
HETATM    1  C1  UNL     1     -34.911  14.019  -4.087  1.00 20.00     0.130 C 
HETATM    2  C2  UNL     1     -36.328  14.518  -4.221  1.00 20.00     0.079 C 
HETATM    3  C3  UNL     1     -36.596  15.735  -3.340  1.00 20.00     0.016 C 
HETATM    4  C4  UNL     1     -34.273  16.458  -4.094  1.00 20.00     0.020 C 
HETATM    5  C5  UNL     1     -33.814  15.023  -4.407  1.00 20.00     0.052 C 
HETATM    6  C6  UNL     1     -35.346  16.580  -2.985  1.00 20.00    -0.047 C 
HETATM    7  C7  UNL     1     -32.502  14.666  -3.711  1.00 20.00     0.018 C 
HETATM    8  C8  UNL     1     -35.757  18.061  -2.856  1.00 20.00     0.015 C 
HETATM    9  C9  UNL     1     -34.788  16.137  -1.618  1.00 20.00     0.015 C 
HETATM   10  O10 UNL     1     -34.674  12.844  -3.812  1.00 20.00    -0.298 OA
ENDROOT
TORSDOF 0
ENDMDL
MODEL 8
REMARK VINA RESULT:      -4.2     11.334     12.467
REMARK  0 active torsions:
REMARK  status: ('A' for Active; 'I' for Inactive)
ROOT
HETATM    1  C1  UNL     1     -41.171   4.663  -1.277  1.00 20.00     0.130 C 
HETATM    2  C2  UNL     1     -40.628   5.771  -0.409  1.00 20.00     0.079 C 
HETATM    3  C3  UNL     1     -41.219   7.131  -0.775  1.00 20.00     0.016 C 
HETATM    4  C4  UNL     1     -43.393   5.825  -1.006  1.00 20.00     0.020 C 
HETATM    5  C5  UNL     1     -42.683   4.485  -1.267  1.00 20.00     0.052 C 
HETATM    6  C6  UNL     1     -42.612   7.083  -1.453  1.00 20.00    -0.047 C 
HETATM    7  C7  UNL     1     -43.177   3.800  -2.539  1.00 20.00     0.018 C 
HETATM    8  C8  UNL     1     -43.415   8.335  -1.045  1.00 20.00     0.015 C 
HETATM    9  C9  UNL     1     -42.447   7.123  -2.986  1.00 20.00     0.015 C 
HETATM   10  O10 UNL     1     -40.419   3.906  -1.886  1.00 20.00    -0.298 OA
ENDROOT
TORSDOF 0
ENDMDL
MODEL 9
REMARK VINA RESULT:      -4.2      1.884      3.213
REMARK  0 active torsions:
REMARK  status: ('A' for Active; 'I' for Inactive)
ROOT
HETATM    1  C1  UNL     1     -33.669  15.572  -4.553  1.00 20.00     0.130 C 
HETATM    2  C2  UNL     1     -34.100  15.389  -3.119  1.00 20.00     0.079 C 
HETATM    3  C3  UNL     1     -35.598  15.616  -2.934  1.00 20.00     0.016 C 
HETATM    4  C4  UNL     1     -35.790  14.336  -5.128  1.00 20.00     0.020 C 
HETATM    5  C5  UNL     1     -34.360  14.686  -5.578  1.00 20.00     0.052 C 
HETATM    6  C6  UNL     1     -36.461  15.376  -4.199  1.00 20.00    -0.047 C 
HETATM    7  C7  UNL     1     -34.323  15.304  -6.974  1.00 20.00     0.018 C 
HETATM    8  C8  UNL     1     -37.843  14.839  -3.773  1.00 20.00     0.015 C 
HETATM    9  C9  UNL     1     -36.694  16.712  -4.933  1.00 20.00     0.015 C 
HETATM   10  O10 UNL     1     -32.754  16.339  -4.849  1.00 20.00    -0.298 OA
ENDROOT
TORSDOF 0
ENDMDL
