MODEL 1
REMARK VINA RESULT:      -4.8      0.000      0.000
REMARK  2 active torsions:
REMARK  status: ('A' for Active; 'I' for Inactive)
REMARK    1  A    between atoms: C6_6  and  C11_11 
REMARK    2  A    between atoms: C11_11  and  O12_12 
ROOT
HETATM    1  C1  UNL     1     -33.410  15.431  -4.240  1.00 20.00     0.005 C 
HETATM    2  C2  UNL     1     -34.167  15.272  -5.565  1.00 20.00     0.006 C 
HETATM    3  C3  UNL     1     -34.839  13.541  -4.119  1.00 20.00     0.010 C 
HETATM    4  C4  UNL     1     -34.293  14.667  -3.237  1.00 20.00    -0.007 C 
HETATM    5  C5  UNL     1     -35.442  14.516  -5.142  1.00 20.00    -0.006 C 
HETATM    6  C6  UNL     1     -35.597  15.438  -2.902  1.00 20.00     0.026 C 
HETATM    7  C7  UNL     1     -36.379  15.409  -4.260  1.00 20.00    -0.038 C 
HETATM    8  C8  UNL     1     -36.666  16.785  -4.882  1.00 20.00     0.015 C 
HETATM    9  C9  UNL     1     -37.744  14.711  -4.070  1.00 20.00     0.015 C 
ENDROOT
BRANCH   6  10
HETATM   10  C11 UNL     1     -35.380  16.794  -2.244  1.00 20.00     0.119 C 
HETATM   11  C10 UNL     1     -34.369  16.715  -1.111  1.00 20.00     0.040 C 
BRANCH  10  12
HETATM   12  O12 UNL     1     -36.620  17.270  -1.734  1.00 20.00    -0.396 OA
HETATM   13  H32 UNL     1     -37.034  17.786  -2.443  1.00 20.00     0.210 HD
ENDBRANCH  10  12
ENDBRANCH   6  10
TORSDOF 2
ENDMDL
MODEL 2
REMARK VINA RESULT:      -4.7      1.954      3.635
REMARK  2 active torsions:
REMARK  status: ('A' for Active; 'I' for Inactive)
REMARK    1  A    between atoms: C6_6  and  C11_11 
REMARK    2  A    between atoms: C11_11  and  O12_12 
ROOT
HETATM    1  C1  UNL     1     -36.467  14.983  -5.332  1.00 20.00     0.005 C 
HETATM    2  C2  UNL     1     -36.362  14.390  -3.921  1.00 20.00     0.006 C 
HETATM    3  C3  UNL     1     -34.740  13.356  -5.277  1.00 20.00     0.010 C 
HETATM    4  C4  UNL     1     -35.081  14.695  -5.936  1.00 20.00    -0.007 C 
HETATM    5  C5  UNL     1     -34.897  13.917  -3.855  1.00 20.00    -0.006 C 
HETATM    6  C6  UNL     1     -33.980  15.609  -5.335  1.00 20.00     0.026 C 
HETATM    7  C7  UNL     1     -33.900  15.125  -3.846  1.00 20.00    -0.038 C 
HETATM    8  C8  UNL     1     -34.244  16.188  -2.791  1.00 20.00     0.015 C 
HETATM    9  C9  UNL     1     -32.473  14.626  -3.529  1.00 20.00     0.015 C 
ENDROOT
BRANCH   6  10
HETATM   10  C11 UNL     1     -34.189  17.098  -5.581  1.00 20.00     0.119 C 
HETATM   11  C10 UNL     1     -34.604  17.379  -7.017  1.00 20.00     0.040 C 
BRANCH  10  12
HETATM   12  O12 UNL     1     -32.980  17.792  -5.298  1.00 20.00    -0.396 OA
HETATM   13  H32 UNL     1     -32.350  17.552  -5.996  1.00 20.00     0.210 HD
ENDBRANCH  10  12
ENDBRANCH   6  10
TORSDOF 2
ENDMDL
MODEL 3
REMARK VINA RESULT:      -4.6      1.069      2.948
REMARK  2 active torsions:
REMARK  status: ('A' for Active; 'I' for Inactive)
REMARK    1  A    between atoms: C6_6  and  C11_11 
REMARK    2  A    between atoms: C11_11  and  O12_12 
ROOT
HETATM    1  C1  UNL     1     -35.042  13.357  -4.347  1.00 20.00     0.005 C 
HETATM    2  C2  UNL     1     -33.681  13.789  -3.787  1.00 20.00     0.006 C 
HETATM    3  C3  UNL     1     -34.168  15.131  -5.657  1.00 20.00     0.010 C 
HETATM    4  C4  UNL     1     -35.504  14.594  -5.138  1.00 20.00    -0.007 C 
HETATM    5  C5  UNL     1     -33.570  15.255  -4.247  1.00 20.00    -0.006 C 
HETATM    6  C6  UNL     1     -35.946  15.752  -4.205  1.00 20.00     0.026 C 
HETATM    7  C7  UNL     1     -34.604  16.172  -3.511  1.00 20.00    -0.038 C 
HETATM    8  C8  UNL     1     -34.577  16.011  -1.982  1.00 20.00     0.015 C 
HETATM    9  C9  UNL     1     -34.297  17.656  -3.809  1.00 20.00     0.015 C 
ENDROOT
BRANCH   6  10
HETATM   10  C11 UNL     1     -37.131  15.425  -3.305  1.00 20.00     0.119 C 
HETATM   11  C10 UNL     1     -38.247  14.734  -4.073  1.00 20.00     0.040 C 
BRANCH  10  12
HETATM   12  O12 UNL     1     -37.630  16.629  -2.734  1.00 20.00    -0.396 OA
HETATM   13  H32 UNL     1     -38.453  16.840  -3.204  1.00 20.00     0.210 HD
ENDBRANCH  10  12
ENDBRANCH   6  10
TORSDOF 2
ENDMDL
MODEL 4
REMARK VINA RESULT:      -4.6      2.252      3.831
REMARK  2 active torsions:
REMARK  status: ('A' for Active; 'I' for Inactive)
REMARK    1  A    between atoms: C6_6  and  C11_11 
REMARK    2  A    between atoms: C11_11  and  O12_12 
ROOT
HETATM    1  C1  UNL     1     -34.188  17.885  -3.095  1.00 20.00     0.005 C 
HETATM    2  C2  UNL     1     -33.804  16.894  -1.988  1.00 20.00     0.006 C 
HETATM    3  C3  UNL     1     -35.966  16.354  -2.743  1.00 20.00     0.010 C 
HETATM    4  C4  UNL     1     -35.286  17.135  -3.870  1.00 20.00    -0.007 C 
HETATM    5  C5  UNL     1     -34.663  15.659  -2.320  1.00 20.00    -0.006 C 
HETATM    6  C6  UNL     1     -34.709  15.976  -4.726  1.00 20.00     0.026 C 
HETATM    7  C7  UNL     1     -34.193  14.966  -3.644  1.00 20.00    -0.038 C 
HETATM    8  C8  UNL     1     -32.683  14.684  -3.677  1.00 20.00     0.015 C 
HETATM    9  C9  UNL     1     -34.906  13.606  -3.807  1.00 20.00     0.015 C 
ENDROOT
BRANCH   6  10
HETATM   10  C11 UNL     1     -33.728  16.413  -5.806  1.00 20.00     0.119 C 
HETATM   11  C10 UNL     1     -34.163  17.708  -6.473  1.00 20.00     0.040 C 
BRANCH  10  12
HETATM   12  O12 UNL     1     -33.629  15.390  -6.789  1.00 20.00    -0.396 OA
HETATM   13  H32 UNL     1     -33.724  14.544  -6.322  1.00 20.00     0.210 HD
ENDBRANCH  10  12
ENDBRANCH   6  10
TORSDOF 2
ENDMDL
MODEL 5
REMARK VINA RESULT:      -4.6      2.087      3.106
REMARK  2 active torsions:
REMARK  status: ('A' for Active; 'I' for Inactive)
REMARK    1  A    between atoms: C6_6  and  C11_11 
REMARK    2  A    between atoms: C11_11  and  O12_12 
ROOT
HETATM    1  C1  UNL     1     -33.726  16.882  -3.805  1.00 20.00     0.005 C 
HETATM    2  C2  UNL     1     -35.011  17.670  -4.095  1.00 20.00     0.006 C 
HETATM    3  C3  UNL     1     -34.141  16.901  -6.141  1.00 20.00     0.010 C 
HETATM    4  C4  UNL     1     -33.576  15.988  -5.049  1.00 20.00    -0.007 C 
HETATM    5  C5  UNL     1     -35.491  17.065  -5.428  1.00 20.00    -0.006 C 
HETATM    6  C6  UNL     1     -34.610  14.832  -5.067  1.00 20.00     0.026 C 
HETATM    7  C7  UNL     1     -35.972  15.584  -5.251  1.00 20.00    -0.038 C 
HETATM    8  C8  UNL     1     -36.980  15.407  -4.104  1.00 20.00     0.015 C 
HETATM    9  C9  UNL     1     -36.673  15.102  -6.540  1.00 20.00     0.015 C 
ENDROOT
BRANCH   6  10
HETATM   10  C11 UNL     1     -34.494  13.861  -3.899  1.00 20.00     0.119 C 
HETATM   11  C10 UNL     1     -33.043  13.573  -3.547  1.00 20.00     0.040 C 
BRANCH  10  12
HETATM   12  O12 UNL     1     -35.145  12.642  -4.238  1.00 20.00    -0.396 OA
HETATM   13  H32 UNL     1     -35.948  12.595  -3.696  1.00 20.00     0.210 HD
ENDBRANCH  10  12
ENDBRANCH   6  10
TORSDOF 2
ENDMDL
MODEL 6
REMARK VINA RESULT:      -4.5      1.694      2.974
REMARK  2 active torsions:
REMARK  status: ('A' for Active; 'I' for Inactive)
REMARK    1  A    between atoms: C6_6  and  C11_11 
REMARK    2  A    between atoms: C11_11  and  O12_12 
ROOT
HETATM    1  C1  UNL     1     -34.968  17.615  -4.066  1.00 20.00     0.005 C 
HETATM    2  C2  UNL     1     -33.747  17.121  -4.854  1.00 20.00     0.006 C 
HETATM    3  C3  UNL     1     -33.612  16.261  -2.667  1.00 20.00     0.010 C 
HETATM    4  C4  UNL     1     -35.084  16.592  -2.922  1.00 20.00    -0.007 C 
HETATM    5  C5  UNL     1     -33.369  15.820  -4.119  1.00 20.00    -0.006 C 
HETATM    6  C6  UNL     1     -35.614  15.220  -3.417  1.00 20.00     0.026 C 
HETATM    7  C7  UNL     1     -34.448  14.703  -4.327  1.00 20.00    -0.038 C 
HETATM    8  C8  UNL     1     -34.815  14.484  -5.804  1.00 20.00     0.015 C 
HETATM    9  C9  UNL     1     -33.918  13.355  -3.793  1.00 20.00     0.015 C 
ENDROOT
BRANCH   6  10
HETATM   10  C11 UNL     1     -37.012  15.261  -4.020  1.00 20.00     0.119 C 
HETATM   11  C10 UNL     1     -37.854  16.376  -3.418  1.00 20.00     0.040 C 
BRANCH  10  12
HETATM   12  O12 UNL     1     -37.656  14.013  -3.793  1.00 20.00    -0.396 OA
HETATM   13  H32 UNL     1     -37.811  13.949  -2.837  1.00 20.00     0.210 HD
ENDBRANCH  10  12
ENDBRANCH   6  10
TORSDOF 2
ENDMDL
MODEL 7
REMARK VINA RESULT:      -4.5      1.751      2.873
REMARK  2 active torsions:
REMARK  status: ('A' for Active; 'I' for Inactive)
REMARK    1  A    between atoms: C6_6  and  C11_11 
REMARK    2  A    between atoms: C11_11  and  O12_12 
ROOT
HETATM    1  C1  UNL     1     -34.166  15.232  -5.556  1.00 20.00     0.005 C 
HETATM    2  C2  UNL     1     -34.986  14.334  -4.620  1.00 20.00     0.006 C 
HETATM    3  C3  UNL     1     -32.956  14.853  -3.550  1.00 20.00     0.010 C 
HETATM    4  C4  UNL     1     -33.198  15.945  -4.596  1.00 20.00    -0.007 C 
HETATM    5  C5  UNL     1     -34.451  14.711  -3.226  1.00 20.00    -0.006 C 
HETATM    6  C6  UNL     1     -33.913  17.022  -3.737  1.00 20.00     0.026 C 
HETATM    7  C7  UNL     1     -34.859  16.169  -2.824  1.00 20.00    -0.038 C 
HETATM    8  C8  UNL     1     -36.361  16.446  -2.995  1.00 20.00     0.015 C 
HETATM    9  C9  UNL     1     -34.525  16.418  -1.337  1.00 20.00     0.015 C 
ENDROOT
BRANCH   6  10
HETATM   10  C11 UNL     1     -34.541  18.156  -4.538  1.00 20.00     0.119 C 
HETATM   11  C10 UNL     1     -33.640  18.610  -5.675  1.00 20.00     0.040 C 
BRANCH  10  12
HETATM   12  O12 UNL     1     -34.793  19.256  -3.671  1.00 20.00    -0.396 OA
HETATM   13  H32 UNL     1     -33.950  19.472  -3.242  1.00 20.00     0.210 HD
ENDBRANCH  10  12
ENDBRANCH   6  10
TORSDOF 2
ENDMDL
MODEL 8
REMARK VINA RESULT:      -4.4      1.480      3.408
REMARK  2 active torsions:
REMARK  status: ('A' for Active; 'I' for Inactive)
REMARK    1  A    between atoms: C6_6  and  C11_11 
REMARK    2  A    between atoms: C11_11  and  O12_12 
ROOT
HETATM    1  C1  UNL     1     -35.977  15.364  -7.029  1.00 20.00     0.005 C 
HETATM    2  C2  UNL     1     -34.600  14.724  -6.810  1.00 20.00     0.006 C 
HETATM    3  C3  UNL     1     -34.623  16.810  -5.722  1.00 20.00     0.010 C 
HETATM    4  C4  UNL     1     -36.083  16.372  -5.870  1.00 20.00    -0.007 C 
HETATM    5  C5  UNL     1     -34.123  15.375  -5.498  1.00 20.00    -0.006 C 
HETATM    6  C6  UNL     1     -36.319  15.670  -4.506  1.00 20.00     0.026 C 
HETATM    7  C7  UNL     1     -34.975  14.898  -4.273  1.00 20.00    -0.038 C 
HETATM    8  C8  UNL     1     -35.103  13.369  -4.182  1.00 20.00     0.015 C 
HETATM    9  C9  UNL     1     -34.315  15.370  -2.958  1.00 20.00     0.015 C 
ENDROOT
BRANCH   6  10
HETATM   10  C11 UNL     1     -37.614  14.872  -4.420  1.00 20.00     0.119 C 
HETATM   11  C10 UNL     1     -38.741  15.542  -5.190  1.00 20.00     0.040 C 
BRANCH  10  12
HETATM   12  O12 UNL     1     -37.991  14.739  -3.055  1.00 20.00    -0.396 OA
HETATM   13  H32 UNL     1     -37.292  14.225  -2.621  1.00 20.00     0.210 HD
ENDBRANCH  10  12
ENDBRANCH   6  10
TORSDOF 2
ENDMDL
MODEL 9
REMARK VINA RESULT:      -4.4      1.851      3.267
REMARK  2 active torsions:
REMARK  status: ('A' for Active; 'I' for Inactive)
REMARK    1  A    between atoms: C6_6  and  C11_11 
REMARK    2  A    between atoms: C11_11  and  O12_12 
ROOT
HETATM    1  C1  UNL     1     -36.772  15.748  -3.394  1.00 20.00     0.005 C 
HETATM    2  C2  UNL     1     -37.363  14.767  -4.414  1.00 20.00     0.006 C 
HETATM    3  C3  UNL     1     -36.588  16.660  -5.577  1.00 20.00     0.010 C 
HETATM    4  C4  UNL     1     -35.829  16.615  -4.247  1.00 20.00    -0.007 C 
HETATM    5  C5  UNL     1     -36.617  15.130  -5.713  1.00 20.00    -0.006 C 
HETATM    6  C6  UNL     1     -34.547  15.847  -4.666  1.00 20.00     0.026 C 
HETATM    7  C7  UNL     1     -35.100  14.746  -5.634  1.00 20.00    -0.038 C 
HETATM    8  C8  UNL     1     -34.865  13.296  -5.183  1.00 20.00     0.015 C 
HETATM    9  C9  UNL     1     -34.449  14.892  -7.027  1.00 20.00     0.015 C 
ENDROOT
BRANCH   6  10
HETATM   10  C11 UNL     1     -33.676  15.389  -3.503  1.00 20.00     0.119 C 
HETATM   11  C10 UNL     1     -33.620  16.430  -2.396  1.00 20.00     0.040 C 
BRANCH  10  12
HETATM   12  O12 UNL     1     -32.358  15.138  -3.977  1.00 20.00    -0.396 OA
HETATM   13  H32 UNL     1     -32.228  14.177  -3.943  1.00 20.00     0.210 HD
ENDBRANCH  10  12
ENDBRANCH   6  10
TORSDOF 2
ENDMDL
