MODEL 1
REMARK VINA RESULT:      -3.5      0.000      0.000
REMARK  1 active torsions:
REMARK  status: ('A' for Active; 'I' for Inactive)
REMARK    1  A    between atoms: C3_3  and  C4_4 
ROOT
HETATM    1  C1  UNL     1     -34.584  13.755  -4.158  1.00 20.00     0.086 C 
HETATM    2  C2  UNL     1     -32.460  14.907  -3.641  1.00 20.00     0.050 C 
HETATM    3  C4  UNL     1     -33.964  15.062  -3.878  1.00 20.00     0.134 C 
HETATM    4  N5  UNL     1     -35.071  12.724  -4.382  1.00 20.00    -0.195 NA
HETATM    5 CL7  UNL     1     -34.709  15.647  -2.343  1.00 20.00    -0.102 Cl
ENDROOT
BRANCH   3   6
HETATM    6  C3  UNL     1     -34.292  16.088  -4.973  1.00 20.00     0.155 C 
HETATM    7 CL6  UNL     1     -34.145  15.425  -6.625  1.00 20.00    -0.127 Cl
ENDBRANCH   3   6
TORSDOF 1
ENDMDL
MODEL 2
REMARK VINA RESULT:      -3.4      1.608      2.465
REMARK  1 active torsions:
REMARK  status: ('A' for Active; 'I' for Inactive)
REMARK    1  A    between atoms: C3_3  and  C4_4 
ROOT
HETATM    1  C1  UNL     1     -34.528  13.684  -4.516  1.00 20.00     0.086 C 
HETATM    2  C2  UNL     1     -33.976  15.883  -5.497  1.00 20.00     0.050 C 
HETATM    3  C4  UNL     1     -34.070  15.052  -4.216  1.00 20.00     0.134 C 
HETATM    4  N5  UNL     1     -34.893  12.607  -4.754  1.00 20.00    -0.195 NA
HETATM    5 CL7  UNL     1     -32.405  14.881  -3.543  1.00 20.00    -0.102 Cl
ENDROOT
BRANCH   3   6
HETATM    6  C3  UNL     1     -34.940  15.714  -3.138  1.00 20.00     0.155 C 
HETATM    7 CL6  UNL     1     -33.986  16.470  -1.830  1.00 20.00    -0.127 Cl
ENDBRANCH   3   6
TORSDOF 1
ENDMDL
MODEL 3
REMARK VINA RESULT:      -3.4      1.064      2.864
REMARK  1 active torsions:
REMARK  status: ('A' for Active; 'I' for Inactive)
REMARK    1  A    between atoms: C3_3  and  C4_4 
ROOT
HETATM    1  C1  UNL     1     -34.760  13.818  -4.882  1.00 20.00     0.086 C 
HETATM    2  C2  UNL     1     -35.917  15.981  -5.177  1.00 20.00     0.050 C 
HETATM    3  C4  UNL     1     -34.604  15.212  -5.333  1.00 20.00     0.134 C 
HETATM    4  N5  UNL     1     -34.885  12.720  -4.523  1.00 20.00    -0.195 NA
HETATM    5 CL7  UNL     1     -34.218  15.125  -7.093  1.00 20.00    -0.102 Cl
ENDROOT
BRANCH   3   6
HETATM    6  C3  UNL     1     -33.423  15.902  -4.633  1.00 20.00     0.155 C 
HETATM    7 CL6  UNL     1     -33.577  15.927  -2.854  1.00 20.00    -0.127 Cl
ENDBRANCH   3   6
TORSDOF 1
ENDMDL
MODEL 4
REMARK VINA RESULT:      -3.3      1.568      1.764
REMARK  1 active torsions:
REMARK  status: ('A' for Active; 'I' for Inactive)
REMARK    1  A    between atoms: C3_3  and  C4_4 
ROOT
HETATM    1  C1  UNL     1     -36.582  14.588  -3.793  1.00 20.00     0.086 C 
HETATM    2  C2  UNL     1     -34.303  13.632  -3.795  1.00 20.00     0.050 C 
HETATM    3  C4  UNL     1     -35.144  14.911  -3.798  1.00 20.00     0.134 C 
HETATM    4  N5  UNL     1     -37.714  14.332  -3.793  1.00 20.00    -0.195 NA
HETATM    5 CL7  UNL     1     -34.826  15.786  -2.253  1.00 20.00    -0.102 Cl
ENDROOT
BRANCH   3   6
HETATM    6  C3  UNL     1     -34.783  15.859  -4.951  1.00 20.00     0.155 C 
HETATM    7 CL6  UNL     1     -34.372  15.003  -6.464  1.00 20.00    -0.127 Cl
ENDBRANCH   3   6
TORSDOF 1
ENDMDL
MODEL 5
REMARK VINA RESULT:      -3.3      1.971      2.701
REMARK  1 active torsions:
REMARK  status: ('A' for Active; 'I' for Inactive)
REMARK    1  A    between atoms: C3_3  and  C4_4 
ROOT
HETATM    1  C1  UNL     1     -35.974  14.462  -4.068  1.00 20.00     0.086 C 
HETATM    2  C2  UNL     1     -34.401  15.040  -5.883  1.00 20.00     0.050 C 
HETATM    3  C4  UNL     1     -34.602  14.906  -4.372  1.00 20.00     0.134 C 
HETATM    4  N5  UNL     1     -37.057  14.115  -3.830  1.00 20.00    -0.195 NA
HETATM    5 CL7  UNL     1     -33.513  13.595  -3.782  1.00 20.00    -0.102 Cl
ENDROOT
BRANCH   3   6
HETATM    6  C3  UNL     1     -34.242  16.188  -3.607  1.00 20.00     0.155 C 
HETATM    7 CL6  UNL     1     -34.502  16.052  -1.845  1.00 20.00    -0.127 Cl
ENDBRANCH   3   6
TORSDOF 1
ENDMDL
MODEL 6
REMARK VINA RESULT:      -3.2     12.279     13.023
REMARK  1 active torsions:
REMARK  status: ('A' for Active; 'I' for Inactive)
REMARK    1  A    between atoms: C3_3  and  C4_4 
ROOT
HETATM    1  C1  UNL     1     -34.160   6.187   5.639  1.00 20.00     0.086 C 
HETATM    2  C2  UNL     1     -35.798   5.817   3.827  1.00 20.00     0.050 C 
HETATM    3  C4  UNL     1     -34.483   5.362   4.462  1.00 20.00     0.134 C 
HETATM    4  N5  UNL     1     -33.907   6.841   6.565  1.00 20.00    -0.195 NA
HETATM    5 CL7  UNL     1     -34.718   3.684   5.081  1.00 20.00    -0.102 Cl
ENDROOT
BRANCH   3   6
HETATM    6  C3  UNL     1     -33.318   5.328   3.461  1.00 20.00     0.155 C 
HETATM    7 CL6  UNL     1     -32.360   6.836   3.446  1.00 20.00    -0.127 Cl
ENDBRANCH   3   6
TORSDOF 1
ENDMDL
MODEL 7
REMARK VINA RESULT:      -3.2      2.180      2.872
REMARK  1 active torsions:
REMARK  status: ('A' for Active; 'I' for Inactive)
REMARK    1  A    between atoms: C3_3  and  C4_4 
ROOT
HETATM    1  C1  UNL     1     -36.605  14.479  -4.074  1.00 20.00     0.086 C 
HETATM    2  C2  UNL     1     -35.100  15.559  -5.709  1.00 20.00     0.050 C 
HETATM    3  C4  UNL     1     -35.199  14.657  -4.476  1.00 20.00     0.134 C 
HETATM    4  N5  UNL     1     -37.715  14.343  -3.757  1.00 20.00    -0.195 NA
HETATM    5 CL7  UNL     1     -34.603  13.018  -4.939  1.00 20.00    -0.102 Cl
ENDROOT
BRANCH   3   6
HETATM    6  C3  UNL     1     -34.336  15.151  -3.306  1.00 20.00     0.155 C 
HETATM    7 CL6  UNL     1     -32.587  14.893  -3.563  1.00 20.00    -0.127 Cl
ENDBRANCH   3   6
TORSDOF 1
ENDMDL
MODEL 8
REMARK VINA RESULT:      -3.1     12.413     13.292
REMARK  1 active torsions:
REMARK  status: ('A' for Active; 'I' for Inactive)
REMARK    1  A    between atoms: C3_3  and  C4_4 
ROOT
HETATM    1  C1  UNL     1     -33.430   5.760   4.107  1.00 20.00     0.086 C 
HETATM    2  C2  UNL     1     -34.548   3.677   4.828  1.00 20.00     0.050 C 
HETATM    3  C4  UNL     1     -34.587   5.207   4.834  1.00 20.00     0.134 C 
HETATM    4  N5  UNL     1     -32.516   6.194   3.537  1.00 20.00    -0.195 NA
HETATM    5 CL7  UNL     1     -36.048   5.727   3.911  1.00 20.00    -0.102 Cl
ENDROOT
BRANCH   3   6
HETATM    6  C3  UNL     1     -34.698   5.795   6.248  1.00 20.00     0.155 C 
HETATM    7 CL6  UNL     1     -33.492   7.072   6.576  1.00 20.00    -0.127 Cl
ENDBRANCH   3   6
TORSDOF 1
ENDMDL
MODEL 9
REMARK VINA RESULT:      -3.1      2.334      2.692
REMARK  1 active torsions:
REMARK  status: ('A' for Active; 'I' for Inactive)
REMARK    1  A    between atoms: C3_3  and  C4_4 
ROOT
HETATM    1  C1  UNL     1     -36.810  14.741  -3.829  1.00 20.00     0.086 C 
HETATM    2  C2  UNL     1     -34.879  15.621  -2.563  1.00 20.00     0.050 C 
HETATM    3  C4  UNL     1     -35.443  15.280  -3.944  1.00 20.00     0.134 C 
HETATM    4  N5  UNL     1     -37.886  14.313  -3.736  1.00 20.00    -0.195 NA
HETATM    5 CL7  UNL     1     -35.592  16.816  -4.877  1.00 20.00    -0.102 Cl
ENDROOT
BRANCH   3   6
HETATM    6  C3  UNL     1     -34.531  14.337  -4.744  1.00 20.00     0.155 C 
HETATM    7 CL6  UNL     1     -33.229  13.614  -3.759  1.00 20.00    -0.127 Cl
ENDBRANCH   3   6
TORSDOF 1
ENDMDL
