MODEL 1
REMARK VINA RESULT:      -4.4      0.000      0.000
REMARK  2 active torsions:
REMARK  status: ('A' for Active; 'I' for Inactive)
REMARK    1  A    between atoms: C3_3  and  C5_5 
REMARK    2  A    between atoms: C5_5  and  C6_6 
ROOT
HETATM    1  C1  UNL     1     -35.624   5.085   4.150  1.00 20.00     0.202 C 
HETATM    2  C2  UNL     1     -34.932   5.336   5.471  1.00 20.00     0.144 C 
HETATM    3  C3  UNL     1     -33.820   6.365   3.761  1.00 20.00     0.261 C 
HETATM    4  C4  UNL     1     -34.162   4.123   5.977  1.00 20.00     0.042 C 
HETATM    5  O7  UNL     1     -34.595   5.307   3.188  1.00 20.00    -0.359 OA
HETATM    6  O8  UNL     1     -34.006   6.390   5.183  1.00 20.00    -0.354 OA
ENDROOT
BRANCH   3   7
HETATM    7  C5  UNL     1     -32.354   6.171   3.428  1.00 20.00     0.075 C 
BRANCH   7   8
HETATM    8  C6  UNL     1     -31.585   7.480   3.265  1.00 20.00     0.119 C 
HETATM    9 CL9  UNL     1     -32.068   8.356   1.793  1.00 20.00    -0.130 Cl
ENDBRANCH   7   8
ENDBRANCH   3   7
TORSDOF 2
ENDMDL
MODEL 2
REMARK VINA RESULT:      -3.9     11.414     12.333
REMARK  2 active torsions:
REMARK  status: ('A' for Active; 'I' for Inactive)
REMARK    1  A    between atoms: C3_3  and  C5_5 
REMARK    2  A    between atoms: C5_5  and  C6_6 
ROOT
HETATM    1  C1  UNL     1     -34.760  13.188  -4.639  1.00 20.00     0.202 C 
HETATM    2  C2  UNL     1     -34.850  14.353  -5.600  1.00 20.00     0.144 C 
HETATM    3  C3  UNL     1     -33.483  14.855  -3.840  1.00 20.00     0.261 C 
HETATM    4  C4  UNL     1     -36.173  15.102  -5.500  1.00 20.00     0.042 C 
HETATM    5  O7  UNL     1     -34.350  13.798  -3.417  1.00 20.00    -0.359 OA
HETATM    6  O8  UNL     1     -33.788  15.223  -5.192  1.00 20.00    -0.354 OA
ENDROOT
BRANCH   3   7
HETATM    7  C5  UNL     1     -33.639  16.051  -2.923  1.00 20.00     0.075 C 
BRANCH   7   8
HETATM    8  C6  UNL     1     -34.908  16.012  -2.076  1.00 20.00     0.119 C 
HETATM    9 CL9  UNL     1     -34.652  16.715  -0.461  1.00 20.00    -0.130 Cl
ENDBRANCH   7   8
ENDBRANCH   3   7
TORSDOF 2
ENDMDL
MODEL 3
REMARK VINA RESULT:      -3.8     11.233     12.324
REMARK  2 active torsions:
REMARK  status: ('A' for Active; 'I' for Inactive)
REMARK    1  A    between atoms: C3_3  and  C5_5 
REMARK    2  A    between atoms: C5_5  and  C6_6 
ROOT
HETATM    1  C1  UNL     1     -34.703  14.321  -5.935  1.00 20.00     0.202 C 
HETATM    2  C2  UNL     1     -34.582  13.292  -4.833  1.00 20.00     0.144 C 
HETATM    3  C3  UNL     1     -36.414  14.617  -4.511  1.00 20.00     0.261 C 
HETATM    4  C4  UNL     1     -33.482  13.622  -3.832  1.00 20.00     0.042 C 
HETATM    5  O7  UNL     1     -35.508  15.342  -5.348  1.00 20.00    -0.359 OA
HETATM    6  O8  UNL     1     -35.849  13.345  -4.169  1.00 20.00    -0.354 OA
ENDROOT
BRANCH   3   7
HETATM    7  C5  UNL     1     -36.709  15.414  -3.256  1.00 20.00     0.075 C 
BRANCH   7   8
HETATM    8  C6  UNL     1     -35.689  16.516  -2.977  1.00 20.00     0.119 C 
HETATM    9 CL9  UNL     1     -34.722  16.174  -1.523  1.00 20.00    -0.130 Cl
ENDBRANCH   7   8
ENDBRANCH   3   7
TORSDOF 2
ENDMDL
MODEL 4
REMARK VINA RESULT:      -3.7     11.551     12.800
REMARK  2 active torsions:
REMARK  status: ('A' for Active; 'I' for Inactive)
REMARK    1  A    between atoms: C3_3  and  C5_5 
REMARK    2  A    between atoms: C5_5  and  C6_6 
ROOT
HETATM    1  C1  UNL     1     -36.511  15.098  -5.860  1.00 20.00     0.202 C 
HETATM    2  C2  UNL     1     -35.398  14.334  -6.541  1.00 20.00     0.144 C 
HETATM    3  C3  UNL     1     -35.357  13.990  -4.284  1.00 20.00     0.261 C 
HETATM    4  C4  UNL     1     -34.247  15.230  -6.982  1.00 20.00     0.042 C 
HETATM    5  O7  UNL     1     -36.056  15.217  -4.514  1.00 20.00    -0.359 OA
HETATM    6  O8  UNL     1     -34.928  13.433  -5.533  1.00 20.00    -0.354 OA
ENDROOT
BRANCH   3   7
HETATM    7  C5  UNL     1     -34.163  14.235  -3.382  1.00 20.00     0.075 C 
BRANCH   7   8
HETATM    8  C6  UNL     1     -33.931  15.710  -3.061  1.00 20.00     0.119 C 
HETATM    9 CL9  UNL     1     -34.637  16.169  -1.493  1.00 20.00    -0.130 Cl
ENDBRANCH   7   8
ENDBRANCH   3   7
TORSDOF 2
ENDMDL
MODEL 5
REMARK VINA RESULT:      -3.6     11.762     12.501
REMARK  2 active torsions:
REMARK  status: ('A' for Active; 'I' for Inactive)
REMARK    1  A    between atoms: C3_3  and  C5_5 
REMARK    2  A    between atoms: C5_5  and  C6_6 
ROOT
HETATM    1  C1  UNL     1     -36.124  14.006  -4.262  1.00 20.00     0.202 C 
HETATM    2  C2  UNL     1     -35.089  13.487  -5.234  1.00 20.00     0.144 C 
HETATM    3  C3  UNL     1     -34.089  14.433  -3.412  1.00 20.00     0.261 C 
HETATM    4  C4  UNL     1     -34.938  14.370  -6.466  1.00 20.00     0.042 C 
HETATM    5  O7  UNL     1     -35.409  14.980  -3.505  1.00 20.00    -0.359 OA
HETATM    6  O8  UNL     1     -33.868  13.512  -4.488  1.00 20.00    -0.354 OA
ENDROOT
BRANCH   3   7
HETATM    7  C5  UNL     1     -33.063  15.548  -3.456  1.00 20.00     0.075 C 
BRANCH   7   8
HETATM    8  C6  UNL     1     -33.667  16.926  -3.713  1.00 20.00     0.119 C 
HETATM    9 CL9  UNL     1     -33.416  17.460  -5.392  1.00 20.00    -0.130 Cl
ENDBRANCH   7   8
ENDBRANCH   3   7
TORSDOF 2
ENDMDL
MODEL 6
REMARK VINA RESULT:      -3.5      9.085      9.898
REMARK  2 active torsions:
REMARK  status: ('A' for Active; 'I' for Inactive)
REMARK    1  A    between atoms: C3_3  and  C5_5 
REMARK    2  A    between atoms: C5_5  and  C6_6 
ROOT
HETATM    1  C1  UNL     1     -42.184   4.397   0.068  1.00 20.00     0.202 C 
HETATM    2  C2  UNL     1     -41.330   4.244  -1.170  1.00 20.00     0.144 C 
HETATM    3  C3  UNL     1     -41.036   6.304  -0.231  1.00 20.00     0.261 C 
HETATM    4  C4  UNL     1     -42.135   4.337  -2.461  1.00 20.00     0.042 C 
HETATM    5  O7  UNL     1     -42.303   5.811   0.216  1.00 20.00    -0.359 OA
HETATM    6  O8  UNL     1     -40.422   5.349  -1.105  1.00 20.00    -0.354 OA
ENDROOT
BRANCH   3   7
HETATM    7  C5  UNL     1     -41.219   7.628  -0.946  1.00 20.00     0.075 C 
BRANCH   7   8
HETATM    8  C6  UNL     1     -42.626   7.833  -1.503  1.00 20.00     0.119 C 
HETATM    9 CL9  UNL     1     -42.639   7.874  -3.282  1.00 20.00    -0.130 Cl
ENDBRANCH   7   8
ENDBRANCH   3   7
TORSDOF 2
ENDMDL
MODEL 7
REMARK VINA RESULT:      -3.5     11.748     12.515
REMARK  2 active torsions:
REMARK  status: ('A' for Active; 'I' for Inactive)
REMARK    1  A    between atoms: C3_3  and  C5_5 
REMARK    2  A    between atoms: C5_5  and  C6_6 
ROOT
HETATM    1  C1  UNL     1     -35.326  17.466  -3.099  1.00 20.00     0.202 C 
HETATM    2  C2  UNL     1     -34.163  17.146  -2.187  1.00 20.00     0.144 C 
HETATM    3  C3  UNL     1     -34.379  15.560  -3.816  1.00 20.00     0.261 C 
HETATM    4  C4  UNL     1     -34.602  16.607  -0.832  1.00 20.00     0.042 C 
HETATM    5  O7  UNL     1     -35.650  16.204  -3.679  1.00 20.00    -0.359 OA
HETATM    6  O8  UNL     1     -33.445  16.124  -2.886  1.00 20.00    -0.354 OA
ENDROOT
BRANCH   3   7
HETATM    7  C5  UNL     1     -34.525  14.070  -3.574  1.00 20.00     0.075 C 
BRANCH   7   8
HETATM    8  C6  UNL     1     -34.733  13.260  -4.851  1.00 20.00     0.119 C 
HETATM    9 CL9  UNL     1     -34.721  14.291  -6.302  1.00 20.00    -0.130 Cl
ENDBRANCH   7   8
ENDBRANCH   3   7
TORSDOF 2
ENDMDL
MODEL 8
REMARK VINA RESULT:      -3.5     11.826     12.959
REMARK  2 active torsions:
REMARK  status: ('A' for Active; 'I' for Inactive)
REMARK    1  A    between atoms: C3_3  and  C5_5 
REMARK    2  A    between atoms: C5_5  and  C6_6 
ROOT
HETATM    1  C1  UNL     1     -35.370  15.215  -3.074  1.00 20.00     0.202 C 
HETATM    2  C2  UNL     1     -34.307  14.193  -3.409  1.00 20.00     0.144 C 
HETATM    3  C3  UNL     1     -33.719  16.261  -4.181  1.00 20.00     0.261 C 
HETATM    4  C4  UNL     1     -34.710  13.273  -4.554  1.00 20.00     0.042 C 
HETATM    5  O7  UNL     1     -35.141  16.255  -4.023  1.00 20.00    -0.359 OA
HETATM    6  O8  UNL     1     -33.184  14.982  -3.817  1.00 20.00    -0.354 OA
ENDROOT
BRANCH   3   7
HETATM    7  C5  UNL     1     -33.360  16.591  -5.616  1.00 20.00     0.075 C 
BRANCH   7   8
HETATM    8  C6  UNL     1     -34.536  16.481  -6.583  1.00 20.00     0.119 C 
HETATM    9 CL9  UNL     1     -34.463  14.992  -7.554  1.00 20.00    -0.130 Cl
ENDBRANCH   7   8
ENDBRANCH   3   7
TORSDOF 2
ENDMDL
MODEL 9
REMARK VINA RESULT:      -3.5     12.697     13.762
REMARK  2 active torsions:
REMARK  status: ('A' for Active; 'I' for Inactive)
REMARK    1  A    between atoms: C3_3  and  C5_5 
REMARK    2  A    between atoms: C5_5  and  C6_6 
ROOT
HETATM    1  C1  UNL     1     -34.916  17.726  -4.248  1.00 20.00     0.202 C 
HETATM    2  C2  UNL     1     -33.582  17.132  -3.854  1.00 20.00     0.144 C 
HETATM    3  C3  UNL     1     -34.103  16.600  -6.013  1.00 20.00     0.261 C 
HETATM    4  C4  UNL     1     -33.719  15.920  -2.941  1.00 20.00     0.042 C 
HETATM    5  O7  UNL     1     -35.329  16.914  -5.346  1.00 20.00    -0.359 OA
HETATM    6  O8  UNL     1     -33.007  16.717  -5.097  1.00 20.00    -0.354 OA
ENDROOT
BRANCH   3   7
HETATM    7  C5  UNL     1     -34.167  15.195  -6.579  1.00 20.00     0.075 C 
BRANCH   7   8
HETATM    8  C6  UNL     1     -35.288  14.347  -5.984  1.00 20.00     0.119 C 
HETATM    9 CL9  UNL     1     -34.662  13.083  -4.899  1.00 20.00    -0.130 Cl
ENDBRANCH   7   8
ENDBRANCH   3   7
TORSDOF 2
ENDMDL
