MODEL 1
REMARK VINA RESULT:      -4.2      0.000      0.000
REMARK  2 active torsions:
REMARK  status: ('A' for Active; 'I' for Inactive)
REMARK    1  A    between atoms: C3_3  and  S9_9 
REMARK    2  A    between atoms: C6_6  and  S9_9 
ROOT
HETATM    1  C1  UNL     1     -32.092   9.157   0.968  1.00 20.00     0.013 C 
HETATM    2  C2  UNL     1     -32.056   8.391   1.893  1.00 20.00    -0.107 C 
HETATM    3  C6  UNL     1     -32.008   7.463   3.025  1.00 20.00     0.174 C 
ENDROOT
BRANCH   3   4
HETATM    4  S9  UNL     1     -33.037   6.004   2.751  1.00 20.00    -0.092 SA
BRANCH   4   5
HETATM    5  C3  UNL     1     -33.789   5.886   4.307  1.00 20.00     0.125 C 
HETATM    6  N7  UNL     1     -33.369   6.539   5.339  1.00 20.00    -0.275 NA
HETATM    7  C4  UNL     1     -34.266   6.260   6.480  1.00 20.00     0.161 C 
HETATM    8  C5  UNL     1     -34.947   4.913   6.290  1.00 20.00     0.103 C 
HETATM    9  S8  UNL     1     -35.149   4.820   4.502  1.00 20.00    -0.102 SA
ENDBRANCH   4   5
ENDBRANCH   3   4
TORSDOF 2
ENDMDL
MODEL 2
REMARK VINA RESULT:      -3.7     11.371     12.282
REMARK  2 active torsions:
REMARK  status: ('A' for Active; 'I' for Inactive)
REMARK    1  A    between atoms: C3_3  and  S9_9 
REMARK    2  A    between atoms: C6_6  and  S9_9 
ROOT
HETATM    1  C1  UNL     1     -34.511  16.314  -1.591  1.00 20.00     0.013 C 
HETATM    2  C2  UNL     1     -34.132  15.754  -2.583  1.00 20.00    -0.107 C 
HETATM    3  C6  UNL     1     -33.664  15.076  -3.794  1.00 20.00     0.174 C 
ENDROOT
BRANCH   3   4
HETATM    4  S9  UNL     1     -34.681  13.640  -4.204  1.00 20.00    -0.092 SA
BRANCH   4   5
HETATM    5  C3  UNL     1     -36.211  14.424  -4.420  1.00 20.00     0.125 C 
HETATM    6  N7  UNL     1     -37.241  14.162  -3.689  1.00 20.00    -0.275 NA
HETATM    7  C4  UNL     1     -38.354  15.045  -4.095  1.00 20.00     0.161 C 
HETATM    8  C5  UNL     1     -38.170  15.483  -5.541  1.00 20.00     0.103 C 
HETATM    9  S8  UNL     1     -36.379  15.593  -5.697  1.00 20.00    -0.102 SA
ENDBRANCH   4   5
ENDBRANCH   3   4
TORSDOF 2
ENDMDL
MODEL 3
REMARK VINA RESULT:      -3.6     11.067     11.787
REMARK  2 active torsions:
REMARK  status: ('A' for Active; 'I' for Inactive)
REMARK    1  A    between atoms: C3_3  and  S9_9 
REMARK    2  A    between atoms: C6_6  and  S9_9 
ROOT
HETATM    1  C1  UNL     1     -35.169  17.448   1.045  1.00 20.00     0.013 C 
HETATM    2  C2  UNL     1     -34.731  17.185  -0.042  1.00 20.00    -0.107 C 
HETATM    3  C6  UNL     1     -34.188  16.864  -1.364  1.00 20.00     0.174 C 
ENDROOT
BRANCH   3   4
HETATM    4  S9  UNL     1     -35.486  16.712  -2.611  1.00 20.00    -0.092 SA
BRANCH   4   5
HETATM    5  C3  UNL     1     -34.983  15.237  -3.369  1.00 20.00     0.125 C 
HETATM    6  N7  UNL     1     -33.766  14.809  -3.330  1.00 20.00    -0.275 NA
HETATM    7  C4  UNL     1     -33.696  13.503  -4.017  1.00 20.00     0.161 C 
HETATM    8  C5  UNL     1     -34.822  13.387  -5.034  1.00 20.00     0.103 C 
HETATM    9  S8  UNL     1     -36.159  14.304  -4.249  1.00 20.00    -0.102 SA
ENDBRANCH   4   5
ENDBRANCH   3   4
TORSDOF 2
ENDMDL
MODEL 4
REMARK VINA RESULT:      -3.6     11.863     12.968
REMARK  2 active torsions:
REMARK  status: ('A' for Active; 'I' for Inactive)
REMARK    1  A    between atoms: C3_3  and  S9_9 
REMARK    2  A    between atoms: C6_6  and  S9_9 
ROOT
HETATM    1  C1  UNL     1     -34.761  17.169  -0.065  1.00 20.00     0.013 C 
HETATM    2  C2  UNL     1     -34.661  16.556  -1.093  1.00 20.00    -0.107 C 
HETATM    3  C6  UNL     1     -34.545  15.803  -2.343  1.00 20.00     0.174 C 
ENDROOT
BRANCH   3   4
HETATM    4  S9  UNL     1     -33.642  16.724  -3.608  1.00 20.00    -0.092 SA
BRANCH   4   5
HETATM    5  C3  UNL     1     -34.057  15.780  -5.001  1.00 20.00     0.125 C 
HETATM    6  N7  UNL     1     -34.030  16.254  -6.201  1.00 20.00    -0.275 NA
HETATM    7  C4  UNL     1     -34.376  15.176  -7.150  1.00 20.00     0.161 C 
HETATM    8  C5  UNL     1     -35.219  14.118  -6.452  1.00 20.00     0.103 C 
HETATM    9  S8  UNL     1     -34.561  14.130  -4.776  1.00 20.00    -0.102 SA
ENDBRANCH   4   5
ENDBRANCH   3   4
TORSDOF 2
ENDMDL
MODEL 5
REMARK VINA RESULT:      -3.6     11.524     12.976
REMARK  2 active torsions:
REMARK  status: ('A' for Active; 'I' for Inactive)
REMARK    1  A    between atoms: C3_3  and  S9_9 
REMARK    2  A    between atoms: C6_6  and  S9_9 
ROOT
HETATM    1  C1  UNL     1     -34.691  16.830  -0.497  1.00 20.00     0.013 C 
HETATM    2  C2  UNL     1     -34.266  16.512  -1.574  1.00 20.00    -0.107 C 
HETATM    3  C6  UNL     1     -33.742  16.131  -2.888  1.00 20.00     0.174 C 
ENDROOT
BRANCH   3   4
HETATM    4  S9  UNL     1     -34.264  14.470  -3.371  1.00 20.00    -0.092 SA
BRANCH   4   5
HETATM    5  C3  UNL     1     -34.627  14.757  -5.040  1.00 20.00     0.125 C 
HETATM    6  N7  UNL     1     -35.068  13.835  -5.829  1.00 20.00    -0.275 NA
HETATM    7  C4  UNL     1     -35.332  14.428  -7.157  1.00 20.00     0.161 C 
HETATM    8  C5  UNL     1     -34.467  15.663  -7.358  1.00 20.00     0.103 C 
HETATM    9  S8  UNL     1     -34.360  16.346  -5.695  1.00 20.00    -0.102 SA
ENDBRANCH   4   5
ENDBRANCH   3   4
TORSDOF 2
ENDMDL
MODEL 6
REMARK VINA RESULT:      -3.5     11.914     13.707
REMARK  2 active torsions:
REMARK  status: ('A' for Active; 'I' for Inactive)
REMARK    1  A    between atoms: C3_3  and  S9_9 
REMARK    2  A    between atoms: C6_6  and  S9_9 
ROOT
HETATM    1  C1  UNL     1     -34.493  16.949  -0.607  1.00 20.00     0.013 C 
HETATM    2  C2  UNL     1     -34.591  16.253  -1.581  1.00 20.00    -0.107 C 
HETATM    3  C6  UNL     1     -34.720  15.405  -2.768  1.00 20.00     0.174 C 
ENDROOT
BRANCH   3   4
HETATM    4  S9  UNL     1     -33.183  15.322  -3.713  1.00 20.00    -0.092 SA
BRANCH   4   5
HETATM    5  C3  UNL     1     -33.554  16.462  -4.965  1.00 20.00     0.125 C 
HETATM    6  N7  UNL     1     -33.385  17.734  -4.826  1.00 20.00    -0.275 NA
HETATM    7  C4  UNL     1     -33.737  18.405  -6.094  1.00 20.00     0.161 C 
HETATM    8  C5  UNL     1     -34.723  17.551  -6.879  1.00 20.00     0.103 C 
HETATM    9  S8  UNL     1     -34.212  15.875  -6.464  1.00 20.00    -0.102 SA
ENDBRANCH   4   5
ENDBRANCH   3   4
TORSDOF 2
ENDMDL
MODEL 7
REMARK VINA RESULT:      -3.5     11.601     12.649
REMARK  2 active torsions:
REMARK  status: ('A' for Active; 'I' for Inactive)
REMARK    1  A    between atoms: C3_3  and  S9_9 
REMARK    2  A    between atoms: C6_6  and  S9_9 
ROOT
HETATM    1  C1  UNL     1     -34.587  16.528  -1.272  1.00 20.00     0.013 C 
HETATM    2  C2  UNL     1     -34.026  16.075  -2.232  1.00 20.00    -0.107 C 
HETATM    3  C6  UNL     1     -33.336  15.528  -3.403  1.00 20.00     0.174 C 
ENDROOT
BRANCH   3   4
HETATM    4  S9  UNL     1     -33.968  13.899  -3.863  1.00 20.00    -0.092 SA
BRANCH   4   5
HETATM    5  C3  UNL     1     -35.121  14.369  -5.068  1.00 20.00     0.125 C 
HETATM    6  N7  UNL     1     -34.833  14.437  -6.325  1.00 20.00    -0.275 NA
HETATM    7  C4  UNL     1     -36.050  14.805  -7.077  1.00 20.00     0.161 C 
HETATM    8  C5  UNL     1     -37.012  15.563  -6.173  1.00 20.00     0.103 C 
HETATM    9  S8  UNL     1     -36.730  14.799  -4.566  1.00 20.00    -0.102 SA
ENDBRANCH   4   5
ENDBRANCH   3   4
TORSDOF 2
ENDMDL
MODEL 8
REMARK VINA RESULT:      -3.4     11.640     12.987
REMARK  2 active torsions:
REMARK  status: ('A' for Active; 'I' for Inactive)
REMARK    1  A    between atoms: C3_3  and  S9_9 
REMARK    2  A    between atoms: C6_6  and  S9_9 
ROOT
HETATM    1  C1  UNL     1     -35.193  14.432  -7.179  1.00 20.00     0.013 C 
HETATM    2  C2  UNL     1     -35.111  13.991  -6.065  1.00 20.00    -0.107 C 
HETATM    3  C6  UNL     1     -35.018  13.448  -4.708  1.00 20.00     0.174 C 
ENDROOT
BRANCH   3   4
HETATM    4  S9  UNL     1     -33.534  14.018  -3.850  1.00 20.00    -0.092 SA
BRANCH   4   5
HETATM    5  C3  UNL     1     -33.726  15.728  -4.050  1.00 20.00     0.125 C 
HETATM    6  N7  UNL     1     -32.979  16.430  -4.834  1.00 20.00    -0.275 NA
HETATM    7  C4  UNL     1     -33.448  17.831  -4.817  1.00 20.00     0.161 C 
HETATM    8  C5  UNL     1     -34.172  18.122  -3.511  1.00 20.00     0.103 C 
HETATM    9  S8  UNL     1     -34.958  16.546  -3.134  1.00 20.00    -0.102 SA
ENDBRANCH   4   5
ENDBRANCH   3   4
TORSDOF 2
ENDMDL
MODEL 9
REMARK VINA RESULT:      -3.4     12.136     12.839
REMARK  2 active torsions:
REMARK  status: ('A' for Active; 'I' for Inactive)
REMARK    1  A    between atoms: C3_3  and  S9_9 
REMARK    2  A    between atoms: C6_6  and  S9_9 
ROOT
HETATM    1  C1  UNL     1     -31.882  18.926   0.677  1.00 20.00     0.013 C 
HETATM    2  C2  UNL     1     -32.630  18.730  -0.242  1.00 20.00    -0.107 C 
HETATM    3  C6  UNL     1     -33.540  18.498  -1.366  1.00 20.00     0.174 C 
ENDROOT
BRANCH   3   4
HETATM    4  S9  UNL     1     -34.265  16.844  -1.322  1.00 20.00    -0.092 SA
BRANCH   4   5
HETATM    5  C3  UNL     1     -33.970  16.358  -2.959  1.00 20.00     0.125 C 
HETATM    6  N7  UNL     1     -33.546  17.172  -3.866  1.00 20.00    -0.275 NA
HETATM    7  C4  UNL     1     -33.342  16.424  -5.124  1.00 20.00     0.161 C 
HETATM    8  C5  UNL     1     -34.234  15.192  -5.147  1.00 20.00     0.103 C 
HETATM    9  S8  UNL     1     -34.287  14.709  -3.413  1.00 20.00    -0.102 SA
ENDBRANCH   4   5
ENDBRANCH   3   4
TORSDOF 2
ENDMDL
