MODEL 1
REMARK VINA RESULT:      -3.6      0.000      0.000
REMARK  2 active torsions:
REMARK  status: ('A' for Active; 'I' for Inactive)
REMARK    1  A    between atoms: C3_3  and  C4_4 
REMARK    2  A    between atoms: C4_4  and  S8_8 
ROOT
HETATM    1  C1  UNL     1     -37.350  14.924  -3.669  1.00 20.00     0.109 C 
HETATM    2  C3  UNL     1     -36.099  15.640  -3.567  1.00 20.00     0.116 C 
HETATM    3  N5  UNL     1     -38.349  14.338  -3.749  1.00 20.00    -0.191 NA
HETATM    4  S7  UNL     1     -36.195  17.303  -3.681  1.00 20.00    -0.071 SA
ENDROOT
BRANCH   2   5
HETATM    5  C4  UNL     1     -34.801  14.890  -3.374  1.00 20.00     0.206 C 
HETATM    6  C2  UNL     1     -34.787  13.632  -4.135  1.00 20.00     0.080 C 
HETATM    7  N6  UNL     1     -34.778  12.638  -4.733  1.00 20.00    -0.196 NA
BRANCH   5   8
HETATM    8  S8  UNL     1     -33.420  15.977  -3.863  1.00 20.00    -0.157 SA
HETATM    9  H10 UNL     1     -32.479  15.312  -3.181  1.00 20.00     0.103 HD
ENDBRANCH   5   8
ENDBRANCH   2   5
TORSDOF 2
ENDMDL
MODEL 2
REMARK VINA RESULT:      -3.6      2.315      2.529
REMARK  2 active torsions:
REMARK  status: ('A' for Active; 'I' for Inactive)
REMARK    1  A    between atoms: C3_3  and  C4_4 
REMARK    2  A    between atoms: C4_4  and  S8_8 
ROOT
HETATM    1  C1  UNL     1     -34.783  16.369  -1.428  1.00 20.00     0.109 C 
HETATM    2  C3  UNL     1     -35.040  15.784  -2.724  1.00 20.00     0.116 C 
HETATM    3  N5  UNL     1     -34.566  16.836  -0.387  1.00 20.00    -0.191 NA
HETATM    4  S7  UNL     1     -36.578  16.003  -3.335  1.00 20.00    -0.071 SA
ENDROOT
BRANCH   2   5
HETATM    5  C4  UNL     1     -33.954  15.023  -3.449  1.00 20.00     0.206 C 
HETATM    6  C2  UNL     1     -34.464  13.765  -4.014  1.00 20.00     0.080 C 
HETATM    7  N6  UNL     1     -34.866  12.769  -4.456  1.00 20.00    -0.196 NA
BRANCH   5   8
HETATM    8  S8  UNL     1     -33.255  16.096  -4.747  1.00 20.00    -0.157 SA
HETATM    9  H10 UNL     1     -32.814  15.097  -5.523  1.00 20.00     0.103 HD
ENDBRANCH   5   8
ENDBRANCH   2   5
TORSDOF 2
ENDMDL
MODEL 3
REMARK VINA RESULT:      -3.5      1.318      3.060
REMARK  2 active torsions:
REMARK  status: ('A' for Active; 'I' for Inactive)
REMARK    1  A    between atoms: C3_3  and  C4_4 
REMARK    2  A    between atoms: C4_4  and  S8_8 
ROOT
HETATM    1  C1  UNL     1     -34.811  13.766  -4.900  1.00 20.00     0.109 C 
HETATM    2  C3  UNL     1     -35.107  15.176  -5.013  1.00 20.00     0.116 C 
HETATM    3  N5  UNL     1     -34.582  12.633  -4.801  1.00 20.00    -0.191 NA
HETATM    4  S7  UNL     1     -34.306  15.999  -6.226  1.00 20.00    -0.071 SA
ENDROOT
BRANCH   2   5
HETATM    5  C4  UNL     1     -36.086  15.832  -4.066  1.00 20.00     0.206 C 
HETATM    6  C2  UNL     1     -37.284  15.003  -3.872  1.00 20.00     0.080 C 
HETATM    7  N6  UNL     1     -38.233  14.350  -3.723  1.00 20.00    -0.196 NA
BRANCH   5   8
HETATM    8  S8  UNL     1     -35.240  16.155  -2.482  1.00 20.00    -0.157 SA
HETATM    9  H10 UNL     1     -35.247  14.882  -2.066  1.00 20.00     0.103 HD
ENDBRANCH   5   8
ENDBRANCH   2   5
TORSDOF 2
ENDMDL
MODEL 4
REMARK VINA RESULT:      -3.5      2.234      2.719
REMARK  2 active torsions:
REMARK  status: ('A' for Active; 'I' for Inactive)
REMARK    1  A    between atoms: C3_3  and  C4_4 
REMARK    2  A    between atoms: C4_4  and  S8_8 
ROOT
HETATM    1  C1  UNL     1     -36.982  14.520  -3.897  1.00 20.00     0.109 C 
HETATM    2  C3  UNL     1     -35.560  14.728  -4.053  1.00 20.00     0.116 C 
HETATM    3  N5  UNL     1     -38.125  14.365  -3.769  1.00 20.00    -0.191 NA
HETATM    4  S7  UNL     1     -34.687  13.423  -4.621  1.00 20.00    -0.071 SA
ENDROOT
BRANCH   2   5
HETATM    5  C4  UNL     1     -34.938  16.061  -3.707  1.00 20.00     0.206 C 
HETATM    6  C2  UNL     1     -34.775  16.218  -2.254  1.00 20.00     0.080 C 
HETATM    7  N6  UNL     1     -34.651  16.344  -1.107  1.00 20.00    -0.196 NA
BRANCH   5   8
HETATM    8  S8  UNL     1     -33.338  16.202  -4.572  1.00 20.00    -0.157 SA
HETATM    9  H10 UNL     1     -32.747  15.191  -3.924  1.00 20.00     0.103 HD
ENDBRANCH   5   8
ENDBRANCH   2   5
TORSDOF 2
ENDMDL
MODEL 5
REMARK VINA RESULT:      -3.5      2.233      2.988
REMARK  2 active torsions:
REMARK  status: ('A' for Active; 'I' for Inactive)
REMARK    1  A    between atoms: C3_3  and  C4_4 
REMARK    2  A    between atoms: C4_4  and  S8_8 
ROOT
HETATM    1  C1  UNL     1     -35.316  13.751  -4.145  1.00 20.00     0.109 C 
HETATM    2  C3  UNL     1     -35.910  15.025  -3.807  1.00 20.00     0.116 C 
HETATM    3  N5  UNL     1     -34.829  12.733  -4.414  1.00 20.00    -0.191 NA
HETATM    4  S7  UNL     1     -37.579  15.077  -3.802  1.00 20.00    -0.071 SA
ENDROOT
BRANCH   2   5
HETATM    5  C4  UNL     1     -35.036  16.216  -3.488  1.00 20.00     0.206 C 
HETATM    6  C2  UNL     1     -34.795  16.335  -2.042  1.00 20.00     0.080 C 
HETATM    7  N6  UNL     1     -34.609  16.431  -0.901  1.00 20.00    -0.196 NA
BRANCH   5   8
HETATM    8  S8  UNL     1     -33.470  16.056  -4.409  1.00 20.00    -0.157 SA
HETATM    9  H10 UNL     1     -33.458  14.718  -4.420  1.00 20.00     0.103 HD
ENDBRANCH   5   8
ENDBRANCH   2   5
TORSDOF 2
ENDMDL
MODEL 6
REMARK VINA RESULT:      -3.4      2.340      3.038
REMARK  2 active torsions:
REMARK  status: ('A' for Active; 'I' for Inactive)
REMARK    1  A    between atoms: C3_3  and  C4_4 
REMARK    2  A    between atoms: C4_4  and  S8_8 
ROOT
HETATM    1  C1  UNL     1     -35.033  13.639  -4.173  1.00 20.00     0.109 C 
HETATM    2  C3  UNL     1     -35.245  14.923  -3.545  1.00 20.00     0.116 C 
HETATM    3  N5  UNL     1     -34.851  12.608  -4.674  1.00 20.00    -0.191 NA
HETATM    4  S7  UNL     1     -36.828  15.450  -3.469  1.00 20.00    -0.071 SA
ENDROOT
BRANCH   2   5
HETATM    5  C4  UNL     1     -34.075  15.714  -3.006  1.00 20.00     0.206 C 
HETATM    6  C2  UNL     1     -33.586  16.690  -3.990  1.00 20.00     0.080 C 
HETATM    7  N6  UNL     1     -33.197  17.458  -4.769  1.00 20.00    -0.196 NA
BRANCH   5   8
HETATM    8  S8  UNL     1     -34.588  16.534  -1.459  1.00 20.00    -0.157 SA
HETATM    9  H10 UNL     1     -35.002  17.667  -2.040  1.00 20.00     0.103 HD
ENDBRANCH   5   8
ENDBRANCH   2   5
TORSDOF 2
ENDMDL
MODEL 7
REMARK VINA RESULT:      -3.4      1.539      1.616
REMARK  2 active torsions:
REMARK  status: ('A' for Active; 'I' for Inactive)
REMARK    1  A    between atoms: C3_3  and  C4_4 
REMARK    2  A    between atoms: C4_4  and  S8_8 
ROOT
HETATM    1  C1  UNL     1     -36.288  16.027  -3.085  1.00 20.00     0.109 C 
HETATM    2  C3  UNL     1     -34.939  15.885  -2.585  1.00 20.00     0.116 C 
HETATM    3  N5  UNL     1     -37.368  16.135  -3.495  1.00 20.00    -0.191 NA
HETATM    4  S7  UNL     1     -34.616  16.628  -1.125  1.00 20.00    -0.071 SA
ENDROOT
BRANCH   2   5
HETATM    5  C4  UNL     1     -33.910  15.105  -3.370  1.00 20.00     0.206 C 
HETATM    6  C2  UNL     1     -34.466  13.845  -3.885  1.00 20.00     0.080 C 
HETATM    7  N6  UNL     1     -34.905  12.848  -4.287  1.00 20.00    -0.196 NA
BRANCH   5   8
HETATM    8  S8  UNL     1     -33.288  16.156  -4.726  1.00 20.00    -0.157 SA
HETATM    9  H10 UNL     1     -32.015  16.169  -4.311  1.00 20.00     0.103 HD
ENDBRANCH   5   8
ENDBRANCH   2   5
TORSDOF 2
ENDMDL
MODEL 8
REMARK VINA RESULT:      -3.4      0.496      3.045
REMARK  2 active torsions:
REMARK  status: ('A' for Active; 'I' for Inactive)
REMARK    1  A    between atoms: C3_3  and  C4_4 
REMARK    2  A    between atoms: C4_4  and  S8_8 
ROOT
HETATM    1  C1  UNL     1     -34.856  13.747  -4.370  1.00 20.00     0.109 C 
HETATM    2  C3  UNL     1     -34.893  15.138  -3.979  1.00 20.00     0.116 C 
HETATM    3  N5  UNL     1     -34.838  12.631  -4.688  1.00 20.00    -0.191 NA
HETATM    4  S7  UNL     1     -33.437  15.805  -3.504  1.00 20.00    -0.071 SA
ENDROOT
BRANCH   2   5
HETATM    5  C4  UNL     1     -36.194  15.907  -4.007  1.00 20.00     0.206 C 
HETATM    6  C2  UNL     1     -37.351  15.016  -3.841  1.00 20.00     0.080 C 
HETATM    7  N6  UNL     1     -38.264  14.311  -3.715  1.00 20.00    -0.196 NA
BRANCH   5   8
HETATM    8  S8  UNL     1     -36.147  17.181  -2.701  1.00 20.00    -0.157 SA
HETATM    9  H10 UNL     1     -35.616  18.140  -3.471  1.00 20.00     0.103 HD
ENDBRANCH   5   8
ENDBRANCH   2   5
TORSDOF 2
ENDMDL
MODEL 9
REMARK VINA RESULT:      -3.4      2.934      3.686
REMARK  2 active torsions:
REMARK  status: ('A' for Active; 'I' for Inactive)
REMARK    1  A    between atoms: C3_3  and  C4_4 
REMARK    2  A    between atoms: C4_4  and  S8_8 
ROOT
HETATM    1  C1  UNL     1     -34.610  13.739  -4.844  1.00 20.00     0.109 C 
HETATM    2  C3  UNL     1     -34.153  14.985  -5.417  1.00 20.00     0.116 C 
HETATM    3  N5  UNL     1     -34.973  12.742  -4.374  1.00 20.00    -0.191 NA
HETATM    4  S7  UNL     1     -34.515  15.226  -7.030  1.00 20.00    -0.071 SA
ENDROOT
BRANCH   2   5
HETATM    5  C4  UNL     1     -33.393  15.982  -4.574  1.00 20.00     0.206 C 
HETATM    6  C2  UNL     1     -33.464  17.335  -5.145  1.00 20.00     0.080 C 
HETATM    7  N6  UNL     1     -33.517  18.402  -5.598  1.00 20.00    -0.196 NA
BRANCH   5   8
HETATM    8  S8  UNL     1     -34.061  15.943  -2.877  1.00 20.00    -0.157 SA
HETATM    9  H10 UNL     1     -35.285  15.526  -3.226  1.00 20.00     0.103 HD
ENDBRANCH   5   8
ENDBRANCH   2   5
TORSDOF 2
ENDMDL
