MODEL 1
REMARK VINA RESULT:      -3.1      0.000      0.000
REMARK  0 active torsions:
REMARK  status: ('A' for Active; 'I' for Inactive)
ROOT
HETATM    1  C1  UNL     1     -35.239   4.486   4.533  1.00 20.00     0.061 A 
HETATM    2  C2  UNL     1     -34.700   5.245   3.574  1.00 20.00     0.061 A 
HETATM    3  C3  UNL     1     -33.908   6.318   5.801  1.00 20.00     0.254 A 
HETATM    4  O4  UNL     1     -33.390   7.025   6.652  1.00 20.00    -0.272 OA
HETATM    5  S5  UNL     1     -34.911   4.921   6.176  1.00 20.00    -0.052 SA
HETATM    6  S6  UNL     1     -33.727   6.589   4.071  1.00 20.00    -0.052 SA
ENDROOT
TORSDOF 0
ENDMDL
MODEL 2
REMARK VINA RESULT:      -3.1      0.015      1.862
REMARK  0 active torsions:
REMARK  status: ('A' for Active; 'I' for Inactive)
ROOT
HETATM    1  C1  UNL     1     -34.701   5.243   3.575  1.00 20.00     0.061 A 
HETATM    2  C2  UNL     1     -35.238   4.477   4.529  1.00 20.00     0.061 A 
HETATM    3  C3  UNL     1     -33.919   6.311   5.808  1.00 20.00     0.254 A 
HETATM    4  O4  UNL     1     -33.408   7.017   6.664  1.00 20.00    -0.272 OA
HETATM    5  S5  UNL     1     -33.738   6.590   4.080  1.00 20.00    -0.052 SA
HETATM    6  S6  UNL     1     -34.916   4.906   6.176  1.00 20.00    -0.052 SA
ENDROOT
TORSDOF 0
ENDMDL
MODEL 3
REMARK VINA RESULT:      -3.1     12.919     13.788
REMARK  0 active torsions:
REMARK  status: ('A' for Active; 'I' for Inactive)
ROOT
HETATM    1  C1  UNL     1     -33.931  16.066  -5.935  1.00 20.00     0.061 A 
HETATM    2  C2  UNL     1     -33.283  16.099  -4.767  1.00 20.00     0.061 A 
HETATM    3  C3  UNL     1     -34.447  13.780  -4.821  1.00 20.00     0.254 A 
HETATM    4  O4  UNL     1     -34.856  12.658  -4.562  1.00 20.00    -0.272 OA
HETATM    5  S5  UNL     1     -34.833  14.637  -6.309  1.00 20.00    -0.052 SA
HETATM    6  S6  UNL     1     -33.409  14.708  -3.744  1.00 20.00    -0.052 SA
ENDROOT
TORSDOF 0
ENDMDL
MODEL 4
REMARK VINA RESULT:      -3.1     12.922     13.737
REMARK  0 active torsions:
REMARK  status: ('A' for Active; 'I' for Inactive)
ROOT
HETATM    1  C1  UNL     1     -33.297  16.091  -4.741  1.00 20.00     0.061 A 
HETATM    2  C2  UNL     1     -33.910  16.066  -5.928  1.00 20.00     0.061 A 
HETATM    3  C3  UNL     1     -34.459  13.773  -4.842  1.00 20.00     0.254 A 
HETATM    4  O4  UNL     1     -34.876  12.650  -4.604  1.00 20.00    -0.272 OA
HETATM    5  S5  UNL     1     -33.455  14.696  -3.730  1.00 20.00    -0.052 SA
HETATM    6  S6  UNL     1     -34.800  14.638  -6.338  1.00 20.00    -0.052 SA
ENDROOT
TORSDOF 0
ENDMDL
MODEL 5
REMARK VINA RESULT:      -2.9     12.366     12.752
REMARK  0 active torsions:
REMARK  status: ('A' for Active; 'I' for Inactive)
ROOT
HETATM    1  C1  UNL     1     -35.452  15.843  -3.083  1.00 20.00     0.061 A 
HETATM    2  C2  UNL     1     -34.126  15.738  -2.959  1.00 20.00     0.061 A 
HETATM    3  C3  UNL     1     -34.849  13.601  -4.245  1.00 20.00     0.254 A 
HETATM    4  O4  UNL     1     -34.877  12.536  -4.840  1.00 20.00    -0.272 OA
HETATM    5  S5  UNL     1     -36.282  14.566  -3.907  1.00 20.00    -0.052 SA
HETATM    6  S6  UNL     1     -33.369  14.334  -3.634  1.00 20.00    -0.052 SA
ENDROOT
TORSDOF 0
ENDMDL
MODEL 6
REMARK VINA RESULT:      -2.9     12.364     12.905
REMARK  0 active torsions:
REMARK  status: ('A' for Active; 'I' for Inactive)
ROOT
HETATM    1  C1  UNL     1     -34.042  16.031  -3.194  1.00 20.00     0.061 A 
HETATM    2  C2  UNL     1     -35.371  16.166  -3.221  1.00 20.00     0.061 A 
HETATM    3  C3  UNL     1     -34.927  13.751  -4.064  1.00 20.00     0.254 A 
HETATM    4  O4  UNL     1     -35.035  12.609  -4.481  1.00 20.00    -0.272 OA
HETATM    5  S5  UNL     1     -33.382  14.513  -3.702  1.00 20.00    -0.052 SA
HETATM    6  S6  UNL     1     -36.302  14.810  -3.761  1.00 20.00    -0.052 SA
ENDROOT
TORSDOF 0
ENDMDL
MODEL 7
REMARK VINA RESULT:      -2.8     12.655     12.939
REMARK  0 active torsions:
REMARK  status: ('A' for Active; 'I' for Inactive)
ROOT
HETATM    1  C1  UNL     1     -33.713  14.566  -3.989  1.00 20.00     0.061 A 
HETATM    2  C2  UNL     1     -34.059  15.692  -3.359  1.00 20.00     0.061 A 
HETATM    3  C3  UNL     1     -36.299  14.457  -3.799  1.00 20.00     0.254 A 
HETATM    4  O4  UNL     1     -37.475  14.130  -3.861  1.00 20.00    -0.272 OA
HETATM    5  S5  UNL     1     -34.983  13.481  -4.442  1.00 20.00    -0.052 SA
HETATM    6  S6  UNL     1     -35.744  15.955  -3.059  1.00 20.00    -0.052 SA
ENDROOT
TORSDOF 0
ENDMDL
MODEL 8
REMARK VINA RESULT:      -2.8     12.245     13.073
REMARK  0 active torsions:
REMARK  status: ('A' for Active; 'I' for Inactive)
ROOT
HETATM    1  C1  UNL     1     -34.783  16.137  -4.531  1.00 20.00     0.061 A 
HETATM    2  C2  UNL     1     -35.732  15.213  -4.701  1.00 20.00     0.061 A 
HETATM    3  C3  UNL     1     -33.629  13.884  -3.959  1.00 20.00     0.254 A 
HETATM    4  O4  UNL     1     -32.837  13.011  -3.639  1.00 20.00    -0.272 OA
HETATM    5  S5  UNL     1     -33.219  15.594  -4.026  1.00 20.00    -0.052 SA
HETATM    6  S6  UNL     1     -35.303  13.562  -4.401  1.00 20.00    -0.052 SA
ENDROOT
TORSDOF 0
ENDMDL
MODEL 9
REMARK VINA RESULT:      -2.7      1.942      2.099
REMARK  0 active torsions:
REMARK  status: ('A' for Active; 'I' for Inactive)
ROOT
HETATM    1  C1  UNL     1     -34.813   5.277   6.167  1.00 20.00     0.061 A 
HETATM    2  C2  UNL     1     -35.275   4.681   5.064  1.00 20.00     0.061 A 
HETATM    3  C3  UNL     1     -33.527   6.400   4.212  1.00 20.00     0.254 A 
HETATM    4  O4  UNL     1     -32.788   7.091   3.528  1.00 20.00    -0.272 OA
HETATM    5  S5  UNL     1     -33.608   6.503   5.967  1.00 20.00    -0.052 SA
HETATM    6  S6  UNL     1     -34.623   5.194   3.544  1.00 20.00    -0.052 SA
ENDROOT
TORSDOF 0
ENDMDL
