MODEL 1
REMARK VINA RESULT:      -4.5      0.000      0.000
REMARK  2 active torsions:
REMARK  status: ('A' for Active; 'I' for Inactive)
REMARK    1  A    between atoms: C4_4  and  C6_6 
REMARK    2  A    between atoms: C5_5  and  C6_6 
ROOT
HETATM    1  C1  UNL     1     -34.793   4.626   6.323  1.00 20.00     0.012 C 
HETATM    2  C2  UNL     1     -35.071   4.961   5.205  1.00 20.00    -0.117 C 
HETATM    3  C5  UNL     1     -35.415   5.370   3.837  1.00 20.00     0.095 C 
ENDROOT
BRANCH   3   4
HETATM    4  C6  UNL     1     -34.163   5.522   2.974  1.00 20.00     0.046 C 
BRANCH   4   5
HETATM    5  C4  UNL     1     -33.185   6.483   3.576  1.00 20.00     0.146 A 
HETATM    6  C3  UNL     1     -32.321   7.358   2.711  1.00 20.00     0.200 A 
HETATM    7  O7  UNL     1     -31.811   6.165   3.328  1.00 20.00    -0.381 OA
ENDBRANCH   4   5
ENDBRANCH   3   4
TORSDOF 2
ENDMDL
MODEL 2
REMARK VINA RESULT:      -4.2      1.750      4.233
REMARK  2 active torsions:
REMARK  status: ('A' for Active; 'I' for Inactive)
REMARK    1  A    between atoms: C4_4  and  C6_6 
REMARK    2  A    between atoms: C5_5  and  C6_6 
ROOT
HETATM    1  C1  UNL     1     -32.070   8.817   1.279  1.00 20.00     0.012 C 
HETATM    2  C2  UNL     1     -32.060   8.037   2.191  1.00 20.00    -0.117 C 
HETATM    3  C5  UNL     1     -32.043   7.083   3.307  1.00 20.00     0.095 C 
ENDROOT
BRANCH   3   4
HETATM    4  C6  UNL     1     -33.106   6.001   3.126  1.00 20.00     0.046 C 
BRANCH   4   5
HETATM    5  C4  UNL     1     -34.244   6.172   4.084  1.00 20.00     0.146 A 
HETATM    6  C3  UNL     1     -34.743   5.021   4.913  1.00 20.00     0.200 A 
HETATM    7  O7  UNL     1     -35.432   5.456   3.729  1.00 20.00    -0.381 OA
ENDBRANCH   4   5
ENDBRANCH   3   4
TORSDOF 2
ENDMDL
MODEL 3
REMARK VINA RESULT:      -4.2      1.683      3.644
REMARK  2 active torsions:
REMARK  status: ('A' for Active; 'I' for Inactive)
REMARK    1  A    between atoms: C4_4  and  C6_6 
REMARK    2  A    between atoms: C5_5  and  C6_6 
ROOT
HETATM    1  C1  UNL     1     -31.982   7.050   3.318  1.00 20.00     0.012 C 
HETATM    2  C2  UNL     1     -32.925   6.348   3.078  1.00 20.00    -0.117 C 
HETATM    3  C5  UNL     1     -34.079   5.489   2.779  1.00 20.00     0.095 C 
ENDROOT
BRANCH   3   4
HETATM    4  C6  UNL     1     -35.041   5.424   3.963  1.00 20.00     0.046 C 
BRANCH   4   5
HETATM    5  C4  UNL     1     -34.352   4.986   5.218  1.00 20.00     0.146 A 
HETATM    6  C3  UNL     1     -35.117   4.345   6.343  1.00 20.00     0.200 A 
HETATM    7  O7  UNL     1     -34.721   5.725   6.388  1.00 20.00    -0.381 OA
ENDBRANCH   4   5
ENDBRANCH   3   4
TORSDOF 2
ENDMDL
MODEL 4
REMARK VINA RESULT:      -3.9     11.469     11.885
REMARK  2 active torsions:
REMARK  status: ('A' for Active; 'I' for Inactive)
REMARK    1  A    between atoms: C4_4  and  C6_6 
REMARK    2  A    between atoms: C5_5  and  C6_6 
ROOT
HETATM    1  C1  UNL     1     -34.805  17.025  -0.247  1.00 20.00     0.012 C 
HETATM    2  C2  UNL     1     -34.434  16.579  -1.297  1.00 20.00    -0.117 C 
HETATM    3  C5  UNL     1     -33.977  16.036  -2.583  1.00 20.00     0.095 C 
ENDROOT
BRANCH   3   4
HETATM    4  C6  UNL     1     -34.938  14.971  -3.107  1.00 20.00     0.046 C 
BRANCH   4   5
HETATM    5  C4  UNL     1     -34.227  13.925  -3.909  1.00 20.00     0.146 A 
HETATM    6  C3  UNL     1     -34.679  13.568  -5.297  1.00 20.00     0.200 A 
HETATM    7  O7  UNL     1     -34.998  12.745  -4.163  1.00 20.00    -0.381 OA
ENDBRANCH   4   5
ENDBRANCH   3   4
TORSDOF 2
ENDMDL
MODEL 5
REMARK VINA RESULT:      -3.8      1.569      2.317
REMARK  2 active torsions:
REMARK  status: ('A' for Active; 'I' for Inactive)
REMARK    1  A    between atoms: C4_4  and  C6_6 
REMARK    2  A    between atoms: C5_5  and  C6_6 
ROOT
HETATM    1  C1  UNL     1     -33.670   7.027   6.697  1.00 20.00     0.012 C 
HETATM    2  C2  UNL     1     -34.312   6.037   6.480  1.00 20.00    -0.117 C 
HETATM    3  C5  UNL     1     -35.098   4.824   6.218  1.00 20.00     0.095 C 
ENDROOT
BRANCH   3   4
HETATM    4  C6  UNL     1     -34.883   4.321   4.792  1.00 20.00     0.046 C 
BRANCH   4   5
HETATM    5  C4  UNL     1     -34.851   5.447   3.804  1.00 20.00     0.146 A 
HETATM    6  C3  UNL     1     -34.351   5.236   2.402  1.00 20.00     0.200 A 
HETATM    7  O7  UNL     1     -33.537   5.855   3.411  1.00 20.00    -0.381 OA
ENDBRANCH   4   5
ENDBRANCH   3   4
TORSDOF 2
ENDMDL
MODEL 6
REMARK VINA RESULT:      -3.7      1.625      2.391
REMARK  2 active torsions:
REMARK  status: ('A' for Active; 'I' for Inactive)
REMARK    1  A    between atoms: C4_4  and  C6_6 
REMARK    2  A    between atoms: C5_5  and  C6_6 
ROOT
HETATM    1  C1  UNL     1     -35.196   5.112   4.227  1.00 20.00     0.012 C 
HETATM    2  C2  UNL     1     -34.196   5.771   4.147  1.00 20.00    -0.117 C 
HETATM    3  C5  UNL     1     -32.973   6.579   4.053  1.00 20.00     0.095 C 
ENDROOT
BRANCH   3   4
HETATM    4  C6  UNL     1     -32.578   6.819   2.597  1.00 20.00     0.046 C 
BRANCH   4   5
HETATM    5  C4  UNL     1     -31.882   8.133   2.417  1.00 20.00     0.146 A 
HETATM    6  C3  UNL     1     -32.531   9.260   1.663  1.00 20.00     0.200 A 
HETATM    7  O7  UNL     1     -31.519   8.433   1.066  1.00 20.00    -0.381 OA
ENDBRANCH   4   5
ENDBRANCH   3   4
TORSDOF 2
ENDMDL
MODEL 7
REMARK VINA RESULT:      -3.4     11.492     12.837
REMARK  2 active torsions:
REMARK  status: ('A' for Active; 'I' for Inactive)
REMARK    1  A    between atoms: C4_4  and  C6_6 
REMARK    2  A    between atoms: C5_5  and  C6_6 
ROOT
HETATM    1  C1  UNL     1     -33.457  17.416  -5.307  1.00 20.00     0.012 C 
HETATM    2  C2  UNL     1     -33.476  16.745  -4.313  1.00 20.00    -0.117 C 
HETATM    3  C5  UNL     1     -33.496  15.925  -3.094  1.00 20.00     0.095 C 
ENDROOT
BRANCH   3   4
HETATM    4  C6  UNL     1     -34.536  14.811  -3.193  1.00 20.00     0.046 C 
BRANCH   4   5
HETATM    5  C4  UNL     1     -34.104  13.728  -4.133  1.00 20.00     0.146 A 
HETATM    6  C3  UNL     1     -34.828  13.488  -5.429  1.00 20.00     0.200 A 
HETATM    7  O7  UNL     1     -35.043  12.657  -4.277  1.00 20.00    -0.381 OA
ENDBRANCH   4   5
ENDBRANCH   3   4
TORSDOF 2
ENDMDL
MODEL 8
REMARK VINA RESULT:      -3.4     11.495     12.064
REMARK  2 active torsions:
REMARK  status: ('A' for Active; 'I' for Inactive)
REMARK    1  A    between atoms: C4_4  and  C6_6 
REMARK    2  A    between atoms: C5_5  and  C6_6 
ROOT
HETATM    1  C1  UNL     1     -34.997  17.507   0.618  1.00 20.00     0.012 C 
HETATM    2  C2  UNL     1     -34.505  17.218  -0.437  1.00 20.00    -0.117 C 
HETATM    3  C5  UNL     1     -33.901  16.868  -1.730  1.00 20.00     0.095 C 
ENDROOT
BRANCH   3   4
HETATM    4  C6  UNL     1     -34.630  15.695  -2.382  1.00 20.00     0.046 C 
BRANCH   4   5
HETATM    5  C4  UNL     1     -33.970  15.267  -3.657  1.00 20.00     0.146 A 
HETATM    6  C3  UNL     1     -33.550  13.841  -3.874  1.00 20.00     0.200 A 
HETATM    7  O7  UNL     1     -32.605  14.861  -3.512  1.00 20.00    -0.381 OA
ENDBRANCH   4   5
ENDBRANCH   3   4
TORSDOF 2
ENDMDL
MODEL 9
REMARK VINA RESULT:      -3.3     12.270     12.803
REMARK  2 active torsions:
REMARK  status: ('A' for Active; 'I' for Inactive)
REMARK    1  A    between atoms: C4_4  and  C6_6 
REMARK    2  A    between atoms: C5_5  and  C6_6 
ROOT
HETATM    1  C1  UNL     1     -34.746  17.389   0.240  1.00 20.00     0.012 C 
HETATM    2  C2  UNL     1     -34.818  16.738  -0.766  1.00 20.00    -0.117 C 
HETATM    3  C5  UNL     1     -34.910  15.938  -1.994  1.00 20.00     0.095 C 
ENDROOT
BRANCH   3   4
HETATM    4  C6  UNL     1     -33.626  16.037  -2.816  1.00 20.00     0.046 C 
BRANCH   4   5
HETATM    5  C4  UNL     1     -33.871  16.655  -4.159  1.00 20.00     0.146 A 
HETATM    6  C3  UNL     1     -33.982  15.808  -5.396  1.00 20.00     0.200 A 
HETATM    7  O7  UNL     1     -32.781  16.529  -5.078  1.00 20.00    -0.381 OA
ENDBRANCH   4   5
ENDBRANCH   3   4
TORSDOF 2
ENDMDL
