MODEL 1
REMARK VINA RESULT:      -4.6      0.000      0.000
REMARK  0 active torsions:
REMARK  status: ('A' for Active; 'I' for Inactive)
ROOT
HETATM    1  C1  UNL     1     -34.431   5.355   4.415  1.00 20.00     0.017 A 
HETATM    2  C2  UNL     1     -33.819   6.276   5.378  1.00 20.00     0.296 A 
HETATM    3  C3  UNL     1     -32.883   6.659   3.363  1.00 20.00     0.270 A 
HETATM    4  C4  UNL     1     -35.374   4.477   4.766  1.00 20.00     0.025 C 
HETATM    5  C5  UNL     1     -33.854   5.560   3.070  1.00 20.00     0.155 A 
HETATM    6  O6  UNL     1     -34.062   6.375   6.567  1.00 20.00    -0.259 OA
HETATM    7  O7  UNL     1     -32.148   7.177   2.534  1.00 20.00    -0.264 OA
HETATM    8  O8  UNL     1     -32.917   7.012   4.680  1.00 20.00    -0.241 OA
ENDROOT
TORSDOF 0
ENDMDL
MODEL 2
REMARK VINA RESULT:      -4.6      1.828      3.318
REMARK  0 active torsions:
REMARK  status: ('A' for Active; 'I' for Inactive)
ROOT
HETATM    1  C1  UNL     1     -33.865   6.379   5.929  1.00 20.00     0.017 A 
HETATM    2  C2  UNL     1     -33.577   6.307   4.493  1.00 20.00     0.296 A 
HETATM    3  C3  UNL     1     -34.855   4.529   5.032  1.00 20.00     0.270 A 
HETATM    4  C4  UNL     1     -33.406   7.367   6.701  1.00 20.00     0.025 C 
HETATM    5  C5  UNL     1     -34.704   5.234   6.343  1.00 20.00     0.155 A 
HETATM    6  O6  UNL     1     -32.919   7.086   3.829  1.00 20.00    -0.259 OA
HETATM    7  O7  UNL     1     -35.485   3.494   4.869  1.00 20.00    -0.264 OA
HETATM    8  O8  UNL     1     -34.196   5.188   4.036  1.00 20.00    -0.241 OA
ENDROOT
TORSDOF 0
ENDMDL
MODEL 3
REMARK VINA RESULT:      -4.5      2.058      2.818
REMARK  0 active torsions:
REMARK  status: ('A' for Active; 'I' for Inactive)
ROOT
HETATM    1  C1  UNL     1     -34.300   5.556   4.128  1.00 20.00     0.017 A 
HETATM    2  C2  UNL     1     -34.777   4.687   5.208  1.00 20.00     0.296 A 
HETATM    3  C3  UNL     1     -33.892   6.536   6.148  1.00 20.00     0.270 A 
HETATM    4  C4  UNL     1     -34.415   5.224   2.840  1.00 20.00     0.025 C 
HETATM    5  C5  UNL     1     -33.706   6.790   4.685  1.00 20.00     0.155 A 
HETATM    6  O6  UNL     1     -35.317   3.602   5.102  1.00 20.00    -0.259 OA
HETATM    7  O7  UNL     1     -33.543   7.300   7.036  1.00 20.00    -0.264 OA
HETATM    8  O8  UNL     1     -34.501   5.336   6.368  1.00 20.00    -0.241 OA
ENDROOT
TORSDOF 0
ENDMDL
MODEL 4
REMARK VINA RESULT:      -4.5      1.933      2.458
REMARK  0 active torsions:
REMARK  status: ('A' for Active; 'I' for Inactive)
ROOT
HETATM    1  C1  UNL     1     -34.124   6.143   5.518  1.00 20.00     0.017 A 
HETATM    2  C2  UNL     1     -34.921   4.912   5.555  1.00 20.00     0.296 A 
HETATM    3  C3  UNL     1     -34.399   5.333   3.403  1.00 20.00     0.270 A 
HETATM    4  C4  UNL     1     -33.812   6.826   6.621  1.00 20.00     0.025 C 
HETATM    5  C5  UNL     1     -33.750   6.471   4.126  1.00 20.00     0.155 A 
HETATM    6  O6  UNL     1     -35.388   4.361   6.535  1.00 20.00    -0.259 OA
HETATM    7  O7  UNL     1     -34.365   5.170   2.191  1.00 20.00    -0.264 OA
HETATM    8  O8  UNL     1     -35.038   4.495   4.269  1.00 20.00    -0.241 OA
ENDROOT
TORSDOF 0
ENDMDL
MODEL 5
REMARK VINA RESULT:      -4.5      1.272      2.724
REMARK  0 active torsions:
REMARK  status: ('A' for Active; 'I' for Inactive)
ROOT
HETATM    1  C1  UNL     1     -34.606   5.055   5.137  1.00 20.00     0.017 A 
HETATM    2  C2  UNL     1     -33.829   5.871   4.199  1.00 20.00     0.296 A 
HETATM    3  C3  UNL     1     -33.624   6.789   6.248  1.00 20.00     0.270 A 
HETATM    4  C4  UNL     1     -35.284   3.972   4.750  1.00 20.00     0.025 C 
HETATM    5  C5  UNL     1     -34.509   5.610   6.503  1.00 20.00     0.155 A 
HETATM    6  O6  UNL     1     -33.692   5.697   3.002  1.00 20.00    -0.259 OA
HETATM    7  O7  UNL     1     -33.255   7.580   7.105  1.00 20.00    -0.264 OA
HETATM    8  O8  UNL     1     -33.280   6.874   4.931  1.00 20.00    -0.241 OA
ENDROOT
TORSDOF 0
ENDMDL
MODEL 6
REMARK VINA RESULT:      -4.2      1.826      3.598
REMARK  0 active torsions:
REMARK  status: ('A' for Active; 'I' for Inactive)
ROOT
HETATM    1  C1  UNL     1     -33.423   6.249   4.026  1.00 20.00     0.017 A 
HETATM    2  C2  UNL     1     -34.328   5.326   3.333  1.00 20.00     0.296 A 
HETATM    3  C3  UNL     1     -34.814   5.250   5.533  1.00 20.00     0.270 A 
HETATM    4  C4  UNL     1     -32.503   6.968   3.379  1.00 20.00     0.025 C 
HETATM    5  C5  UNL     1     -33.696   6.242   5.479  1.00 20.00     0.155 A 
HETATM    6  O6  UNL     1     -34.375   5.090   2.140  1.00 20.00    -0.259 OA
HETATM    7  O7  UNL     1     -35.386   4.903   6.557  1.00 20.00    -0.264 OA
HETATM    8  O8  UNL     1     -35.118   4.777   4.291  1.00 20.00    -0.241 OA
ENDROOT
TORSDOF 0
ENDMDL
MODEL 7
REMARK VINA RESULT:      -4.2     11.320     12.099
REMARK  0 active torsions:
REMARK  status: ('A' for Active; 'I' for Inactive)
ROOT
HETATM    1  C1  UNL     1     -34.673  15.093  -3.318  1.00 20.00     0.017 A 
HETATM    2  C2  UNL     1     -34.618  13.755  -3.914  1.00 20.00     0.296 A 
HETATM    3  C3  UNL     1     -36.785  14.364  -3.780  1.00 20.00     0.270 A 
HETATM    4  C4  UNL     1     -33.575  15.758  -2.950  1.00 20.00     0.025 C 
HETATM    5  C5  UNL     1     -36.075  15.548  -3.204  1.00 20.00     0.155 A 
HETATM    6  O6  UNL     1     -33.627  13.089  -4.150  1.00 20.00    -0.259 OA
HETATM    7  O7  UNL     1     -37.998  14.271  -3.898  1.00 20.00    -0.264 OA
HETATM    8  O8  UNL     1     -35.903  13.395  -4.159  1.00 20.00    -0.241 OA
ENDROOT
TORSDOF 0
ENDMDL
MODEL 8
REMARK VINA RESULT:      -4.2      1.594      2.028
REMARK  0 active torsions:
REMARK  status: ('A' for Active; 'I' for Inactive)
ROOT
HETATM    1  C1  UNL     1     -34.012   6.058   5.267  1.00 20.00     0.017 A 
HETATM    2  C2  UNL     1     -34.592   5.286   4.164  1.00 20.00     0.296 A 
HETATM    3  C3  UNL     1     -32.979   6.610   3.309  1.00 20.00     0.270 A 
HETATM    4  C4  UNL     1     -34.433   5.930   6.528  1.00 20.00     0.025 C 
HETATM    5  C5  UNL     1     -32.944   6.949   4.766  1.00 20.00     0.155 A 
HETATM    6  O6  UNL     1     -35.486   4.463   4.225  1.00 20.00    -0.259 OA
HETATM    7  O7  UNL     1     -32.254   7.111   2.461  1.00 20.00    -0.264 OA
HETATM    8  O8  UNL     1     -33.928   5.668   3.043  1.00 20.00    -0.241 OA
ENDROOT
TORSDOF 0
ENDMDL
MODEL 9
REMARK VINA RESULT:      -4.2     11.421     12.004
REMARK  0 active torsions:
REMARK  status: ('A' for Active; 'I' for Inactive)
ROOT
HETATM    1  C1  UNL     1     -34.807  15.305  -2.847  1.00 20.00     0.017 A 
HETATM    2  C2  UNL     1     -36.173  15.250  -3.377  1.00 20.00     0.296 A 
HETATM    3  C3  UNL     1     -35.030  13.501  -4.226  1.00 20.00     0.270 A 
HETATM    4  C4  UNL     1     -34.404  16.265  -2.011  1.00 20.00     0.025 C 
HETATM    5  C5  UNL     1     -34.006  14.179  -3.370  1.00 20.00     0.155 A 
HETATM    6  O6  UNL     1     -37.088  16.019  -3.150  1.00 20.00    -0.259 OA
HETATM    7  O7  UNL     1     -34.827  12.490  -4.883  1.00 20.00    -0.264 OA
HETATM    8  O8  UNL     1     -36.225  14.157  -4.181  1.00 20.00    -0.241 OA
ENDROOT
TORSDOF 0
ENDMDL
