MODEL 1
REMARK VINA RESULT:      -4.6      0.000      0.000
REMARK  0 active torsions:
REMARK  status: ('A' for Active; 'I' for Inactive)
ROOT
HETATM    1  C1  UNL     1     -34.511   3.781   4.489  1.00 20.00    -0.021 C 
HETATM    2  C2  UNL     1     -34.778   4.202   5.736  1.00 20.00    -0.025 C 
HETATM    3  C3  UNL     1     -33.396   5.901   3.963  1.00 20.00    -0.081 C 
HETATM    4  C4  UNL     1     -32.353   6.224   3.195  1.00 20.00     0.015 C 
HETATM    5  C5  UNL     1     -33.673   6.409   5.373  1.00 20.00     0.042 C 
HETATM    6  C6  UNL     1     -35.689   5.758   4.286  1.00 20.00     0.022 C 
HETATM    7  C7  UNL     1     -34.556   4.996   3.589  1.00 20.00     0.036 C 
HETATM    8  C8  UNL     1     -35.017   5.697   5.665  1.00 20.00     0.013 C 
ENDROOT
TORSDOF 0
ENDMDL
MODEL 2
REMARK VINA RESULT:      -4.4      0.915      2.348
REMARK  0 active torsions:
REMARK  status: ('A' for Active; 'I' for Inactive)
ROOT
HETATM    1  C1  UNL     1     -33.471   6.042   3.318  1.00 20.00    -0.021 C 
HETATM    2  C2  UNL     1     -33.772   4.733   3.277  1.00 20.00    -0.025 C 
HETATM    3  C3  UNL     1     -34.186   6.181   5.660  1.00 20.00    -0.081 C 
HETATM    4  C4  UNL     1     -33.765   6.893   6.707  1.00 20.00     0.015 C 
HETATM    5  C5  UNL     1     -34.530   4.696   5.655  1.00 20.00     0.042 C 
HETATM    6  C6  UNL     1     -35.691   5.851   3.926  1.00 20.00     0.022 C 
HETATM    7  C7  UNL     1     -34.458   6.697   4.258  1.00 20.00     0.036 C 
HETATM    8  C8  UNL     1     -34.971   4.520   4.181  1.00 20.00     0.013 C 
ENDROOT
TORSDOF 0
ENDMDL
MODEL 3
REMARK VINA RESULT:      -4.3     11.919     12.804
REMARK  0 active torsions:
REMARK  status: ('A' for Active; 'I' for Inactive)
ROOT
HETATM    1  C1  UNL     1     -33.528  13.757  -3.747  1.00 20.00    -0.021 C 
HETATM    2  C2  UNL     1     -34.661  13.368  -4.355  1.00 20.00    -0.025 C 
HETATM    3  C3  UNL     1     -34.686  15.643  -2.692  1.00 20.00    -0.081 C 
HETATM    4  C4  UNL     1     -34.556  16.257  -1.514  1.00 20.00     0.015 C 
HETATM    5  C5  UNL     1     -35.993  15.226  -3.356  1.00 20.00     0.042 C 
HETATM    6  C6  UNL     1     -34.279  15.564  -4.975  1.00 20.00     0.022 C 
HETATM    7  C7  UNL     1     -33.569  15.266  -3.650  1.00 20.00     0.036 C 
HETATM    8  C8  UNL     1     -35.452  14.621  -4.675  1.00 20.00     0.013 C 
ENDROOT
TORSDOF 0
ENDMDL
MODEL 4
REMARK VINA RESULT:      -4.2      0.990      2.793
REMARK  0 active torsions:
REMARK  status: ('A' for Active; 'I' for Inactive)
ROOT
HETATM    1  C1  UNL     1     -32.783   6.079   3.840  1.00 20.00    -0.021 C 
HETATM    2  C2  UNL     1     -33.448   5.529   2.810  1.00 20.00    -0.025 C 
HETATM    3  C3  UNL     1     -34.415   5.180   5.434  1.00 20.00    -0.081 C 
HETATM    4  C4  UNL     1     -34.321   4.727   6.686  1.00 20.00     0.015 C 
HETATM    5  C5  UNL     1     -35.191   4.534   4.292  1.00 20.00     0.042 C 
HETATM    6  C6  UNL     1     -34.948   6.877   3.944  1.00 20.00     0.022 C 
HETATM    7  C7  UNL     1     -33.810   6.459   4.882  1.00 20.00     0.036 C 
HETATM    8  C8  UNL     1     -34.922   5.557   3.161  1.00 20.00     0.013 C 
ENDROOT
TORSDOF 0
ENDMDL
MODEL 5
REMARK VINA RESULT:      -4.1      8.449      9.673
REMARK  0 active torsions:
REMARK  status: ('A' for Active; 'I' for Inactive)
ROOT
HETATM    1  C1  UNL     1     -41.515   4.392  -1.829  1.00 20.00    -0.021 C 
HETATM    2  C2  UNL     1     -40.636   4.657  -0.849  1.00 20.00    -0.025 C 
HETATM    3  C3  UNL     1     -42.022   6.778  -2.083  1.00 20.00    -0.081 C 
HETATM    4  C4  UNL     1     -42.338   7.542  -3.130  1.00 20.00     0.015 C 
HETATM    5  C5  UNL     1     -41.025   7.118  -0.981  1.00 20.00     0.042 C 
HETATM    6  C6  UNL     1     -42.662   5.571  -0.207  1.00 20.00     0.022 C 
HETATM    7  C7  UNL     1     -42.616   5.424  -1.732  1.00 20.00     0.036 C 
HETATM    8  C8  UNL     1     -41.159   5.860  -0.088  1.00 20.00     0.013 C 
ENDROOT
TORSDOF 0
ENDMDL
MODEL 6
REMARK VINA RESULT:      -4.0      8.532      9.812
REMARK  0 active torsions:
REMARK  status: ('A' for Active; 'I' for Inactive)
ROOT
HETATM    1  C1  UNL     1     -43.253   5.602  -0.663  1.00 20.00    -0.021 C 
HETATM    2  C2  UNL     1     -42.297   5.855   0.246  1.00 20.00    -0.025 C 
HETATM    3  C3  UNL     1     -41.688   4.280  -2.010  1.00 20.00    -0.081 C 
HETATM    4  C4  UNL     1     -41.825   3.195  -2.776  1.00 20.00     0.015 C 
HETATM    5  C5  UNL     1     -40.580   4.537  -0.996  1.00 20.00     0.042 C 
HETATM    6  C6  UNL     1     -41.497   6.582  -1.800  1.00 20.00     0.022 C 
HETATM    7  C7  UNL     1     -42.575   5.513  -2.012  1.00 20.00     0.036 C 
HETATM    8  C8  UNL     1     -40.981   5.949  -0.501  1.00 20.00     0.013 C 
ENDROOT
TORSDOF 0
ENDMDL
MODEL 7
REMARK VINA RESULT:      -4.0     11.982     13.238
REMARK  0 active torsions:
REMARK  status: ('A' for Active; 'I' for Inactive)
ROOT
HETATM    1  C1  UNL     1     -35.396  14.942  -3.243  1.00 20.00    -0.021 C 
HETATM    2  C2  UNL     1     -35.860  13.976  -4.053  1.00 20.00    -0.025 C 
HETATM    3  C3  UNL     1     -33.857  15.728  -4.983  1.00 20.00    -0.081 C 
HETATM    4  C4  UNL     1     -33.395  16.933  -5.323  1.00 20.00     0.015 C 
HETATM    5  C5  UNL     1     -34.365  14.651  -5.934  1.00 20.00     0.042 C 
HETATM    6  C6  UNL     1     -33.568  13.694  -3.905  1.00 20.00     0.022 C 
HETATM    7  C7  UNL     1     -33.937  15.147  -3.582  1.00 20.00     0.036 C 
HETATM    8  C8  UNL     1     -34.703  13.527  -4.924  1.00 20.00     0.013 C 
ENDROOT
TORSDOF 0
ENDMDL
MODEL 8
REMARK VINA RESULT:      -4.0     11.923     12.986
REMARK  0 active torsions:
REMARK  status: ('A' for Active; 'I' for Inactive)
ROOT
HETATM    1  C1  UNL     1     -35.813  15.376  -5.121  1.00 20.00    -0.021 C 
HETATM    2  C2  UNL     1     -34.746  14.873  -5.765  1.00 20.00    -0.025 C 
HETATM    3  C3  UNL     1     -34.619  15.295  -2.981  1.00 20.00    -0.081 C 
HETATM    4  C4  UNL     1     -34.631  16.069  -1.893  1.00 20.00     0.015 C 
HETATM    5  C5  UNL     1     -33.385  14.732  -3.678  1.00 20.00     0.042 C 
HETATM    6  C6  UNL     1     -35.297  13.374  -4.090  1.00 20.00     0.022 C 
HETATM    7  C7  UNL     1     -35.826  14.768  -3.737  1.00 20.00     0.036 C 
HETATM    8  C8  UNL     1     -34.056  13.917  -4.811  1.00 20.00     0.013 C 
ENDROOT
TORSDOF 0
ENDMDL
MODEL 9
REMARK VINA RESULT:      -4.0      8.485      9.595
REMARK  0 active torsions:
REMARK  status: ('A' for Active; 'I' for Inactive)
ROOT
HETATM    1  C1  UNL     1     -42.336   4.647   0.322  1.00 20.00    -0.021 C 
HETATM    2  C2  UNL     1     -42.871   3.980  -0.715  1.00 20.00    -0.025 C 
HETATM    3  C3  UNL     1     -41.556   6.431  -1.168  1.00 20.00    -0.081 C 
HETATM    4  C4  UNL     1     -41.417   7.751  -1.025  1.00 20.00     0.015 C 
HETATM    5  C5  UNL     1     -42.158   5.709  -2.368  1.00 20.00     0.042 C 
HETATM    6  C6  UNL     1     -40.632   4.304  -1.199  1.00 20.00     0.022 C 
HETATM    7  C7  UNL     1     -41.105   5.358  -0.193  1.00 20.00     0.036 C 
HETATM    8  C8  UNL     1     -41.986   4.237  -1.919  1.00 20.00     0.013 C 
ENDROOT
TORSDOF 0
ENDMDL
