MODEL 1
REMARK VINA RESULT:      -4.9      0.000      0.000
REMARK  3 active torsions:
REMARK  status: ('A' for Active; 'I' for Inactive)
REMARK    1  A    between atoms: C1_1  and  C7_7 
REMARK    2  A    between atoms: C4_4  and  C6_6 
REMARK    3  A    between atoms: C6_6  and  C7_7 
ROOT
HETATM    1  C6  UNL     1     -33.951   6.490   3.888  1.00 20.00     0.015 C 
ENDROOT
BRANCH   1   2
HETATM    2  C4  UNL     1     -32.569   6.530   3.247  1.00 20.00    -0.014 A 
HETATM    3  C2  UNL     1     -32.182   7.673   2.349  1.00 20.00     0.005 A 
HETATM    4  C3  UNL     1     -31.550   7.537   3.707  1.00 20.00     0.005 A 
ENDBRANCH   1   2
BRANCH   1   5
HETATM    5  C7  UNL     1     -33.988   5.638   5.163  1.00 20.00     0.043 C 
HETATM    6  C5  UNL     1     -34.029   6.525   6.405  1.00 20.00     0.017 C 
BRANCH   5   7
HETATM    7  C1  UNL     1     -35.185   4.705   5.220  1.00 20.00     0.235 C 
HETATM    8  O8  UNL     1     -35.150   3.502   4.982  1.00 20.00    -0.306 OA
ENDBRANCH   5   7
ENDBRANCH   1   5
TORSDOF 3
ENDMDL
MODEL 2
REMARK VINA RESULT:      -4.7      1.701      2.192
REMARK  3 active torsions:
REMARK  status: ('A' for Active; 'I' for Inactive)
REMARK    1  A    between atoms: C1_1  and  C7_7 
REMARK    2  A    between atoms: C4_4  and  C6_6 
REMARK    3  A    between atoms: C6_6  and  C7_7 
ROOT
HETATM    1  C6  UNL     1     -34.488   5.955   3.931  1.00 20.00     0.015 C 
ENDROOT
BRANCH   1   2
HETATM    2  C4  UNL     1     -33.034   6.411   3.936  1.00 20.00    -0.014 A 
HETATM    3  C2  UNL     1     -32.057   5.840   2.946  1.00 20.00     0.005 A 
HETATM    4  C3  UNL     1     -32.506   7.269   2.818  1.00 20.00     0.005 A 
ENDBRANCH   1   2
BRANCH   1   5
HETATM    5  C7  UNL     1     -34.952   5.447   5.302  1.00 20.00     0.043 C 
HETATM    6  C5  UNL     1     -34.922   3.922   5.351  1.00 20.00     0.017 C 
BRANCH   5   7
HETATM    7  C1  UNL     1     -34.099   5.965   6.448  1.00 20.00     0.235 C 
HETATM    8  O8  UNL     1     -34.123   7.114   6.877  1.00 20.00    -0.306 OA
ENDBRANCH   5   7
ENDBRANCH   1   5
TORSDOF 3
ENDMDL
MODEL 3
REMARK VINA RESULT:      -4.5      2.293      4.255
REMARK  3 active torsions:
REMARK  status: ('A' for Active; 'I' for Inactive)
REMARK    1  A    between atoms: C1_1  and  C7_7 
REMARK    2  A    between atoms: C4_4  and  C6_6 
REMARK    3  A    between atoms: C6_6  and  C7_7 
ROOT
HETATM    1  C6  UNL     1     -33.784   6.272   4.957  1.00 20.00     0.015 C 
ENDROOT
BRANCH   1   2
HETATM    2  C4  UNL     1     -34.936   5.293   5.151  1.00 20.00    -0.014 A 
HETATM    3  C2  UNL     1     -34.659   3.846   5.453  1.00 20.00     0.005 A 
HETATM    4  C3  UNL     1     -35.236   4.738   6.517  1.00 20.00     0.005 A 
ENDBRANCH   1   2
BRANCH   1   5
HETATM    5  C7  UNL     1     -32.985   5.999   3.676  1.00 20.00     0.043 C 
HETATM    6  C5  UNL     1     -33.919   5.650   2.521  1.00 20.00     0.017 C 
BRANCH   5   7
HETATM    7  C1  UNL     1     -32.134   7.182   3.244  1.00 20.00     0.235 C 
HETATM    8  O8  UNL     1     -32.225   7.754   2.163  1.00 20.00    -0.306 OA
ENDBRANCH   5   7
ENDBRANCH   1   5
TORSDOF 3
ENDMDL
MODEL 4
REMARK VINA RESULT:      -4.5      0.929      1.522
REMARK  3 active torsions:
REMARK  status: ('A' for Active; 'I' for Inactive)
REMARK    1  A    between atoms: C1_1  and  C7_7 
REMARK    2  A    between atoms: C4_4  and  C6_6 
REMARK    3  A    between atoms: C6_6  and  C7_7 
ROOT
HETATM    1  C6  UNL     1     -33.632   6.389   5.053  1.00 20.00     0.015 C 
ENDROOT
BRANCH   1   2
HETATM    2  C4  UNL     1     -33.237   6.652   3.604  1.00 20.00    -0.014 A 
HETATM    3  C2  UNL     1     -31.970   7.397   3.287  1.00 20.00     0.005 A 
HETATM    4  C3  UNL     1     -32.070   5.926   2.994  1.00 20.00     0.005 A 
ENDBRANCH   1   2
BRANCH   1   5
HETATM    5  C7  UNL     1     -34.966   5.643   5.176  1.00 20.00     0.043 C 
HETATM    6  C5  UNL     1     -35.638   5.508   3.812  1.00 20.00     0.017 C 
BRANCH   5   7
HETATM    7  C1  UNL     1     -34.814   4.248   5.758  1.00 20.00     0.235 C 
HETATM    8  O8  UNL     1     -34.915   3.206   5.119  1.00 20.00    -0.306 OA
ENDBRANCH   5   7
ENDBRANCH   1   5
TORSDOF 3
ENDMDL
MODEL 5
REMARK VINA RESULT:      -4.1     11.592     12.078
REMARK  3 active torsions:
REMARK  status: ('A' for Active; 'I' for Inactive)
REMARK    1  A    between atoms: C1_1  and  C7_7 
REMARK    2  A    between atoms: C4_4  and  C6_6 
REMARK    3  A    between atoms: C6_6  and  C7_7 
ROOT
HETATM    1  C6  UNL     1     -35.255  15.817  -2.868  1.00 20.00     0.015 C 
ENDROOT
BRANCH   1   2
HETATM    2  C4  UNL     1     -34.243  16.169  -1.784  1.00 20.00    -0.014 A 
HETATM    3  C2  UNL     1     -33.887  17.606  -1.517  1.00 20.00     0.005 A 
HETATM    4  C3  UNL     1     -34.697  16.834  -0.512  1.00 20.00     0.005 A 
ENDBRANCH   1   2
BRANCH   1   5
HETATM    5  C7  UNL     1     -34.654  14.947  -3.979  1.00 20.00     0.043 C 
HETATM    6  C5  UNL     1     -33.198  14.607  -3.670  1.00 20.00     0.017 C 
BRANCH   5   7
HETATM    7  C1  UNL     1     -35.402  13.640  -4.181  1.00 20.00     0.235 C 
HETATM    8  O8  UNL     1     -34.900  12.600  -4.592  1.00 20.00    -0.306 OA
ENDBRANCH   5   7
ENDBRANCH   1   5
TORSDOF 3
ENDMDL
MODEL 6
REMARK VINA RESULT:      -4.1     11.528     12.093
REMARK  3 active torsions:
REMARK  status: ('A' for Active; 'I' for Inactive)
REMARK    1  A    between atoms: C1_1  and  C7_7 
REMARK    2  A    between atoms: C4_4  and  C6_6 
REMARK    3  A    between atoms: C6_6  and  C7_7 
ROOT
HETATM    1  C6  UNL     1     -33.735  15.648  -2.919  1.00 20.00     0.015 C 
ENDROOT
BRANCH   1   2
HETATM    2  C4  UNL     1     -34.412  16.778  -2.152  1.00 20.00    -0.014 A 
HETATM    3  C2  UNL     1     -34.633  16.662  -0.669  1.00 20.00     0.005 A 
HETATM    4  C3  UNL     1     -33.615  17.631  -1.203  1.00 20.00     0.005 A 
ENDBRANCH   1   2
BRANCH   1   5
HETATM    5  C7  UNL     1     -34.692  14.490  -3.232  1.00 20.00     0.043 C 
HETATM    6  C5  UNL     1     -36.075  15.018  -3.605  1.00 20.00     0.017 C 
BRANCH   5   7
HETATM    7  C1  UNL     1     -34.207  13.613  -4.374  1.00 20.00     0.235 C 
HETATM    8  O8  UNL     1     -34.768  12.594  -4.763  1.00 20.00    -0.306 OA
ENDBRANCH   5   7
ENDBRANCH   1   5
TORSDOF 3
ENDMDL
MODEL 7
REMARK VINA RESULT:      -4.1      2.726      4.378
REMARK  3 active torsions:
REMARK  status: ('A' for Active; 'I' for Inactive)
REMARK    1  A    between atoms: C1_1  and  C7_7 
REMARK    2  A    between atoms: C4_4  and  C6_6 
REMARK    3  A    between atoms: C6_6  and  C7_7 
ROOT
HETATM    1  C6  UNL     1     -33.076   6.214   3.174  1.00 20.00     0.015 C 
ENDROOT
BRANCH   1   2
HETATM    2  C4  UNL     1     -34.334   6.192   4.035  1.00 20.00    -0.014 A 
HETATM    3  C2  UNL     1     -35.055   4.898   4.291  1.00 20.00     0.005 A 
HETATM    4  C3  UNL     1     -34.302   5.571   5.405  1.00 20.00     0.005 A 
ENDBRANCH   1   2
BRANCH   1   5
HETATM    5  C7  UNL     1     -32.439   7.607   3.094  1.00 20.00     0.043 C 
HETATM    6  C5  UNL     1     -31.198   7.685   3.979  1.00 20.00     0.017 C 
BRANCH   5   7
HETATM    7  C1  UNL     1     -32.027   7.991   1.682  1.00 20.00     0.235 C 
HETATM    8  O8  UNL     1     -32.117   9.118   1.207  1.00 20.00    -0.306 OA
ENDBRANCH   5   7
ENDBRANCH   1   5
TORSDOF 3
ENDMDL
MODEL 8
REMARK VINA RESULT:      -3.8      1.559      2.296
REMARK  3 active torsions:
REMARK  status: ('A' for Active; 'I' for Inactive)
REMARK    1  A    between atoms: C1_1  and  C7_7 
REMARK    2  A    between atoms: C4_4  and  C6_6 
REMARK    3  A    between atoms: C6_6  and  C7_7 
ROOT
HETATM    1  C6  UNL     1     -31.912   7.408   3.285  1.00 20.00     0.015 C 
ENDROOT
BRANCH   1   2
HETATM    2  C4  UNL     1     -32.542   8.033   2.046  1.00 20.00    -0.014 A 
HETATM    3  C2  UNL     1     -32.495   9.521   1.839  1.00 20.00     0.005 A 
HETATM    4  C3  UNL     1     -31.671   8.616   0.966  1.00 20.00     0.005 A 
ENDBRANCH   1   2
BRANCH   1   5
HETATM    5  C7  UNL     1     -32.748   6.257   3.858  1.00 20.00     0.043 C 
HETATM    6  C5  UNL     1     -33.478   6.697   5.124  1.00 20.00     0.017 C 
BRANCH   5   7
HETATM    7  C1  UNL     1     -33.789   5.736   2.880  1.00 20.00     0.235 C 
HETATM    8  O8  UNL     1     -34.896   5.312   3.194  1.00 20.00    -0.306 OA
ENDBRANCH   5   7
ENDBRANCH   1   5
TORSDOF 3
ENDMDL
MODEL 9
REMARK VINA RESULT:      -3.8     11.990     12.968
REMARK  3 active torsions:
REMARK  status: ('A' for Active; 'I' for Inactive)
REMARK    1  A    between atoms: C1_1  and  C7_7 
REMARK    2  A    between atoms: C4_4  and  C6_6 
REMARK    3  A    between atoms: C6_6  and  C7_7 
ROOT
HETATM    1  C6  UNL     1     -34.498  15.685  -2.508  1.00 20.00     0.015 C 
ENDROOT
BRANCH   1   2
HETATM    2  C4  UNL     1     -34.010  16.758  -1.541  1.00 20.00    -0.014 A 
HETATM    3  C2  UNL     1     -34.799  18.024  -1.352  1.00 20.00     0.005 A 
HETATM    4  C3  UNL     1     -34.743  17.003  -0.250  1.00 20.00     0.005 A 
ENDBRANCH   1   2
BRANCH   1   5
HETATM    5  C7  UNL     1     -33.417  15.253  -3.507  1.00 20.00     0.043 C 
HETATM    6  C5  UNL     1     -33.533  13.764  -3.818  1.00 20.00     0.017 C 
BRANCH   5   7
HETATM    7  C1  UNL     1     -33.490  16.009  -4.824  1.00 20.00     0.235 C 
HETATM    8  O8  UNL     1     -33.021  17.126  -5.019  1.00 20.00    -0.306 OA
ENDBRANCH   5   7
ENDBRANCH   1   5
TORSDOF 3
ENDMDL
