MODEL 1
REMARK VINA RESULT:      -4.1      0.000      0.000
REMARK  1 active torsions:
REMARK  status: ('A' for Active; 'I' for Inactive)
REMARK    1  A    between atoms: C1_1  and  C2_2 
ROOT
HETATM    1  C2  UNL     1     -35.000   4.995   4.274  1.00 20.00     0.412 C 
HETATM    2  F4  UNL     1     -34.256   4.998   3.147  1.00 20.00    -0.168 F 
HETATM    3  F5  UNL     1     -36.218   5.488   3.966  1.00 20.00    -0.168 F 
HETATM    4  F6  UNL     1     -35.154   3.712   4.664  1.00 20.00    -0.168 F 
ENDROOT
BRANCH   1   5
HETATM    5  C1  UNL     1     -34.342   5.811   5.349  1.00 20.00     0.339 C 
HETATM    6  F3  UNL     1     -34.937   5.530   6.538  1.00 20.00    -0.246 F 
ENDBRANCH   1   5
TORSDOF 1
ENDMDL
MODEL 2
REMARK VINA RESULT:      -4.1      0.017      1.544
REMARK  1 active torsions:
REMARK  status: ('A' for Active; 'I' for Inactive)
REMARK    1  A    between atoms: C1_1  and  C2_2 
ROOT
HETATM    1  C2  UNL     1     -34.999   4.988   4.288  1.00 20.00     0.412 C 
HETATM    2  F4  UNL     1     -36.219   5.478   3.983  1.00 20.00    -0.168 F 
HETATM    3  F5  UNL     1     -35.155   3.707   4.683  1.00 20.00    -0.168 F 
HETATM    4  F6  UNL     1     -34.257   4.991   3.160  1.00 20.00    -0.168 F 
ENDROOT
BRANCH   1   5
HETATM    5  C1  UNL     1     -34.348   5.810   5.364  1.00 20.00     0.339 C 
HETATM    6  F3  UNL     1     -34.941   5.523   6.553  1.00 20.00    -0.246 F 
ENDBRANCH   1   5
TORSDOF 1
ENDMDL
MODEL 3
REMARK VINA RESULT:      -4.0      0.889      1.728
REMARK  1 active torsions:
REMARK  status: ('A' for Active; 'I' for Inactive)
REMARK    1  A    between atoms: C1_1  and  C2_2 
ROOT
HETATM    1  C2  UNL     1     -34.935   4.831   4.859  1.00 20.00     0.412 C 
HETATM    2  F4  UNL     1     -34.959   3.481   4.825  1.00 20.00    -0.168 F 
HETATM    3  F5  UNL     1     -33.878   5.244   4.130  1.00 20.00    -0.168 F 
HETATM    4  F6  UNL     1     -36.059   5.280   4.262  1.00 20.00    -0.168 F 
ENDROOT
BRANCH   1   5
HETATM    5  C1  UNL     1     -34.841   5.326   6.275  1.00 20.00     0.339 C 
HETATM    6  F3  UNL     1     -34.245   6.547   6.272  1.00 20.00    -0.246 F 
ENDBRANCH   1   5
TORSDOF 1
ENDMDL
MODEL 4
REMARK VINA RESULT:      -4.0      1.250      2.287
REMARK  1 active torsions:
REMARK  status: ('A' for Active; 'I' for Inactive)
REMARK    1  A    between atoms: C1_1  and  C2_2 
ROOT
HETATM    1  C2  UNL     1     -34.815   4.858   5.648  1.00 20.00     0.412 C 
HETATM    2  F4  UNL     1     -35.668   4.898   6.694  1.00 20.00    -0.168 F 
HETATM    3  F5  UNL     1     -33.972   3.822   5.840  1.00 20.00    -0.168 F 
HETATM    4  F6  UNL     1     -35.537   4.611   4.534  1.00 20.00    -0.168 F 
ENDROOT
BRANCH   1   5
HETATM    5  C1  UNL     1     -34.060   6.152   5.526  1.00 20.00     0.339 C 
HETATM    6  F3  UNL     1     -34.156   6.827   6.701  1.00 20.00    -0.246 F 
ENDBRANCH   1   5
TORSDOF 1
ENDMDL
MODEL 5
REMARK VINA RESULT:      -4.0      1.139      1.579
REMARK  1 active torsions:
REMARK  status: ('A' for Active; 'I' for Inactive)
REMARK    1  A    between atoms: C1_1  and  C2_2 
ROOT
HETATM    1  C2  UNL     1     -34.988   5.423   3.907  1.00 20.00     0.412 C 
HETATM    2  F4  UNL     1     -34.303   4.982   2.830  1.00 20.00    -0.168 F 
HETATM    3  F5  UNL     1     -34.381   6.542   4.353  1.00 20.00    -0.168 F 
HETATM    4  F6  UNL     1     -36.231   5.754   3.498  1.00 20.00    -0.168 F 
ENDROOT
BRANCH   1   5
HETATM    5  C1  UNL     1     -35.034   4.370   4.977  1.00 20.00     0.339 C 
HETATM    6  F3  UNL     1     -35.236   4.974   6.177  1.00 20.00    -0.246 F 
ENDBRANCH   1   5
TORSDOF 1
ENDMDL
MODEL 6
REMARK VINA RESULT:      -4.0      1.133      1.918
REMARK  1 active torsions:
REMARK  status: ('A' for Active; 'I' for Inactive)
REMARK    1  A    between atoms: C1_1  and  C2_2 
ROOT
HETATM    1  C2  UNL     1     -34.971   5.416   3.913  1.00 20.00     0.412 C 
HETATM    2  F4  UNL     1     -36.212   5.755   3.503  1.00 20.00    -0.168 F 
HETATM    3  F5  UNL     1     -34.283   4.985   2.835  1.00 20.00    -0.168 F 
HETATM    4  F6  UNL     1     -34.369   6.532   4.377  1.00 20.00    -0.168 F 
ENDROOT
BRANCH   1   5
HETATM    5  C1  UNL     1     -35.032   4.355   4.974  1.00 20.00     0.339 C 
HETATM    6  F3  UNL     1     -35.258   4.949   6.175  1.00 20.00    -0.246 F 
ENDBRANCH   1   5
TORSDOF 1
ENDMDL
MODEL 7
REMARK VINA RESULT:      -4.0      1.138      1.497
REMARK  1 active torsions:
REMARK  status: ('A' for Active; 'I' for Inactive)
REMARK    1  A    between atoms: C1_1  and  C2_2 
ROOT
HETATM    1  C2  UNL     1     -34.989   5.417   3.903  1.00 20.00     0.412 C 
HETATM    2  F4  UNL     1     -34.385   6.536   4.358  1.00 20.00    -0.168 F 
HETATM    3  F5  UNL     1     -36.232   5.753   3.501  1.00 20.00    -0.168 F 
HETATM    4  F6  UNL     1     -34.301   4.985   2.826  1.00 20.00    -0.168 F 
ENDROOT
BRANCH   1   5
HETATM    5  C1  UNL     1     -35.034   4.364   4.973  1.00 20.00     0.339 C 
HETATM    6  F3  UNL     1     -35.244   4.967   6.173  1.00 20.00    -0.246 F 
ENDBRANCH   1   5
TORSDOF 1
ENDMDL
MODEL 8
REMARK VINA RESULT:      -3.9      1.044      2.343
REMARK  1 active torsions:
REMARK  status: ('A' for Active; 'I' for Inactive)
REMARK    1  A    between atoms: C1_1  and  C2_2 
ROOT
HETATM    1  C2  UNL     1     -34.614   5.217   5.551  1.00 20.00     0.412 C 
HETATM    2  F4  UNL     1     -34.025   4.059   5.922  1.00 20.00    -0.168 F 
HETATM    3  F5  UNL     1     -35.777   4.912   4.940  1.00 20.00    -0.168 F 
HETATM    4  F6  UNL     1     -34.897   5.914   6.671  1.00 20.00    -0.168 F 
ENDROOT
BRANCH   1   5
HETATM    5  C1  UNL     1     -33.714   6.003   4.639  1.00 20.00     0.339 C 
HETATM    6  F3  UNL     1     -33.939   5.609   3.358  1.00 20.00    -0.246 F 
ENDBRANCH   1   5
TORSDOF 1
ENDMDL
MODEL 9
REMARK VINA RESULT:      -3.9      0.707      2.150
REMARK  1 active torsions:
REMARK  status: ('A' for Active; 'I' for Inactive)
REMARK    1  A    between atoms: C1_1  and  C2_2 
ROOT
HETATM    1  C2  UNL     1     -35.133   4.981   4.639  1.00 20.00     0.412 C 
HETATM    2  F4  UNL     1     -36.265   5.344   3.998  1.00 20.00    -0.168 F 
HETATM    3  F5  UNL     1     -35.262   5.330   5.936  1.00 20.00    -0.168 F 
HETATM    4  F6  UNL     1     -35.034   3.636   4.574  1.00 20.00    -0.168 F 
ENDROOT
BRANCH   1   5
HETATM    5  C1  UNL     1     -33.935   5.641   4.018  1.00 20.00     0.339 C 
HETATM    6  F3  UNL     1     -33.940   5.389   2.683  1.00 20.00    -0.246 F 
ENDBRANCH   1   5
TORSDOF 1
ENDMDL
