MODEL 1
REMARK VINA RESULT:      -3.2      0.000      0.000
REMARK  1 active torsions:
REMARK  status: ('A' for Active; 'I' for Inactive)
REMARK    1  A    between atoms: C1_1  and  C2_2 
ROOT
HETATM    1  C2  UNL     1     -34.460   5.365   4.603  1.00 20.00     0.200 C 
HETATM    2 CL4  UNL     1     -35.944   5.870   3.727  1.00 20.00    -0.083 Cl
HETATM    3 CL5  UNL     1     -34.180   6.527   5.936  1.00 20.00    -0.083 Cl
HETATM    4 CL6  UNL     1     -34.748   3.737   5.289  1.00 20.00    -0.083 Cl
ENDROOT
BRANCH   1   5
HETATM    5  C1  UNL     1     -33.288   5.354   3.617  1.00 20.00     0.173 C 
HETATM    6 CL3  UNL     1     -32.473   6.936   3.463  1.00 20.00    -0.126 Cl
ENDBRANCH   1   5
TORSDOF 1
ENDMDL
MODEL 2
REMARK VINA RESULT:      -3.1      0.115      2.066
REMARK  1 active torsions:
REMARK  status: ('A' for Active; 'I' for Inactive)
REMARK    1  A    between atoms: C1_1  and  C2_2 
ROOT
HETATM    1  C2  UNL     1     -34.483   5.384   4.598  1.00 20.00     0.200 C 
HETATM    2 CL4  UNL     1     -34.695   3.742   5.293  1.00 20.00    -0.083 Cl
HETATM    3 CL5  UNL     1     -36.004   5.837   3.770  1.00 20.00    -0.083 Cl
HETATM    4 CL6  UNL     1     -34.182   6.522   5.947  1.00 20.00    -0.083 Cl
ENDROOT
BRANCH   1   5
HETATM    5  C1  UNL     1     -33.304   5.355   3.621  1.00 20.00     0.173 C 
HETATM    6 CL3  UNL     1     -32.317   6.843   3.650  1.00 20.00    -0.126 Cl
ENDBRANCH   1   5
TORSDOF 1
ENDMDL
MODEL 3
REMARK VINA RESULT:      -3.1      0.075      2.050
REMARK  1 active torsions:
REMARK  status: ('A' for Active; 'I' for Inactive)
REMARK    1  A    between atoms: C1_1  and  C2_2 
ROOT
HETATM    1  C2  UNL     1     -34.473   5.357   4.551  1.00 20.00     0.200 C 
HETATM    2 CL4  UNL     1     -34.145   6.532   5.869  1.00 20.00    -0.083 Cl
HETATM    3 CL5  UNL     1     -34.717   3.746   5.293  1.00 20.00    -0.083 Cl
HETATM    4 CL6  UNL     1     -35.976   5.860   3.721  1.00 20.00    -0.083 Cl
ENDROOT
BRANCH   1   5
HETATM    5  C1  UNL     1     -33.280   5.352   3.590  1.00 20.00     0.173 C 
HETATM    6 CL3  UNL     1     -32.377   6.893   3.568  1.00 20.00    -0.126 Cl
ENDBRANCH   1   5
TORSDOF 1
ENDMDL
MODEL 4
REMARK VINA RESULT:      -3.0      1.289      2.359
REMARK  1 active torsions:
REMARK  status: ('A' for Active; 'I' for Inactive)
REMARK    1  A    between atoms: C1_1  and  C2_2 
ROOT
HETATM    1  C2  UNL     1     -34.696   5.370   3.994  1.00 20.00     0.200 C 
HETATM    2 CL4  UNL     1     -33.809   4.940   2.492  1.00 20.00    -0.083 Cl
HETATM    3 CL5  UNL     1     -36.304   6.003   3.527  1.00 20.00    -0.083 Cl
HETATM    4 CL6  UNL     1     -34.905   3.878   4.960  1.00 20.00    -0.083 Cl
ENDROOT
BRANCH   1   5
HETATM    5  C1  UNL     1     -33.884   6.419   4.758  1.00 20.00     0.173 C 
HETATM    6 CL3  UNL     1     -34.148   6.377   6.524  1.00 20.00    -0.126 Cl
ENDBRANCH   1   5
TORSDOF 1
ENDMDL
MODEL 5
REMARK VINA RESULT:      -3.0      1.302      2.846
REMARK  1 active torsions:
REMARK  status: ('A' for Active; 'I' for Inactive)
REMARK    1  A    between atoms: C1_1  and  C2_2 
ROOT
HETATM    1  C2  UNL     1     -34.708   5.389   3.936  1.00 20.00     0.200 C 
HETATM    2 CL4  UNL     1     -34.944   3.869   4.863  1.00 20.00    -0.083 Cl
HETATM    3 CL5  UNL     1     -33.804   4.993   2.442  1.00 20.00    -0.083 Cl
HETATM    4 CL6  UNL     1     -36.321   6.029   3.501  1.00 20.00    -0.083 Cl
ENDROOT
BRANCH   1   5
HETATM    5  C1  UNL     1     -33.933   6.380   4.810  1.00 20.00     0.173 C 
HETATM    6 CL3  UNL     1     -34.246   6.186   6.558  1.00 20.00    -0.126 Cl
ENDBRANCH   1   5
TORSDOF 1
ENDMDL
MODEL 6
REMARK VINA RESULT:      -3.0      1.295      2.444
REMARK  1 active torsions:
REMARK  status: ('A' for Active; 'I' for Inactive)
REMARK    1  A    between atoms: C1_1  and  C2_2 
ROOT
HETATM    1  C2  UNL     1     -34.688   5.363   3.956  1.00 20.00     0.200 C 
HETATM    2 CL4  UNL     1     -36.299   6.024   3.519  1.00 20.00    -0.083 Cl
HETATM    3 CL5  UNL     1     -34.941   3.856   4.889  1.00 20.00    -0.083 Cl
HETATM    4 CL6  UNL     1     -33.816   4.981   2.441  1.00 20.00    -0.083 Cl
ENDROOT
BRANCH   1   5
HETATM    5  C1  UNL     1     -33.936   6.410   4.783  1.00 20.00     0.173 C 
HETATM    6 CL3  UNL     1     -34.210   6.261   6.542  1.00 20.00    -0.126 Cl
ENDBRANCH   1   5
TORSDOF 1
ENDMDL
MODEL 7
REMARK VINA RESULT:      -2.9     12.002     12.786
REMARK  1 active torsions:
REMARK  status: ('A' for Active; 'I' for Inactive)
REMARK    1  A    between atoms: C1_1  and  C2_2 
ROOT
HETATM    1  C2  UNL     1     -34.185  15.100  -3.910  1.00 20.00     0.200 C 
HETATM    2 CL4  UNL     1     -33.184  13.623  -3.699  1.00 20.00    -0.083 Cl
HETATM    3 CL5  UNL     1     -34.005  15.655  -5.603  1.00 20.00    -0.083 Cl
HETATM    4 CL6  UNL     1     -35.893  14.658  -3.611  1.00 20.00    -0.083 Cl
ENDROOT
BRANCH   1   5
HETATM    5  C1  UNL     1     -33.703  16.164  -2.921  1.00 20.00     0.173 C 
HETATM    6 CL3  UNL     1     -34.654  16.215  -1.409  1.00 20.00    -0.126 Cl
ENDBRANCH   1   5
TORSDOF 1
ENDMDL
MODEL 8
REMARK VINA RESULT:      -2.9     11.992     12.704
REMARK  1 active torsions:
REMARK  status: ('A' for Active; 'I' for Inactive)
REMARK    1  A    between atoms: C1_1  and  C2_2 
ROOT
HETATM    1  C2  UNL     1     -34.165  15.116  -3.833  1.00 20.00     0.200 C 
HETATM    2 CL4  UNL     1     -33.981  15.761  -5.499  1.00 20.00    -0.083 Cl
HETATM    3 CL5  UNL     1     -35.891  14.714  -3.582  1.00 20.00    -0.083 Cl
HETATM    4 CL6  UNL     1     -33.185  13.623  -3.706  1.00 20.00    -0.083 Cl
ENDROOT
BRANCH   1   5
HETATM    5  C1  UNL     1     -33.690  16.180  -2.839  1.00 20.00     0.173 C 
HETATM    6 CL3  UNL     1     -34.666  16.246  -1.345  1.00 20.00    -0.126 Cl
ENDBRANCH   1   5
TORSDOF 1
ENDMDL
MODEL 9
REMARK VINA RESULT:      -2.9     12.021     12.790
REMARK  1 active torsions:
REMARK  status: ('A' for Active; 'I' for Inactive)
REMARK    1  A    between atoms: C1_1  and  C2_2 
ROOT
HETATM    1  C2  UNL     1     -34.130  15.135  -3.894  1.00 20.00     0.200 C 
HETATM    2 CL4  UNL     1     -35.848  14.718  -3.581  1.00 20.00    -0.083 Cl
HETATM    3 CL5  UNL     1     -33.154  13.646  -3.702  1.00 20.00    -0.083 Cl
HETATM    4 CL6  UNL     1     -33.999  15.714  -5.583  1.00 20.00    -0.083 Cl
ENDROOT
BRANCH   1   5
HETATM    5  C1  UNL     1     -33.698  16.216  -2.899  1.00 20.00     0.173 C 
HETATM    6 CL3  UNL     1     -34.657  16.223  -1.393  1.00 20.00    -0.126 Cl
ENDBRANCH   1   5
TORSDOF 1
ENDMDL
