MODEL 1
REMARK VINA RESULT:      -3.5      0.000      0.000
REMARK  0 active torsions:
REMARK  status: ('A' for Active; 'I' for Inactive)
ROOT
HETATM    1  C1  UNL     1     -34.915   4.177   5.858  1.00 20.00     0.050 C 
HETATM    2  C2  UNL     1     -34.497   5.366   5.365  1.00 20.00     0.094 C 
HETATM    3 CL3  UNL     1     -33.956   6.641   6.406  1.00 20.00    -0.072 Cl
HETATM    4 CL4  UNL     1     -34.480   5.685   3.662  1.00 20.00    -0.072 Cl
ENDROOT
TORSDOF 0
ENDMDL
MODEL 2
REMARK VINA RESULT:      -3.5      0.049      2.089
REMARK  0 active torsions:
REMARK  status: ('A' for Active; 'I' for Inactive)
ROOT
HETATM    1  C1  UNL     1     -34.956   4.197   5.900  1.00 20.00     0.050 C 
HETATM    2  C2  UNL     1     -34.512   5.377   5.406  1.00 20.00     0.094 C 
HETATM    3 CL3  UNL     1     -34.461   5.685   3.702  1.00 20.00    -0.072 Cl
HETATM    4 CL4  UNL     1     -33.969   6.649   6.449  1.00 20.00    -0.072 Cl
ENDROOT
TORSDOF 0
ENDMDL
MODEL 3
REMARK VINA RESULT:      -3.4      1.584      1.903
REMARK  0 active torsions:
REMARK  status: ('A' for Active; 'I' for Inactive)
ROOT
HETATM    1  C1  UNL     1     -34.325   5.842   3.908  1.00 20.00     0.050 C 
HETATM    2  C2  UNL     1     -34.396   5.514   5.219  1.00 20.00     0.094 C 
HETATM    3 CL3  UNL     1     -33.966   6.641   6.462  1.00 20.00    -0.072 Cl
HETATM    4 CL4  UNL     1     -34.923   3.945   5.733  1.00 20.00    -0.072 Cl
ENDROOT
TORSDOF 0
ENDMDL
MODEL 4
REMARK VINA RESULT:      -3.4      1.587      2.481
REMARK  0 active torsions:
REMARK  status: ('A' for Active; 'I' for Inactive)
ROOT
HETATM    1  C1  UNL     1     -34.311   5.839   3.915  1.00 20.00     0.050 C 
HETATM    2  C2  UNL     1     -34.386   5.514   5.227  1.00 20.00     0.094 C 
HETATM    3 CL3  UNL     1     -34.909   3.946   5.745  1.00 20.00    -0.072 Cl
HETATM    4 CL4  UNL     1     -33.963   6.649   6.467  1.00 20.00    -0.072 Cl
ENDROOT
TORSDOF 0
ENDMDL
MODEL 5
REMARK VINA RESULT:      -3.3      1.623      2.355
REMARK  0 active torsions:
REMARK  status: ('A' for Active; 'I' for Inactive)
ROOT
HETATM    1  C1  UNL     1     -34.003   6.510   6.347  1.00 20.00     0.050 C 
HETATM    2  C2  UNL     1     -34.356   5.594   5.416  1.00 20.00     0.094 C 
HETATM    3 CL3  UNL     1     -34.184   5.910   3.721  1.00 20.00    -0.072 Cl
HETATM    4 CL4  UNL     1     -35.001   4.049   5.864  1.00 20.00    -0.072 Cl
ENDROOT
TORSDOF 0
ENDMDL
MODEL 6
REMARK VINA RESULT:      -3.3      1.633      1.925
REMARK  0 active torsions:
REMARK  status: ('A' for Active; 'I' for Inactive)
ROOT
HETATM    1  C1  UNL     1     -34.000   6.514   6.361  1.00 20.00     0.050 C 
HETATM    2  C2  UNL     1     -34.365   5.597   5.435  1.00 20.00     0.094 C 
HETATM    3 CL3  UNL     1     -35.001   4.051   5.891  1.00 20.00    -0.072 Cl
HETATM    4 CL4  UNL     1     -34.219   5.915   3.738  1.00 20.00    -0.072 Cl
ENDROOT
TORSDOF 0
ENDMDL
MODEL 7
REMARK VINA RESULT:      -3.3      1.192      1.192
REMARK  0 active torsions:
REMARK  status: ('A' for Active; 'I' for Inactive)
ROOT
HETATM    1  C1  UNL     1     -35.170   4.953   4.522  1.00 20.00     0.050 C 
HETATM    2  C2  UNL     1     -34.165   5.806   4.831  1.00 20.00     0.094 C 
HETATM    3 CL3  UNL     1     -34.024   6.509   6.408  1.00 20.00    -0.072 Cl
HETATM    4 CL4  UNL     1     -32.960   6.244   3.666  1.00 20.00    -0.072 Cl
ENDROOT
TORSDOF 0
ENDMDL
MODEL 8
REMARK VINA RESULT:      -3.3      1.209      2.246
REMARK  0 active torsions:
REMARK  status: ('A' for Active; 'I' for Inactive)
ROOT
HETATM    1  C1  UNL     1     -35.169   4.947   4.487  1.00 20.00     0.050 C 
HETATM    2  C2  UNL     1     -34.160   5.789   4.810  1.00 20.00     0.094 C 
HETATM    3 CL3  UNL     1     -32.935   6.220   3.663  1.00 20.00    -0.072 Cl
HETATM    4 CL4  UNL     1     -34.032   6.485   6.392  1.00 20.00    -0.072 Cl
ENDROOT
TORSDOF 0
ENDMDL
MODEL 9
REMARK VINA RESULT:      -2.9      2.074      2.134
REMARK  0 active torsions:
REMARK  status: ('A' for Active; 'I' for Inactive)
ROOT
HETATM    1  C1  UNL     1     -33.939   6.244   5.710  1.00 20.00     0.050 C 
HETATM    2  C2  UNL     1     -33.705   6.148   4.381  1.00 20.00     0.094 C 
HETATM    3 CL3  UNL     1     -32.239   6.740   3.672  1.00 20.00    -0.072 Cl
HETATM    4 CL4  UNL     1     -34.859   5.428   3.307  1.00 20.00    -0.072 Cl
ENDROOT
TORSDOF 0
ENDMDL
