MODEL 1
REMARK VINA RESULT:      -3.0      0.000      0.000
REMARK  0 active torsions:
REMARK  status: ('A' for Active; 'I' for Inactive)
ROOT
HETATM    1  C1  UNL     1     -34.462   3.933   5.287  1.00 20.00     0.068 C 
HETATM    2  C2  UNL     1     -34.435   5.376   4.803  1.00 20.00     0.184 C 
HETATM    3 CL3  UNL     1     -35.925   5.731   3.885  1.00 20.00    -0.084 Cl
HETATM    4 CL4  UNL     1     -34.330   6.479   6.203  1.00 20.00    -0.084 Cl
HETATM    5 CL5  UNL     1     -33.019   5.633   3.747  1.00 20.00    -0.084 Cl
ENDROOT
TORSDOF 0
ENDMDL
MODEL 2
REMARK VINA RESULT:      -3.0      1.487      2.518
REMARK  0 active torsions:
REMARK  status: ('A' for Active; 'I' for Inactive)
ROOT
HETATM    1  C1  UNL     1     -35.652   5.712   4.012  1.00 20.00     0.068 C 
HETATM    2  C2  UNL     1     -34.375   5.429   4.791  1.00 20.00     0.184 C 
HETATM    3 CL3  UNL     1     -34.379   3.737   5.361  1.00 20.00    -0.084 Cl
HETATM    4 CL4  UNL     1     -32.957   5.691   3.738  1.00 20.00    -0.084 Cl
HETATM    5 CL5  UNL     1     -34.271   6.522   6.198  1.00 20.00    -0.084 Cl
ENDROOT
TORSDOF 0
ENDMDL
MODEL 3
REMARK VINA RESULT:      -3.0      0.007      2.253
REMARK  0 active torsions:
REMARK  status: ('A' for Active; 'I' for Inactive)
ROOT
HETATM    1  C1  UNL     1     -34.466   3.935   5.292  1.00 20.00     0.068 C 
HETATM    2  C2  UNL     1     -34.438   5.378   4.807  1.00 20.00     0.184 C 
HETATM    3 CL3  UNL     1     -33.024   5.628   3.746  1.00 20.00    -0.084 Cl
HETATM    4 CL4  UNL     1     -35.929   5.735   3.891  1.00 20.00    -0.084 Cl
HETATM    5 CL5  UNL     1     -34.328   6.483   6.204  1.00 20.00    -0.084 Cl
ENDROOT
TORSDOF 0
ENDMDL
MODEL 4
REMARK VINA RESULT:      -3.0      1.484      2.151
REMARK  0 active torsions:
REMARK  status: ('A' for Active; 'I' for Inactive)
ROOT
HETATM    1  C1  UNL     1     -35.655   5.716   4.007  1.00 20.00     0.068 C 
HETATM    2  C2  UNL     1     -34.380   5.427   4.786  1.00 20.00     0.184 C 
HETATM    3 CL3  UNL     1     -32.961   5.684   3.734  1.00 20.00    -0.084 Cl
HETATM    4 CL4  UNL     1     -34.272   6.520   6.194  1.00 20.00    -0.084 Cl
HETATM    5 CL5  UNL     1     -34.390   3.735   5.355  1.00 20.00    -0.084 Cl
ENDROOT
TORSDOF 0
ENDMDL
MODEL 5
REMARK VINA RESULT:      -3.0      1.484      2.153
REMARK  0 active torsions:
REMARK  status: ('A' for Active; 'I' for Inactive)
ROOT
HETATM    1  C1  UNL     1     -35.655   5.716   4.008  1.00 20.00     0.068 C 
HETATM    2  C2  UNL     1     -34.378   5.428   4.785  1.00 20.00     0.184 C 
HETATM    3 CL3  UNL     1     -34.272   6.521   6.193  1.00 20.00    -0.084 Cl
HETATM    4 CL4  UNL     1     -34.389   3.735   5.355  1.00 20.00    -0.084 Cl
HETATM    5 CL5  UNL     1     -32.960   5.684   3.733  1.00 20.00    -0.084 Cl
ENDROOT
TORSDOF 0
ENDMDL
MODEL 6
REMARK VINA RESULT:      -3.0      0.109      2.230
REMARK  0 active torsions:
REMARK  status: ('A' for Active; 'I' for Inactive)
ROOT
HETATM    1  C1  UNL     1     -34.436   3.914   5.207  1.00 20.00     0.068 C 
HETATM    2  C2  UNL     1     -34.445   5.388   4.827  1.00 20.00     0.184 C 
HETATM    3 CL3  UNL     1     -34.417   6.390   6.305  1.00 20.00    -0.084 Cl
HETATM    4 CL4  UNL     1     -33.007   5.763   3.837  1.00 20.00    -0.084 Cl
HETATM    5 CL5  UNL     1     -35.917   5.762   3.891  1.00 20.00    -0.084 Cl
ENDROOT
TORSDOF 0
ENDMDL
MODEL 7
REMARK VINA RESULT:      -3.0      1.476      2.517
REMARK  0 active torsions:
REMARK  status: ('A' for Active; 'I' for Inactive)
ROOT
HETATM    1  C1  UNL     1     -34.344   6.334   5.989  1.00 20.00     0.068 C 
HETATM    2  C2  UNL     1     -34.412   5.407   4.783  1.00 20.00     0.184 C 
HETATM    3 CL3  UNL     1     -32.976   5.656   3.752  1.00 20.00    -0.084 Cl
HETATM    4 CL4  UNL     1     -34.455   3.708   5.332  1.00 20.00    -0.084 Cl
HETATM    5 CL5  UNL     1     -35.884   5.756   3.835  1.00 20.00    -0.084 Cl
ENDROOT
TORSDOF 0
ENDMDL
MODEL 8
REMARK VINA RESULT:      -3.0      1.475      2.149
REMARK  0 active torsions:
REMARK  status: ('A' for Active; 'I' for Inactive)
ROOT
HETATM    1  C1  UNL     1     -34.354   6.344   5.972  1.00 20.00     0.068 C 
HETATM    2  C2  UNL     1     -34.414   5.408   4.773  1.00 20.00     0.184 C 
HETATM    3 CL3  UNL     1     -35.889   5.740   3.824  1.00 20.00    -0.084 Cl
HETATM    4 CL4  UNL     1     -32.980   5.661   3.739  1.00 20.00    -0.084 Cl
HETATM    5 CL5  UNL     1     -34.443   3.713   5.330  1.00 20.00    -0.084 Cl
ENDROOT
TORSDOF 0
ENDMDL
MODEL 9
REMARK VINA RESULT:      -3.0      1.475      2.160
REMARK  0 active torsions:
REMARK  status: ('A' for Active; 'I' for Inactive)
ROOT
HETATM    1  C1  UNL     1     -34.360   6.346   5.967  1.00 20.00     0.068 C 
HETATM    2  C2  UNL     1     -34.418   5.409   4.768  1.00 20.00     0.184 C 
HETATM    3 CL3  UNL     1     -34.446   3.715   5.329  1.00 20.00    -0.084 Cl
HETATM    4 CL4  UNL     1     -35.893   5.739   3.817  1.00 20.00    -0.084 Cl
HETATM    5 CL5  UNL     1     -32.985   5.662   3.734  1.00 20.00    -0.084 Cl
ENDROOT
TORSDOF 0
ENDMDL
