MODEL 1
REMARK VINA RESULT:      -4.5      0.000      0.000
REMARK  1 active torsions:
REMARK  status: ('A' for Active; 'I' for Inactive)
REMARK    1  A    between atoms: C2_2  and  C5_5 
ROOT
HETATM    1  C1  UNL     1     -34.809   4.971   3.824  1.00 20.00     0.088 A 
HETATM    2  C2  UNL     1     -34.210   5.552   4.922  1.00 20.00     0.147 A 
HETATM    3  C3  UNL     1     -33.069   6.569   3.348  1.00 20.00     0.071 A 
HETATM    4  C4  UNL     1     -32.093   7.456   2.679  1.00 20.00     0.078 C 
HETATM    5  N6  UNL     1     -33.212   6.469   4.651  1.00 20.00    -0.241 NA
HETATM    6  S10 UNL     1     -34.103   5.591   2.389  1.00 20.00    -0.085 SA
ENDROOT
BRANCH   2   7
HETATM    7  C5  UNL     1     -34.545   5.277   6.334  1.00 20.00     0.435 C 
HETATM    8  F7  UNL     1     -35.733   4.613   6.510  1.00 20.00    -0.165 F 
HETATM    9  F8  UNL     1     -33.620   4.505   6.990  1.00 20.00    -0.165 F 
HETATM   10  F9  UNL     1     -34.660   6.412   7.093  1.00 20.00    -0.165 F 
ENDBRANCH   2   7
TORSDOF 1
ENDMDL
MODEL 2
REMARK VINA RESULT:      -4.5      0.032      1.185
REMARK  1 active torsions:
REMARK  status: ('A' for Active; 'I' for Inactive)
REMARK    1  A    between atoms: C2_2  and  C5_5 
ROOT
HETATM    1  C1  UNL     1     -34.796   4.975   3.829  1.00 20.00     0.088 A 
HETATM    2  C2  UNL     1     -34.196   5.569   4.920  1.00 20.00     0.147 A 
HETATM    3  C3  UNL     1     -33.058   6.568   3.332  1.00 20.00     0.071 A 
HETATM    4  C4  UNL     1     -32.083   7.447   2.652  1.00 20.00     0.078 C 
HETATM    5  N6  UNL     1     -33.199   6.483   4.637  1.00 20.00    -0.241 NA
HETATM    6  S10 UNL     1     -34.092   5.577   2.386  1.00 20.00    -0.085 SA
ENDROOT
BRANCH   2   7
HETATM    7  C5  UNL     1     -34.530   5.312   6.335  1.00 20.00     0.435 C 
HETATM    8  F7  UNL     1     -33.617   4.527   6.994  1.00 20.00    -0.165 F 
HETATM    9  F8  UNL     1     -34.627   6.443   7.104  1.00 20.00    -0.165 F 
HETATM   10  F9  UNL     1     -35.729   4.669   6.500  1.00 20.00    -0.165 F 
ENDBRANCH   2   7
TORSDOF 1
ENDMDL
MODEL 3
REMARK VINA RESULT:      -4.3      3.130      4.124
REMARK  1 active torsions:
REMARK  status: ('A' for Active; 'I' for Inactive)
REMARK    1  A    between atoms: C2_2  and  C5_5 
ROOT
HETATM    1  C1  UNL     1     -34.135   5.711   2.894  1.00 20.00     0.088 A 
HETATM    2  C2  UNL     1     -33.235   6.527   3.549  1.00 20.00     0.147 A 
HETATM    3  C3  UNL     1     -34.302   5.739   5.297  1.00 20.00     0.071 A 
HETATM    4  C4  UNL     1     -34.700   5.498   6.701  1.00 20.00     0.078 C 
HETATM    5  N6  UNL     1     -33.330   6.544   4.928  1.00 20.00    -0.241 NA
HETATM    6  S10 UNL     1     -35.143   4.929   4.040  1.00 20.00    -0.085 SA
ENDROOT
BRANCH   2   7
HETATM    7  C5  UNL     1     -32.202   7.363   2.907  1.00 20.00     0.435 C 
HETATM    8  F7  UNL     1     -32.675   8.545   2.395  1.00 20.00    -0.165 F 
HETATM    9  F8  UNL     1     -31.182   7.736   3.744  1.00 20.00    -0.165 F 
HETATM   10  F9  UNL     1     -31.585   6.745   1.851  1.00 20.00    -0.165 F 
ENDBRANCH   2   7
TORSDOF 1
ENDMDL
MODEL 4
REMARK VINA RESULT:      -4.2     12.421     13.036
REMARK  1 active torsions:
REMARK  status: ('A' for Active; 'I' for Inactive)
REMARK    1  A    between atoms: C2_2  and  C5_5 
ROOT
HETATM    1  C1  UNL     1     -33.726  16.494  -4.151  1.00 20.00     0.088 A 
HETATM    2  C2  UNL     1     -34.083  15.300  -3.560  1.00 20.00     0.147 A 
HETATM    3  C3  UNL     1     -34.429  16.630  -1.850  1.00 20.00     0.071 A 
HETATM    4  C4  UNL     1     -34.786  17.102  -0.495  1.00 20.00     0.078 C 
HETATM    5  N6  UNL     1     -34.486  15.376  -2.241  1.00 20.00    -0.241 NA
HETATM    6  S10 UNL     1     -33.899  17.770  -3.018  1.00 20.00    -0.085 SA
ENDROOT
BRANCH   2   7
HETATM    7  C5  UNL     1     -34.069  13.976  -4.213  1.00 20.00     0.435 C 
HETATM    8  F7  UNL     1     -35.123  13.168  -3.868  1.00 20.00    -0.165 F 
HETATM    9  F8  UNL     1     -34.110  14.026  -5.584  1.00 20.00    -0.165 F 
HETATM   10  F9  UNL     1     -32.951  13.240  -3.920  1.00 20.00    -0.165 F 
ENDBRANCH   2   7
TORSDOF 1
ENDMDL
MODEL 5
REMARK VINA RESULT:      -4.2     12.417     13.047
REMARK  1 active torsions:
REMARK  status: ('A' for Active; 'I' for Inactive)
REMARK    1  A    between atoms: C2_2  and  C5_5 
ROOT
HETATM    1  C1  UNL     1     -33.719  16.499  -4.139  1.00 20.00     0.088 A 
HETATM    2  C2  UNL     1     -34.074  15.304  -3.547  1.00 20.00     0.147 A 
HETATM    3  C3  UNL     1     -34.421  16.636  -1.838  1.00 20.00     0.071 A 
HETATM    4  C4  UNL     1     -34.778  17.108  -0.483  1.00 20.00     0.078 C 
HETATM    5  N6  UNL     1     -34.477  15.381  -2.227  1.00 20.00    -0.241 NA
HETATM    6  S10 UNL     1     -33.893  17.776  -3.008  1.00 20.00    -0.085 SA
ENDROOT
BRANCH   2   7
HETATM    7  C5  UNL     1     -34.058  13.980  -4.199  1.00 20.00     0.435 C 
HETATM    8  F7  UNL     1     -32.950  13.224  -3.910  1.00 20.00    -0.165 F 
HETATM    9  F8  UNL     1     -35.118  13.176  -3.863  1.00 20.00    -0.165 F 
HETATM   10  F9  UNL     1     -34.088  14.050  -5.567  1.00 20.00    -0.165 F 
ENDBRANCH   2   7
TORSDOF 1
ENDMDL
MODEL 6
REMARK VINA RESULT:      -4.2     12.727     13.869
REMARK  1 active torsions:
REMARK  status: ('A' for Active; 'I' for Inactive)
REMARK    1  A    between atoms: C2_2  and  C5_5 
ROOT
HETATM    1  C1  UNL     1     -33.716  16.622  -5.322  1.00 20.00     0.088 A 
HETATM    2  C2  UNL     1     -33.851  15.333  -4.849  1.00 20.00     0.147 A 
HETATM    3  C3  UNL     1     -34.850  15.080  -6.785  1.00 20.00     0.071 A 
HETATM    4  C4  UNL     1     -35.569  14.456  -7.917  1.00 20.00     0.078 C 
HETATM    5  N6  UNL     1     -34.501  14.448  -5.687  1.00 20.00    -0.241 NA
HETATM    6  S10 UNL     1     -34.427  16.740  -6.878  1.00 20.00    -0.085 SA
ENDROOT
BRANCH   2   7
HETATM    7  C5  UNL     1     -33.364  14.837  -3.546  1.00 20.00     0.435 C 
HETATM    8  F7  UNL     1     -32.023  14.548  -3.520  1.00 20.00    -0.165 F 
HETATM    9  F8  UNL     1     -33.546  15.715  -2.508  1.00 20.00    -0.165 F 
HETATM   10  F9  UNL     1     -33.981  13.681  -3.143  1.00 20.00    -0.165 F 
ENDBRANCH   2   7
TORSDOF 1
ENDMDL
MODEL 7
REMARK VINA RESULT:      -4.1     12.733     13.843
REMARK  1 active torsions:
REMARK  status: ('A' for Active; 'I' for Inactive)
REMARK    1  A    between atoms: C2_2  and  C5_5 
ROOT
HETATM    1  C1  UNL     1     -33.372  16.296  -4.282  1.00 20.00     0.088 A 
HETATM    2  C2  UNL     1     -33.844  15.114  -4.813  1.00 20.00     0.147 A 
HETATM    3  C3  UNL     1     -34.311  16.442  -6.496  1.00 20.00     0.071 A 
HETATM    4  C4  UNL     1     -34.791  16.916  -7.811  1.00 20.00     0.078 C 
HETATM    5  N6  UNL     1     -34.383  15.196  -6.083  1.00 20.00    -0.241 NA
HETATM    6  S10 UNL     1     -33.606  17.567  -5.409  1.00 20.00    -0.085 SA
ENDROOT
BRANCH   2   7
HETATM    7  C5  UNL     1     -33.819  13.797  -4.146  1.00 20.00     0.435 C 
HETATM    8  F7  UNL     1     -34.168  12.748  -4.960  1.00 20.00    -0.165 F 
HETATM    9  F8  UNL     1     -32.592  13.446  -3.643  1.00 20.00    -0.165 F 
HETATM   10  F9  UNL     1     -34.675  13.714  -3.079  1.00 20.00    -0.165 F 
ENDBRANCH   2   7
TORSDOF 1
ENDMDL
MODEL 8
REMARK VINA RESULT:      -4.1     12.342     13.189
REMARK  1 active torsions:
REMARK  status: ('A' for Active; 'I' for Inactive)
REMARK    1  A    between atoms: C2_2  and  C5_5 
ROOT
HETATM    1  C1  UNL     1     -33.684  17.124  -3.860  1.00 20.00     0.088 A 
HETATM    2  C2  UNL     1     -34.089  16.456  -2.723  1.00 20.00     0.147 A 
HETATM    3  C3  UNL     1     -34.171  14.781  -4.138  1.00 20.00     0.071 A 
HETATM    4  C4  UNL     1     -34.369  13.422  -4.686  1.00 20.00     0.078 C 
HETATM    5  N6  UNL     1     -34.369  15.112  -2.881  1.00 20.00    -0.241 NA
HETATM    6  S10 UNL     1     -33.648  16.036  -5.185  1.00 20.00    -0.085 SA
ENDROOT
BRANCH   2   7
HETATM    7  C5  UNL     1     -34.243  17.051  -1.381  1.00 20.00     0.435 C 
HETATM    8  F7  UNL     1     -33.067  17.481  -0.819  1.00 20.00    -0.165 F 
HETATM    9  F8  UNL     1     -35.062  18.151  -1.345  1.00 20.00    -0.165 F 
HETATM   10  F9  UNL     1     -34.775  16.184  -0.462  1.00 20.00    -0.165 F 
ENDBRANCH   2   7
TORSDOF 1
ENDMDL
MODEL 9
REMARK VINA RESULT:      -4.0     12.616     13.736
REMARK  1 active torsions:
REMARK  status: ('A' for Active; 'I' for Inactive)
REMARK    1  A    between atoms: C2_2  and  C5_5 
ROOT
HETATM    1  C1  UNL     1     -34.690  14.683  -6.242  1.00 20.00     0.088 A 
HETATM    2  C2  UNL     1     -34.208  14.945  -4.976  1.00 20.00     0.147 A 
HETATM    3  C3  UNL     1     -33.961  16.945  -5.843  1.00 20.00     0.071 A 
HETATM    4  C4  UNL     1     -33.625  18.378  -5.978  1.00 20.00     0.078 C 
HETATM    5  N6  UNL     1     -33.790  16.241  -4.745  1.00 20.00    -0.241 NA
HETATM    6  S10 UNL     1     -34.621  16.111  -7.189  1.00 20.00    -0.085 SA
ENDROOT
BRANCH   2   7
HETATM    7  C5  UNL     1     -34.108  13.969  -3.872  1.00 20.00     0.435 C 
HETATM    8  F7  UNL     1     -32.883  13.360  -3.770  1.00 20.00    -0.165 F 
HETATM    9  F8  UNL     1     -34.330  14.503  -2.629  1.00 20.00    -0.165 F 
HETATM   10  F9  UNL     1     -35.005  12.938  -3.979  1.00 20.00    -0.165 F 
ENDBRANCH   2   7
TORSDOF 1
ENDMDL
