MODEL 1
REMARK VINA RESULT:      -4.0      0.000      0.000
REMARK  0 active torsions:
REMARK  status: ('A' for Active; 'I' for Inactive)
ROOT
HETATM    1  C1  UNL     1     -33.888   5.921   4.077  1.00 20.00     0.409 C 
HETATM    2  C2  UNL     1     -34.507   5.898   6.239  1.00 20.00     0.247 C 
HETATM    3  C3  UNL     1     -35.115   4.737   5.524  1.00 20.00     0.343 C 
HETATM    4  O4  UNL     1     -33.350   6.266   3.036  1.00 20.00    -0.229 OA
HETATM    5  O5  UNL     1     -33.511   6.339   5.324  1.00 20.00    -0.293 OA
HETATM    6  O6  UNL     1     -34.953   5.066   4.156  1.00 20.00    -0.260 OA
HETATM    7  F7  UNL     1     -34.395   3.614   5.766  1.00 20.00    -0.217 F 
ENDROOT
TORSDOF 0
ENDMDL
MODEL 2
REMARK VINA RESULT:      -3.8      1.713      2.438
REMARK  0 active torsions:
REMARK  status: ('A' for Active; 'I' for Inactive)
ROOT
HETATM    1  C1  UNL     1     -34.138   6.226   5.574  1.00 20.00     0.409 C 
HETATM    2  C2  UNL     1     -33.905   5.602   3.426  1.00 20.00     0.247 C 
HETATM    3  C3  UNL     1     -35.140   4.992   4.002  1.00 20.00     0.343 C 
HETATM    4  O4  UNL     1     -33.918   6.767   6.648  1.00 20.00    -0.229 OA
HETATM    5  O5  UNL     1     -33.577   6.601   4.384  1.00 20.00    -0.293 OA
HETATM    6  O6  UNL     1     -34.975   5.158   5.398  1.00 20.00    -0.260 OA
HETATM    7  F7  UNL     1     -36.230   5.708   3.627  1.00 20.00    -0.217 F 
ENDROOT
TORSDOF 0
ENDMDL
MODEL 3
REMARK VINA RESULT:      -3.8     12.099     12.522
REMARK  0 active torsions:
REMARK  status: ('A' for Active; 'I' for Inactive)
ROOT
HETATM    1  C1  UNL     1     -34.495  13.515  -4.116  1.00 20.00     0.409 C 
HETATM    2  C2  UNL     1     -32.742  14.820  -3.586  1.00 20.00     0.247 C 
HETATM    3  C3  UNL     1     -34.017  15.557  -3.341  1.00 20.00     0.343 C 
HETATM    4  O4  UNL     1     -35.140  12.547  -4.489  1.00 20.00    -0.229 OA
HETATM    5  O5  UNL     1     -33.184  13.475  -3.728  1.00 20.00    -0.293 OA
HETATM    6  O6  UNL     1     -34.984  14.790  -4.034  1.00 20.00    -0.260 OA
HETATM    7  F7  UNL     1     -34.329  15.520  -2.021  1.00 20.00    -0.217 F 
ENDROOT
TORSDOF 0
ENDMDL
MODEL 4
REMARK VINA RESULT:      -3.7      1.750      2.928
REMARK  0 active torsions:
REMARK  status: ('A' for Active; 'I' for Inactive)
ROOT
HETATM    1  C1  UNL     1     -34.483   5.423   5.448  1.00 20.00     0.409 C 
HETATM    2  C2  UNL     1     -34.629   5.483   3.204  1.00 20.00     0.247 C 
HETATM    3  C3  UNL     1     -33.506   6.353   3.665  1.00 20.00     0.343 C 
HETATM    4  O4  UNL     1     -34.721   5.132   6.610  1.00 20.00    -0.229 OA
HETATM    5  O5  UNL     1     -34.917   4.710   4.363  1.00 20.00    -0.293 OA
HETATM    6  O6  UNL     1     -33.751   6.508   5.051  1.00 20.00    -0.260 OA
HETATM    7  F7  UNL     1     -32.325   5.701   3.525  1.00 20.00    -0.217 F 
ENDROOT
TORSDOF 0
ENDMDL
MODEL 5
REMARK VINA RESULT:      -3.7     12.326     13.002
REMARK  0 active torsions:
REMARK  status: ('A' for Active; 'I' for Inactive)
ROOT
HETATM    1  C1  UNL     1     -34.534  13.612  -4.390  1.00 20.00     0.409 C 
HETATM    2  C2  UNL     1     -33.723  15.649  -4.894  1.00 20.00     0.247 C 
HETATM    3  C3  UNL     1     -33.258  15.238  -3.536  1.00 20.00     0.343 C 
HETATM    4  O4  UNL     1     -35.132  12.552  -4.494  1.00 20.00    -0.229 OA
HETATM    5  O5  UNL     1     -34.204  14.426  -5.440  1.00 20.00    -0.293 OA
HETATM    6  O6  UNL     1     -34.105  14.151  -3.208  1.00 20.00    -0.260 OA
HETATM    7  F7  UNL     1     -31.988  14.767  -3.601  1.00 20.00    -0.217 F 
ENDROOT
TORSDOF 0
ENDMDL
MODEL 6
REMARK VINA RESULT:      -3.6      1.512      2.007
REMARK  0 active torsions:
REMARK  status: ('A' for Active; 'I' for Inactive)
ROOT
HETATM    1  C1  UNL     1     -34.510   5.386   3.965  1.00 20.00     0.409 C 
HETATM    2  C2  UNL     1     -35.050   4.690   6.034  1.00 20.00     0.247 C 
HETATM    3  C3  UNL     1     -33.949   5.695   6.107  1.00 20.00     0.343 C 
HETATM    4  O4  UNL     1     -34.520   5.501   2.749  1.00 20.00    -0.229 OA
HETATM    5  O5  UNL     1     -35.529   4.851   4.705  1.00 20.00    -0.293 OA
HETATM    6  O6  UNL     1     -33.476   5.770   4.775  1.00 20.00    -0.260 OA
HETATM    7  F7  UNL     1     -34.452   6.912   6.435  1.00 20.00    -0.217 F 
ENDROOT
TORSDOF 0
ENDMDL
MODEL 7
REMARK VINA RESULT:      -3.5      1.940      2.610
REMARK  0 active torsions:
REMARK  status: ('A' for Active; 'I' for Inactive)
ROOT
HETATM    1  C1  UNL     1     -34.702   4.591   5.359  1.00 20.00     0.409 C 
HETATM    2  C2  UNL     1     -33.941   6.533   6.202  1.00 20.00     0.247 C 
HETATM    3  C3  UNL     1     -33.613   6.446   4.748  1.00 20.00     0.343 C 
HETATM    4  O4  UNL     1     -35.241   3.497   5.291  1.00 20.00    -0.229 OA
HETATM    5  O5  UNL     1     -34.903   5.497   6.365  1.00 20.00    -0.293 OA
HETATM    6  O6  UNL     1     -33.811   5.078   4.442  1.00 20.00    -0.260 OA
HETATM    7  F7  UNL     1     -34.509   7.164   4.026  1.00 20.00    -0.217 F 
ENDROOT
TORSDOF 0
ENDMDL
MODEL 8
REMARK VINA RESULT:      -3.5     12.311     12.838
REMARK  0 active torsions:
REMARK  status: ('A' for Active; 'I' for Inactive)
ROOT
HETATM    1  C1  UNL     1     -36.112  14.044  -4.096  1.00 20.00     0.409 C 
HETATM    2  C2  UNL     1     -34.067  13.323  -4.691  1.00 20.00     0.247 C 
HETATM    3  C3  UNL     1     -34.014  14.774  -4.344  1.00 20.00     0.343 C 
HETATM    4  O4  UNL     1     -37.309  14.040  -3.848  1.00 20.00    -0.229 OA
HETATM    5  O5  UNL     1     -35.328  12.925  -4.167  1.00 20.00    -0.293 OA
HETATM    6  O6  UNL     1     -35.374  15.168  -4.346  1.00 20.00    -0.260 OA
HETATM    7  F7  UNL     1     -33.540  14.933  -3.083  1.00 20.00    -0.217 F 
ENDROOT
TORSDOF 0
ENDMDL
MODEL 9
REMARK VINA RESULT:      -3.4     12.022     12.653
REMARK  0 active torsions:
REMARK  status: ('A' for Active; 'I' for Inactive)
ROOT
HETATM    1  C1  UNL     1     -33.814  13.510  -4.112  1.00 20.00     0.409 C 
HETATM    2  C2  UNL     1     -35.151  14.925  -5.238  1.00 20.00     0.247 C 
HETATM    3  C3  UNL     1     -35.977  13.936  -4.484  1.00 20.00     0.343 C 
HETATM    4  O4  UNL     1     -32.803  12.981  -3.675  1.00 20.00    -0.229 OA
HETATM    5  O5  UNL     1     -33.865  14.767  -4.649  1.00 20.00    -0.293 OA
HETATM    6  O6  UNL     1     -35.051  12.925  -4.134  1.00 20.00    -0.260 OA
HETATM    7  F7  UNL     1     -36.435  14.492  -3.335  1.00 20.00    -0.217 F 
ENDROOT
TORSDOF 0
ENDMDL
