MODEL 1
REMARK VINA RESULT:      -4.9      0.000      0.000
REMARK  1 active torsions:
REMARK  status: ('A' for Active; 'I' for Inactive)
REMARK    1  A    between atoms: C3_3  and  C5_5 
ROOT
HETATM    1  C1  UNL     1     -34.802  14.919  -2.802  1.00 20.00     0.032 A 
HETATM    2  C2  UNL     1     -34.493  16.119  -2.132  1.00 20.00    -0.044 A 
HETATM    3  C3  UNL     1     -34.425  14.994  -4.133  1.00 20.00     0.068 A 
HETATM    4  C4  UNL     1     -33.907  17.039  -2.957  1.00 20.00    -0.010 A 
HETATM    5  C6  UNL     1     -34.637  16.649  -0.754  1.00 20.00     0.040 C 
HETATM    6  C7  UNL     1     -33.565  18.316  -2.291  1.00 20.00     0.047 C 
HETATM    7  C8  UNL     1     -34.359  18.173  -0.956  1.00 20.00     0.010 C 
HETATM    8  S10 UNL     1     -33.705  16.516  -4.533  1.00 20.00    -0.089 SA
ENDROOT
BRANCH   3   9
HETATM    9  C5  UNL     1     -34.555  14.007  -5.157  1.00 20.00     0.259 C 
HETATM   10  O9  UNL     1     -34.579  12.781  -4.855  1.00 20.00    -0.273 OA
HETATM   11 CL11 UNL     1     -34.687  14.446  -6.885  1.00 20.00    -0.038 Cl
ENDBRANCH   3   9
TORSDOF 1
ENDMDL
MODEL 2
REMARK VINA RESULT:      -4.7      1.334      1.499
REMARK  1 active torsions:
REMARK  status: ('A' for Active; 'I' for Inactive)
REMARK    1  A    between atoms: C3_3  and  C5_5 
ROOT
HETATM    1  C1  UNL     1     -34.176  15.133  -3.003  1.00 20.00     0.032 A 
HETATM    2  C2  UNL     1     -34.601  16.215  -2.208  1.00 20.00    -0.044 A 
HETATM    3  C3  UNL     1     -35.131  14.827  -3.959  1.00 20.00     0.068 A 
HETATM    4  C4  UNL     1     -35.833  16.681  -2.579  1.00 20.00    -0.010 A 
HETATM    5  C6  UNL     1     -34.057  16.990  -1.066  1.00 20.00     0.040 C 
HETATM    6  C7  UNL     1     -36.317  17.821  -1.768  1.00 20.00     0.047 C 
HETATM    7  C8  UNL     1     -35.312  17.780  -0.576  1.00 20.00     0.010 C 
HETATM    8  S10 UNL     1     -36.516  15.861  -3.867  1.00 20.00    -0.089 SA
ENDROOT
BRANCH   3   9
HETATM    9  C5  UNL     1     -35.102  13.808  -4.959  1.00 20.00     0.259 C 
HETATM   10  O9  UNL     1     -34.939  12.601  -4.628  1.00 20.00    -0.273 OA
HETATM   11 CL11 UNL     1     -35.289  14.181  -6.697  1.00 20.00    -0.038 Cl
ENDBRANCH   3   9
TORSDOF 1
ENDMDL
MODEL 3
REMARK VINA RESULT:      -4.5      1.247      1.247
REMARK  1 active torsions:
REMARK  status: ('A' for Active; 'I' for Inactive)
REMARK    1  A    between atoms: C3_3  and  C5_5 
ROOT
HETATM    1  C1  UNL     1     -34.688  15.375  -2.731  1.00 20.00     0.032 A 
HETATM    2  C2  UNL     1     -34.427  16.488  -1.908  1.00 20.00    -0.044 A 
HETATM    3  C3  UNL     1     -34.297  15.632  -4.035  1.00 20.00     0.068 A 
HETATM    4  C4  UNL     1     -33.862  17.524  -2.598  1.00 20.00    -0.010 A 
HETATM    5  C6  UNL     1     -34.605  16.831  -0.476  1.00 20.00     0.040 C 
HETATM    6  C7  UNL     1     -33.571  18.715  -1.768  1.00 20.00     0.047 C 
HETATM    7  C8  UNL     1     -34.376  18.376  -0.476  1.00 20.00     0.010 C 
HETATM    8  S10 UNL     1     -33.623  17.215  -4.224  1.00 20.00    -0.089 SA
ENDROOT
BRANCH   3   9
HETATM    9  C5  UNL     1     -34.382  14.782  -5.179  1.00 20.00     0.259 C 
HETATM   10  O9  UNL     1     -34.201  15.257  -6.335  1.00 20.00    -0.273 OA
HETATM   11 CL11 UNL     1     -34.743  13.037  -5.038  1.00 20.00    -0.038 Cl
ENDBRANCH   3   9
TORSDOF 1
ENDMDL
MODEL 4
REMARK VINA RESULT:      -4.4     12.662     13.641
REMARK  1 active torsions:
REMARK  status: ('A' for Active; 'I' for Inactive)
REMARK    1  A    between atoms: C3_3  and  C5_5 
ROOT
HETATM    1  C1  UNL     1     -41.186   4.238  -1.633  1.00 20.00     0.032 A 
HETATM    2  C2  UNL     1     -41.416   5.623  -1.512  1.00 20.00    -0.044 A 
HETATM    3  C3  UNL     1     -42.092   3.669  -2.514  1.00 20.00     0.068 A 
HETATM    4  C4  UNL     1     -42.462   6.045  -2.286  1.00 20.00    -0.010 A 
HETATM    5  C6  UNL     1     -40.814   6.751  -0.761  1.00 20.00     0.040 C 
HETATM    6  C7  UNL     1     -42.737   7.497  -2.189  1.00 20.00     0.047 C 
HETATM    7  C8  UNL     1     -41.887   7.873  -0.936  1.00 20.00     0.010 C 
HETATM    8  S10 UNL     1     -43.195   4.830  -3.171  1.00 20.00    -0.089 SA
ENDROOT
BRANCH   3   9
HETATM    9  C5  UNL     1     -42.210   2.306  -2.919  1.00 20.00     0.259 C 
HETATM   10  O9  UNL     1     -43.103   1.570  -2.413  1.00 20.00    -0.273 OA
HETATM   11 CL11 UNL     1     -41.122   1.581  -4.138  1.00 20.00    -0.038 Cl
ENDBRANCH   3   9
TORSDOF 1
ENDMDL
MODEL 5
REMARK VINA RESULT:      -4.4      3.244      4.675
REMARK  1 active torsions:
REMARK  status: ('A' for Active; 'I' for Inactive)
REMARK    1  A    between atoms: C3_3  and  C5_5 
ROOT
HETATM    1  C1  UNL     1     -34.633  15.696  -2.392  1.00 20.00     0.032 A 
HETATM    2  C2  UNL     1     -34.777  14.982  -3.598  1.00 20.00    -0.044 A 
HETATM    3  C3  UNL     1     -34.047  16.929  -2.623  1.00 20.00     0.068 A 
HETATM    4  C4  UNL     1     -34.307  15.682  -4.675  1.00 20.00    -0.010 A 
HETATM    5  C6  UNL     1     -35.312  13.661  -4.008  1.00 20.00     0.040 C 
HETATM    6  C7  UNL     1     -34.440  14.967  -5.965  1.00 20.00     0.047 C 
HETATM    7  C8  UNL     1     -34.771  13.526  -5.468  1.00 20.00     0.010 C 
HETATM    8  S10 UNL     1     -33.689  17.189  -4.296  1.00 20.00    -0.089 SA
ENDROOT
BRANCH   3   9
HETATM    9  C5  UNL     1     -33.723  17.956  -1.686  1.00 20.00     0.259 C 
HETATM   10  O9  UNL     1     -33.219  19.043  -2.085  1.00 20.00    -0.273 OA
HETATM   11 CL11 UNL     1     -34.008  17.762   0.069  1.00 20.00    -0.038 Cl
ENDBRANCH   3   9
TORSDOF 1
ENDMDL
MODEL 6
REMARK VINA RESULT:      -4.3     11.543     12.391
REMARK  1 active torsions:
REMARK  status: ('A' for Active; 'I' for Inactive)
REMARK    1  A    between atoms: C3_3  and  C5_5 
ROOT
HETATM    1  C1  UNL     1     -33.099   7.213   4.610  1.00 20.00     0.032 A 
HETATM    2  C2  UNL     1     -33.915   6.193   5.136  1.00 20.00    -0.044 A 
HETATM    3  C3  UNL     1     -33.011   7.103   3.231  1.00 20.00     0.068 A 
HETATM    4  C4  UNL     1     -34.405   5.365   4.164  1.00 20.00    -0.010 A 
HETATM    5  C6  UNL     1     -34.387   5.780   6.480  1.00 20.00     0.040 C 
HETATM    6  C7  UNL     1     -35.270   4.278   4.676  1.00 20.00     0.047 C 
HETATM    7  C8  UNL     1     -34.964   4.355   6.203  1.00 20.00     0.010 C 
HETATM    8  S10 UNL     1     -33.922   5.767   2.614  1.00 20.00    -0.089 SA
ENDROOT
BRANCH   3   9
HETATM    9  C5  UNL     1     -32.293   7.926   2.312  1.00 20.00     0.259 C 
HETATM   10  O9  UNL     1     -31.308   7.455   1.678  1.00 20.00    -0.273 OA
HETATM   11 CL11 UNL     1     -32.739   9.632   2.018  1.00 20.00    -0.038 Cl
ENDBRANCH   3   9
TORSDOF 1
ENDMDL
MODEL 7
REMARK VINA RESULT:      -4.3      1.105      1.763
REMARK  1 active torsions:
REMARK  status: ('A' for Active; 'I' for Inactive)
REMARK    1  A    between atoms: C3_3  and  C5_5 
ROOT
HETATM    1  C1  UNL     1     -33.848  16.749  -4.325  1.00 20.00     0.032 A 
HETATM    2  C2  UNL     1     -33.930  17.156  -2.978  1.00 20.00    -0.044 A 
HETATM    3  C3  UNL     1     -34.412  15.494  -4.489  1.00 20.00     0.068 A 
HETATM    4  C4  UNL     1     -34.539  16.220  -2.188  1.00 20.00    -0.010 A 
HETATM    5  C6  UNL     1     -33.529  18.346  -2.189  1.00 20.00     0.040 C 
HETATM    6  C7  UNL     1     -34.646  16.609  -0.764  1.00 20.00     0.047 C 
HETATM    7  C8  UNL     1     -33.678  17.832  -0.721  1.00 20.00     0.010 C 
HETATM    8  S10 UNL     1     -35.027  14.845  -3.007  1.00 20.00    -0.089 SA
ENDROOT
BRANCH   3   9
HETATM    9  C5  UNL     1     -34.537  14.719  -5.680  1.00 20.00     0.259 C 
HETATM   10  O9  UNL     1     -34.931  13.520  -5.618  1.00 20.00    -0.273 OA
HETATM   11 CL11 UNL     1     -34.151  15.388  -7.292  1.00 20.00    -0.038 Cl
ENDBRANCH   3   9
TORSDOF 1
ENDMDL
MODEL 8
REMARK VINA RESULT:      -4.3      3.229      4.977
REMARK  1 active torsions:
REMARK  status: ('A' for Active; 'I' for Inactive)
REMARK    1  A    between atoms: C3_3  and  C5_5 
ROOT
HETATM    1  C1  UNL     1     -33.830  17.162  -4.512  1.00 20.00     0.032 A 
HETATM    2  C2  UNL     1     -34.136  16.120  -5.410  1.00 20.00    -0.044 A 
HETATM    3  C3  UNL     1     -34.069  16.765  -3.206  1.00 20.00     0.068 A 
HETATM    4  C4  UNL     1     -34.584  14.998  -4.770  1.00 20.00    -0.010 A 
HETATM    5  C6  UNL     1     -34.096  15.921  -6.879  1.00 20.00     0.040 C 
HETATM    6  C7  UNL     1     -34.916  13.877  -5.679  1.00 20.00     0.047 C 
HETATM    7  C8  UNL     1     -34.926  14.609  -7.056  1.00 20.00     0.010 C 
HETATM    8  S10 UNL     1     -34.655  15.139  -3.105  1.00 20.00    -0.089 SA
ENDROOT
BRANCH   3   9
HETATM    9  C5  UNL     1     -33.893  17.506  -1.999  1.00 20.00     0.259 C 
HETATM   10  O9  UNL     1     -33.306  18.624  -2.023  1.00 20.00    -0.273 OA
HETATM   11 CL11 UNL     1     -34.482  16.905  -0.423  1.00 20.00    -0.038 Cl
ENDBRANCH   3   9
TORSDOF 1
ENDMDL
MODEL 9
REMARK VINA RESULT:      -4.1      4.208      5.261
REMARK  1 active torsions:
REMARK  status: ('A' for Active; 'I' for Inactive)
REMARK    1  A    between atoms: C3_3  and  C5_5 
ROOT
HETATM    1  C1  UNL     1     -34.602  16.587  -0.732  1.00 20.00     0.032 A 
HETATM    2  C2  UNL     1     -34.374  16.313  -2.095  1.00 20.00    -0.044 A 
HETATM    3  C3  UNL     1     -34.220  17.884  -0.426  1.00 20.00     0.068 A 
HETATM    4  C4  UNL     1     -33.840  17.384  -2.758  1.00 20.00    -0.010 A 
HETATM    5  C6  UNL     1     -34.565  15.158  -3.005  1.00 20.00     0.040 C 
HETATM    6  C7  UNL     1     -33.586  17.137  -4.196  1.00 20.00     0.047 C 
HETATM    7  C8  UNL     1     -33.735  15.585  -4.258  1.00 20.00     0.010 C 
HETATM    8  S10 UNL     1     -33.597  18.732  -1.799  1.00 20.00    -0.089 SA
ENDROOT
BRANCH   3   9
HETATM    9  C5  UNL     1     -34.281  18.561   0.829  1.00 20.00     0.259 C 
HETATM   10  O9  UNL     1     -35.373  19.053   1.230  1.00 20.00    -0.273 OA
HETATM   11 CL11 UNL     1     -32.845  18.747   1.877  1.00 20.00    -0.038 Cl
ENDBRANCH   3   9
TORSDOF 1
ENDMDL
