MODEL 1
REMARK VINA RESULT:      -5.3      0.000      0.000
REMARK  0 active torsions:
REMARK  status: ('A' for Active; 'I' for Inactive)
ROOT
HETATM    1  C1  UNL     1     -35.055  13.642  -4.471  1.00 20.00     0.064 C 
HETATM    2  C2  UNL     1     -33.129  15.739  -3.240  1.00 20.00     0.011 C 
HETATM    3  C3  UNL     1     -34.454  17.691  -2.998  1.00 20.00     0.010 C 
HETATM    4  C4  UNL     1     -35.285  15.018  -4.002  1.00 20.00     0.101 C 
HETATM    5  C5  UNL     1     -33.721  16.870  -4.078  1.00 20.00    -0.009 C 
HETATM    6  C6  UNL     1     -34.493  15.299  -2.697  1.00 20.00     0.007 C 
HETATM    7  C7  UNL     1     -35.039  16.605  -2.070  1.00 20.00    -0.013 C 
HETATM    8  C8  UNL     1     -34.769  16.134  -4.954  1.00 20.00     0.003 C 
HETATM    9  C9  UNL     1     -34.608  16.792  -0.619  1.00 20.00     0.010 C 
HETATM   10  C10 UNL     1     -34.174  15.671  -6.283  1.00 20.00     0.011 C 
HETATM   11  N11 UNL     1     -34.874  12.557  -4.841  1.00 20.00    -0.197 NA
ENDROOT
TORSDOF 0
ENDMDL
MODEL 2
REMARK VINA RESULT:      -5.0      0.992      1.124
REMARK  0 active torsions:
REMARK  status: ('A' for Active; 'I' for Inactive)
ROOT
HETATM    1  C1  UNL     1     -35.061  13.549  -4.231  1.00 20.00     0.064 C 
HETATM    2  C2  UNL     1     -33.951  16.432  -3.949  1.00 20.00     0.011 C 
HETATM    3  C3  UNL     1     -35.646  17.609  -2.780  1.00 20.00     0.010 C 
HETATM    4  C4  UNL     1     -35.589  14.732  -3.532  1.00 20.00     0.101 C 
HETATM    5  C5  UNL     1     -35.327  17.054  -4.183  1.00 20.00    -0.009 C 
HETATM    6  C6  UNL     1     -34.450  15.515  -2.827  1.00 20.00     0.007 C 
HETATM    7  C7  UNL     1     -35.092  16.519  -1.837  1.00 20.00    -0.013 C 
HETATM    8  C8  UNL     1     -36.220  15.815  -4.454  1.00 20.00     0.003 C 
HETATM    9  C9  UNL     1     -34.094  17.079  -0.830  1.00 20.00     0.010 C 
HETATM   10  C10 UNL     1     -36.291  15.481  -5.943  1.00 20.00     0.011 C 
HETATM   11  N11 UNL     1     -34.645  12.617  -4.781  1.00 20.00    -0.197 NA
ENDROOT
TORSDOF 0
ENDMDL
MODEL 3
REMARK VINA RESULT:      -4.7      2.167      3.726
REMARK  0 active torsions:
REMARK  status: ('A' for Active; 'I' for Inactive)
ROOT
HETATM    1  C1  UNL     1     -34.401  16.665  -1.076  1.00 20.00     0.064 C 
HETATM    2  C2  UNL     1     -35.791  16.100  -3.792  1.00 20.00     0.011 C 
HETATM    3  C3  UNL     1     -34.009  15.601  -5.276  1.00 20.00     0.010 C 
HETATM    4  C4  UNL     1     -33.863  16.216  -2.370  1.00 20.00     0.101 C 
HETATM    5  C5  UNL     1     -34.682  16.799  -4.577  1.00 20.00    -0.009 C 
HETATM    6  C6  UNL     1     -34.814  15.188  -3.040  1.00 20.00     0.007 C 
HETATM    7  C7  UNL     1     -34.046  14.499  -4.195  1.00 20.00    -0.013 C 
HETATM    8  C8  UNL     1     -33.747  17.323  -3.456  1.00 20.00     0.003 C 
HETATM    9  C9  UNL     1     -34.732  13.229  -4.688  1.00 20.00     0.010 C 
HETATM   10  C10 UNL     1     -34.118  18.740  -3.022  1.00 20.00     0.011 C 
HETATM   11  N11 UNL     1     -34.825  17.019  -0.056  1.00 20.00    -0.197 NA
ENDROOT
TORSDOF 0
ENDMDL
MODEL 4
REMARK VINA RESULT:      -4.7      1.709      1.943
REMARK  0 active torsions:
REMARK  status: ('A' for Active; 'I' for Inactive)
ROOT
HETATM    1  C1  UNL     1     -37.458  14.977  -3.889  1.00 20.00     0.064 C 
HETATM    2  C2  UNL     1     -34.442  14.617  -3.260  1.00 20.00     0.011 C 
HETATM    3  C3  UNL     1     -33.457  16.685  -3.875  1.00 20.00     0.010 C 
HETATM    4  C4  UNL     1     -36.329  15.918  -3.963  1.00 20.00     0.101 C 
HETATM    5  C5  UNL     1     -34.023  15.397  -4.505  1.00 20.00    -0.009 C 
HETATM    6  C6  UNL     1     -35.369  15.730  -2.759  1.00 20.00     0.007 C 
HETATM    7  C7  UNL     1     -34.420  16.952  -2.698  1.00 20.00    -0.013 C 
HETATM    8  C8  UNL     1     -35.382  15.717  -5.181  1.00 20.00     0.003 C 
HETATM    9  C9  UNL     1     -33.687  17.069  -1.367  1.00 20.00     0.010 C 
HETATM   10  C10 UNL     1     -35.786  14.638  -6.184  1.00 20.00     0.011 C 
HETATM   11  N11 UNL     1     -38.348  14.235  -3.831  1.00 20.00    -0.197 NA
ENDROOT
TORSDOF 0
ENDMDL
MODEL 5
REMARK VINA RESULT:      -4.6      1.736      2.479
REMARK  0 active torsions:
REMARK  status: ('A' for Active; 'I' for Inactive)
ROOT
HETATM    1  C1  UNL     1     -37.092  14.816  -4.132  1.00 20.00     0.064 C 
HETATM    2  C2  UNL     1     -34.379  15.604  -2.848  1.00 20.00     0.011 C 
HETATM    3  C3  UNL     1     -33.093  16.449  -4.653  1.00 20.00     0.010 C 
HETATM    4  C4  UNL     1     -35.903  15.476  -4.695  1.00 20.00     0.101 C 
HETATM    5  C5  UNL     1     -33.590  15.114  -4.061  1.00 20.00    -0.009 C 
HETATM    6  C6  UNL     1     -35.303  16.493  -3.689  1.00 20.00     0.007 C 
HETATM    7  C7  UNL     1     -34.297  17.393  -4.450  1.00 20.00    -0.013 C 
HETATM    8  C8  UNL     1     -34.698  14.534  -4.979  1.00 20.00     0.003 C 
HETATM    9  C9  UNL     1     -33.921  18.650  -3.673  1.00 20.00     0.010 C 
HETATM   10  C10 UNL     1     -34.926  13.045  -4.722  1.00 20.00     0.011 C 
HETATM   11  N11 UNL     1     -38.029  14.296  -3.687  1.00 20.00    -0.197 NA
ENDROOT
TORSDOF 0
ENDMDL
MODEL 6
REMARK VINA RESULT:      -4.6      2.277      3.122
REMARK  0 active torsions:
REMARK  status: ('A' for Active; 'I' for Inactive)
ROOT
HETATM    1  C1  UNL     1     -33.577  18.152  -5.748  1.00 20.00     0.064 C 
HETATM    2  C2  UNL     1     -35.706  16.561  -4.147  1.00 20.00     0.011 C 
HETATM    3  C3  UNL     1     -34.479  14.830  -3.088  1.00 20.00     0.010 C 
HETATM    4  C4  UNL     1     -33.449  17.020  -4.815  1.00 20.00     0.101 C 
HETATM    5  C5  UNL     1     -35.041  15.224  -4.468  1.00 20.00    -0.009 C 
HETATM    6  C6  UNL     1     -34.412  17.183  -3.609  1.00 20.00     0.007 C 
HETATM    7  C7  UNL     1     -33.989  16.176  -2.511  1.00 20.00    -0.013 C 
HETATM    8  C8  UNL     1     -33.867  15.638  -5.394  1.00 20.00     0.003 C 
HETATM    9  C9  UNL     1     -34.611  16.483  -1.153  1.00 20.00     0.010 C 
HETATM   10  C10 UNL     1     -34.270  15.615  -6.868  1.00 20.00     0.011 C 
HETATM   11  N11 UNL     1     -33.678  19.044  -6.482  1.00 20.00    -0.197 NA
ENDROOT
TORSDOF 0
ENDMDL
MODEL 7
REMARK VINA RESULT:      -4.6      2.312      4.092
REMARK  0 active torsions:
REMARK  status: ('A' for Active; 'I' for Inactive)
ROOT
HETATM    1  C1  UNL     1     -35.804  18.048  -3.191  1.00 20.00     0.064 C 
HETATM    2  C2  UNL     1     -33.497  16.222  -4.175  1.00 20.00     0.011 C 
HETATM    3  C3  UNL     1     -34.350  14.020  -3.957  1.00 20.00     0.010 C 
HETATM    4  C4  UNL     1     -35.731  16.591  -3.386  1.00 20.00     0.101 C 
HETATM    5  C5  UNL     1     -33.784  15.172  -3.103  1.00 20.00    -0.009 C 
HETATM    6  C6  UNL     1     -34.945  16.242  -4.678  1.00 20.00     0.007 C 
HETATM    7  C7  UNL     1     -35.201  14.753  -5.016  1.00 20.00    -0.013 C 
HETATM    8  C8  UNL     1     -34.940  15.818  -2.293  1.00 20.00     0.003 C 
HETATM    9  C9  UNL     1     -34.793  14.388  -6.438  1.00 20.00     0.010 C 
HETATM   10  C10 UNL     1     -34.418  16.646  -1.120  1.00 20.00     0.011 C 
HETATM   11  N11 UNL     1     -35.861  19.196  -3.038  1.00 20.00    -0.197 NA
ENDROOT
TORSDOF 0
ENDMDL
MODEL 8
REMARK VINA RESULT:      -4.5      1.433      2.491
REMARK  0 active torsions:
REMARK  status: ('A' for Active; 'I' for Inactive)
ROOT
HETATM    1  C1  UNL     1     -34.046  15.401  -5.948  1.00 20.00     0.064 C 
HETATM    2  C2  UNL     1     -35.812  16.506  -3.649  1.00 20.00     0.011 C 
HETATM    3  C3  UNL     1     -34.483  16.241  -1.702  1.00 20.00     0.010 C 
HETATM    4  C4  UNL     1     -33.769  15.599  -4.517  1.00 20.00     0.101 C 
HETATM    5  C5  UNL     1     -35.345  15.420  -2.682  1.00 20.00    -0.009 C 
HETATM    6  C6  UNL     1     -34.384  16.931  -4.011  1.00 20.00     0.007 C 
HETATM    7  C7  UNL     1     -33.771  17.253  -2.626  1.00 20.00    -0.013 C 
HETATM    8  C8  UNL     1     -34.415  14.549  -3.568  1.00 20.00     0.003 C 
HETATM    9  C9  UNL     1     -34.009  18.696  -2.193  1.00 20.00     0.010 C 
HETATM   10  C10 UNL     1     -35.176  13.407  -4.239  1.00 20.00     0.011 C 
HETATM   11  N11 UNL     1     -34.265  15.245  -7.077  1.00 20.00    -0.197 NA
ENDROOT
TORSDOF 0
ENDMDL
MODEL 9
REMARK VINA RESULT:      -4.5      2.115      2.864
REMARK  0 active torsions:
REMARK  status: ('A' for Active; 'I' for Inactive)
ROOT
HETATM    1  C1  UNL     1     -37.503  14.806  -3.775  1.00 20.00     0.064 C 
HETATM    2  C2  UNL     1     -34.960  14.382  -5.500  1.00 20.00     0.011 C 
HETATM    3  C3  UNL     1     -33.350  15.844  -4.553  1.00 20.00     0.010 C 
HETATM    4  C4  UNL     1     -36.140  15.349  -3.651  1.00 20.00     0.101 C 
HETATM    5  C5  UNL     1     -34.602  15.866  -5.453  1.00 20.00    -0.009 C 
HETATM    6  C6  UNL     1     -35.079  14.265  -3.976  1.00 20.00     0.007 C 
HETATM    7  C7  UNL     1     -33.699  14.776  -3.493  1.00 20.00    -0.013 C 
HETATM    8  C8  UNL     1     -35.786  16.479  -4.660  1.00 20.00     0.003 C 
HETATM    9  C9  UNL     1     -32.650  13.672  -3.419  1.00 20.00     0.010 C 
HETATM   10  C10 UNL     1     -36.911  16.939  -5.585  1.00 20.00     0.011 C 
HETATM   11  N11 UNL     1     -38.577  14.378  -3.873  1.00 20.00    -0.197 NA
ENDROOT
TORSDOF 0
ENDMDL
