MODEL 1
REMARK VINA RESULT:      -5.2      0.000      0.000
REMARK  0 active torsions:
REMARK  status: ('A' for Active; 'I' for Inactive)
ROOT
HETATM    1  C1  UNL     1     -33.087   6.761   4.725  1.00 20.00     0.055 C 
HETATM    2  C2  UNL     1     -34.140   6.067   5.146  1.00 20.00    -0.046 C 
HETATM    3  C3  UNL     1     -33.044   6.484   3.276  1.00 20.00     0.150 C 
HETATM    4  C4  UNL     1     -34.574   5.612   6.480  1.00 20.00     0.202 C 
HETATM    5  C5  UNL     1     -34.070   5.452   2.865  1.00 20.00     0.094 C 
HETATM    6  C6  UNL     1     -35.036   4.017   4.827  1.00 20.00     0.177 C 
HETATM    7  C7  UNL     1     -34.922   5.345   4.114  1.00 20.00     0.048 C 
HETATM    8  O8  UNL     1     -32.232   7.000   2.523  1.00 20.00    -0.293 OA
HETATM    9  O9  UNL     1     -35.235   4.348   6.224  1.00 20.00    -0.386 OA
ENDROOT
TORSDOF 0
ENDMDL
MODEL 2
REMARK VINA RESULT:      -4.7      0.713      3.780
REMARK  0 active torsions:
REMARK  status: ('A' for Active; 'I' for Inactive)
ROOT
HETATM    1  C1  UNL     1     -35.173   4.455   4.597  1.00 20.00     0.055 C 
HETATM    2  C2  UNL     1     -34.550   5.419   3.925  1.00 20.00    -0.046 C 
HETATM    3  C3  UNL     1     -35.008   4.853   6.008  1.00 20.00     0.150 C 
HETATM    4  C4  UNL     1     -34.034   5.509   2.546  1.00 20.00     0.202 C 
HETATM    5  C5  UNL     1     -34.114   6.064   6.156  1.00 20.00     0.094 C 
HETATM    6  C6  UNL     1     -32.626   6.595   4.071  1.00 20.00     0.177 C 
HETATM    7  C7  UNL     1     -33.989   6.536   4.721  1.00 20.00     0.048 C 
HETATM    8  O8  UNL     1     -35.502   4.233   6.938  1.00 20.00    -0.293 OA
HETATM    9  O9  UNL     1     -32.863   6.354   2.662  1.00 20.00    -0.386 OA
ENDROOT
TORSDOF 0
ENDMDL
MODEL 3
REMARK VINA RESULT:      -4.3     11.816     12.828
REMARK  0 active torsions:
REMARK  status: ('A' for Active; 'I' for Inactive)
ROOT
HETATM    1  C1  UNL     1     -36.074  14.455  -3.826  1.00 20.00     0.055 C 
HETATM    2  C2  UNL     1     -35.591  15.493  -3.150  1.00 20.00    -0.046 C 
HETATM    3  C3  UNL     1     -34.879  13.633  -4.101  1.00 20.00     0.150 C 
HETATM    4  C4  UNL     1     -36.129  16.834  -2.852  1.00 20.00     0.202 C 
HETATM    5  C5  UNL     1     -33.605  14.319  -3.662  1.00 20.00     0.094 C 
HETATM    6  C6  UNL     1     -33.822  16.895  -3.264  1.00 20.00     0.177 C 
HETATM    7  C7  UNL     1     -34.141  15.478  -2.845  1.00 20.00     0.048 C 
HETATM    8  O8  UNL     1     -34.931  12.551  -4.665  1.00 20.00    -0.293 OA
HETATM    9  O9  UNL     1     -34.956  17.687  -2.830  1.00 20.00    -0.386 OA
ENDROOT
TORSDOF 0
ENDMDL
MODEL 4
REMARK VINA RESULT:      -4.1     11.748     13.375
REMARK  0 active torsions:
REMARK  status: ('A' for Active; 'I' for Inactive)
ROOT
HETATM    1  C1  UNL     1     -34.214  14.199  -3.382  1.00 20.00     0.055 C 
HETATM    2  C2  UNL     1     -33.838  15.449  -3.637  1.00 20.00    -0.046 C 
HETATM    3  C3  UNL     1     -34.520  13.649  -4.717  1.00 20.00     0.150 C 
HETATM    4  C4  UNL     1     -33.717  16.653  -2.793  1.00 20.00     0.202 C 
HETATM    5  C5  UNL     1     -34.434  14.703  -5.798  1.00 20.00     0.094 C 
HETATM    6  C6  UNL     1     -34.504  17.172  -4.938  1.00 20.00     0.177 C 
HETATM    7  C7  UNL     1     -33.776  15.853  -5.061  1.00 20.00     0.048 C 
HETATM    8  O8  UNL     1     -34.850  12.488  -4.899  1.00 20.00    -0.293 OA
HETATM    9  O9  UNL     1     -34.050  17.744  -3.686  1.00 20.00    -0.386 OA
ENDROOT
TORSDOF 0
ENDMDL
MODEL 5
REMARK VINA RESULT:      -4.1     11.826     13.374
REMARK  0 active torsions:
REMARK  status: ('A' for Active; 'I' for Inactive)
ROOT
HETATM    1  C1  UNL     1     -34.325  15.951  -5.943  1.00 20.00     0.055 C 
HETATM    2  C2  UNL     1     -34.253  14.725  -5.435  1.00 20.00    -0.046 C 
HETATM    3  C3  UNL     1     -33.588  16.777  -4.966  1.00 20.00     0.150 C 
HETATM    4  C4  UNL     1     -35.019  13.489  -5.681  1.00 20.00     0.202 C 
HETATM    5  C5  UNL     1     -33.177  15.982  -3.747  1.00 20.00     0.094 C 
HETATM    6  C6  UNL     1     -34.462  13.727  -3.418  1.00 20.00     0.177 C 
HETATM    7  C7  UNL     1     -33.465  14.561  -4.190  1.00 20.00     0.048 C 
HETATM    8  O8  UNL     1     -33.389  17.972  -5.120  1.00 20.00    -0.293 OA
HETATM    9  O9  UNL     1     -35.044  12.826  -4.393  1.00 20.00    -0.386 OA
ENDROOT
TORSDOF 0
ENDMDL
MODEL 6
REMARK VINA RESULT:      -4.0     11.613     12.882
REMARK  0 active torsions:
REMARK  status: ('A' for Active; 'I' for Inactive)
ROOT
HETATM    1  C1  UNL     1     -33.060  15.789  -4.122  1.00 20.00     0.055 C 
HETATM    2  C2  UNL     1     -33.809  14.734  -3.816  1.00 20.00    -0.046 C 
HETATM    3  C3  UNL     1     -33.963  16.934  -3.894  1.00 20.00     0.150 C 
HETATM    4  C4  UNL     1     -33.688  13.295  -4.118  1.00 20.00     0.202 C 
HETATM    5  C5  UNL     1     -35.369  16.490  -3.557  1.00 20.00     0.094 C 
HETATM    6  C6  UNL     1     -35.919  14.010  -4.178  1.00 20.00     0.177 C 
HETATM    7  C7  UNL     1     -35.178  15.006  -3.317  1.00 20.00     0.048 C 
HETATM    8  O8  UNL     1     -33.608  18.096  -4.017  1.00 20.00    -0.293 OA
HETATM    9  O9  UNL     1     -35.060  12.844  -4.241  1.00 20.00    -0.386 OA
ENDROOT
TORSDOF 0
ENDMDL
MODEL 7
REMARK VINA RESULT:      -4.0     12.308     13.471
REMARK  0 active torsions:
REMARK  status: ('A' for Active; 'I' for Inactive)
ROOT
HETATM    1  C1  UNL     1     -35.522  14.932  -3.139  1.00 20.00     0.055 C 
HETATM    2  C2  UNL     1     -34.434  15.123  -3.880  1.00 20.00    -0.046 C 
HETATM    3  C3  UNL     1     -36.543  14.517  -4.122  1.00 20.00     0.150 C 
HETATM    4  C4  UNL     1     -33.170  15.844  -3.639  1.00 20.00     0.202 C 
HETATM    5  C5  UNL     1     -36.031  14.603  -5.542  1.00 20.00     0.094 C 
HETATM    6  C6  UNL     1     -33.893  16.077  -5.856  1.00 20.00     0.177 C 
HETATM    7  C7  UNL     1     -34.547  14.821  -5.326  1.00 20.00     0.048 C 
HETATM    8  O8  UNL     1     -37.678  14.194  -3.807  1.00 20.00    -0.293 OA
HETATM    9  O9  UNL     1     -32.800  16.353  -4.945  1.00 20.00    -0.386 OA
ENDROOT
TORSDOF 0
ENDMDL
MODEL 8
REMARK VINA RESULT:      -4.0     11.604     12.524
REMARK  0 active torsions:
REMARK  status: ('A' for Active; 'I' for Inactive)
ROOT
HETATM    1  C1  UNL     1     -36.075  15.490  -3.046  1.00 20.00     0.055 C 
HETATM    2  C2  UNL     1     -35.322  14.733  -3.839  1.00 20.00    -0.046 C 
HETATM    3  C3  UNL     1     -35.100  16.384  -2.392  1.00 20.00     0.150 C 
HETATM    4  C4  UNL     1     -35.558  13.443  -4.515  1.00 20.00     0.202 C 
HETATM    5  C5  UNL     1     -33.674  16.023  -2.741  1.00 20.00     0.094 C 
HETATM    6  C6  UNL     1     -33.357  13.622  -3.730  1.00 20.00     0.177 C 
HETATM    7  C7  UNL     1     -33.872  15.036  -3.875  1.00 20.00     0.048 C 
HETATM    8  O8  UNL     1     -35.426  17.274  -1.621  1.00 20.00    -0.293 OA
HETATM    9  O9  UNL     1     -34.257  12.804  -4.519  1.00 20.00    -0.386 OA
ENDROOT
TORSDOF 0
ENDMDL
MODEL 9
REMARK VINA RESULT:      -4.0     12.109     13.890
REMARK  0 active torsions:
REMARK  status: ('A' for Active; 'I' for Inactive)
ROOT
HETATM    1  C1  UNL     1     -34.512  14.526  -5.916  1.00 20.00     0.055 C 
HETATM    2  C2  UNL     1     -34.485  15.784  -5.486  1.00 20.00    -0.046 C 
HETATM    3  C3  UNL     1     -34.748  13.744  -4.687  1.00 20.00     0.150 C 
HETATM    4  C4  UNL     1     -33.975  17.036  -6.077  1.00 20.00     0.202 C 
HETATM    5  C5  UNL     1     -34.723  14.611  -3.449  1.00 20.00     0.094 C 
HETATM    6  C6  UNL     1     -33.600  16.952  -3.766  1.00 20.00     0.177 C 
HETATM    7  C7  UNL     1     -34.745  16.005  -4.044  1.00 20.00     0.048 C 
HETATM    8  O8  UNL     1     -34.893  12.531  -4.687  1.00 20.00    -0.293 OA
HETATM    9  O9  UNL     1     -33.512  17.801  -4.937  1.00 20.00    -0.386 OA
ENDROOT
TORSDOF 0
ENDMDL
