MODEL 1
REMARK VINA RESULT:      -5.1      0.000      0.000
REMARK  0 active torsions:
REMARK  status: ('A' for Active; 'I' for Inactive)
ROOT
HETATM    1  C1  UNL     1     -33.940   5.330   2.643  1.00 20.00     0.015 A 
HETATM    2  C2  UNL     1     -33.087   6.198   2.091  1.00 20.00     0.083 A 
HETATM    3  C3  UNL     1     -34.186   5.332   4.061  1.00 20.00    -0.028 A 
HETATM    4  C4  UNL     1     -33.543   6.231   4.821  1.00 20.00     0.063 A 
HETATM    5  C5  UNL     1     -32.375   7.183   2.927  1.00 20.00     0.287 A 
HETATM    6  C6  UNL     1     -35.145   4.322   4.625  1.00 20.00     0.041 C 
HETATM    7  C7  UNL     1     -33.734   6.347   6.305  1.00 20.00     0.066 C 
HETATM    8  C8  UNL     1     -35.064   4.209   6.150  1.00 20.00     0.005 C 
HETATM    9  C9  UNL     1     -34.963   5.583   6.805  1.00 20.00     0.007 C 
HETATM   10  O10 UNL     1     -31.589   7.980   2.424  1.00 20.00    -0.260 OA
HETATM   11  O11 UNL     1     -32.634   7.165   4.270  1.00 20.00    -0.279 OA
ENDROOT
TORSDOF 0
ENDMDL
MODEL 2
REMARK VINA RESULT:      -5.1     11.770     13.021
REMARK  0 active torsions:
REMARK  status: ('A' for Active; 'I' for Inactive)
ROOT
HETATM    1  C1  UNL     1     -34.053  15.819  -5.453  1.00 20.00     0.015 A 
HETATM    2  C2  UNL     1     -34.366  14.530  -5.613  1.00 20.00     0.083 A 
HETATM    3  C3  UNL     1     -34.077  16.432  -4.151  1.00 20.00    -0.028 A 
HETATM    4  C4  UNL     1     -34.417  15.678  -3.094  1.00 20.00     0.063 A 
HETATM    5  C5  UNL     1     -34.744  13.701  -4.452  1.00 20.00     0.287 A 
HETATM    6  C6  UNL     1     -33.730  17.890  -4.036  1.00 20.00     0.041 C 
HETATM    7  C7  UNL     1     -34.455  16.197  -1.687  1.00 20.00     0.066 C 
HETATM    8  C8  UNL     1     -34.113  18.490  -2.680  1.00 20.00     0.005 C 
HETATM    9  C9  UNL     1     -33.754  17.549  -1.534  1.00 20.00     0.007 C 
HETATM   10  O10 UNL     1     -35.035  12.518  -4.595  1.00 20.00    -0.260 OA
HETATM   11  O11 UNL     1     -34.753  14.310  -3.227  1.00 20.00    -0.279 OA
ENDROOT
TORSDOF 0
ENDMDL
MODEL 3
REMARK VINA RESULT:      -4.8     10.415     11.326
REMARK  0 active torsions:
REMARK  status: ('A' for Active; 'I' for Inactive)
ROOT
HETATM    1  C1  UNL     1     -41.201   3.891  -1.832  1.00 20.00     0.015 A 
HETATM    2  C2  UNL     1     -41.794   3.104  -2.735  1.00 20.00     0.083 A 
HETATM    3  C3  UNL     1     -41.596   5.266  -1.674  1.00 20.00    -0.028 A 
HETATM    4  C4  UNL     1     -42.581   5.743  -2.450  1.00 20.00     0.063 A 
HETATM    5  C5  UNL     1     -42.873   3.629  -3.593  1.00 20.00     0.287 A 
HETATM    6  C6  UNL     1     -40.882   6.106  -0.652  1.00 20.00     0.041 C 
HETATM    7  C7  UNL     1     -43.096   7.149  -2.361  1.00 20.00     0.066 C 
HETATM    8  C8  UNL     1     -41.157   7.604  -0.813  1.00 20.00     0.005 C 
HETATM    9  C9  UNL     1     -42.633   7.871  -1.094  1.00 20.00     0.007 C 
HETATM   10  O10 UNL     1     -43.417   2.910  -4.424  1.00 20.00    -0.260 OA
HETATM   11  O11 UNL     1     -43.230   4.938  -3.415  1.00 20.00    -0.279 OA
ENDROOT
TORSDOF 0
ENDMDL
MODEL 4
REMARK VINA RESULT:      -4.7     12.200     14.395
REMARK  0 active torsions:
REMARK  status: ('A' for Active; 'I' for Inactive)
ROOT
HETATM    1  C1  UNL     1     -33.796  15.722  -3.580  1.00 20.00     0.015 A 
HETATM    2  C2  UNL     1     -34.030  14.407  -3.562  1.00 20.00     0.083 A 
HETATM    3  C3  UNL     1     -33.959  16.488  -4.788  1.00 20.00    -0.028 A 
HETATM    4  C4  UNL     1     -34.358  15.852  -5.900  1.00 20.00     0.063 A 
HETATM    5  C5  UNL     1     -34.463  13.706  -4.786  1.00 20.00     0.287 A 
HETATM    6  C6  UNL     1     -33.666  17.962  -4.750  1.00 20.00     0.041 C 
HETATM    7  C7  UNL     1     -34.585  16.546  -7.212  1.00 20.00     0.066 C 
HETATM    8  C8  UNL     1     -33.552  18.584  -6.144  1.00 20.00     0.005 C 
HETATM    9  C9  UNL     1     -34.646  18.069  -7.074  1.00 20.00     0.007 C 
HETATM   10  O10 UNL     1     -34.677  12.498  -4.774  1.00 20.00    -0.260 OA
HETATM   11  O11 UNL     1     -34.614  14.461  -5.917  1.00 20.00    -0.279 OA
ENDROOT
TORSDOF 0
ENDMDL
MODEL 5
REMARK VINA RESULT:      -4.6     11.545     12.822
REMARK  0 active torsions:
REMARK  status: ('A' for Active; 'I' for Inactive)
ROOT
HETATM    1  C1  UNL     1     -33.161  15.246  -3.319  1.00 20.00     0.015 A 
HETATM    2  C2  UNL     1     -33.433  14.033  -3.807  1.00 20.00     0.083 A 
HETATM    3  C3  UNL     1     -34.214  16.184  -3.030  1.00 20.00    -0.028 A 
HETATM    4  C4  UNL     1     -35.483  15.811  -3.257  1.00 20.00     0.063 A 
HETATM    5  C5  UNL     1     -34.828  13.624  -4.061  1.00 20.00     0.287 A 
HETATM    6  C6  UNL     1     -33.844  17.539  -2.497  1.00 20.00     0.041 C 
HETATM    7  C7  UNL     1     -36.665  16.690  -2.974  1.00 20.00     0.066 C 
HETATM    8  C8  UNL     1     -35.003  18.539  -2.550  1.00 20.00     0.005 C 
HETATM    9  C9  UNL     1     -36.312  17.897  -2.101  1.00 20.00     0.007 C 
HETATM   10  O10 UNL     1     -35.082  12.512  -4.512  1.00 20.00    -0.260 OA
HETATM   11  O11 UNL     1     -35.808  14.534  -3.772  1.00 20.00    -0.279 OA
ENDROOT
TORSDOF 0
ENDMDL
MODEL 6
REMARK VINA RESULT:      -4.5     12.161     13.306
REMARK  0 active torsions:
REMARK  status: ('A' for Active; 'I' for Inactive)
ROOT
HETATM    1  C1  UNL     1     -34.789  14.496  -3.438  1.00 20.00     0.015 A 
HETATM    2  C2  UNL     1     -34.741  14.132  -4.723  1.00 20.00     0.083 A 
HETATM    3  C3  UNL     1     -34.450  15.835  -3.033  1.00 20.00    -0.028 A 
HETATM    4  C4  UNL     1     -34.087  16.716  -3.977  1.00 20.00     0.063 A 
HETATM    5  C5  UNL     1     -34.337  15.099  -5.761  1.00 20.00     0.287 A 
HETATM    6  C6  UNL     1     -34.509  16.181  -1.572  1.00 20.00     0.041 C 
HETATM    7  C7  UNL     1     -33.734  18.144  -3.682  1.00 20.00     0.066 C 
HETATM    8  C8  UNL     1     -33.814  17.506  -1.243  1.00 20.00     0.005 C 
HETATM    9  C9  UNL     1     -34.149  18.579  -2.275  1.00 20.00     0.007 C 
HETATM   10  O10 UNL     1     -34.288  14.768  -6.941  1.00 20.00    -0.260 OA
HETATM   11  O11 UNL     1     -34.025  16.365  -5.346  1.00 20.00    -0.279 OA
ENDROOT
TORSDOF 0
ENDMDL
MODEL 7
REMARK VINA RESULT:      -4.5     12.242     13.447
REMARK  0 active torsions:
REMARK  status: ('A' for Active; 'I' for Inactive)
ROOT
HETATM    1  C1  UNL     1     -34.659  15.969  -1.866  1.00 20.00     0.015 A 
HETATM    2  C2  UNL     1     -34.187  17.130  -1.401  1.00 20.00     0.083 A 
HETATM    3  C3  UNL     1     -34.656  15.678  -3.275  1.00 20.00    -0.028 A 
HETATM    4  C4  UNL     1     -34.162  16.598  -4.118  1.00 20.00     0.063 A 
HETATM    5  C5  UNL     1     -33.649  18.144  -2.328  1.00 20.00     0.287 A 
HETATM    6  C6  UNL     1     -35.213  14.362  -3.739  1.00 20.00     0.041 C 
HETATM    7  C7  UNL     1     -34.083  16.400  -5.603  1.00 20.00     0.066 C 
HETATM    8  C8  UNL     1     -35.459  14.316  -5.250  1.00 20.00     0.005 C 
HETATM    9  C9  UNL     1     -34.301  14.944  -6.020  1.00 20.00     0.007 C 
HETATM   10  O10 UNL     1     -33.217  19.212  -1.906  1.00 20.00    -0.260 OA
HETATM   11  O11 UNL     1     -33.654  17.837  -3.661  1.00 20.00    -0.279 OA
ENDROOT
TORSDOF 0
ENDMDL
MODEL 8
REMARK VINA RESULT:      -4.5     12.080     14.273
REMARK  0 active torsions:
REMARK  status: ('A' for Active; 'I' for Inactive)
ROOT
HETATM    1  C1  UNL     1     -33.315  16.276  -4.473  1.00 20.00     0.015 A 
HETATM    2  C2  UNL     1     -33.111  15.194  -3.715  1.00 20.00     0.083 A 
HETATM    3  C3  UNL     1     -34.077  16.195  -5.690  1.00 20.00    -0.028 A 
HETATM    4  C4  UNL     1     -34.587  15.007  -6.049  1.00 20.00     0.063 A 
HETATM    5  C5  UNL     1     -33.666  13.886  -4.111  1.00 20.00     0.287 A 
HETATM    6  C6  UNL     1     -34.260  17.443  -6.508  1.00 20.00     0.041 C 
HETATM    7  C7  UNL     1     -35.417  14.802  -7.282  1.00 20.00     0.066 C 
HETATM    8  C8  UNL     1     -34.788  17.160  -7.918  1.00 20.00     0.005 C 
HETATM    9  C9  UNL     1     -35.902  16.117  -7.896  1.00 20.00     0.007 C 
HETATM   10  O10 UNL     1     -33.478  12.891  -3.420  1.00 20.00    -0.260 OA
HETATM   11  O11 UNL     1     -34.390  13.842  -5.271  1.00 20.00    -0.279 OA
ENDROOT
TORSDOF 0
ENDMDL
MODEL 9
REMARK VINA RESULT:      -4.5     11.735     12.969
REMARK  0 active torsions:
REMARK  status: ('A' for Active; 'I' for Inactive)
ROOT
HETATM    1  C1  UNL     1     -35.843  15.880  -5.177  1.00 20.00     0.015 A 
HETATM    2  C2  UNL     1     -35.652  14.577  -5.402  1.00 20.00     0.083 A 
HETATM    3  C3  UNL     1     -35.486  16.475  -3.916  1.00 20.00    -0.028 A 
HETATM    4  C4  UNL     1     -34.949  15.692  -2.968  1.00 20.00     0.063 A 
HETATM    5  C5  UNL     1     -35.066  13.714  -4.358  1.00 20.00     0.287 A 
HETATM    6  C6  UNL     1     -35.739  17.943  -3.717  1.00 20.00     0.041 C 
HETATM    7  C7  UNL     1     -34.515  16.201  -1.625  1.00 20.00     0.066 C 
HETATM    8  C8  UNL     1     -35.632  18.374  -2.251  1.00 20.00     0.005 C 
HETATM    9  C9  UNL     1     -34.430  17.728  -1.568  1.00 20.00     0.007 C 
HETATM   10  O10 UNL     1     -34.891  12.517  -4.560  1.00 20.00    -0.260 OA
HETATM   11  O11 UNL     1     -34.732  14.310  -3.172  1.00 20.00    -0.279 OA
ENDROOT
TORSDOF 0
ENDMDL
