MODEL 1
REMARK VINA RESULT:      -4.6      0.000      0.000
REMARK  0 active torsions:
REMARK  status: ('A' for Active; 'I' for Inactive)
ROOT
HETATM    1  C1  UNL     1     -34.592  13.851  -5.558  1.00 20.00     0.087 A 
HETATM    2  C2  UNL     1     -36.232  15.624  -5.336  1.00 20.00     0.063 A 
HETATM    3  C3  UNL     1     -34.661  15.164  -3.513  1.00 20.00     0.114 A 
HETATM    4  C4  UNL     1     -35.649  14.592  -6.076  1.00 20.00     0.120 A 
HETATM    5  C5  UNL     1     -34.091  14.125  -4.282  1.00 20.00     0.149 A 
HETATM    6  C6  UNL     1     -35.722  15.894  -4.056  1.00 20.00     0.042 A 
HETATM    7  C7  UNL     1     -35.019  16.546  -1.833  1.00 20.00     0.145 A 
HETATM    8  N8  UNL     1     -34.269  15.549  -2.239  1.00 20.00    -0.230 NA
HETATM    9  F9  UNL     1     -36.116  14.312  -7.300  1.00 20.00    -0.206 F 
HETATM   10  F10 UNL     1     -33.071  13.402  -3.798  1.00 20.00    -0.203 F 
HETATM   11  S11 UNL     1     -36.223  17.089  -2.918  1.00 20.00    -0.060 SA
HETATM   12 BR12 UNL     1     -34.775  17.346  -0.115  1.00 20.00    -0.021 Br
ENDROOT
TORSDOF 0
ENDMDL
MODEL 2
REMARK VINA RESULT:      -4.5     12.344     13.230
REMARK  0 active torsions:
REMARK  status: ('A' for Active; 'I' for Inactive)
ROOT
HETATM    1  C1  UNL     1     -34.475   5.512   6.717  1.00 20.00     0.087 A 
HETATM    2  C2  UNL     1     -34.898   4.565   4.525  1.00 20.00     0.063 A 
HETATM    3  C3  UNL     1     -33.484   6.552   4.757  1.00 20.00     0.114 A 
HETATM    4  C4  UNL     1     -35.075   4.551   5.911  1.00 20.00     0.120 A 
HETATM    5  C5  UNL     1     -33.680   6.515   6.155  1.00 20.00     0.149 A 
HETATM    6  C6  UNL     1     -34.098   5.575   3.968  1.00 20.00     0.042 A 
HETATM    7  C7  UNL     1     -32.766   7.211   2.779  1.00 20.00     0.145 A 
HETATM    8  N8  UNL     1     -32.725   7.482   4.062  1.00 20.00    -0.230 NA
HETATM    9  F9  UNL     1     -35.835   3.598   6.469  1.00 20.00    -0.206 F 
HETATM   10  F10 UNL     1     -33.109   7.433   6.947  1.00 20.00    -0.203 F 
HETATM   11  S11 UNL     1     -33.695   5.853   2.314  1.00 20.00    -0.060 SA
HETATM   12 BR12 UNL     1     -31.836   8.281   1.498  1.00 20.00    -0.021 Br
ENDROOT
TORSDOF 0
ENDMDL
MODEL 3
REMARK VINA RESULT:      -4.5      3.671      4.892
REMARK  0 active torsions:
REMARK  status: ('A' for Active; 'I' for Inactive)
ROOT
HETATM    1  C1  UNL     1     -33.729  18.023  -2.152  1.00 20.00     0.087 A 
HETATM    2  C2  UNL     1     -34.784  15.852  -1.913  1.00 20.00     0.063 A 
HETATM    3  C3  UNL     1     -34.311  16.753  -4.142  1.00 20.00     0.114 A 
HETATM    4  C4  UNL     1     -34.235  17.007  -1.349  1.00 20.00     0.120 A 
HETATM    5  C5  UNL     1     -33.762  17.909  -3.546  1.00 20.00     0.149 A 
HETATM    6  C6  UNL     1     -34.812  15.745  -3.312  1.00 20.00     0.042 A 
HETATM    7  C7  UNL     1     -34.972  15.332  -5.693  1.00 20.00     0.145 A 
HETATM    8  N8  UNL     1     -34.409  16.501  -5.503  1.00 20.00    -0.230 NA
HETATM    9  F9  UNL     1     -34.195  17.135  -0.016  1.00 20.00    -0.206 F 
HETATM   10  F10 UNL     1     -33.270  18.898  -4.305  1.00 20.00    -0.203 F 
HETATM   11  S11 UNL     1     -35.417  14.460  -4.291  1.00 20.00    -0.060 SA
HETATM   12 BR12 UNL     1     -35.278  14.641  -7.448  1.00 20.00    -0.021 Br
ENDROOT
TORSDOF 0
ENDMDL
MODEL 4
REMARK VINA RESULT:      -4.4      2.162      2.440
REMARK  0 active torsions:
REMARK  status: ('A' for Active; 'I' for Inactive)
ROOT
HETATM    1  C1  UNL     1     -34.333  15.097  -5.906  1.00 20.00     0.087 A 
HETATM    2  C2  UNL     1     -34.866  14.404  -3.644  1.00 20.00     0.063 A 
HETATM    3  C3  UNL     1     -34.019  16.662  -4.073  1.00 20.00     0.114 A 
HETATM    4  C4  UNL     1     -34.786  14.132  -5.012  1.00 20.00     0.120 A 
HETATM    5  C5  UNL     1     -33.947  16.361  -5.450  1.00 20.00     0.149 A 
HETATM    6  C6  UNL     1     -34.478  15.676  -3.195  1.00 20.00     0.042 A 
HETATM    7  C7  UNL     1     -33.866  17.789  -2.184  1.00 20.00     0.145 A 
HETATM    8  N8  UNL     1     -33.672  17.867  -3.479  1.00 20.00    -0.230 NA
HETATM    9  F9  UNL     1     -35.151  12.926  -5.468  1.00 20.00    -0.206 F 
HETATM   10  F10 UNL     1     -33.513  17.279  -6.326  1.00 20.00    -0.203 F 
HETATM   11  S11 UNL     1     -34.465  16.303  -1.588  1.00 20.00    -0.060 SA
HETATM   12 BR12 UNL     1     -33.496  19.263  -1.026  1.00 20.00    -0.021 Br
ENDROOT
TORSDOF 0
ENDMDL
MODEL 5
REMARK VINA RESULT:      -4.4      2.440      2.834
REMARK  0 active torsions:
REMARK  status: ('A' for Active; 'I' for Inactive)
ROOT
HETATM    1  C1  UNL     1     -33.669  16.001  -4.455  1.00 20.00     0.087 A 
HETATM    2  C2  UNL     1     -33.768  18.350  -3.861  1.00 20.00     0.063 A 
HETATM    3  C3  UNL     1     -34.260  16.634  -2.183  1.00 20.00     0.114 A 
HETATM    4  C4  UNL     1     -33.543  17.342  -4.802  1.00 20.00     0.120 A 
HETATM    5  C5  UNL     1     -34.027  15.635  -3.153  1.00 20.00     0.149 A 
HETATM    6  C6  UNL     1     -34.126  17.975  -2.557  1.00 20.00     0.042 A 
HETATM    7  C7  UNL     1     -34.751  17.577  -0.252  1.00 20.00     0.145 A 
HETATM    8  N8  UNL     1     -34.618  16.422  -0.860  1.00 20.00    -0.230 NA
HETATM    9  F9  UNL     1     -33.200  17.672  -6.054  1.00 20.00    -0.206 F 
HETATM   10  F10 UNL     1     -34.143  14.338  -2.836  1.00 20.00    -0.203 F 
HETATM   11  S11 UNL     1     -34.464  18.975  -1.193  1.00 20.00    -0.060 SA
HETATM   12 BR12 UNL     1     -35.242  17.687   1.591  1.00 20.00    -0.021 Br
ENDROOT
TORSDOF 0
ENDMDL
MODEL 6
REMARK VINA RESULT:      -4.4      2.902      3.491
REMARK  0 active torsions:
REMARK  status: ('A' for Active; 'I' for Inactive)
ROOT
HETATM    1  C1  UNL     1     -32.938  15.300  -3.816  1.00 20.00     0.087 A 
HETATM    2  C2  UNL     1     -34.788  13.733  -3.785  1.00 20.00     0.063 A 
HETATM    3  C3  UNL     1     -35.210  16.133  -4.040  1.00 20.00     0.114 A 
HETATM    4  C4  UNL     1     -33.418  13.998  -3.723  1.00 20.00     0.120 A 
HETATM    5  C5  UNL     1     -33.820  16.373  -3.974  1.00 20.00     0.149 A 
HETATM    6  C6  UNL     1     -35.668  14.815  -3.944  1.00 20.00     0.042 A 
HETATM    7  C7  UNL     1     -37.376  16.511  -4.215  1.00 20.00     0.145 A 
HETATM    8  N8  UNL     1     -36.200  17.093  -4.195  1.00 20.00    -0.230 NA
HETATM    9  F9  UNL     1     -32.556  12.984  -3.571  1.00 20.00    -0.206 F 
HETATM   10  F10 UNL     1     -33.340  17.621  -4.063  1.00 20.00    -0.203 F 
HETATM   11  S11 UNL     1     -37.389  14.809  -4.055  1.00 20.00    -0.060 SA
HETATM   12 BR12 UNL     1     -38.987  17.517  -4.413  1.00 20.00    -0.021 Br
ENDROOT
TORSDOF 0
ENDMDL
MODEL 7
REMARK VINA RESULT:      -4.4     12.861     13.144
REMARK  0 active torsions:
REMARK  status: ('A' for Active; 'I' for Inactive)
ROOT
HETATM    1  C1  UNL     1     -41.510   6.899  -0.664  1.00 20.00     0.087 A 
HETATM    2  C2  UNL     1     -43.410   6.409  -2.090  1.00 20.00     0.063 A 
HETATM    3  C3  UNL     1     -41.603   4.773  -1.839  1.00 20.00     0.114 A 
HETATM    4  C4  UNL     1     -42.731   7.266  -1.220  1.00 20.00     0.120 A 
HETATM    5  C5  UNL     1     -40.937   5.660  -0.964  1.00 20.00     0.149 A 
HETATM    6  C6  UNL     1     -42.828   5.166  -2.386  1.00 20.00     0.042 A 
HETATM    7  C7  UNL     1     -42.029   2.977  -3.045  1.00 20.00     0.145 A 
HETATM    8  N8  UNL     1     -41.158   3.517  -2.226  1.00 20.00    -0.230 NA
HETATM    9  F9  UNL     1     -43.263   8.459  -0.920  1.00 20.00    -0.206 F 
HETATM   10  F10 UNL     1     -39.761   5.321  -0.418  1.00 20.00    -0.203 F 
HETATM   11  S11 UNL     1     -43.417   3.908  -3.408  1.00 20.00    -0.060 SA
HETATM   12 BR12 UNL     1     -41.757   1.241  -3.793  1.00 20.00    -0.021 Br
ENDROOT
TORSDOF 0
ENDMDL
MODEL 8
REMARK VINA RESULT:      -4.3      3.144      3.953
REMARK  0 active torsions:
REMARK  status: ('A' for Active; 'I' for Inactive)
ROOT
HETATM    1  C1  UNL     1     -34.165  14.834  -3.105  1.00 20.00     0.087 A 
HETATM    2  C2  UNL     1     -35.565  16.756  -2.630  1.00 20.00     0.063 A 
HETATM    3  C3  UNL     1     -36.527  14.758  -3.672  1.00 20.00     0.114 A 
HETATM    4  C4  UNL     1     -34.320  16.123  -2.609  1.00 20.00     0.120 A 
HETATM    5  C5  UNL     1     -35.257  14.142  -3.639  1.00 20.00     0.149 A 
HETATM    6  C6  UNL     1     -36.657  16.055  -3.167  1.00 20.00     0.042 A 
HETATM    7  C7  UNL     1     -38.682  15.052  -4.038  1.00 20.00     0.145 A 
HETATM    8  N8  UNL     1     -37.696  14.197  -4.168  1.00 20.00    -0.230 NA
HETATM    9  F9  UNL     1     -33.260  16.769  -2.102  1.00 20.00    -0.206 F 
HETATM   10  F10 UNL     1     -35.090  12.899  -4.112  1.00 20.00    -0.203 F 
HETATM   11  S11 UNL     1     -38.298  16.560  -3.329  1.00 20.00    -0.060 SA
HETATM   12 BR12 UNL     1     -40.454  14.632  -4.614  1.00 20.00    -0.021 Br
ENDROOT
TORSDOF 0
ENDMDL
MODEL 9
REMARK VINA RESULT:      -4.3      2.387      3.186
REMARK  0 active torsions:
REMARK  status: ('A' for Active; 'I' for Inactive)
ROOT
HETATM    1  C1  UNL     1     -33.772  13.826  -3.897  1.00 20.00     0.087 A 
HETATM    2  C2  UNL     1     -33.559  16.117  -3.133  1.00 20.00     0.063 A 
HETATM    3  C3  UNL     1     -35.773  15.167  -3.576  1.00 20.00     0.114 A 
HETATM    4  C4  UNL     1     -32.982  14.898  -3.498  1.00 20.00     0.120 A 
HETATM    5  C5  UNL     1     -35.164  13.947  -3.941  1.00 20.00     0.149 A 
HETATM    6  C6  UNL     1     -34.957  16.231  -3.179  1.00 20.00     0.042 A 
HETATM    7  C7  UNL     1     -37.339  16.668  -3.177  1.00 20.00     0.145 A 
HETATM    8  N8  UNL     1     -37.135  15.433  -3.569  1.00 20.00    -0.230 NA
HETATM    9  F9  UNL     1     -31.649  14.762  -3.464  1.00 20.00    -0.206 F 
HETATM   10  F10 UNL     1     -35.911  12.903  -4.326  1.00 20.00    -0.203 F 
HETATM   11  S11 UNL     1     -35.950  17.588  -2.792  1.00 20.00    -0.060 SA
HETATM   12 BR12 UNL     1     -39.099  17.399  -3.043  1.00 20.00    -0.021 Br
ENDROOT
TORSDOF 0
ENDMDL
