MODEL 1
REMARK VINA RESULT:      -4.5      0.000      0.000
REMARK  0 active torsions:
REMARK  status: ('A' for Active; 'I' for Inactive)
ROOT
HETATM    1  C1  UNL     1     -33.513   6.343   4.850  1.00 20.00     0.050 A 
HETATM    2  C2  UNL     1     -34.146   5.453   4.005  1.00 20.00     0.010 A 
HETATM    3  C3  UNL     1     -32.691   7.031   2.942  1.00 20.00     0.168 A 
HETATM    4  C4  UNL     1     -33.690   6.320   6.328  1.00 20.00     0.060 C 
HETATM    5  C5  UNL     1     -35.112   4.400   4.429  1.00 20.00     0.048 C 
HETATM    6  C6  UNL     1     -34.925   5.494   6.729  1.00 20.00     0.006 C 
HETATM    7  C7  UNL     1     -35.012   4.171   5.948  1.00 20.00     0.006 C 
HETATM    8  N8  UNL     1     -32.671   7.249   4.239  1.00 20.00    -0.233 NA
HETATM    9  S9  UNL     1     -33.697   5.750   2.391  1.00 20.00    -0.061 SA
HETATM   10 CL10 UNL     1     -31.776   7.952   1.822  1.00 20.00    -0.054 Cl
ENDROOT
TORSDOF 0
ENDMDL
MODEL 2
REMARK VINA RESULT:      -4.3     12.512     13.596
REMARK  0 active torsions:
REMARK  status: ('A' for Active; 'I' for Inactive)
ROOT
HETATM    1  C1  UNL     1     -34.692  15.029  -4.295  1.00 20.00     0.050 A 
HETATM    2  C2  UNL     1     -34.469  16.280  -4.836  1.00 20.00     0.010 A 
HETATM    3  C3  UNL     1     -34.550  16.189  -2.444  1.00 20.00     0.168 A 
HETATM    4  C4  UNL     1     -34.848  13.804  -5.126  1.00 20.00     0.060 C 
HETATM    5  C5  UNL     1     -34.403  16.590  -6.293  1.00 20.00     0.048 C 
HETATM    6  C6  UNL     1     -35.131  14.160  -6.597  1.00 20.00     0.006 C 
HETATM    7  C7  UNL     1     -34.218  15.293  -7.101  1.00 20.00     0.006 C 
HETATM    8  N8  UNL     1     -34.734  14.975  -2.917  1.00 20.00    -0.233 NA
HETATM    9  S9  UNL     1     -34.316  17.440  -3.601  1.00 20.00    -0.061 SA
HETATM   10 CL10 UNL     1     -34.534  16.550  -0.768  1.00 20.00    -0.054 Cl
ENDROOT
TORSDOF 0
ENDMDL
MODEL 3
REMARK VINA RESULT:      -4.2      1.264      2.059
REMARK  0 active torsions:
REMARK  status: ('A' for Active; 'I' for Inactive)
ROOT
HETATM    1  C1  UNL     1     -33.856   5.934   3.839  1.00 20.00     0.050 A 
HETATM    2  C2  UNL     1     -33.277   6.564   4.923  1.00 20.00     0.010 A 
HETATM    3  C3  UNL     1     -32.505   7.287   2.773  1.00 20.00     0.168 A 
HETATM    4  C4  UNL     1     -34.910   4.891   3.978  1.00 20.00     0.060 C 
HETATM    5  C5  UNL     1     -33.576   6.269   6.353  1.00 20.00     0.048 C 
HETATM    6  C6  UNL     1     -34.964   4.341   5.414  1.00 20.00     0.006 C 
HETATM    7  C7  UNL     1     -34.883   5.464   6.465  1.00 20.00     0.006 C 
HETATM    8  N8  UNL     1     -33.416   6.353   2.601  1.00 20.00    -0.233 NA
HETATM    9  S9  UNL     1     -32.135   7.711   4.398  1.00 20.00    -0.061 SA
HETATM   10 CL10 UNL     1     -31.705   8.068   1.474  1.00 20.00    -0.054 Cl
ENDROOT
TORSDOF 0
ENDMDL
MODEL 4
REMARK VINA RESULT:      -4.1     12.171     12.990
REMARK  0 active torsions:
REMARK  status: ('A' for Active; 'I' for Inactive)
ROOT
HETATM    1  C1  UNL     1     -35.913  14.677  -3.689  1.00 20.00     0.050 A 
HETATM    2  C2  UNL     1     -36.038  16.020  -3.392  1.00 20.00     0.010 A 
HETATM    3  C3  UNL     1     -38.072  14.898  -3.979  1.00 20.00     0.168 A 
HETATM    4  C4  UNL     1     -34.614  13.953  -3.628  1.00 20.00     0.060 C 
HETATM    5  C5  UNL     1     -34.916  16.930  -3.026  1.00 20.00     0.048 C 
HETATM    6  C6  UNL     1     -33.429  14.934  -3.601  1.00 20.00     0.006 C 
HETATM    7  C7  UNL     1     -33.675  16.108  -2.635  1.00 20.00     0.006 C 
HETATM    8  N8  UNL     1     -37.085  14.029  -4.022  1.00 20.00    -0.233 NA
HETATM    9  S9  UNL     1     -37.661  16.509  -3.540  1.00 20.00    -0.061 SA
HETATM   10 CL10 UNL     1     -39.698  14.488  -4.332  1.00 20.00    -0.054 Cl
ENDROOT
TORSDOF 0
ENDMDL
MODEL 5
REMARK VINA RESULT:      -4.1     12.202     13.189
REMARK  0 active torsions:
REMARK  status: ('A' for Active; 'I' for Inactive)
ROOT
HETATM    1  C1  UNL     1     -34.336  16.379  -2.252  1.00 20.00     0.050 A 
HETATM    2  C2  UNL     1     -33.859  17.385  -3.068  1.00 20.00     0.010 A 
HETATM    3  C3  UNL     1     -34.226  15.274  -4.139  1.00 20.00     0.168 A 
HETATM    4  C4  UNL     1     -34.633  16.581  -0.807  1.00 20.00     0.060 C 
HETATM    5  C5  UNL     1     -33.532  18.771  -2.626  1.00 20.00     0.048 C 
HETATM    6  C6  UNL     1     -33.978  17.869  -0.278  1.00 20.00     0.006 C 
HETATM    7  C7  UNL     1     -34.162  19.050  -1.250  1.00 20.00     0.006 C 
HETATM    8  N8  UNL     1     -34.552  15.164  -2.869  1.00 20.00    -0.233 NA
HETATM    9  S9  UNL     1     -33.657  16.812  -4.657  1.00 20.00    -0.061 SA
HETATM   10 CL10 UNL     1     -34.348  13.978  -5.254  1.00 20.00    -0.054 Cl
ENDROOT
TORSDOF 0
ENDMDL
MODEL 6
REMARK VINA RESULT:      -4.1     12.753     13.937
REMARK  0 active torsions:
REMARK  status: ('A' for Active; 'I' for Inactive)
ROOT
HETATM    1  C1  UNL     1     -33.775  16.024  -4.876  1.00 20.00     0.050 A 
HETATM    2  C2  UNL     1     -34.592  15.452  -5.831  1.00 20.00     0.010 A 
HETATM    3  C3  UNL     1     -33.908  17.705  -6.272  1.00 20.00     0.168 A 
HETATM    4  C4  UNL     1     -33.318  15.295  -3.661  1.00 20.00     0.060 C 
HETATM    5  C5  UNL     1     -35.163  14.076  -5.765  1.00 20.00     0.048 C 
HETATM    6  C6  UNL     1     -34.168  14.037  -3.413  1.00 20.00     0.006 C 
HETATM    7  C7  UNL     1     -34.414  13.243  -4.709  1.00 20.00     0.006 C 
HETATM    8  N8  UNL     1     -33.377  17.320  -5.132  1.00 20.00    -0.233 NA
HETATM    9  S9  UNL     1     -34.892  16.556  -7.090  1.00 20.00    -0.061 SA
HETATM   10 CL10 UNL     1     -33.657  19.261  -6.946  1.00 20.00    -0.054 Cl
ENDROOT
TORSDOF 0
ENDMDL
MODEL 7
REMARK VINA RESULT:      -4.0     12.468     13.455
REMARK  0 active torsions:
REMARK  status: ('A' for Active; 'I' for Inactive)
ROOT
HETATM    1  C1  UNL     1     -35.623  15.159  -3.851  1.00 20.00     0.050 A 
HETATM    2  C2  UNL     1     -35.525  15.521  -5.180  1.00 20.00     0.010 A 
HETATM    3  C3  UNL     1     -37.713  14.883  -4.441  1.00 20.00     0.168 A 
HETATM    4  C4  UNL     1     -34.463  15.182  -2.918  1.00 20.00     0.060 C 
HETATM    5  C5  UNL     1     -34.270  15.930  -5.872  1.00 20.00     0.048 C 
HETATM    6  C6  UNL     1     -33.131  15.255  -3.687  1.00 20.00     0.006 C 
HETATM    7  C7  UNL     1     -33.185  16.278  -4.836  1.00 20.00     0.006 C 
HETATM    8  N8  UNL     1     -36.884  14.796  -3.424  1.00 20.00    -0.233 NA
HETATM    9  S9  UNL     1     -37.043  15.399  -5.939  1.00 20.00    -0.061 SA
HETATM   10 CL10 UNL     1     -39.383  14.513  -4.325  1.00 20.00    -0.054 Cl
ENDROOT
TORSDOF 0
ENDMDL
MODEL 8
REMARK VINA RESULT:      -4.0     12.334     13.406
REMARK  0 active torsions:
REMARK  status: ('A' for Active; 'I' for Inactive)
ROOT
HETATM    1  C1  UNL     1     -34.299  16.229  -2.446  1.00 20.00     0.050 A 
HETATM    2  C2  UNL     1     -33.885  17.421  -3.007  1.00 20.00     0.010 A 
HETATM    3  C3  UNL     1     -34.354  17.492  -0.659  1.00 20.00     0.168 A 
HETATM    4  C4  UNL     1     -34.426  14.968  -3.228  1.00 20.00     0.060 C 
HETATM    5  C5  UNL     1     -33.561  17.629  -4.447  1.00 20.00     0.048 C 
HETATM    6  C6  UNL     1     -34.439  15.248  -4.741  1.00 20.00     0.006 C 
HETATM    7  C7  UNL     1     -33.362  16.272  -5.146  1.00 20.00     0.006 C 
HETATM    8  N8  UNL     1     -34.565  16.268  -1.093  1.00 20.00    -0.233 NA
HETATM    9  S9  UNL     1     -33.832  18.643  -1.825  1.00 20.00    -0.061 SA
HETATM   10 CL10 UNL     1     -34.575  17.959   0.975  1.00 20.00    -0.054 Cl
ENDROOT
TORSDOF 0
ENDMDL
MODEL 9
REMARK VINA RESULT:      -3.9     12.870     14.158
REMARK  0 active torsions:
REMARK  status: ('A' for Active; 'I' for Inactive)
ROOT
HETATM    1  C1  UNL     1     -34.549  15.475  -5.932  1.00 20.00     0.050 A 
HETATM    2  C2  UNL     1     -33.937  16.053  -4.838  1.00 20.00     0.010 A 
HETATM    3  C3  UNL     1     -34.257  17.494  -6.725  1.00 20.00     0.168 A 
HETATM    4  C4  UNL     1     -35.010  14.059  -5.946  1.00 20.00     0.060 C 
HETATM    5  C5  UNL     1     -33.609  15.354  -3.563  1.00 20.00     0.048 C 
HETATM    6  C6  UNL     1     -34.372  13.253  -4.800  1.00 20.00     0.006 C 
HETATM    7  C7  UNL     1     -34.390  14.030  -3.471  1.00 20.00     0.006 C 
HETATM    8  N8  UNL     1     -34.738  16.305  -7.017  1.00 20.00    -0.233 NA
HETATM    9  S9  UNL     1     -33.567  17.682  -5.161  1.00 20.00    -0.061 SA
HETATM   10 CL10 UNL     1     -34.296  18.816  -7.816  1.00 20.00    -0.054 Cl
ENDROOT
TORSDOF 0
ENDMDL
