MODEL 1
REMARK VINA RESULT:      -5.0      0.000      0.000
REMARK  3 active torsions:
REMARK  status: ('A' for Active; 'I' for Inactive)
REMARK    1  A    between atoms: C1_1  and  C6_6 
REMARK    2  A    between atoms: C4_4  and  C7_7 
REMARK    3  A    between atoms: C6_6  and  C7_7 
ROOT
HETATM    1  C7  UNL     1     -33.397   6.196   4.711  1.00 20.00     0.019 C 
ENDROOT
BRANCH   1   2
HETATM    2  C4  UNL     1     -34.616   5.335   4.900  1.00 20.00    -0.043 A 
HETATM    3  C2  UNL     1     -35.115   5.114   6.309  1.00 20.00     0.010 A 
HETATM    4  C3  UNL     1     -34.438   3.993   5.572  1.00 20.00     0.010 A 
HETATM    5  C5  UNL     1     -35.635   5.442   3.800  1.00 20.00     0.015 C 
ENDBRANCH   1   2
BRANCH   1   6
HETATM    6  C6  UNL     1     -33.051   6.399   3.242  1.00 20.00     0.114 C 
BRANCH   6   7
HETATM    7  C1  UNL     1     -32.042   7.508   2.918  1.00 20.00     0.172 C 
HETATM    8  O8  UNL     1     -32.172   8.077   1.799  1.00 20.00    -0.648 OA
HETATM    9  O9  UNL     1     -31.198   7.724   3.835  1.00 20.00    -0.648 OA
ENDBRANCH   6   7
ENDBRANCH   1   6
TORSDOF 3
ENDMDL
MODEL 2
REMARK VINA RESULT:      -4.9      0.846      1.424
REMARK  3 active torsions:
REMARK  status: ('A' for Active; 'I' for Inactive)
REMARK    1  A    between atoms: C1_1  and  C6_6 
REMARK    2  A    between atoms: C4_4  and  C7_7 
REMARK    3  A    between atoms: C6_6  and  C7_7 
ROOT
HETATM    1  C7  UNL     1     -34.191   6.155   4.017  1.00 20.00     0.019 C 
ENDROOT
BRANCH   1   2
HETATM    2  C4  UNL     1     -34.237   5.729   5.459  1.00 20.00    -0.043 A 
HETATM    3  C2  UNL     1     -33.919   4.288   5.781  1.00 20.00     0.010 A 
HETATM    4  C3  UNL     1     -35.335   4.781   5.883  1.00 20.00     0.010 A 
HETATM    5  C5  UNL     1     -33.799   6.783   6.437  1.00 20.00     0.015 C 
ENDBRANCH   1   2
BRANCH   1   6
HETATM    6  C6  UNL     1     -32.798   6.025   3.416  1.00 20.00     0.114 C 
BRANCH   6   7
HETATM    7  C1  UNL     1     -32.038   7.330   3.147  1.00 20.00     0.172 C 
HETATM    8  O8  UNL     1     -32.300   7.920   2.063  1.00 20.00    -0.648 OA
HETATM    9  O9  UNL     1     -31.238   7.663   4.069  1.00 20.00    -0.648 OA
ENDBRANCH   6   7
ENDBRANCH   1   6
TORSDOF 3
ENDMDL
MODEL 3
REMARK VINA RESULT:      -4.9      0.842      1.783
REMARK  3 active torsions:
REMARK  status: ('A' for Active; 'I' for Inactive)
REMARK    1  A    between atoms: C1_1  and  C6_6 
REMARK    2  A    between atoms: C4_4  and  C7_7 
REMARK    3  A    between atoms: C6_6  and  C7_7 
ROOT
HETATM    1  C7  UNL     1     -34.193   6.136   4.003  1.00 20.00     0.019 C 
ENDROOT
BRANCH   1   2
HETATM    2  C4  UNL     1     -34.236   5.723   5.448  1.00 20.00    -0.043 A 
HETATM    3  C2  UNL     1     -33.923   4.283   5.783  1.00 20.00     0.010 A 
HETATM    4  C3  UNL     1     -35.336   4.784   5.885  1.00 20.00     0.010 A 
HETATM    5  C5  UNL     1     -33.790   6.784   6.416  1.00 20.00     0.015 C 
ENDBRANCH   1   2
BRANCH   1   6
HETATM    6  C6  UNL     1     -32.797   6.020   3.406  1.00 20.00     0.114 C 
BRANCH   6   7
HETATM    7  C1  UNL     1     -32.038   7.332   3.167  1.00 20.00     0.172 C 
HETATM    8  O8  UNL     1     -31.231   7.687   4.070  1.00 20.00    -0.648 OA
HETATM    9  O9  UNL     1     -32.313   7.897   2.070  1.00 20.00    -0.648 OA
ENDBRANCH   6   7
ENDBRANCH   1   6
TORSDOF 3
ENDMDL
MODEL 4
REMARK VINA RESULT:      -4.6      2.692      4.341
REMARK  3 active torsions:
REMARK  status: ('A' for Active; 'I' for Inactive)
REMARK    1  A    between atoms: C1_1  and  C6_6 
REMARK    2  A    between atoms: C4_4  and  C7_7 
REMARK    3  A    between atoms: C6_6  and  C7_7 
ROOT
HETATM    1  C7  UNL     1     -33.898   6.800   4.068  1.00 20.00     0.019 C 
ENDROOT
BRANCH   1   2
HETATM    2  C4  UNL     1     -32.616   6.708   3.285  1.00 20.00    -0.043 A 
HETATM    3  C2  UNL     1     -31.474   7.611   3.688  1.00 20.00     0.010 A 
HETATM    4  C3  UNL     1     -32.230   7.884   2.419  1.00 20.00     0.010 A 
HETATM    5  C5  UNL     1     -32.283   5.328   2.790  1.00 20.00     0.015 C 
ENDBRANCH   1   2
BRANCH   1   6
HETATM    6  C6  UNL     1     -34.694   5.502   4.034  1.00 20.00     0.114 C 
BRANCH   6   7
HETATM    7  C1  UNL     1     -34.883   4.774   5.371  1.00 20.00     0.172 C 
HETATM    8  O8  UNL     1     -35.073   3.528   5.310  1.00 20.00    -0.648 OA
HETATM    9  O9  UNL     1     -34.813   5.527   6.385  1.00 20.00    -0.648 OA
ENDBRANCH   6   7
ENDBRANCH   1   6
TORSDOF 3
ENDMDL
MODEL 5
REMARK VINA RESULT:      -4.4     10.973     11.997
REMARK  3 active torsions:
REMARK  status: ('A' for Active; 'I' for Inactive)
REMARK    1  A    between atoms: C1_1  and  C6_6 
REMARK    2  A    between atoms: C4_4  and  C7_7 
REMARK    3  A    between atoms: C6_6  and  C7_7 
ROOT
HETATM    1  C7  UNL     1     -33.807  15.704  -2.710  1.00 20.00     0.019 C 
ENDROOT
BRANCH   1   2
HETATM    2  C4  UNL     1     -34.476  16.854  -2.008  1.00 20.00    -0.043 A 
HETATM    3  C2  UNL     1     -33.639  17.699  -1.077  1.00 20.00     0.010 A 
HETATM    4  C3  UNL     1     -34.664  16.757  -0.512  1.00 20.00     0.010 A 
HETATM    5  C5  UNL     1     -35.548  17.539  -2.810  1.00 20.00     0.015 C 
ENDBRANCH   1   2
BRANCH   1   6
HETATM    6  C6  UNL     1     -34.802  14.811  -3.441  1.00 20.00     0.114 C 
BRANCH   6   7
HETATM    7  C1  UNL     1     -34.293  13.436  -3.891  1.00 20.00     0.172 C 
HETATM    8  O8  UNL     1     -35.138  12.677  -4.441  1.00 20.00    -0.648 OA
HETATM    9  O9  UNL     1     -33.066  13.237  -3.661  1.00 20.00    -0.648 OA
ENDBRANCH   6   7
ENDBRANCH   1   6
TORSDOF 3
ENDMDL
MODEL 6
REMARK VINA RESULT:      -4.3     10.953     12.326
REMARK  3 active torsions:
REMARK  status: ('A' for Active; 'I' for Inactive)
REMARK    1  A    between atoms: C1_1  and  C6_6 
REMARK    2  A    between atoms: C4_4  and  C7_7 
REMARK    3  A    between atoms: C6_6  and  C7_7 
ROOT
HETATM    1  C7  UNL     1     -33.665  15.842  -2.922  1.00 20.00     0.019 C 
ENDROOT
BRANCH   1   2
HETATM    2  C4  UNL     1     -34.228  16.994  -2.135  1.00 20.00    -0.043 A 
HETATM    3  C2  UNL     1     -35.058  18.017  -2.874  1.00 20.00     0.010 A 
HETATM    4  C3  UNL     1     -33.676  18.374  -2.406  1.00 20.00     0.010 A 
HETATM    5  C5  UNL     1     -34.618  16.656  -0.723  1.00 20.00     0.015 C 
ENDBRANCH   1   2
BRANCH   1   6
HETATM    6  C6  UNL     1     -34.736  14.840  -3.331  1.00 20.00     0.114 C 
BRANCH   6   7
HETATM    7  C1  UNL     1     -34.248  13.471  -3.823  1.00 20.00     0.172 C 
HETATM    8  O8  UNL     1     -35.117  12.718  -4.342  1.00 20.00    -0.648 OA
HETATM    9  O9  UNL     1     -33.010  13.272  -3.655  1.00 20.00    -0.648 OA
ENDBRANCH   6   7
ENDBRANCH   1   6
TORSDOF 3
ENDMDL
MODEL 7
REMARK VINA RESULT:      -4.1      1.392      1.966
REMARK  3 active torsions:
REMARK  status: ('A' for Active; 'I' for Inactive)
REMARK    1  A    between atoms: C1_1  and  C6_6 
REMARK    2  A    between atoms: C4_4  and  C7_7 
REMARK    3  A    between atoms: C6_6  and  C7_7 
ROOT
HETATM    1  C7  UNL     1     -33.117   6.015   2.985  1.00 20.00     0.019 C 
ENDROOT
BRANCH   1   2
HETATM    2  C4  UNL     1     -34.086   5.847   4.123  1.00 20.00    -0.043 A 
HETATM    3  C2  UNL     1     -34.757   4.504   4.290  1.00 20.00     0.010 A 
HETATM    4  C3  UNL     1     -35.550   5.678   3.788  1.00 20.00     0.010 A 
HETATM    5  C5  UNL     1     -33.731   6.616   5.366  1.00 20.00     0.015 C 
ENDBRANCH   1   2
BRANCH   1   6
HETATM    6  C6  UNL     1     -32.176   7.195   3.193  1.00 20.00     0.114 C 
BRANCH   6   7
HETATM    7  C1  UNL     1     -32.187   8.284   2.113  1.00 20.00     0.172 C 
HETATM    8  O8  UNL     1     -31.452   8.087   1.107  1.00 20.00    -0.648 OA
HETATM    9  O9  UNL     1     -32.956   9.256   2.367  1.00 20.00    -0.648 OA
ENDBRANCH   6   7
ENDBRANCH   1   6
TORSDOF 3
ENDMDL
MODEL 8
REMARK VINA RESULT:      -4.0     11.115     13.266
REMARK  3 active torsions:
REMARK  status: ('A' for Active; 'I' for Inactive)
REMARK    1  A    between atoms: C1_1  and  C6_6 
REMARK    2  A    between atoms: C4_4  and  C7_7 
REMARK    3  A    between atoms: C6_6  and  C7_7 
ROOT
HETATM    1  C7  UNL     1     -35.529  15.544  -4.846  1.00 20.00     0.019 C 
ENDROOT
BRANCH   1   2
HETATM    2  C4  UNL     1     -34.504  16.025  -5.837  1.00 20.00    -0.043 A 
HETATM    3  C2  UNL     1     -33.264  16.702  -5.301  1.00 20.00     0.010 A 
HETATM    4  C3  UNL     1     -34.319  17.515  -5.997  1.00 20.00     0.010 A 
HETATM    5  C5  UNL     1     -34.362  15.160  -7.059  1.00 20.00     0.015 C 
ENDBRANCH   1   2
BRANCH   1   6
HETATM    6  C6  UNL     1     -34.899  14.813  -3.667  1.00 20.00     0.114 C 
BRANCH   6   7
HETATM    7  C1  UNL     1     -34.323  13.419  -3.947  1.00 20.00     0.172 C 
HETATM    8  O8  UNL     1     -35.118  12.571  -4.438  1.00 20.00    -0.648 OA
HETATM    9  O9  UNL     1     -33.098  13.297  -3.656  1.00 20.00    -0.648 OA
ENDBRANCH   6   7
ENDBRANCH   1   6
TORSDOF 3
ENDMDL
MODEL 9
REMARK VINA RESULT:      -4.0     11.156     13.310
REMARK  3 active torsions:
REMARK  status: ('A' for Active; 'I' for Inactive)
REMARK    1  A    between atoms: C1_1  and  C6_6 
REMARK    2  A    between atoms: C4_4  and  C7_7 
REMARK    3  A    between atoms: C6_6  and  C7_7 
ROOT
HETATM    1  C7  UNL     1     -35.499  15.541  -4.846  1.00 20.00     0.019 C 
ENDROOT
BRANCH   1   2
HETATM    2  C4  UNL     1     -34.497  16.031  -5.855  1.00 20.00    -0.043 A 
HETATM    3  C2  UNL     1     -35.019  16.577  -7.164  1.00 20.00     0.010 A 
HETATM    4  C3  UNL     1     -34.334  15.240  -7.132  1.00 20.00     0.010 A 
HETATM    5  C5  UNL     1     -33.274  16.672  -5.262  1.00 20.00     0.015 C 
ENDBRANCH   1   2
BRANCH   1   6
HETATM    6  C6  UNL     1     -34.840  14.833  -3.669  1.00 20.00     0.114 C 
BRANCH   6   7
HETATM    7  C1  UNL     1     -34.301  13.421  -3.928  1.00 20.00     0.172 C 
HETATM    8  O8  UNL     1     -35.116  12.587  -4.409  1.00 20.00    -0.648 OA
HETATM    9  O9  UNL     1     -33.080  13.271  -3.633  1.00 20.00    -0.648 OA
ENDBRANCH   6   7
ENDBRANCH   1   6
TORSDOF 3
ENDMDL
