MODEL 1
REMARK VINA RESULT:      -5.6      0.000      0.000
REMARK  0 active torsions:
REMARK  status: ('A' for Active; 'I' for Inactive)
ROOT
HETATM    1  C1  UNL     1     -33.546  13.838  -3.921  1.00 20.00     0.135 C 
HETATM    2  C2  UNL     1     -34.638  15.625  -2.627  1.00 20.00     0.017 C 
HETATM    3  C3  UNL     1     -35.999  14.023  -3.997  1.00 20.00     0.017 C 
HETATM    4  C4  UNL     1     -33.236  16.169  -4.651  1.00 20.00     0.037 C 
HETATM    5  C5  UNL     1     -34.601  14.564  -6.024  1.00 20.00     0.037 C 
HETATM    6  C6  UNL     1     -35.742  16.409  -4.746  1.00 20.00     0.030 C 
HETATM    7  C7  UNL     1     -33.374  15.264  -3.419  1.00 20.00     0.058 C 
HETATM    8  C8  UNL     1     -34.761  13.632  -4.814  1.00 20.00     0.058 C 
HETATM    9  C9  UNL     1     -35.885  15.485  -3.523  1.00 20.00    -0.011 C 
HETATM   10  C10 UNL     1     -34.484  16.029  -5.551  1.00 20.00     0.039 C 
HETATM   11  O11 UNL     1     -32.771  12.932  -3.632  1.00 20.00    -0.297 OA
HETATM   12 CL12 UNL     1     -34.327  17.107  -6.968  1.00 20.00    -0.119 Cl
ENDROOT
TORSDOF 0
ENDMDL
MODEL 2
REMARK VINA RESULT:      -5.4      1.207      2.498
REMARK  0 active torsions:
REMARK  status: ('A' for Active; 'I' for Inactive)
ROOT
HETATM    1  C1  UNL     1     -34.598  15.628  -2.694  1.00 20.00     0.135 C 
HETATM    2  C2  UNL     1     -35.918  13.974  -3.953  1.00 20.00     0.017 C 
HETATM    3  C3  UNL     1     -33.417  13.805  -3.851  1.00 20.00     0.017 C 
HETATM    4  C4  UNL     1     -35.726  16.356  -4.758  1.00 20.00     0.037 C 
HETATM    5  C5  UNL     1     -33.219  16.185  -4.656  1.00 20.00     0.037 C 
HETATM    6  C6  UNL     1     -34.540  14.505  -5.988  1.00 20.00     0.030 C 
HETATM    7  C7  UNL     1     -35.858  15.447  -3.528  1.00 20.00     0.058 C 
HETATM    8  C8  UNL     1     -33.311  15.274  -3.424  1.00 20.00     0.058 C 
HETATM    9  C9  UNL     1     -34.653  13.599  -4.749  1.00 20.00    -0.011 C 
HETATM   10  C10 UNL     1     -34.457  15.982  -5.556  1.00 20.00     0.039 C 
HETATM   11  O11 UNL     1     -34.619  16.025  -1.533  1.00 20.00    -0.297 OA
HETATM   12 CL12 UNL     1     -34.327  17.026  -7.001  1.00 20.00    -0.119 Cl
ENDROOT
TORSDOF 0
ENDMDL
MODEL 3
REMARK VINA RESULT:      -5.4      1.479      2.703
REMARK  0 active torsions:
REMARK  status: ('A' for Active; 'I' for Inactive)
ROOT
HETATM    1  C1  UNL     1     -36.417  14.590  -3.894  1.00 20.00     0.135 C 
HETATM    2  C2  UNL     1     -34.110  13.737  -3.791  1.00 20.00     0.017 C 
HETATM    3  C3  UNL     1     -34.785  15.762  -2.472  1.00 20.00     0.017 C 
HETATM    4  C4  UNL     1     -34.997  14.807  -5.894  1.00 20.00     0.037 C 
HETATM    5  C5  UNL     1     -35.673  16.838  -4.572  1.00 20.00     0.037 C 
HETATM    6  C6  UNL     1     -33.295  16.013  -4.482  1.00 20.00     0.030 C 
HETATM    7  C7  UNL     1     -35.332  13.896  -4.704  1.00 20.00     0.058 C 
HETATM    8  C8  UNL     1     -36.019  15.959  -3.362  1.00 20.00     0.058 C 
HETATM    9  C9  UNL     1     -33.644  15.115  -3.281  1.00 20.00    -0.011 C 
HETATM   10  C10 UNL     1     -34.530  16.189  -5.385  1.00 20.00     0.039 C 
HETATM   11  O11 UNL     1     -37.518  14.090  -3.689  1.00 20.00    -0.297 OA
HETATM   12 CL12 UNL     1     -34.116  17.233  -6.776  1.00 20.00    -0.119 Cl
ENDROOT
TORSDOF 0
ENDMDL
MODEL 4
REMARK VINA RESULT:      -5.2      1.683      2.906
REMARK  0 active torsions:
REMARK  status: ('A' for Active; 'I' for Inactive)
ROOT
HETATM    1  C1  UNL     1     -34.790  13.786  -4.598  1.00 20.00     0.135 C 
HETATM    2  C2  UNL     1     -34.081  15.495  -6.223  1.00 20.00     0.017 C 
HETATM    3  C3  UNL     1     -33.015  15.365  -3.955  1.00 20.00     0.017 C 
HETATM    4  C4  UNL     1     -36.360  15.602  -5.149  1.00 20.00     0.037 C 
HETATM    5  C5  UNL     1     -35.291  15.473  -2.876  1.00 20.00     0.037 C 
HETATM    6  C6  UNL     1     -34.576  17.259  -4.501  1.00 20.00     0.030 C 
HETATM    7  C7  UNL     1     -35.282  14.677  -5.730  1.00 20.00     0.058 C 
HETATM    8  C8  UNL     1     -34.196  14.545  -3.421  1.00 20.00     0.058 C 
HETATM    9  C9  UNL     1     -33.491  16.324  -5.065  1.00 20.00    -0.011 C 
HETATM   10  C10 UNL     1     -35.770  16.432  -3.987  1.00 20.00     0.039 C 
HETATM   11  O11 UNL     1     -34.868  12.562  -4.632  1.00 20.00    -0.297 OA
HETATM   12 CL12 UNL     1     -37.024  17.527  -3.335  1.00 20.00    -0.119 Cl
ENDROOT
TORSDOF 0
ENDMDL
MODEL 5
REMARK VINA RESULT:      -5.1      1.906      2.849
REMARK  0 active torsions:
REMARK  status: ('A' for Active; 'I' for Inactive)
ROOT
HETATM    1  C1  UNL     1     -35.022  13.839  -4.289  1.00 20.00     0.135 C 
HETATM    2  C2  UNL     1     -36.496  15.723  -4.874  1.00 20.00     0.017 C 
HETATM    3  C3  UNL     1     -34.193  15.547  -5.855  1.00 20.00     0.017 C 
HETATM    4  C4  UNL     1     -35.527  15.514  -2.555  1.00 20.00     0.037 C 
HETATM    5  C5  UNL     1     -33.219  15.339  -3.539  1.00 20.00     0.037 C 
HETATM    6  C6  UNL     1     -34.687  17.300  -4.121  1.00 20.00     0.030 C 
HETATM    7  C7  UNL     1     -36.116  14.751  -3.750  1.00 20.00     0.058 C 
HETATM    8  C8  UNL     1     -33.771  14.572  -4.749  1.00 20.00     0.058 C 
HETATM    9  C9  UNL     1     -35.259  16.526  -5.323  1.00 20.00    -0.011 C 
HETATM   10  C10 UNL     1     -34.286  16.318  -3.004  1.00 20.00     0.039 C 
HETATM   11  O11 UNL     1     -35.140  12.619  -4.346  1.00 20.00    -0.297 OA
HETATM   12 CL12 UNL     1     -33.624  17.226  -1.614  1.00 20.00    -0.119 Cl
ENDROOT
TORSDOF 0
ENDMDL
MODEL 6
REMARK VINA RESULT:      -5.1      1.978      3.147
REMARK  0 active torsions:
REMARK  status: ('A' for Active; 'I' for Inactive)
ROOT
HETATM    1  C1  UNL     1     -36.828  14.574  -4.257  1.00 20.00     0.135 C 
HETATM    2  C2  UNL     1     -36.208  14.965  -6.607  1.00 20.00     0.017 C 
HETATM    3  C3  UNL     1     -34.802  13.493  -5.140  1.00 20.00     0.017 C 
HETATM    4  C4  UNL     1     -36.049  16.818  -4.905  1.00 20.00     0.037 C 
HETATM    5  C5  UNL     1     -34.638  15.343  -3.435  1.00 20.00     0.037 C 
HETATM    6  C6  UNL     1     -33.955  15.760  -5.823  1.00 20.00     0.030 C 
HETATM    7  C7  UNL     1     -36.862  15.604  -5.376  1.00 20.00     0.058 C 
HETATM    8  C8  UNL     1     -35.430  14.106  -3.882  1.00 20.00     0.058 C 
HETATM    9  C9  UNL     1     -34.765  14.532  -6.278  1.00 20.00    -0.011 C 
HETATM   10  C10 UNL     1     -34.602  16.386  -4.574  1.00 20.00     0.039 C 
HETATM   11  O11 UNL     1     -37.841  14.158  -3.704  1.00 20.00    -0.297 OA
HETATM   12 CL12 UNL     1     -33.655  17.810  -4.053  1.00 20.00    -0.119 Cl
ENDROOT
TORSDOF 0
ENDMDL
MODEL 7
REMARK VINA RESULT:      -4.9      2.193      2.958
REMARK  0 active torsions:
REMARK  status: ('A' for Active; 'I' for Inactive)
ROOT
HETATM    1  C1  UNL     1     -36.684  14.724  -4.028  1.00 20.00     0.135 C 
HETATM    2  C2  UNL     1     -35.952  17.073  -4.119  1.00 20.00     0.017 C 
HETATM    3  C3  UNL     1     -35.771  15.598  -6.140  1.00 20.00     0.017 C 
HETATM    4  C4  UNL     1     -34.675  15.375  -2.761  1.00 20.00     0.037 C 
HETATM    5  C5  UNL     1     -34.493  13.897  -4.788  1.00 20.00     0.037 C 
HETATM    6  C6  UNL     1     -33.696  16.283  -4.897  1.00 20.00     0.030 C 
HETATM    7  C7  UNL     1     -36.067  15.846  -3.206  1.00 20.00     0.058 C 
HETATM    8  C8  UNL     1     -35.882  14.344  -5.264  1.00 20.00     0.058 C 
HETATM    9  C9  UNL     1     -35.094  16.738  -5.354  1.00 20.00    -0.011 C 
HETATM   10  C10 UNL     1     -33.814  15.038  -3.999  1.00 20.00     0.039 C 
HETATM   11  O11 UNL     1     -37.736  14.174  -3.720  1.00 20.00    -0.297 OA
HETATM   12 CL12 UNL     1     -32.186  14.518  -3.473  1.00 20.00    -0.119 Cl
ENDROOT
TORSDOF 0
ENDMDL
MODEL 8
REMARK VINA RESULT:      -4.9      1.347      1.876
REMARK  0 active torsions:
REMARK  status: ('A' for Active; 'I' for Inactive)
ROOT
HETATM    1  C1  UNL     1     -34.895  13.692  -4.917  1.00 20.00     0.135 C 
HETATM    2  C2  UNL     1     -36.711  14.933  -3.811  1.00 20.00     0.017 C 
HETATM    3  C3  UNL     1     -36.502  14.930  -6.311  1.00 20.00     0.017 C 
HETATM    4  C4  UNL     1     -34.316  15.695  -3.609  1.00 20.00     0.037 C 
HETATM    5  C5  UNL     1     -34.107  15.693  -6.115  1.00 20.00     0.037 C 
HETATM    6  C6  UNL     1     -35.948  17.008  -5.009  1.00 20.00     0.030 C 
HETATM    7  C7  UNL     1     -35.253  14.480  -3.666  1.00 20.00     0.058 C 
HETATM    8  C8  UNL     1     -35.039  14.477  -6.212  1.00 20.00     0.058 C 
HETATM    9  C9  UNL     1     -36.879  15.785  -5.085  1.00 20.00    -0.011 C 
HETATM   10  C10 UNL     1     -34.483  16.549  -4.886  1.00 20.00     0.039 C 
HETATM   11  O11 UNL     1     -34.523  12.523  -4.884  1.00 20.00    -0.297 OA
HETATM   12 CL12 UNL     1     -33.410  17.976  -4.797  1.00 20.00    -0.119 Cl
ENDROOT
TORSDOF 0
ENDMDL
MODEL 9
REMARK VINA RESULT:      -4.9      1.977      2.782
REMARK  0 active torsions:
REMARK  status: ('A' for Active; 'I' for Inactive)
ROOT
HETATM    1  C1  UNL     1     -34.468  14.971  -6.158  1.00 20.00     0.135 C 
HETATM    2  C2  UNL     1     -33.067  15.993  -4.411  1.00 20.00     0.017 C 
HETATM    3  C3  UNL     1     -34.018  13.692  -4.104  1.00 20.00     0.017 C 
HETATM    4  C4  UNL     1     -35.374  16.885  -4.901  1.00 20.00     0.037 C 
HETATM    5  C5  UNL     1     -36.327  14.577  -4.592  1.00 20.00     0.037 C 
HETATM    6  C6  UNL     1     -34.934  15.616  -2.770  1.00 20.00     0.030 C 
HETATM    7  C7  UNL     1     -34.094  16.296  -5.510  1.00 20.00     0.058 C 
HETATM    8  C8  UNL     1     -35.062  13.952  -5.197  1.00 20.00     0.058 C 
HETATM    9  C9  UNL     1     -33.661  15.008  -3.385  1.00 20.00    -0.011 C 
HETATM   10  C10 UNL     1     -35.971  15.897  -3.873  1.00 20.00     0.039 C 
HETATM   11  O11 UNL     1     -34.305  14.745  -7.353  1.00 20.00    -0.297 OA
HETATM   12 CL12 UNL     1     -37.445  16.603  -3.150  1.00 20.00    -0.119 Cl
ENDROOT
TORSDOF 0
ENDMDL
