MODEL 1
REMARK VINA RESULT:      -4.7      0.000      0.000
REMARK  2 active torsions:
REMARK  status: ('A' for Active; 'I' for Inactive)
REMARK    1  A    between atoms: C2_2  and  C7_7 
REMARK    2  A    between atoms: C3_3  and  C6_6 
ROOT
HETATM    1  C1  UNL     1     -33.141   6.907   4.245  1.00 20.00     0.066 A 
HETATM    2  C2  UNL     1     -34.068   5.850   4.226  1.00 20.00     0.068 A 
HETATM    3  C3  UNL     1     -32.683   6.960   2.954  1.00 20.00     0.094 A 
HETATM    4  N8  UNL     1     -34.176   5.290   3.017  1.00 20.00    -0.133 NA
HETATM    5  O9  UNL     1     -33.293   6.001   2.213  1.00 20.00    -0.216 OA
ENDROOT
BRANCH   2   6
HETATM    6  C7  UNL     1     -34.899   5.322   5.380  1.00 20.00     0.032 C 
HETATM    7  C4  UNL     1     -34.456   5.925   6.716  1.00 20.00     0.016 C 
HETATM    8  C5  UNL     1     -34.877   3.793   5.438  1.00 20.00     0.016 C 
ENDBRANCH   2   6
BRANCH   3   9
HETATM    9  C6  UNL     1     -31.709   7.808   2.256  1.00 20.00     0.181 C 
HETATM   10 CL10 UNL     1     -32.462   9.315   1.664  1.00 20.00    -0.123 Cl
ENDBRANCH   3   9
TORSDOF 2
ENDMDL
MODEL 2
REMARK VINA RESULT:      -4.4      1.568      1.930
REMARK  2 active torsions:
REMARK  status: ('A' for Active; 'I' for Inactive)
REMARK    1  A    between atoms: C2_2  and  C7_7 
REMARK    2  A    between atoms: C3_3  and  C6_6 
ROOT
HETATM    1  C1  UNL     1     -33.311   6.620   2.764  1.00 20.00     0.066 A 
HETATM    2  C2  UNL     1     -33.237   6.324   4.137  1.00 20.00     0.068 A 
HETATM    3  C3  UNL     1     -32.299   7.523   2.571  1.00 20.00     0.094 A 
HETATM    4  N8  UNL     1     -32.255   6.992   4.748  1.00 20.00    -0.133 NA
HETATM    5  O9  UNL     1     -31.661   7.752   3.747  1.00 20.00    -0.216 OA
ENDROOT
BRANCH   2   6
HETATM    6  C7  UNL     1     -34.117   5.378   4.932  1.00 20.00     0.032 C 
HETATM    7  C4  UNL     1     -35.431   5.082   4.203  1.00 20.00     0.016 C 
HETATM    8  C5  UNL     1     -34.384   5.909   6.342  1.00 20.00     0.016 C 
ENDBRANCH   2   6
BRANCH   3   9
HETATM    9  C6  UNL     1     -31.797   8.252   1.401  1.00 20.00     0.181 C 
HETATM   10 CL10 UNL     1     -32.444   9.916   1.342  1.00 20.00    -0.123 Cl
ENDBRANCH   3   9
TORSDOF 2
ENDMDL
MODEL 3
REMARK VINA RESULT:      -4.1     10.886     11.441
REMARK  2 active torsions:
REMARK  status: ('A' for Active; 'I' for Inactive)
REMARK    1  A    between atoms: C2_2  and  C7_7 
REMARK    2  A    between atoms: C3_3  and  C6_6 
ROOT
HETATM    1  C1  UNL     1     -41.786   4.126  -2.122  1.00 20.00     0.066 A 
HETATM    2  C2  UNL     1     -42.122   5.468  -2.374  1.00 20.00     0.068 A 
HETATM    3  C3  UNL     1     -42.590   3.423  -2.979  1.00 20.00     0.094 A 
HETATM    4  N8  UNL     1     -43.063   5.587  -3.315  1.00 20.00    -0.133 NA
HETATM    5  O9  UNL     1     -43.356   4.283  -3.697  1.00 20.00    -0.216 OA
ENDROOT
BRANCH   2   6
HETATM    6  C7  UNL     1     -41.551   6.709  -1.714  1.00 20.00     0.032 C 
HETATM    7  C4  UNL     1     -40.807   6.368  -0.420  1.00 20.00     0.016 C 
HETATM    8  C5  UNL     1     -42.633   7.760  -1.460  1.00 20.00     0.016 C 
ENDBRANCH   2   6
BRANCH   3   9
HETATM    9  C6  UNL     1     -42.775   1.993  -3.257  1.00 20.00     0.181 C 
HETATM   10 CL10 UNL     1     -41.319   1.280  -4.005  1.00 20.00    -0.123 Cl
ENDBRANCH   3   9
TORSDOF 2
ENDMDL
MODEL 4
REMARK VINA RESULT:      -4.1     11.918     12.514
REMARK  2 active torsions:
REMARK  status: ('A' for Active; 'I' for Inactive)
REMARK    1  A    between atoms: C2_2  and  C7_7 
REMARK    2  A    between atoms: C3_3  and  C6_6 
ROOT
HETATM    1  C1  UNL     1     -34.514  15.013  -3.091  1.00 20.00     0.066 A 
HETATM    2  C2  UNL     1     -33.838  16.238  -2.951  1.00 20.00     0.068 A 
HETATM    3  C3  UNL     1     -34.384  14.722  -4.423  1.00 20.00     0.094 A 
HETATM    4  N8  UNL     1     -33.328  16.672  -4.107  1.00 20.00    -0.133 NA
HETATM    5  O9  UNL     1     -33.679  15.703  -5.040  1.00 20.00    -0.216 OA
ENDROOT
BRANCH   2   6
HETATM    6  C7  UNL     1     -33.650  17.057  -1.687  1.00 20.00     0.032 C 
HETATM    7  C4  UNL     1     -34.713  16.724  -0.636  1.00 20.00     0.016 C 
HETATM    8  C5  UNL     1     -33.630  18.558  -1.986  1.00 20.00     0.016 C 
ENDBRANCH   2   6
BRANCH   3   9
HETATM    9  C6  UNL     1     -34.838  13.611  -5.268  1.00 20.00     0.181 C 
HETATM   10 CL10 UNL     1     -35.312  14.179  -6.894  1.00 20.00    -0.123 Cl
ENDBRANCH   3   9
TORSDOF 2
ENDMDL
MODEL 5
REMARK VINA RESULT:      -4.0     11.741     12.544
REMARK  2 active torsions:
REMARK  status: ('A' for Active; 'I' for Inactive)
REMARK    1  A    between atoms: C2_2  and  C7_7 
REMARK    2  A    between atoms: C3_3  and  C6_6 
ROOT
HETATM    1  C1  UNL     1     -34.115  15.553  -2.729  1.00 20.00     0.066 A 
HETATM    2  C2  UNL     1     -33.987  15.477  -4.127  1.00 20.00     0.068 A 
HETATM    3  C3  UNL     1     -33.799  16.855  -2.445  1.00 20.00     0.094 A 
HETATM    4  N8  UNL     1     -33.620  16.641  -4.668  1.00 20.00    -0.133 NA
HETATM    5  O9  UNL     1     -33.502  17.515  -3.593  1.00 20.00    -0.216 OA
ENDROOT
BRANCH   2   6
HETATM    6  C7  UNL     1     -34.213  14.268  -5.016  1.00 20.00     0.032 C 
HETATM    7  C4  UNL     1     -34.703  14.676  -6.408  1.00 20.00     0.016 C 
HETATM    8  C5  UNL     1     -35.175  13.267  -4.371  1.00 20.00     0.016 C 
ENDBRANCH   2   6
BRANCH   3   9
HETATM    9  C6  UNL     1     -33.722  17.634  -1.203  1.00 20.00     0.181 C 
HETATM   10 CL10 UNL     1     -34.867  17.023   0.023  1.00 20.00    -0.123 Cl
ENDBRANCH   3   9
TORSDOF 2
ENDMDL
MODEL 6
REMARK VINA RESULT:      -4.0     11.649     12.085
REMARK  2 active torsions:
REMARK  status: ('A' for Active; 'I' for Inactive)
REMARK    1  A    between atoms: C2_2  and  C7_7 
REMARK    2  A    between atoms: C3_3  and  C6_6 
ROOT
HETATM    1  C1  UNL     1     -33.841  15.035  -3.095  1.00 20.00     0.066 A 
HETATM    2  C2  UNL     1     -34.513  16.027  -2.359  1.00 20.00     0.068 A 
HETATM    3  C3  UNL     1     -34.825  14.488  -3.876  1.00 20.00     0.094 A 
HETATM    4  N8  UNL     1     -35.812  16.092  -2.661  1.00 20.00    -0.133 NA
HETATM    5  O9  UNL     1     -36.005  15.110  -3.627  1.00 20.00    -0.216 OA
ENDROOT
BRANCH   2   6
HETATM    6  C7  UNL     1     -33.930  16.969  -1.322  1.00 20.00     0.032 C 
HETATM    7  C4  UNL     1     -34.836  17.084  -0.093  1.00 20.00     0.016 C 
HETATM    8  C5  UNL     1     -33.638  18.349  -1.915  1.00 20.00     0.016 C 
ENDBRANCH   2   6
BRANCH   3   9
HETATM    9  C6  UNL     1     -34.848  13.415  -4.877  1.00 20.00     0.181 C 
HETATM   10 CL10 UNL     1     -35.184  14.053  -6.510  1.00 20.00    -0.123 Cl
ENDBRANCH   3   9
TORSDOF 2
ENDMDL
MODEL 7
REMARK VINA RESULT:      -3.9     10.899     11.140
REMARK  2 active torsions:
REMARK  status: ('A' for Active; 'I' for Inactive)
REMARK    1  A    between atoms: C2_2  and  C7_7 
REMARK    2  A    between atoms: C3_3  and  C6_6 
ROOT
HETATM    1  C1  UNL     1     -41.931   7.416  -2.675  1.00 20.00     0.066 A 
HETATM    2  C2  UNL     1     -42.305   6.073  -2.490  1.00 20.00     0.068 A 
HETATM    3  C3  UNL     1     -42.659   7.808  -3.767  1.00 20.00     0.094 A 
HETATM    4  N8  UNL     1     -43.196   5.665  -3.398  1.00 20.00    -0.133 NA
HETATM    5  O9  UNL     1     -43.417   6.773  -4.208  1.00 20.00    -0.216 OA
ENDROOT
BRANCH   2   6
HETATM    6  C7  UNL     1     -41.817   5.111  -1.423  1.00 20.00     0.032 C 
HETATM    7  C4  UNL     1     -40.755   5.754  -0.527  1.00 20.00     0.016 C 
HETATM    8  C5  UNL     1     -41.298   3.808  -2.034  1.00 20.00     0.016 C 
ENDBRANCH   2   6
BRANCH   3   9
HETATM    9  C6  UNL     1     -42.770   9.066  -4.516  1.00 20.00     0.181 C 
HETATM   10 CL10 UNL     1     -41.502   9.195  -5.767  1.00 20.00    -0.123 Cl
ENDBRANCH   3   9
TORSDOF 2
ENDMDL
MODEL 8
REMARK VINA RESULT:      -3.9     11.785     12.377
REMARK  2 active torsions:
REMARK  status: ('A' for Active; 'I' for Inactive)
REMARK    1  A    between atoms: C2_2  and  C7_7 
REMARK    2  A    between atoms: C3_3  and  C6_6 
ROOT
HETATM    1  C1  UNL     1     -34.530  16.310  -1.371  1.00 20.00     0.066 A 
HETATM    2  C2  UNL     1     -33.994  17.610  -1.351  1.00 20.00     0.068 A 
HETATM    3  C3  UNL     1     -34.441  15.943  -2.689  1.00 20.00     0.094 A 
HETATM    4  N8  UNL     1     -33.603  18.018  -2.562  1.00 20.00    -0.133 NA
HETATM    5  O9  UNL     1     -33.890  16.953  -3.409  1.00 20.00    -0.216 OA
ENDROOT
BRANCH   2   6
HETATM    6  C7  UNL     1     -33.833  18.530  -0.155  1.00 20.00     0.032 C 
HETATM    7  C4  UNL     1     -32.357  18.793   0.159  1.00 20.00     0.016 C 
HETATM    8  C5  UNL     1     -34.564  17.987   1.075  1.00 20.00     0.016 C 
ENDBRANCH   2   6
BRANCH   3   9
HETATM    9  C6  UNL     1     -34.809  14.733  -3.433  1.00 20.00     0.181 C 
HETATM   10 CL10 UNL     1     -33.379  13.720  -3.780  1.00 20.00    -0.123 Cl
ENDBRANCH   3   9
TORSDOF 2
ENDMDL
MODEL 9
REMARK VINA RESULT:      -3.9     11.795     12.374
REMARK  2 active torsions:
REMARK  status: ('A' for Active; 'I' for Inactive)
REMARK    1  A    between atoms: C2_2  and  C7_7 
REMARK    2  A    between atoms: C3_3  and  C6_6 
ROOT
HETATM    1  C1  UNL     1     -34.402  16.557  -1.146  1.00 20.00     0.066 A 
HETATM    2  C2  UNL     1     -34.307  16.083  -2.467  1.00 20.00     0.068 A 
HETATM    3  C3  UNL     1     -33.881  17.822  -1.216  1.00 20.00     0.094 A 
HETATM    4  N8  UNL     1     -33.768  16.985  -3.292  1.00 20.00    -0.133 NA
HETATM    5  O9  UNL     1     -33.499  18.089  -2.491  1.00 20.00    -0.216 OA
ENDROOT
BRANCH   2   6
HETATM    6  C7  UNL     1     -34.732  14.729  -3.001  1.00 20.00     0.032 C 
HETATM    7  C4  UNL     1     -33.644  14.100  -3.876  1.00 20.00     0.016 C 
HETATM    8  C5  UNL     1     -36.059  14.814  -3.759  1.00 20.00     0.016 C 
ENDBRANCH   2   6
BRANCH   3   9
HETATM    9  C6  UNL     1     -33.665  18.888  -0.231  1.00 20.00     0.181 C 
HETATM   10 CL10 UNL     1     -31.935  19.056   0.180  1.00 20.00    -0.123 Cl
ENDBRANCH   3   9
TORSDOF 2
ENDMDL
