MODEL 1
REMARK VINA RESULT:      -4.9      0.000      0.000
REMARK  0 active torsions:
REMARK  status: ('A' for Active; 'I' for Inactive)
ROOT
HETATM    1  C1  UNL     1     -32.653   7.165   3.011  1.00 20.00     0.105 C 
HETATM    2  C2  UNL     1     -34.012   5.945   6.256  1.00 20.00     0.068 A 
HETATM    3  C3  UNL     1     -35.040   4.702   4.458  1.00 20.00     0.068 A 
HETATM    4  C4  UNL     1     -33.413   6.417   3.963  1.00 20.00     0.121 A 
HETATM    5  C5  UNL     1     -33.270   6.674   5.327  1.00 20.00     0.141 A 
HETATM    6  C6  UNL     1     -34.298   5.430   3.528  1.00 20.00     0.141 A 
HETATM    7  C7  UNL     1     -34.898   4.958   5.821  1.00 20.00     0.040 A 
HETATM    8  N8  UNL     1     -32.035   7.771   2.238  1.00 20.00    -0.191 NA
HETATM    9  F9  UNL     1     -32.423   7.619   5.760  1.00 20.00    -0.204 F 
HETATM   10  F10 UNL     1     -34.448   5.172   2.221  1.00 20.00    -0.204 F 
HETATM   11 CL11 UNL     1     -35.814   4.059   6.967  1.00 20.00    -0.084 Cl
ENDROOT
TORSDOF 0
ENDMDL
MODEL 2
REMARK VINA RESULT:      -4.9      0.031      2.497
REMARK  0 active torsions:
REMARK  status: ('A' for Active; 'I' for Inactive)
ROOT
HETATM    1  C1  UNL     1     -32.640   7.197   3.018  1.00 20.00     0.105 C 
HETATM    2  C2  UNL     1     -35.036   4.731   4.445  1.00 20.00     0.068 A 
HETATM    3  C3  UNL     1     -34.009   5.963   6.252  1.00 20.00     0.068 A 
HETATM    4  C4  UNL     1     -33.404   6.446   3.964  1.00 20.00     0.121 A 
HETATM    5  C5  UNL     1     -34.291   5.464   3.523  1.00 20.00     0.141 A 
HETATM    6  C6  UNL     1     -33.263   6.696   5.329  1.00 20.00     0.141 A 
HETATM    7  C7  UNL     1     -34.895   4.980   5.811  1.00 20.00     0.040 A 
HETATM    8  N8  UNL     1     -32.020   7.807   2.249  1.00 20.00    -0.191 NA
HETATM    9  F9  UNL     1     -34.437   5.213   2.213  1.00 20.00    -0.204 F 
HETATM   10  F10 UNL     1     -32.414   7.636   5.769  1.00 20.00    -0.204 F 
HETATM   11 CL11 UNL     1     -35.815   4.076   6.951  1.00 20.00    -0.084 Cl
ENDROOT
TORSDOF 0
ENDMDL
MODEL 3
REMARK VINA RESULT:      -4.6     12.142     12.673
REMARK  0 active torsions:
REMARK  status: ('A' for Active; 'I' for Inactive)
ROOT
HETATM    1  C1  UNL     1     -34.786  13.611  -4.202  1.00 20.00     0.105 C 
HETATM    2  C2  UNL     1     -33.683  16.718  -2.472  1.00 20.00     0.068 A 
HETATM    3  C3  UNL     1     -36.098  16.666  -2.526  1.00 20.00     0.068 A 
HETATM    4  C4  UNL     1     -34.828  14.861  -3.511  1.00 20.00     0.121 A 
HETATM    5  C5  UNL     1     -33.642  15.498  -3.146  1.00 20.00     0.141 A 
HETATM    6  C6  UNL     1     -36.057  15.445  -3.200  1.00 20.00     0.141 A 
HETATM    7  C7  UNL     1     -34.911  17.302  -2.162  1.00 20.00     0.040 A 
HETATM    8  N8  UNL     1     -34.751  12.595  -4.762  1.00 20.00    -0.191 NA
HETATM    9  F9  UNL     1     -32.453  14.949  -3.437  1.00 20.00    -0.204 F 
HETATM   10  F10 UNL     1     -37.206  14.846  -3.545  1.00 20.00    -0.204 F 
HETATM   11 CL11 UNL     1     -34.963  18.808  -1.330  1.00 20.00    -0.084 Cl
ENDROOT
TORSDOF 0
ENDMDL
MODEL 4
REMARK VINA RESULT:      -4.6     12.127     12.779
REMARK  0 active torsions:
REMARK  status: ('A' for Active; 'I' for Inactive)
ROOT
HETATM    1  C1  UNL     1     -34.802  13.615  -4.180  1.00 20.00     0.105 C 
HETATM    2  C2  UNL     1     -36.109  16.681  -2.520  1.00 20.00     0.068 A 
HETATM    3  C3  UNL     1     -33.695  16.715  -2.441  1.00 20.00     0.068 A 
HETATM    4  C4  UNL     1     -34.842  14.866  -3.490  1.00 20.00     0.121 A 
HETATM    5  C5  UNL     1     -36.069  15.460  -3.193  1.00 20.00     0.141 A 
HETATM    6  C6  UNL     1     -33.654  15.494  -3.114  1.00 20.00     0.141 A 
HETATM    7  C7  UNL     1     -34.921  17.309  -2.143  1.00 20.00     0.040 A 
HETATM    8  N8  UNL     1     -34.769  12.600  -4.741  1.00 20.00    -0.191 NA
HETATM    9  F9  UNL     1     -37.219  14.869  -3.549  1.00 20.00    -0.204 F 
HETATM   10  F10 UNL     1     -32.467  14.936  -3.392  1.00 20.00    -0.204 F 
HETATM   11 CL11 UNL     1     -34.970  18.815  -1.312  1.00 20.00    -0.084 Cl
ENDROOT
TORSDOF 0
ENDMDL
MODEL 5
REMARK VINA RESULT:      -4.6     13.175     14.683
REMARK  0 active torsions:
REMARK  status: ('A' for Active; 'I' for Inactive)
ROOT
HETATM    1  C1  UNL     1     -34.597  13.641  -4.874  1.00 20.00     0.105 C 
HETATM    2  C2  UNL     1     -34.365  16.625  -7.088  1.00 20.00     0.068 A 
HETATM    3  C3  UNL     1     -33.570  17.219  -4.885  1.00 20.00     0.068 A 
HETATM    4  C4  UNL     1     -34.341  14.973  -5.326  1.00 20.00     0.121 A 
HETATM    5  C5  UNL     1     -34.614  15.326  -6.647  1.00 20.00     0.141 A 
HETATM    6  C6  UNL     1     -33.819  15.920  -4.444  1.00 20.00     0.141 A 
HETATM    7  C7  UNL     1     -33.843  17.573  -6.207  1.00 20.00     0.040 A 
HETATM    8  N8  UNL     1     -34.804  12.559  -4.508  1.00 20.00    -0.191 NA
HETATM    9  F9  UNL     1     -35.116  14.427  -7.506  1.00 20.00    -0.204 F 
HETATM   10  F10 UNL     1     -33.552  15.596  -3.171  1.00 20.00    -0.204 F 
HETATM   11 CL11 UNL     1     -33.536  19.177  -6.750  1.00 20.00    -0.084 Cl
ENDROOT
TORSDOF 0
ENDMDL
MODEL 6
REMARK VINA RESULT:      -4.6     13.137     14.442
REMARK  0 active torsions:
REMARK  status: ('A' for Active; 'I' for Inactive)
ROOT
HETATM    1  C1  UNL     1     -34.600  13.623  -4.871  1.00 20.00     0.105 C 
HETATM    2  C2  UNL     1     -33.590  17.205  -4.795  1.00 20.00     0.068 A 
HETATM    3  C3  UNL     1     -34.352  16.653  -7.020  1.00 20.00     0.068 A 
HETATM    4  C4  UNL     1     -34.345  14.965  -5.292  1.00 20.00     0.121 A 
HETATM    5  C5  UNL     1     -33.839  15.896  -4.386  1.00 20.00     0.141 A 
HETATM    6  C6  UNL     1     -34.602  15.343  -6.610  1.00 20.00     0.141 A 
HETATM    7  C7  UNL     1     -33.846  17.584  -6.114  1.00 20.00     0.040 A 
HETATM    8  N8  UNL     1     -34.808  12.533  -4.529  1.00 20.00    -0.191 NA
HETATM    9  F9  UNL     1     -33.587  15.547  -3.115  1.00 20.00    -0.204 F 
HETATM   10  F10 UNL     1     -35.087  14.459  -7.494  1.00 20.00    -0.204 F 
HETATM   11 CL11 UNL     1     -33.538  19.200  -6.621  1.00 20.00    -0.084 Cl
ENDROOT
TORSDOF 0
ENDMDL
MODEL 7
REMARK VINA RESULT:      -4.6     12.149     13.337
REMARK  0 active torsions:
REMARK  status: ('A' for Active; 'I' for Inactive)
ROOT
HETATM    1  C1  UNL     1     -33.616  18.275  -2.273  1.00 20.00     0.105 C 
HETATM    2  C2  UNL     1     -34.644  14.772  -3.002  1.00 20.00     0.068 A 
HETATM    3  C3  UNL     1     -33.819  15.786  -5.034  1.00 20.00     0.068 A 
HETATM    4  C4  UNL     1     -33.866  17.059  -2.981  1.00 20.00     0.121 A 
HETATM    5  C5  UNL     1     -34.400  15.959  -2.312  1.00 20.00     0.141 A 
HETATM    6  C6  UNL     1     -33.574  16.973  -4.343  1.00 20.00     0.141 A 
HETATM    7  C7  UNL     1     -34.353  14.685  -4.364  1.00 20.00     0.040 A 
HETATM    8  N8  UNL     1     -33.412  19.263  -1.698  1.00 20.00    -0.191 NA
HETATM    9  F9  UNL     1     -34.685  16.027  -1.003  1.00 20.00    -0.204 F 
HETATM   10  F10 UNL     1     -33.061  18.023  -5.001  1.00 20.00    -0.204 F 
HETATM   11 CL11 UNL     1     -34.654  13.222  -5.218  1.00 20.00    -0.084 Cl
ENDROOT
TORSDOF 0
ENDMDL
MODEL 8
REMARK VINA RESULT:      -4.5     12.214     13.398
REMARK  0 active torsions:
REMARK  status: ('A' for Active; 'I' for Inactive)
ROOT
HETATM    1  C1  UNL     1     -34.412  15.145  -6.415  1.00 20.00     0.105 C 
HETATM    2  C2  UNL     1     -35.161  15.067  -2.768  1.00 20.00     0.068 A 
HETATM    3  C3  UNL     1     -33.792  17.000  -3.247  1.00 20.00     0.068 A 
HETATM    4  C4  UNL     1     -34.438  15.506  -5.032  1.00 20.00     0.121 A 
HETATM    5  C5  UNL     1     -35.135  14.716  -4.118  1.00 20.00     0.141 A 
HETATM    6  C6  UNL     1     -33.767  16.649  -4.597  1.00 20.00     0.141 A 
HETATM    7  C7  UNL     1     -34.489  16.210  -2.332  1.00 20.00     0.040 A 
HETATM    8  N8  UNL     1     -34.392  14.853  -7.538  1.00 20.00    -0.191 NA
HETATM    9  F9  UNL     1     -35.785  13.614  -4.522  1.00 20.00    -0.204 F 
HETATM   10  F10 UNL     1     -33.092  17.418  -5.463  1.00 20.00    -0.204 F 
HETATM   11 CL11 UNL     1     -34.520  16.644  -0.667  1.00 20.00    -0.084 Cl
ENDROOT
TORSDOF 0
ENDMDL
MODEL 9
REMARK VINA RESULT:      -4.5     12.226     13.266
REMARK  0 active torsions:
REMARK  status: ('A' for Active; 'I' for Inactive)
ROOT
HETATM    1  C1  UNL     1     -34.448  15.140  -6.369  1.00 20.00     0.105 C 
HETATM    2  C2  UNL     1     -33.757  16.995  -3.216  1.00 20.00     0.068 A 
HETATM    3  C3  UNL     1     -35.198  15.120  -2.723  1.00 20.00     0.068 A 
HETATM    4  C4  UNL     1     -34.460  15.512  -4.989  1.00 20.00     0.121 A 
HETATM    5  C5  UNL     1     -33.746  16.631  -4.562  1.00 20.00     0.141 A 
HETATM    6  C6  UNL     1     -35.187  14.756  -4.069  1.00 20.00     0.141 A 
HETATM    7  C7  UNL     1     -34.484  16.239  -2.295  1.00 20.00     0.040 A 
HETATM    8  N8  UNL     1     -34.438  14.837  -7.490  1.00 20.00    -0.191 NA
HETATM    9  F9  UNL     1     -33.042  17.368  -5.435  1.00 20.00    -0.204 F 
HETATM   10  F10 UNL     1     -35.880  13.678  -4.464  1.00 20.00    -0.204 F 
HETATM   11 CL11 UNL     1     -34.498  16.687  -0.634  1.00 20.00    -0.084 Cl
ENDROOT
TORSDOF 0
ENDMDL
