MODEL 1
REMARK VINA RESULT:      -4.6      0.000      0.000
REMARK  1 active torsions:
REMARK  status: ('A' for Active; 'I' for Inactive)
REMARK    1  A    between atoms: C3_3  and  C8_8 
ROOT
HETATM    1  C1  UNL     1     -33.400  16.621  -4.246  1.00 20.00    -0.026 C 
HETATM    2  C2  UNL     1     -33.059  15.399  -3.810  1.00 20.00    -0.025 C 
HETATM    3  C4  UNL     1     -34.694  16.182  -2.381  1.00 20.00     0.018 C 
HETATM    4  C5  UNL     1     -35.776  15.995  -4.493  1.00 20.00     0.022 C 
HETATM    5  C6  UNL     1     -34.789  16.905  -3.728  1.00 20.00     0.009 C 
HETATM    6  C7  UNL     1     -34.228  14.865  -3.011  1.00 20.00     0.021 C 
HETATM    7  C8  UNL     1     -35.413  14.578  -3.964  1.00 20.00     0.080 C 
ENDROOT
BRANCH   7   8
HETATM    8  C3  UNL     1     -35.078  13.611  -5.056  1.00 20.00     0.223 C 
HETATM    9  O9  UNL     1     -34.763  12.449  -4.817  1.00 20.00    -0.279 OA
HETATM   10 CL10 UNL     1     -35.194  14.337  -6.630  1.00 20.00    -0.043 Cl
ENDBRANCH   7   8
TORSDOF 1
ENDMDL
MODEL 2
REMARK VINA RESULT:      -4.5      1.558      2.198
REMARK  1 active torsions:
REMARK  status: ('A' for Active; 'I' for Inactive)
REMARK    1  A    between atoms: C3_3  and  C8_8 
ROOT
HETATM    1  C1  UNL     1     -33.415  13.800  -3.815  1.00 20.00    -0.026 C 
HETATM    2  C2  UNL     1     -34.740  13.602  -3.858  1.00 20.00    -0.025 C 
HETATM    3  C4  UNL     1     -34.396  15.536  -2.645  1.00 20.00     0.018 C 
HETATM    4  C5  UNL     1     -33.601  16.043  -4.831  1.00 20.00     0.022 C 
HETATM    5  C6  UNL     1     -33.193  15.271  -3.556  1.00 20.00     0.009 C 
HETATM    6  C7  UNL     1     -35.402  14.945  -3.639  1.00 20.00     0.021 C 
HETATM    7  C8  UNL     1     -35.144  15.851  -4.868  1.00 20.00     0.080 C 
ENDROOT
BRANCH   7   8
HETATM    8  C3  UNL     1     -35.633  15.262  -6.154  1.00 20.00     0.223 C 
HETATM    9  O9  UNL     1     -36.826  15.054  -6.358  1.00 20.00    -0.279 OA
HETATM   10 CL10 UNL     1     -34.333  14.933  -7.258  1.00 20.00    -0.043 Cl
ENDBRANCH   7   8
TORSDOF 1
ENDMDL
MODEL 3
REMARK VINA RESULT:      -4.4      2.042      2.671
REMARK  1 active torsions:
REMARK  status: ('A' for Active; 'I' for Inactive)
REMARK    1  A    between atoms: C3_3  and  C8_8 
ROOT
HETATM    1  C1  UNL     1     -34.170  15.069  -5.742  1.00 20.00    -0.026 C 
HETATM    2  C2  UNL     1     -35.030  14.042  -5.688  1.00 20.00    -0.025 C 
HETATM    3  C4  UNL     1     -33.607  13.812  -3.885  1.00 20.00     0.018 C 
HETATM    4  C5  UNL     1     -34.778  15.845  -3.477  1.00 20.00     0.022 C 
HETATM    5  C6  UNL     1     -33.634  15.273  -4.345  1.00 20.00     0.009 C 
HETATM    6  C7  UNL     1     -35.075  13.568  -4.251  1.00 20.00     0.021 C 
HETATM    7  C8  UNL     1     -35.763  14.645  -3.377  1.00 20.00     0.080 C 
ENDROOT
BRANCH   7   8
HETATM    8  C3  UNL     1     -37.149  14.984  -3.830  1.00 20.00     0.223 C 
HETATM    9  O9  UNL     1     -38.066  14.170  -3.769  1.00 20.00    -0.279 OA
HETATM   10 CL10 UNL     1     -37.263  16.611  -4.427  1.00 20.00    -0.043 Cl
ENDBRANCH   7   8
TORSDOF 1
ENDMDL
MODEL 4
REMARK VINA RESULT:      -4.3      2.869      3.715
REMARK  1 active torsions:
REMARK  status: ('A' for Active; 'I' for Inactive)
REMARK    1  A    between atoms: C3_3  and  C8_8 
ROOT
HETATM    1  C1  UNL     1     -35.641  15.140  -5.063  1.00 20.00    -0.026 C 
HETATM    2  C2  UNL     1     -35.863  14.933  -3.756  1.00 20.00    -0.025 C 
HETATM    3  C4  UNL     1     -33.989  13.706  -4.315  1.00 20.00     0.018 C 
HETATM    4  C5  UNL     1     -33.352  15.974  -4.659  1.00 20.00     0.022 C 
HETATM    5  C6  UNL     1     -34.182  14.849  -5.317  1.00 20.00     0.009 C 
HETATM    6  C7  UNL     1     -34.547  14.515  -3.138  1.00 20.00     0.021 C 
HETATM    7  C8  UNL     1     -33.572  15.718  -3.141  1.00 20.00     0.080 C 
ENDROOT
BRANCH   7   8
HETATM    8  C3  UNL     1     -34.102  16.914  -2.414  1.00 20.00     0.223 C 
HETATM    9  O9  UNL     1     -34.166  18.018  -2.947  1.00 20.00    -0.279 OA
HETATM   10 CL10 UNL     1     -34.585  16.532  -0.789  1.00 20.00    -0.043 Cl
ENDBRANCH   7   8
TORSDOF 1
ENDMDL
MODEL 5
REMARK VINA RESULT:      -4.3      0.873      1.993
REMARK  1 active torsions:
REMARK  status: ('A' for Active; 'I' for Inactive)
REMARK    1  A    between atoms: C3_3  and  C8_8 
ROOT
HETATM    1  C1  UNL     1     -35.118  15.782  -2.404  1.00 20.00    -0.026 C 
HETATM    2  C2  UNL     1     -35.781  15.955  -3.557  1.00 20.00    -0.025 C 
HETATM    3  C4  UNL     1     -33.799  17.123  -3.748  1.00 20.00     0.018 C 
HETATM    4  C5  UNL     1     -33.142  14.843  -3.550  1.00 20.00     0.022 C 
HETATM    5  C6  UNL     1     -33.655  16.022  -2.693  1.00 20.00     0.009 C 
HETATM    6  C7  UNL     1     -34.758  16.300  -4.616  1.00 20.00     0.021 C 
HETATM    7  C8  UNL     1     -33.878  15.059  -4.903  1.00 20.00     0.080 C 
ENDROOT
BRANCH   7   8
HETATM    8  C3  UNL     1     -34.662  13.862  -5.343  1.00 20.00     0.223 C 
HETATM    9  O9  UNL     1     -34.702  12.834  -4.673  1.00 20.00    -0.279 OA
HETATM   10 CL10 UNL     1     -35.462  14.127  -6.863  1.00 20.00    -0.043 Cl
ENDBRANCH   7   8
TORSDOF 1
ENDMDL
MODEL 6
REMARK VINA RESULT:      -4.3     11.605     12.456
REMARK  1 active torsions:
REMARK  status: ('A' for Active; 'I' for Inactive)
REMARK    1  A    between atoms: C3_3  and  C8_8 
ROOT
HETATM    1  C1  UNL     1     -42.883   5.249   0.325  1.00 20.00    -0.026 C 
HETATM    2  C2  UNL     1     -43.054   6.492  -0.147  1.00 20.00    -0.025 C 
HETATM    3  C4  UNL     1     -40.779   6.170   0.068  1.00 20.00     0.018 C 
HETATM    4  C5  UNL     1     -41.458   4.597  -1.585  1.00 20.00     0.022 C 
HETATM    5  C6  UNL     1     -41.487   4.818  -0.055  1.00 20.00     0.009 C 
HETATM    6  C7  UNL     1     -41.774   6.885  -0.852  1.00 20.00     0.021 C 
HETATM    7  C8  UNL     1     -41.617   6.041  -2.141  1.00 20.00     0.080 C 
ENDROOT
BRANCH   7   8
HETATM    8  C3  UNL     1     -42.768   6.183  -3.088  1.00 20.00     0.223 C 
HETATM    9  O9  UNL     1     -43.416   5.212  -3.467  1.00 20.00    -0.279 OA
HETATM   10 CL10 UNL     1     -43.034   7.836  -3.552  1.00 20.00    -0.043 Cl
ENDBRANCH   7   8
TORSDOF 1
ENDMDL
MODEL 7
REMARK VINA RESULT:      -4.3      1.200      1.376
REMARK  1 active torsions:
REMARK  status: ('A' for Active; 'I' for Inactive)
REMARK    1  A    between atoms: C3_3  and  C8_8 
ROOT
HETATM    1  C1  UNL     1     -34.743  17.105  -4.477  1.00 20.00    -0.026 C 
HETATM    2  C2  UNL     1     -33.540  16.611  -4.148  1.00 20.00    -0.025 C 
HETATM    3  C4  UNL     1     -34.729  16.829  -2.182  1.00 20.00     0.018 C 
HETATM    4  C5  UNL     1     -35.934  15.206  -3.440  1.00 20.00     0.022 C 
HETATM    5  C6  UNL     1     -35.695  16.731  -3.367  1.00 20.00     0.009 C 
HETATM    6  C7  UNL     1     -33.695  15.897  -2.822  1.00 20.00     0.021 C 
HETATM    7  C8  UNL     1     -34.553  14.624  -3.022  1.00 20.00     0.080 C 
ENDROOT
BRANCH   7   8
HETATM    8  C3  UNL     1     -33.985  13.675  -4.032  1.00 20.00     0.223 C 
HETATM    9  O9  UNL     1     -32.952  13.047  -3.818  1.00 20.00    -0.279 OA
HETATM   10 CL10 UNL     1     -34.950  13.600  -5.474  1.00 20.00    -0.043 Cl
ENDBRANCH   7   8
TORSDOF 1
ENDMDL
MODEL 8
REMARK VINA RESULT:      -4.2     11.773     12.658
REMARK  1 active torsions:
REMARK  status: ('A' for Active; 'I' for Inactive)
REMARK    1  A    between atoms: C3_3  and  C8_8 
ROOT
HETATM    1  C1  UNL     1     -42.642   5.292   0.480  1.00 20.00    -0.026 C 
HETATM    2  C2  UNL     1     -43.065   6.380  -0.180  1.00 20.00    -0.025 C 
HETATM    3  C4  UNL     1     -40.764   6.523  -0.069  1.00 20.00     0.018 C 
HETATM    4  C5  UNL     1     -41.186   4.586  -1.387  1.00 20.00     0.022 C 
HETATM    5  C6  UNL     1     -41.203   5.064   0.083  1.00 20.00     0.009 C 
HETATM    6  C7  UNL     1     -41.910   6.870  -1.026  1.00 20.00     0.021 C 
HETATM    7  C8  UNL     1     -41.640   5.855  -2.163  1.00 20.00     0.080 C 
ENDROOT
BRANCH   7   8
HETATM    8  C3  UNL     1     -42.828   5.614  -3.041  1.00 20.00     0.223 C 
HETATM    9  O9  UNL     1     -43.297   6.498  -3.752  1.00 20.00    -0.279 OA
HETATM   10 CL10 UNL     1     -43.417   3.984  -2.911  1.00 20.00    -0.043 Cl
ENDBRANCH   7   8
TORSDOF 1
ENDMDL
MODEL 9
REMARK VINA RESULT:      -4.2      1.834      2.367
REMARK  1 active torsions:
REMARK  status: ('A' for Active; 'I' for Inactive)
REMARK    1  A    between atoms: C3_3  and  C8_8 
ROOT
HETATM    1  C1  UNL     1     -33.810  17.227  -1.653  1.00 20.00    -0.026 C 
HETATM    2  C2  UNL     1     -34.637  16.187  -1.472  1.00 20.00    -0.025 C 
HETATM    3  C4  UNL     1     -35.629  17.560  -3.039  1.00 20.00     0.018 C 
HETATM    4  C5  UNL     1     -33.626  16.804  -4.080  1.00 20.00     0.022 C 
HETATM    5  C6  UNL     1     -34.118  17.808  -3.012  1.00 20.00     0.009 C 
HETATM    6  C7  UNL     1     -35.489  16.068  -2.717  1.00 20.00     0.021 C 
HETATM    7  C8  UNL     1     -34.606  15.609  -3.902  1.00 20.00     0.080 C 
ENDROOT
BRANCH   7   8
HETATM    8  C3  UNL     1     -33.907  14.308  -3.655  1.00 20.00     0.223 C 
HETATM    9  O9  UNL     1     -34.523  13.249  -3.580  1.00 20.00    -0.279 OA
HETATM   10 CL10 UNL     1     -32.189  14.508  -3.497  1.00 20.00    -0.043 Cl
ENDBRANCH   7   8
TORSDOF 1
ENDMDL
