MODEL 1
REMARK VINA RESULT:      -4.6      0.000      0.000
REMARK  3 active torsions:
REMARK  status: ('A' for Active; 'I' for Inactive)
REMARK    1  A    between atoms: C2_2  and  O6_6 
REMARK    2  A    between atoms: C3_3  and  C4_4 
REMARK    3  A    between atoms: C3_3  and  O6_6 
ROOT
HETATM    1  C1  UNL     1     -32.225   7.593   2.515  1.00 20.00     0.085 C 
HETATM    2  C2  UNL     1     -32.286   6.397   3.357  1.00 20.00     0.291 C 
HETATM    3  N5  UNL     1     -32.177   8.540   1.848  1.00 20.00    -0.195 NA
ENDROOT
BRANCH   2   4
HETATM    4  O6  UNL     1     -33.628   6.124   3.737  1.00 20.00    -0.369 OA
BRANCH   4   5
HETATM    5  C3  UNL     1     -33.811   6.259   5.140  1.00 20.00     0.286 C 
BRANCH   5   6
HETATM    6  C4  UNL     1     -34.728   5.166   5.624  1.00 20.00     0.408 C 
HETATM    7  F7  UNL     1     -35.742   4.975   4.752  1.00 20.00    -0.169 F 
HETATM    8  F8  UNL     1     -35.269   5.476   6.821  1.00 20.00    -0.169 F 
HETATM    9  F9  UNL     1     -34.070   3.996   5.752  1.00 20.00    -0.169 F 
ENDBRANCH   5   6
ENDBRANCH   4   5
ENDBRANCH   2   4
TORSDOF 3
ENDMDL
MODEL 2
REMARK VINA RESULT:      -4.6      0.127      1.264
REMARK  3 active torsions:
REMARK  status: ('A' for Active; 'I' for Inactive)
REMARK    1  A    between atoms: C2_2  and  O6_6 
REMARK    2  A    between atoms: C3_3  and  C4_4 
REMARK    3  A    between atoms: C3_3  and  O6_6 
ROOT
HETATM    1  C1  UNL     1     -32.216   7.615   2.505  1.00 20.00     0.085 C 
HETATM    2  C2  UNL     1     -32.246   6.401   3.321  1.00 20.00     0.291 C 
HETATM    3  N5  UNL     1     -32.192   8.577   1.857  1.00 20.00    -0.195 NA
ENDROOT
BRANCH   2   4
HETATM    4  O6  UNL     1     -33.586   6.054   3.647  1.00 20.00    -0.369 OA
BRANCH   4   5
HETATM    5  C3  UNL     1     -33.837   6.196   5.038  1.00 20.00     0.286 C 
BRANCH   5   6
HETATM    6  C4  UNL     1     -34.776   5.104   5.482  1.00 20.00     0.408 C 
HETATM    7  F7  UNL     1     -35.331   5.409   6.675  1.00 20.00    -0.169 F 
HETATM    8  F8  UNL     1     -34.128   3.928   5.619  1.00 20.00    -0.169 F 
HETATM    9  F9  UNL     1     -35.778   4.930   4.595  1.00 20.00    -0.169 F 
ENDBRANCH   5   6
ENDBRANCH   4   5
ENDBRANCH   2   4
TORSDOF 3
ENDMDL
MODEL 3
REMARK VINA RESULT:      -4.6      0.125      1.266
REMARK  3 active torsions:
REMARK  status: ('A' for Active; 'I' for Inactive)
REMARK    1  A    between atoms: C2_2  and  O6_6 
REMARK    2  A    between atoms: C3_3  and  C4_4 
REMARK    3  A    between atoms: C3_3  and  O6_6 
ROOT
HETATM    1  C1  UNL     1     -32.220   7.609   2.507  1.00 20.00     0.085 C 
HETATM    2  C2  UNL     1     -32.249   6.392   3.319  1.00 20.00     0.291 C 
HETATM    3  N5  UNL     1     -32.196   8.573   1.863  1.00 20.00    -0.195 NA
ENDROOT
BRANCH   2   4
HETATM    4  O6  UNL     1     -33.588   6.046   3.649  1.00 20.00    -0.369 OA
BRANCH   4   5
HETATM    5  C3  UNL     1     -33.837   6.195   5.040  1.00 20.00     0.286 C 
BRANCH   5   6
HETATM    6  C4  UNL     1     -34.778   5.107   5.490  1.00 20.00     0.408 C 
HETATM    7  F7  UNL     1     -34.122   3.933   5.614  1.00 20.00    -0.169 F 
HETATM    8  F8  UNL     1     -35.778   4.927   4.601  1.00 20.00    -0.169 F 
HETATM    9  F9  UNL     1     -35.328   5.400   6.686  1.00 20.00    -0.169 F 
ENDBRANCH   5   6
ENDBRANCH   4   5
ENDBRANCH   2   4
TORSDOF 3
ENDMDL
MODEL 4
REMARK VINA RESULT:      -4.6      1.168      1.590
REMARK  3 active torsions:
REMARK  status: ('A' for Active; 'I' for Inactive)
REMARK    1  A    between atoms: C2_2  and  O6_6 
REMARK    2  A    between atoms: C3_3  and  C4_4 
REMARK    3  A    between atoms: C3_3  and  O6_6 
ROOT
HETATM    1  C1  UNL     1     -32.544   7.021   2.915  1.00 20.00     0.085 C 
HETATM    2  C2  UNL     1     -33.307   5.833   3.302  1.00 20.00     0.291 C 
HETATM    3  N5  UNL     1     -31.940   7.962   2.608  1.00 20.00    -0.195 NA
ENDROOT
BRANCH   2   4
HETATM    4  O6  UNL     1     -34.483   6.205   4.007  1.00 20.00    -0.369 OA
BRANCH   4   5
HETATM    5  C3  UNL     1     -35.164   5.069   4.522  1.00 20.00     0.286 C 
BRANCH   5   6
HETATM    6  C4  UNL     1     -34.756   4.859   5.957  1.00 20.00     0.408 C 
HETATM    7  F7  UNL     1     -34.373   6.027   6.518  1.00 20.00    -0.169 F 
HETATM    8  F8  UNL     1     -33.720   3.999   6.050  1.00 20.00    -0.169 F 
HETATM    9  F9  UNL     1     -35.777   4.367   6.689  1.00 20.00    -0.169 F 
ENDBRANCH   5   6
ENDBRANCH   4   5
ENDBRANCH   2   4
TORSDOF 3
ENDMDL
MODEL 5
REMARK VINA RESULT:      -4.5      3.503      4.368
REMARK  3 active torsions:
REMARK  status: ('A' for Active; 'I' for Inactive)
REMARK    1  A    between atoms: C2_2  and  O6_6 
REMARK    2  A    between atoms: C3_3  and  C4_4 
REMARK    3  A    between atoms: C3_3  and  O6_6 
ROOT
HETATM    1  C1  UNL     1     -34.801   4.669   5.639  1.00 20.00     0.085 C 
HETATM    2  C2  UNL     1     -34.424   5.966   6.202  1.00 20.00     0.291 C 
HETATM    3  N5  UNL     1     -35.101   3.641   5.193  1.00 20.00    -0.195 NA
ENDROOT
BRANCH   2   4
HETATM    4  O6  UNL     1     -33.377   6.553   5.440  1.00 20.00    -0.369 OA
BRANCH   4   5
HETATM    5  C3  UNL     1     -33.683   6.560   4.052  1.00 20.00     0.286 C 
BRANCH   5   6
HETATM    6  C4  UNL     1     -32.417   6.797   3.271  1.00 20.00     0.408 C 
HETATM    7  F7  UNL     1     -31.872   5.624   2.880  1.00 20.00    -0.169 F 
HETATM    8  F8  UNL     1     -31.497   7.448   4.015  1.00 20.00    -0.169 F 
HETATM    9  F9  UNL     1     -32.655   7.529   2.164  1.00 20.00    -0.169 F 
ENDBRANCH   5   6
ENDBRANCH   4   5
ENDBRANCH   2   4
TORSDOF 3
ENDMDL
MODEL 6
REMARK VINA RESULT:      -4.4      1.485      1.834
REMARK  3 active torsions:
REMARK  status: ('A' for Active; 'I' for Inactive)
REMARK    1  A    between atoms: C2_2  and  O6_6 
REMARK    2  A    between atoms: C3_3  and  C4_4 
REMARK    3  A    between atoms: C3_3  and  O6_6 
ROOT
HETATM    1  C1  UNL     1     -32.005   8.039   2.291  1.00 20.00     0.085 C 
HETATM    2  C2  UNL     1     -31.817   7.283   3.530  1.00 20.00     0.291 C 
HETATM    3  N5  UNL     1     -32.152   8.639   1.309  1.00 20.00    -0.195 NA
ENDROOT
BRANCH   2   4
HETATM    4  O6  UNL     1     -32.598   6.095   3.509  1.00 20.00    -0.369 OA
BRANCH   4   5
HETATM    5  C3  UNL     1     -33.859   6.289   4.136  1.00 20.00     0.286 C 
BRANCH   5   6
HETATM    6  C4  UNL     1     -34.844   5.297   3.575  1.00 20.00     0.408 C 
HETATM    7  F7  UNL     1     -34.456   4.881   2.350  1.00 20.00    -0.169 F 
HETATM    8  F8  UNL     1     -36.073   5.842   3.454  1.00 20.00    -0.169 F 
HETATM    9  F9  UNL     1     -34.945   4.208   4.365  1.00 20.00    -0.169 F 
ENDBRANCH   5   6
ENDBRANCH   4   5
ENDBRANCH   2   4
TORSDOF 3
ENDMDL
MODEL 7
REMARK VINA RESULT:      -4.2      3.586      4.413
REMARK  3 active torsions:
REMARK  status: ('A' for Active; 'I' for Inactive)
REMARK    1  A    between atoms: C2_2  and  O6_6 
REMARK    2  A    between atoms: C3_3  and  C4_4 
REMARK    3  A    between atoms: C3_3  and  O6_6 
ROOT
HETATM    1  C1  UNL     1     -35.154   4.683   5.201  1.00 20.00     0.085 C 
HETATM    2  C2  UNL     1     -35.488   5.228   3.885  1.00 20.00     0.291 C 
HETATM    3  N5  UNL     1     -34.889   4.250   6.244  1.00 20.00    -0.195 NA
ENDROOT
BRANCH   2   4
HETATM    4  O6  UNL     1     -34.309   5.625   3.197  1.00 20.00    -0.369 OA
BRANCH   4   5
HETATM    5  C3  UNL     1     -33.580   6.598   3.931  1.00 20.00     0.286 C 
BRANCH   5   6
HETATM    6  C4  UNL     1     -32.257   6.837   3.251  1.00 20.00     0.408 C 
HETATM    7  F7  UNL     1     -31.423   7.526   4.061  1.00 20.00    -0.169 F 
HETATM    8  F8  UNL     1     -32.412   7.553   2.117  1.00 20.00    -0.169 F 
HETATM    9  F9  UNL     1     -31.653   5.674   2.933  1.00 20.00    -0.169 F 
ENDBRANCH   5   6
ENDBRANCH   4   5
ENDBRANCH   2   4
TORSDOF 3
ENDMDL
MODEL 8
REMARK VINA RESULT:      -4.0      3.258      4.075
REMARK  3 active torsions:
REMARK  status: ('A' for Active; 'I' for Inactive)
REMARK    1  A    between atoms: C2_2  and  O6_6 
REMARK    2  A    between atoms: C3_3  and  C4_4 
REMARK    3  A    between atoms: C3_3  and  O6_6 
ROOT
HETATM    1  C1  UNL     1     -34.051   6.416   6.319  1.00 20.00     0.085 C 
HETATM    2  C2  UNL     1     -34.606   5.331   5.508  1.00 20.00     0.291 C 
HETATM    3  N5  UNL     1     -33.612   7.275   6.963  1.00 20.00    -0.195 NA
ENDROOT
BRANCH   2   4
HETATM    4  O6  UNL     1     -33.969   5.285   4.238  1.00 20.00    -0.369 OA
BRANCH   4   5
HETATM    5  C3  UNL     1     -33.861   6.579   3.661  1.00 20.00     0.286 C 
BRANCH   5   6
HETATM    6  C4  UNL     1     -32.457   6.776   3.153  1.00 20.00     0.408 C 
HETATM    7  F7  UNL     1     -32.453   7.560   2.054  1.00 20.00    -0.169 F 
HETATM    8  F8  UNL     1     -31.888   5.598   2.819  1.00 20.00    -0.169 F 
HETATM    9  F9  UNL     1     -31.678   7.367   4.083  1.00 20.00    -0.169 F 
ENDBRANCH   5   6
ENDBRANCH   4   5
ENDBRANCH   2   4
TORSDOF 3
ENDMDL
MODEL 9
REMARK VINA RESULT:      -3.9     11.642     12.237
REMARK  3 active torsions:
REMARK  status: ('A' for Active; 'I' for Inactive)
REMARK    1  A    between atoms: C2_2  and  O6_6 
REMARK    2  A    between atoms: C3_3  and  C4_4 
REMARK    3  A    between atoms: C3_3  and  O6_6 
ROOT
HETATM    1  C1  UNL     1     -34.060  13.639  -4.078  1.00 20.00     0.085 C 
HETATM    2  C2  UNL     1     -33.096  14.657  -3.657  1.00 20.00     0.291 C 
HETATM    3  N5  UNL     1     -34.823  12.832  -4.411  1.00 20.00    -0.195 NA
ENDROOT
BRANCH   2   4
HETATM    4  O6  UNL     1     -33.755  15.892  -3.409  1.00 20.00    -0.369 OA
BRANCH   4   5
HETATM    5  C3  UNL     1     -34.733  15.765  -2.385  1.00 20.00     0.286 C 
BRANCH   5   6
HETATM    6  C4  UNL     1     -34.482  16.814  -1.333  1.00 20.00     0.408 C 
HETATM    7  F7  UNL     1     -34.841  16.359  -0.113  1.00 20.00    -0.169 F 
HETATM    8  F8  UNL     1     -35.195  17.934  -1.580  1.00 20.00    -0.169 F 
HETATM    9  F9  UNL     1     -33.177  17.152  -1.280  1.00 20.00    -0.169 F 
ENDBRANCH   5   6
ENDBRANCH   4   5
ENDBRANCH   2   4
TORSDOF 3
ENDMDL
