MODEL 1
REMARK VINA RESULT:      -5.0      0.000      0.000
REMARK  0 active torsions:
REMARK  status: ('A' for Active; 'I' for Inactive)
ROOT
HETATM    1  C1  UNL     1     -33.676  17.816  -2.604  1.00 20.00     0.042 C 
HETATM    2  C2  UNL     1     -33.192  16.133  -4.445  1.00 20.00     0.042 C 
HETATM    3  C3  UNL     1     -35.800  16.060  -3.306  1.00 20.00     0.174 C 
HETATM    4  C4  UNL     1     -34.629  15.498  -2.487  1.00 20.00     0.017 C 
HETATM    5  C5  UNL     1     -34.002  16.646  -1.656  1.00 20.00    -0.009 C 
HETATM    6  C6  UNL     1     -33.532  14.997  -3.461  1.00 20.00    -0.009 C 
HETATM    7  C7  UNL     1     -33.968  17.409  -4.061  1.00 20.00     0.058 C 
HETATM    8  C8  UNL     1     -34.884  17.091  -0.489  1.00 20.00     0.010 C 
HETATM    9  C9  UNL     1     -33.920  13.712  -4.192  1.00 20.00     0.010 C 
HETATM   10  C10 UNL     1     -33.652  18.550  -5.022  1.00 20.00     0.046 C 
HETATM   11  O11 UNL     1     -35.376  17.122  -4.171  1.00 20.00    -0.380 OA
ENDROOT
TORSDOF 0
ENDMDL
MODEL 2
REMARK VINA RESULT:      -4.9      1.391      3.172
REMARK  0 active torsions:
REMARK  status: ('A' for Active; 'I' for Inactive)
ROOT
HETATM    1  C1  UNL     1     -34.897  15.608  -5.506  1.00 20.00     0.042 C 
HETATM    2  C2  UNL     1     -34.725  17.324  -3.639  1.00 20.00     0.042 C 
HETATM    3  C3  UNL     1     -32.862  15.173  -3.568  1.00 20.00     0.174 C 
HETATM    4  C4  UNL     1     -34.319  14.890  -3.172  1.00 20.00     0.017 C 
HETATM    5  C5  UNL     1     -35.119  14.514  -4.444  1.00 20.00    -0.009 C 
HETATM    6  C6  UNL     1     -34.946  16.193  -2.615  1.00 20.00    -0.009 C 
HETATM    7  C7  UNL     1     -34.061  16.756  -4.910  1.00 20.00     0.058 C 
HETATM    8  C8  UNL     1     -34.772  13.125  -4.981  1.00 20.00     0.010 C 
HETATM    9  C9  UNL     1     -34.417  16.571  -1.232  1.00 20.00     0.010 C 
HETATM   10  C10 UNL     1     -33.827  17.855  -5.941  1.00 20.00     0.046 C 
HETATM   11  O11 UNL     1     -32.773  16.225  -4.539  1.00 20.00    -0.380 OA
ENDROOT
TORSDOF 0
ENDMDL
MODEL 3
REMARK VINA RESULT:      -4.7      1.114      3.290
REMARK  0 active torsions:
REMARK  status: ('A' for Active; 'I' for Inactive)
ROOT
HETATM    1  C1  UNL     1     -33.701  15.833  -5.440  1.00 20.00     0.042 C 
HETATM    2  C2  UNL     1     -34.173  14.898  -3.124  1.00 20.00     0.042 C 
HETATM    3  C3  UNL     1     -35.846  17.028  -4.003  1.00 20.00     0.174 C 
HETATM    4  C4  UNL     1     -34.408  17.357  -3.575  1.00 20.00     0.017 C 
HETATM    5  C5  UNL     1     -33.475  17.219  -4.805  1.00 20.00    -0.009 C 
HETATM    6  C6  UNL     1     -33.942  16.305  -2.537  1.00 20.00    -0.009 C 
HETATM    7  C7  UNL     1     -34.679  15.014  -4.576  1.00 20.00     0.058 C 
HETATM    8  C8  UNL     1     -33.657  18.345  -5.823  1.00 20.00     0.010 C 
HETATM    9  C9  UNL     1     -34.614  16.467  -1.175  1.00 20.00     0.010 C 
HETATM   10  C10 UNL     1     -34.920  13.635  -5.182  1.00 20.00     0.046 C 
HETATM   11  O11 UNL     1     -35.943  15.707  -4.552  1.00 20.00    -0.380 OA
ENDROOT
TORSDOF 0
ENDMDL
MODEL 4
REMARK VINA RESULT:      -4.6      1.103      3.317
REMARK  0 active torsions:
REMARK  status: ('A' for Active; 'I' for Inactive)
ROOT
HETATM    1  C1  UNL     1     -35.981  14.992  -3.994  1.00 20.00     0.042 C 
HETATM    2  C2  UNL     1     -35.869  16.935  -2.360  1.00 20.00     0.042 C 
HETATM    3  C3  UNL     1     -33.633  16.595  -4.090  1.00 20.00     0.174 C 
HETATM    4  C4  UNL     1     -33.804  15.619  -2.915  1.00 20.00     0.017 C 
HETATM    5  C5  UNL     1     -34.686  14.432  -3.375  1.00 20.00    -0.009 C 
HETATM    6  C6  UNL     1     -34.573  16.337  -1.777  1.00 20.00    -0.009 C 
HETATM    7  C7  UNL     1     -36.016  16.524  -3.839  1.00 20.00     0.058 C 
HETATM    8  C8  UNL     1     -33.964  13.485  -4.334  1.00 20.00     0.010 C 
HETATM    9  C9  UNL     1     -33.735  17.394  -1.060  1.00 20.00     0.010 C 
HETATM   10  C10 UNL     1     -37.290  17.106  -4.443  1.00 20.00     0.046 C 
HETATM   11  O11 UNL     1     -34.899  17.073  -4.566  1.00 20.00    -0.380 OA
ENDROOT
TORSDOF 0
ENDMDL
MODEL 5
REMARK VINA RESULT:      -4.6      1.080      3.353
REMARK  0 active torsions:
REMARK  status: ('A' for Active; 'I' for Inactive)
ROOT
HETATM    1  C1  UNL     1     -34.145  14.723  -3.063  1.00 20.00     0.042 C 
HETATM    2  C2  UNL     1     -33.612  17.175  -3.470  1.00 20.00     0.042 C 
HETATM    3  C3  UNL     1     -35.887  16.125  -4.822  1.00 20.00     0.174 C 
HETATM    4  C4  UNL     1     -34.491  15.738  -5.332  1.00 20.00     0.017 C 
HETATM    5  C5  UNL     1     -34.015  14.471  -4.578  1.00 20.00    -0.009 C 
HETATM    6  C6  UNL     1     -33.497  16.873  -4.977  1.00 20.00    -0.009 C 
HETATM    7  C7  UNL     1     -34.585  16.178  -2.809  1.00 20.00     0.058 C 
HETATM    8  C8  UNL     1     -34.756  13.205  -5.006  1.00 20.00     0.010 C 
HETATM    9  C9  UNL     1     -33.694  18.130  -5.823  1.00 20.00     0.010 C 
HETATM   10  C10 UNL     1     -34.721  16.456  -1.316  1.00 20.00     0.046 C 
HETATM   11  O11 UNL     1     -35.884  16.363  -3.407  1.00 20.00    -0.380 OA
ENDROOT
TORSDOF 0
ENDMDL
MODEL 6
REMARK VINA RESULT:      -4.4     12.495     14.199
REMARK  0 active torsions:
REMARK  status: ('A' for Active; 'I' for Inactive)
ROOT
HETATM    1  C1  UNL     1     -42.697   5.198  -3.159  1.00 20.00     0.042 C 
HETATM    2  C2  UNL     1     -43.377   6.498  -1.084  1.00 20.00     0.042 C 
HETATM    3  C3  UNL     1     -40.918   5.070  -0.944  1.00 20.00     0.174 C 
HETATM    4  C4  UNL     1     -42.230   4.274  -0.873  1.00 20.00     0.017 C 
HETATM    5  C5  UNL     1     -42.673   3.911  -2.313  1.00 20.00    -0.009 C 
HETATM    6  C6  UNL     1     -43.335   5.184  -0.278  1.00 20.00    -0.009 C 
HETATM    7  C7  UNL     1     -42.393   6.418  -2.268  1.00 20.00     0.058 C 
HETATM    8  C8  UNL     1     -41.803   2.829  -2.952  1.00 20.00     0.010 C 
HETATM    9  C9  UNL     1     -43.158   5.442   1.217  1.00 20.00     0.010 C 
HETATM   10  C10 UNL     1     -42.412   7.708  -3.082  1.00 20.00     0.046 C 
HETATM   11  O11 UNL     1     -41.064   6.259  -1.732  1.00 20.00    -0.380 OA
ENDROOT
TORSDOF 0
ENDMDL
MODEL 7
REMARK VINA RESULT:      -4.4     12.479     14.110
REMARK  0 active torsions:
REMARK  status: ('A' for Active; 'I' for Inactive)
ROOT
HETATM    1  C1  UNL     1     -42.998   4.108  -0.866  1.00 20.00     0.042 C 
HETATM    2  C2  UNL     1     -42.674   5.384  -3.040  1.00 20.00     0.042 C 
HETATM    3  C3  UNL     1     -41.125   6.248  -0.814  1.00 20.00     0.174 C 
HETATM    4  C4  UNL     1     -42.622   6.589  -0.839  1.00 20.00     0.017 C 
HETATM    5  C5  UNL     1     -43.412   5.428  -0.185  1.00 20.00    -0.009 C 
HETATM    6  C6  UNL     1     -43.090   6.678  -2.314  1.00 20.00    -0.009 C 
HETATM    7  C7  UNL     1     -42.040   4.400  -2.037  1.00 20.00     0.058 C 
HETATM    8  C8  UNL     1     -43.234   5.361   1.331  1.00 20.00     0.010 C 
HETATM    9  C9  UNL     1     -42.573   7.922  -3.034  1.00 20.00     0.010 C 
HETATM   10  C10 UNL     1     -41.615   3.110  -2.730  1.00 20.00     0.046 C 
HETATM   11  O11 UNL     1     -40.853   5.017  -1.499  1.00 20.00    -0.380 OA
ENDROOT
TORSDOF 0
ENDMDL
MODEL 8
REMARK VINA RESULT:      -4.4      2.323      3.597
REMARK  0 active torsions:
REMARK  status: ('A' for Active; 'I' for Inactive)
ROOT
HETATM    1  C1  UNL     1     -36.444  15.967  -3.284  1.00 20.00     0.042 C 
HETATM    2  C2  UNL     1     -36.942  15.272  -5.677  1.00 20.00     0.042 C 
HETATM    3  C3  UNL     1     -35.145  13.615  -4.218  1.00 20.00     0.174 C 
HETATM    4  C4  UNL     1     -34.640  14.976  -4.720  1.00 20.00     0.017 C 
HETATM    5  C5  UNL     1     -34.949  16.051  -3.648  1.00 20.00    -0.009 C 
HETATM    6  C6  UNL     1     -35.436  15.367  -5.991  1.00 20.00    -0.009 C 
HETATM    7  C7  UNL     1     -37.146  14.935  -4.186  1.00 20.00     0.058 C 
HETATM    8  C8  UNL     1     -34.058  15.937  -2.412  1.00 20.00     0.010 C 
HETATM    9  C9  UNL     1     -35.060  14.533  -7.215  1.00 20.00     0.010 C 
HETATM   10  C10 UNL     1     -38.630  14.832  -3.848  1.00 20.00     0.046 C 
HETATM   11  O11 UNL     1     -36.551  13.646  -3.938  1.00 20.00    -0.380 OA
ENDROOT
TORSDOF 0
ENDMDL
MODEL 9
REMARK VINA RESULT:      -4.4      2.487      3.592
REMARK  0 active torsions:
REMARK  status: ('A' for Active; 'I' for Inactive)
ROOT
HETATM    1  C1  UNL     1     -36.603  15.320  -5.865  1.00 20.00     0.042 C 
HETATM    2  C2  UNL     1     -34.075  15.571  -5.788  1.00 20.00     0.042 C 
HETATM    3  C3  UNL     1     -35.180  13.369  -4.362  1.00 20.00     0.174 C 
HETATM    4  C4  UNL     1     -35.336  14.777  -3.767  1.00 20.00     0.017 C 
HETATM    5  C5  UNL     1     -36.632  15.416  -4.327  1.00 20.00    -0.009 C 
HETATM    6  C6  UNL     1     -34.155  15.658  -4.252  1.00 20.00    -0.009 C 
HETATM    7  C7  UNL     1     -35.255  14.737  -6.329  1.00 20.00     0.058 C 
HETATM    8  C8  UNL     1     -37.903  14.798  -3.745  1.00 20.00     0.010 C 
HETATM    9  C9  UNL     1     -32.825  15.293  -3.594  1.00 20.00     0.010 C 
HETATM   10  C10 UNL     1     -35.198  14.633  -7.849  1.00 20.00     0.046 C 
HETATM   11  O11 UNL     1     -35.136  13.404  -5.795  1.00 20.00    -0.380 OA
ENDROOT
TORSDOF 0
ENDMDL
