MODEL 1
REMARK VINA RESULT:      -4.8      0.000      0.000
REMARK  2 active torsions:
REMARK  status: ('A' for Active; 'I' for Inactive)
REMARK    1  A    between atoms: C1_1  and  C2_2 
REMARK    2  A    between atoms: C2_2  and  C3_3 
ROOT
HETATM    1  C2  UNL     1     -33.868   6.324   5.079  1.00 20.00     0.213 C 
ENDROOT
BRANCH   1   2
HETATM    2  C1  UNL     1     -33.454   6.098   3.636  1.00 20.00     0.227 C 
HETATM    3  O4  UNL     1     -34.067   5.360   2.872  1.00 20.00    -0.280 OA
HETATM    4 CL8  UNL     1     -32.027   7.010   3.231  1.00 20.00    -0.043 Cl
ENDBRANCH   1   2
BRANCH   1   5
HETATM    5  C3  UNL     1     -34.706   5.194   5.633  1.00 20.00     0.395 C 
HETATM    6  F5  UNL     1     -34.007   4.042   5.691  1.00 20.00    -0.171 F 
HETATM    7  F6  UNL     1     -35.808   4.982   4.884  1.00 20.00    -0.171 F 
HETATM    8  F7  UNL     1     -35.117   5.486   6.887  1.00 20.00    -0.171 F 
ENDBRANCH   1   5
TORSDOF 2
ENDMDL
MODEL 2
REMARK VINA RESULT:      -4.8      3.102      3.489
REMARK  2 active torsions:
REMARK  status: ('A' for Active; 'I' for Inactive)
REMARK    1  A    between atoms: C1_1  and  C2_2 
REMARK    2  A    between atoms: C2_2  and  C3_3 
ROOT
HETATM    1  C2  UNL     1     -33.759   6.209   4.554  1.00 20.00     0.213 C 
ENDROOT
BRANCH   1   2
HETATM    2  C1  UNL     1     -34.972   5.297   4.530  1.00 20.00     0.227 C 
HETATM    3  O4  UNL     1     -35.933   5.480   3.789  1.00 20.00    -0.280 OA
HETATM    4 CL8  UNL     1     -34.812   3.990   5.671  1.00 20.00    -0.043 Cl
ENDBRANCH   1   2
BRANCH   1   5
HETATM    5  C3  UNL     1     -32.992   6.198   3.252  1.00 20.00     0.395 C 
HETATM    6  F5  UNL     1     -32.914   7.433   2.713  1.00 20.00    -0.171 F 
HETATM    7  F6  UNL     1     -33.564   5.378   2.346  1.00 20.00    -0.171 F 
HETATM    8  F7  UNL     1     -31.728   5.762   3.454  1.00 20.00    -0.171 F 
ENDBRANCH   1   5
TORSDOF 2
ENDMDL
MODEL 3
REMARK VINA RESULT:      -4.8      3.100      3.521
REMARK  2 active torsions:
REMARK  status: ('A' for Active; 'I' for Inactive)
REMARK    1  A    between atoms: C1_1  and  C2_2 
REMARK    2  A    between atoms: C2_2  and  C3_3 
ROOT
HETATM    1  C2  UNL     1     -33.753   6.192   4.575  1.00 20.00     0.213 C 
ENDROOT
BRANCH   1   2
HETATM    2  C1  UNL     1     -34.974   5.292   4.543  1.00 20.00     0.227 C 
HETATM    3  O4  UNL     1     -35.930   5.486   3.798  1.00 20.00    -0.280 OA
HETATM    4 CL8  UNL     1     -34.831   3.981   5.681  1.00 20.00    -0.043 Cl
ENDBRANCH   1   2
BRANCH   1   5
HETATM    5  C3  UNL     1     -32.989   6.191   3.271  1.00 20.00     0.395 C 
HETATM    6  F5  UNL     1     -33.570   5.386   2.357  1.00 20.00    -0.171 F 
HETATM    7  F6  UNL     1     -31.714   5.783   3.444  1.00 20.00    -0.171 F 
HETATM    8  F7  UNL     1     -32.949   7.437   2.748  1.00 20.00    -0.171 F 
ENDBRANCH   1   5
TORSDOF 2
ENDMDL
MODEL 4
REMARK VINA RESULT:      -4.7      1.804      2.323
REMARK  2 active torsions:
REMARK  status: ('A' for Active; 'I' for Inactive)
REMARK    1  A    between atoms: C1_1  and  C2_2 
REMARK    2  A    between atoms: C2_2  and  C3_3 
ROOT
HETATM    1  C2  UNL     1     -34.777   5.513   4.610  1.00 20.00     0.213 C 
ENDROOT
BRANCH   1   2
HETATM    2  C1  UNL     1     -33.593   6.414   4.910  1.00 20.00     0.227 C 
HETATM    3  O4  UNL     1     -32.714   6.660   4.091  1.00 20.00    -0.280 OA
HETATM    4 CL8  UNL     1     -33.659   7.033   6.538  1.00 20.00    -0.043 Cl
ENDBRANCH   1   2
BRANCH   1   5
HETATM    5  C3  UNL     1     -34.832   4.298   5.507  1.00 20.00     0.395 C 
HETATM    6  F5  UNL     1     -35.698   4.474   6.527  1.00 20.00    -0.171 F 
HETATM    7  F6  UNL     1     -33.620   4.012   6.028  1.00 20.00    -0.171 F 
HETATM    8  F7  UNL     1     -35.240   3.215   4.808  1.00 20.00    -0.171 F 
ENDBRANCH   1   5
TORSDOF 2
ENDMDL
MODEL 5
REMARK VINA RESULT:      -4.7      2.414      3.048
REMARK  2 active torsions:
REMARK  status: ('A' for Active; 'I' for Inactive)
REMARK    1  A    between atoms: C1_1  and  C2_2 
REMARK    2  A    between atoms: C2_2  and  C3_3 
ROOT
HETATM    1  C2  UNL     1     -33.900   6.074   4.499  1.00 20.00     0.213 C 
ENDROOT
BRANCH   1   2
HETATM    2  C1  UNL     1     -34.259   6.050   5.974  1.00 20.00     0.227 C 
HETATM    3  O4  UNL     1     -35.040   5.238   6.460  1.00 20.00    -0.280 OA
HETATM    4 CL8  UNL     1     -33.427   7.302   6.854  1.00 20.00    -0.043 Cl
ENDBRANCH   1   2
BRANCH   1   5
HETATM    5  C3  UNL     1     -34.830   5.233   3.655  1.00 20.00     0.395 C 
HETATM    6  F5  UNL     1     -36.058   5.786   3.569  1.00 20.00    -0.171 F 
HETATM    7  F6  UNL     1     -34.963   3.987   4.156  1.00 20.00    -0.171 F 
HETATM    8  F7  UNL     1     -34.347   5.116   2.398  1.00 20.00    -0.171 F 
ENDBRANCH   1   5
TORSDOF 2
ENDMDL
MODEL 6
REMARK VINA RESULT:      -4.7      1.188      1.409
REMARK  2 active torsions:
REMARK  status: ('A' for Active; 'I' for Inactive)
REMARK    1  A    between atoms: C1_1  and  C2_2 
REMARK    2  A    between atoms: C2_2  and  C3_3 
ROOT
HETATM    1  C2  UNL     1     -34.354   5.803   5.365  1.00 20.00     0.213 C 
ENDROOT
BRANCH   1   2
HETATM    2  C1  UNL     1     -34.414   5.806   3.849  1.00 20.00     0.227 C 
HETATM    3  O4  UNL     1     -35.459   5.665   3.220  1.00 20.00    -0.280 OA
HETATM    4 CL8  UNL     1     -32.836   6.031   3.147  1.00 20.00    -0.043 Cl
ENDBRANCH   1   2
BRANCH   1   5
HETATM    5  C3  UNL     1     -34.687   4.455   5.963  1.00 20.00     0.395 C 
HETATM    6  F5  UNL     1     -34.946   3.540   5.007  1.00 20.00    -0.171 F 
HETATM    7  F6  UNL     1     -35.758   4.528   6.780  1.00 20.00    -0.171 F 
HETATM    8  F7  UNL     1     -33.647   3.996   6.696  1.00 20.00    -0.171 F 
ENDBRANCH   1   5
TORSDOF 2
ENDMDL
MODEL 7
REMARK VINA RESULT:      -4.7      2.814      3.339
REMARK  2 active torsions:
REMARK  status: ('A' for Active; 'I' for Inactive)
REMARK    1  A    between atoms: C1_1  and  C2_2 
REMARK    2  A    between atoms: C2_2  and  C3_3 
ROOT
HETATM    1  C2  UNL     1     -35.145   5.430   4.016  1.00 20.00     0.213 C 
ENDROOT
BRANCH   1   2
HETATM    2  C1  UNL     1     -34.919   4.752   5.355  1.00 20.00     0.227 C 
HETATM    3  O4  UNL     1     -35.023   3.540   5.518  1.00 20.00    -0.280 OA
HETATM    4 CL8  UNL     1     -34.503   5.905   6.593  1.00 20.00    -0.043 Cl
ENDBRANCH   1   2
BRANCH   1   5
HETATM    5  C3  UNL     1     -33.860   5.893   3.369  1.00 20.00     0.395 C 
HETATM    6  F5  UNL     1     -32.779   5.479   4.063  1.00 20.00    -0.171 F 
HETATM    7  F6  UNL     1     -33.811   7.238   3.273  1.00 20.00    -0.171 F 
HETATM    8  F7  UNL     1     -33.757   5.392   2.118  1.00 20.00    -0.171 F 
ENDBRANCH   1   5
TORSDOF 2
ENDMDL
MODEL 8
REMARK VINA RESULT:      -4.7      3.271      3.733
REMARK  2 active torsions:
REMARK  status: ('A' for Active; 'I' for Inactive)
REMARK    1  A    between atoms: C1_1  and  C2_2 
REMARK    2  A    between atoms: C2_2  and  C3_3 
ROOT
HETATM    1  C2  UNL     1     -34.067   6.260   3.861  1.00 20.00     0.213 C 
ENDROOT
BRANCH   1   2
HETATM    2  C1  UNL     1     -34.209   5.816   5.305  1.00 20.00     0.227 C 
HETATM    3  O4  UNL     1     -33.951   6.545   6.258  1.00 20.00    -0.280 OA
HETATM    4 CL8  UNL     1     -34.775   4.172   5.415  1.00 20.00    -0.043 Cl
ENDBRANCH   1   2
BRANCH   1   5
HETATM    5  C3  UNL     1     -32.640   6.586   3.485  1.00 20.00     0.395 C 
HETATM    6  F5  UNL     1     -31.918   5.468   3.266  1.00 20.00    -0.171 F 
HETATM    7  F6  UNL     1     -32.026   7.304   4.448  1.00 20.00    -0.171 F 
HETATM    8  F7  UNL     1     -32.609   7.319   2.349  1.00 20.00    -0.171 F 
ENDBRANCH   1   5
TORSDOF 2
ENDMDL
MODEL 9
REMARK VINA RESULT:      -4.5      1.776      2.499
REMARK  2 active torsions:
REMARK  status: ('A' for Active; 'I' for Inactive)
REMARK    1  A    between atoms: C1_1  and  C2_2 
REMARK    2  A    between atoms: C2_2  and  C3_3 
ROOT
HETATM    1  C2  UNL     1     -33.939   6.529   4.006  1.00 20.00     0.213 C 
ENDROOT
BRANCH   1   2
HETATM    2  C1  UNL     1     -32.610   6.564   3.274  1.00 20.00     0.227 C 
HETATM    3  O4  UNL     1     -31.795   5.648   3.320  1.00 20.00    -0.280 OA
HETATM    4 CL8  UNL     1     -32.411   8.048   2.383  1.00 20.00    -0.043 Cl
ENDBRANCH   1   2
BRANCH   1   5
HETATM    5  C3  UNL     1     -34.835   5.404   3.541  1.00 20.00     0.395 C 
HETATM    6  F5  UNL     1     -36.117   5.809   3.422  1.00 20.00    -0.171 F 
HETATM    7  F6  UNL     1     -34.801   4.358   4.393  1.00 20.00    -0.171 F 
HETATM    8  F7  UNL     1     -34.436   4.956   2.329  1.00 20.00    -0.171 F 
ENDBRANCH   1   5
TORSDOF 2
ENDMDL
