MODEL 1
REMARK VINA RESULT:      -3.4      0.000      0.000
REMARK  1 active torsions:
REMARK  status: ('A' for Active; 'I' for Inactive)
REMARK    1  A    between atoms: C1_1  and  C2_2 
ROOT
HETATM    1  C1  UNL     1     -34.844   4.670   5.152  1.00 20.00     0.208 C 
HETATM    2  O3  UNL     1     -35.151   3.515   4.899  1.00 20.00    -0.284 OA
HETATM    3 BR5  UNL     1     -34.374   5.759   3.654  1.00 20.00    -0.008 Br
ENDROOT
BRANCH   1   4
HETATM    4  C2  UNL     1     -34.800   5.313   6.508  1.00 20.00     0.205 C 
HETATM    5 CL4  UNL     1     -33.817   6.784   6.454  1.00 20.00    -0.122 Cl
ENDBRANCH   1   4
TORSDOF 1
ENDMDL
MODEL 2
REMARK VINA RESULT:      -3.4      2.102      2.362
REMARK  1 active torsions:
REMARK  status: ('A' for Active; 'I' for Inactive)
REMARK    1  A    between atoms: C1_1  and  C2_2 
ROOT
HETATM    1  C1  UNL     1     -34.869   4.761   4.836  1.00 20.00     0.208 C 
HETATM    2  O3  UNL     1     -35.198   3.609   5.073  1.00 20.00    -0.284 OA
HETATM    3 BR5  UNL     1     -34.390   5.823   6.350  1.00 20.00    -0.008 Br
ENDROOT
BRANCH   1   4
HETATM    4  C2  UNL     1     -34.805   5.420   3.489  1.00 20.00     0.205 C 
HETATM    5 CL4  UNL     1     -33.193   6.098   3.217  1.00 20.00    -0.122 Cl
ENDBRANCH   1   4
TORSDOF 1
ENDMDL
MODEL 3
REMARK VINA RESULT:      -3.4      2.817      2.935
REMARK  1 active torsions:
REMARK  status: ('A' for Active; 'I' for Inactive)
REMARK    1  A    between atoms: C1_1  and  C2_2 
ROOT
HETATM    1  C1  UNL     1     -34.145   5.989   5.380  1.00 20.00     0.208 C 
HETATM    2  O3  UNL     1     -33.822   6.656   6.352  1.00 20.00    -0.284 OA
HETATM    3 BR5  UNL     1     -34.893   4.271   5.753  1.00 20.00    -0.008 Br
ENDROOT
BRANCH   1   4
HETATM    4  C2  UNL     1     -34.013   6.382   3.937  1.00 20.00     0.205 C 
HETATM    5 CL4  UNL     1     -32.331   6.216   3.411  1.00 20.00    -0.122 Cl
ENDBRANCH   1   4
TORSDOF 1
ENDMDL
MODEL 4
REMARK VINA RESULT:      -3.3      2.113      2.113
REMARK  1 active torsions:
REMARK  status: ('A' for Active; 'I' for Inactive)
REMARK    1  A    between atoms: C1_1  and  C2_2 
ROOT
HETATM    1  C1  UNL     1     -34.075   5.841   4.075  1.00 20.00     0.208 C 
HETATM    2  O3  UNL     1     -34.868   5.364   3.277  1.00 20.00    -0.284 OA
HETATM    3 BR5  UNL     1     -32.496   6.614   3.327  1.00 20.00    -0.008 Br
ENDROOT
BRANCH   1   4
HETATM    4  C2  UNL     1     -34.215   5.878   5.569  1.00 20.00     0.205 C 
HETATM    5 CL4  UNL     1     -35.057   4.430   6.140  1.00 20.00    -0.122 Cl
ENDBRANCH   1   4
TORSDOF 1
ENDMDL
MODEL 5
REMARK VINA RESULT:      -3.3      2.626      2.696
REMARK  1 active torsions:
REMARK  status: ('A' for Active; 'I' for Inactive)
REMARK    1  A    between atoms: C1_1  and  C2_2 
ROOT
HETATM    1  C1  UNL     1     -34.600   5.530   4.360  1.00 20.00     0.208 C 
HETATM    2  O3  UNL     1     -35.442   5.484   3.475  1.00 20.00    -0.284 OA
HETATM    3 BR5  UNL     1     -34.855   4.328   5.822  1.00 20.00    -0.008 Br
ENDROOT
BRANCH   1   4
HETATM    4  C2  UNL     1     -33.399   6.430   4.413  1.00 20.00     0.205 C 
HETATM    5 CL4  UNL     1     -32.343   6.120   3.026  1.00 20.00    -0.122 Cl
ENDBRANCH   1   4
TORSDOF 1
ENDMDL
MODEL 6
REMARK VINA RESULT:      -3.3      2.583      2.672
REMARK  1 active torsions:
REMARK  status: ('A' for Active; 'I' for Inactive)
REMARK    1  A    between atoms: C1_1  and  C2_2 
ROOT
HETATM    1  C1  UNL     1     -33.883   6.123   4.652  1.00 20.00     0.208 C 
HETATM    2  O3  UNL     1     -33.726   6.669   5.734  1.00 20.00    -0.284 OA
HETATM    3 BR5  UNL     1     -32.632   6.592   3.287  1.00 20.00    -0.008 Br
ENDROOT
BRANCH   1   4
HETATM    4  C2  UNL     1     -34.953   5.133   4.292  1.00 20.00     0.205 C 
HETATM    5 CL4  UNL     1     -35.050   3.865   5.523  1.00 20.00    -0.122 Cl
ENDBRANCH   1   4
TORSDOF 1
ENDMDL
MODEL 7
REMARK VINA RESULT:      -3.2      1.978      2.012
REMARK  1 active torsions:
REMARK  status: ('A' for Active; 'I' for Inactive)
REMARK    1  A    between atoms: C1_1  and  C2_2 
ROOT
HETATM    1  C1  UNL     1     -34.550   5.465   4.406  1.00 20.00     0.208 C 
HETATM    2  O3  UNL     1     -35.092   5.341   3.319  1.00 20.00    -0.284 OA
HETATM    3 BR5  UNL     1     -34.993   4.149   5.719  1.00 20.00    -0.008 Br
ENDROOT
BRANCH   1   4
HETATM    4  C2  UNL     1     -33.581   6.538   4.811  1.00 20.00     0.205 C 
HETATM    5 CL4  UNL     1     -33.737   6.880   6.541  1.00 20.00    -0.122 Cl
ENDBRANCH   1   4
TORSDOF 1
ENDMDL
MODEL 8
REMARK VINA RESULT:      -3.2      2.857      2.936
REMARK  1 active torsions:
REMARK  status: ('A' for Active; 'I' for Inactive)
REMARK    1  A    between atoms: C1_1  and  C2_2 
ROOT
HETATM    1  C1  UNL     1     -33.978   6.120   4.503  1.00 20.00     0.208 C 
HETATM    2  O3  UNL     1     -33.224   6.663   3.710  1.00 20.00    -0.284 OA
HETATM    3 BR5  UNL     1     -33.818   6.673   6.325  1.00 20.00    -0.008 Br
ENDROOT
BRANCH   1   4
HETATM    4  C2  UNL     1     -35.008   5.072   4.193  1.00 20.00     0.205 C 
HETATM    5 CL4  UNL     1     -35.047   3.856   5.478  1.00 20.00    -0.122 Cl
ENDBRANCH   1   4
TORSDOF 1
ENDMDL
MODEL 9
REMARK VINA RESULT:      -3.0      2.413      2.413
REMARK  1 active torsions:
REMARK  status: ('A' for Active; 'I' for Inactive)
REMARK    1  A    between atoms: C1_1  and  C2_2 
ROOT
HETATM    1  C1  UNL     1     -33.658   6.260   4.610  1.00 20.00     0.208 C 
HETATM    2  O3  UNL     1     -32.652   6.767   4.138  1.00 20.00    -0.284 OA
HETATM    3 BR5  UNL     1     -34.847   5.437   3.362  1.00 20.00    -0.008 Br
ENDROOT
BRANCH   1   4
HETATM    4  C2  UNL     1     -34.050   6.221   6.059  1.00 20.00     0.205 C 
HETATM    5 CL4  UNL     1     -35.018   4.777   6.391  1.00 20.00    -0.122 Cl
ENDBRANCH   1   4
TORSDOF 1
ENDMDL
