MODEL 1
REMARK VINA RESULT:      -2.9      0.000      0.000
REMARK  0 active torsions:
REMARK  status: ('A' for Active; 'I' for Inactive)
ROOT
HETATM    1  C1  UNL     1     -33.201  16.228  -4.641  1.00 20.00     0.345 C 
HETATM    2  C2  UNL     1     -33.644  14.083  -3.585  1.00 20.00     0.345 C 
HETATM    3  C3  UNL     1     -35.407  14.858  -5.553  1.00 20.00     0.151 C 
HETATM    4  N4  UNL     1     -32.631  14.994  -4.108  1.00 20.00     0.101 N 
HETATM    5  S5  UNL     1     -34.142  15.995  -6.178  1.00 20.00    -0.129 SA
HETATM    6  S6  UNL     1     -34.692  13.339  -4.870  1.00 20.00    -0.129 SA
HETATM    7  H13 UNL     1     -32.098  14.524  -4.839  1.00 20.00     0.317 HD
ENDROOT
TORSDOF 0
ENDMDL
MODEL 2
REMARK VINA RESULT:      -2.9      1.495      1.607
REMARK  0 active torsions:
REMARK  status: ('A' for Active; 'I' for Inactive)
ROOT
HETATM    1  C1  UNL     1     -33.208  14.857  -3.550  1.00 20.00     0.345 C 
HETATM    2  C2  UNL     1     -34.737  13.303  -4.625  1.00 20.00     0.345 C 
HETATM    3  C3  UNL     1     -34.930  15.935  -5.406  1.00 20.00     0.151 C 
HETATM    4  N4  UNL     1     -33.383  13.529  -4.130  1.00 20.00     0.101 N 
HETATM    5  S5  UNL     1     -33.254  16.202  -4.771  1.00 20.00    -0.129 SA
HETATM    6  S6  UNL     1     -35.148  14.277  -6.103  1.00 20.00    -0.129 SA
HETATM    7  H13 UNL     1     -32.718  13.403  -4.892  1.00 20.00     0.317 HD
ENDROOT
TORSDOF 0
ENDMDL
MODEL 3
REMARK VINA RESULT:      -2.9      2.074      2.612
REMARK  0 active torsions:
REMARK  status: ('A' for Active; 'I' for Inactive)
ROOT
HETATM    1  C1  UNL     1     -34.816  13.296  -4.685  1.00 20.00     0.345 C 
HETATM    2  C2  UNL     1     -32.962  14.544  -3.728  1.00 20.00     0.345 C 
HETATM    3  C3  UNL     1     -35.291  15.952  -4.143  1.00 20.00     0.151 C 
HETATM    4  N4  UNL     1     -33.698  13.284  -3.746  1.00 20.00     0.101 N 
HETATM    5  S5  UNL     1     -36.185  14.377  -4.178  1.00 20.00    -0.129 SA
HETATM    6  S6  UNL     1     -33.890  15.923  -2.994  1.00 20.00    -0.129 SA
HETATM    7  H13 UNL     1     -34.045  13.082  -2.809  1.00 20.00     0.317 HD
ENDROOT
TORSDOF 0
ENDMDL
MODEL 4
REMARK VINA RESULT:      -2.8      1.659      2.807
REMARK  0 active torsions:
REMARK  status: ('A' for Active; 'I' for Inactive)
ROOT
HETATM    1  C1  UNL     1     -34.944  14.421  -6.253  1.00 20.00     0.345 C 
HETATM    2  C2  UNL     1     -33.628  16.296  -5.438  1.00 20.00     0.345 C 
HETATM    3  C3  UNL     1     -34.574  14.553  -3.529  1.00 20.00     0.151 C 
HETATM    4  N4  UNL     1     -33.782  15.277  -6.472  1.00 20.00     0.101 N 
HETATM    5  S5  UNL     1     -34.774  13.306  -4.829  1.00 20.00    -0.129 SA
HETATM    6  S6  UNL     1     -33.145  15.627  -3.819  1.00 20.00    -0.129 SA
HETATM    7  H13 UNL     1     -32.941  14.702  -6.509  1.00 20.00     0.317 HD
ENDROOT
TORSDOF 0
ENDMDL
MODEL 5
REMARK VINA RESULT:      -2.7      0.667      2.322
REMARK  0 active torsions:
REMARK  status: ('A' for Active; 'I' for Inactive)
ROOT
HETATM    1  C1  UNL     1     -33.364  13.914  -3.765  1.00 20.00     0.345 C 
HETATM    2  C2  UNL     1     -33.173  16.166  -4.661  1.00 20.00     0.345 C 
HETATM    3  C3  UNL     1     -34.779  14.429  -6.068  1.00 20.00     0.151 C 
HETATM    4  N4  UNL     1     -33.298  15.341  -3.463  1.00 20.00     0.101 N 
HETATM    5  S5  UNL     1     -34.909  13.409  -4.577  1.00 20.00    -0.129 SA
HETATM    6  S6  UNL     1     -34.672  16.197  -5.687  1.00 20.00    -0.129 SA
HETATM    7  H13 UNL     1     -34.133  15.617  -2.948  1.00 20.00     0.317 HD
ENDROOT
TORSDOF 0
ENDMDL
MODEL 6
REMARK VINA RESULT:      -2.6     13.176     14.144
REMARK  0 active torsions:
REMARK  status: ('A' for Active; 'I' for Inactive)
ROOT
HETATM    1  C1  UNL     1     -35.063   4.014   4.487  1.00 20.00     0.345 C 
HETATM    2  C2  UNL     1     -34.283   4.817   6.645  1.00 20.00     0.345 C 
HETATM    3  C3  UNL     1     -33.543   6.308   4.452  1.00 20.00     0.151 C 
HETATM    4  N4  UNL     1     -35.387   4.226   5.895  1.00 20.00     0.101 N 
HETATM    5  S5  UNL     1     -34.908   5.552   3.531  1.00 20.00    -0.129 SA
HETATM    6  S6  UNL     1     -33.941   6.547   6.204  1.00 20.00    -0.129 SA
HETATM    7  H13 UNL     1     -36.206   4.829   5.966  1.00 20.00     0.317 HD
ENDROOT
TORSDOF 0
ENDMDL
MODEL 7
REMARK VINA RESULT:      -2.6      1.727      2.322
REMARK  0 active torsions:
REMARK  status: ('A' for Active; 'I' for Inactive)
ROOT
HETATM    1  C1  UNL     1     -33.368  16.327  -5.035  1.00 20.00     0.345 C 
HETATM    2  C2  UNL     1     -34.564  14.596  -6.254  1.00 20.00     0.345 C 
HETATM    3  C3  UNL     1     -33.500  13.858  -3.825  1.00 20.00     0.151 C 
HETATM    4  N4  UNL     1     -34.524  16.003  -5.866  1.00 20.00     0.101 N 
HETATM    5  S5  UNL     1     -33.442  15.610  -3.367  1.00 20.00    -0.129 SA
HETATM    6  S6  UNL     1     -34.923  13.467  -4.877  1.00 20.00    -0.129 SA
HETATM    7  H13 UNL     1     -35.379  16.240  -5.364  1.00 20.00     0.317 HD
ENDROOT
TORSDOF 0
ENDMDL
MODEL 8
REMARK VINA RESULT:      -2.6     11.725     12.208
REMARK  0 active torsions:
REMARK  status: ('A' for Active; 'I' for Inactive)
ROOT
HETATM    1  C1  UNL     1     -42.254   7.647  -1.710  1.00 20.00     0.345 C 
HETATM    2  C2  UNL     1     -40.877   6.229  -0.294  1.00 20.00     0.345 C 
HETATM    3  C3  UNL     1     -42.691   4.937  -1.912  1.00 20.00     0.151 C 
HETATM    4  N4  UNL     1     -40.927   7.411  -1.149  1.00 20.00     0.101 N 
HETATM    5  S5  UNL     1     -42.753   6.419  -2.953  1.00 20.00    -0.129 SA
HETATM    6  S6  UNL     1     -41.048   4.663  -1.200  1.00 20.00    -0.129 SA
HETATM    7  H13 UNL     1     -40.253   7.309  -1.907  1.00 20.00     0.317 HD
ENDROOT
TORSDOF 0
ENDMDL
MODEL 9
REMARK VINA RESULT:      -2.6     12.368     12.999
REMARK  0 active torsions:
REMARK  status: ('A' for Active; 'I' for Inactive)
ROOT
HETATM    1  C1  UNL     1     -41.716   3.870  -2.267  1.00 20.00     0.345 C 
HETATM    2  C2  UNL     1     -40.691   5.400  -0.681  1.00 20.00     0.345 C 
HETATM    3  C3  UNL     1     -42.236   6.545  -2.650  1.00 20.00     0.151 C 
HETATM    4  N4  UNL     1     -41.362   4.118  -0.873  1.00 20.00     0.101 N 
HETATM    5  S5  UNL     1     -43.046   4.942  -2.887  1.00 20.00    -0.129 SA
HETATM    6  S6  UNL     1     -41.776   6.837  -0.922  1.00 20.00    -0.129 SA
HETATM    7  H13 UNL     1     -42.203   4.087  -0.299  1.00 20.00     0.317 HD
ENDROOT
TORSDOF 0
ENDMDL
