MODEL 1
REMARK VINA RESULT:      -3.7      0.000      0.000
REMARK  4 active torsions:
REMARK  status: ('A' for Active; 'I' for Inactive)
REMARK    1  A    between atoms: C1_1  and  N8_8 
REMARK    2  A    between atoms: C1_1  and  N9_9 
REMARK    3  A    between atoms: C6_6  and  N8_8 
REMARK    4  A    between atoms: C7_7  and  N9_9 
ROOT
HETATM    1  N9  UNL     1     -33.192   5.456   4.194  1.00 20.00    -0.220 NA
ENDROOT
BRANCH   1   2
HETATM    2  C1  UNL     1     -33.160   6.449   3.572  1.00 20.00     0.091 C 
BRANCH   2   3
HETATM    3  N8  UNL     1     -33.131   7.432   2.930  1.00 20.00    -0.231 NA
BRANCH   3   4
HETATM    4  C6  UNL     1     -31.808   7.769   2.397  1.00 20.00     0.156 C 
HETATM    5  C2  UNL     1     -31.972   8.752   1.255  1.00 20.00     0.029 C 
ENDBRANCH   3   4
ENDBRANCH   2   3
ENDBRANCH   1   2
BRANCH   1   6
HETATM    6  C7  UNL     1     -34.387   5.308   5.037  1.00 20.00     0.053 C 
HETATM    7  C3  UNL     1     -34.311   6.337   6.166  1.00 20.00     0.041 C 
HETATM    8  C4  UNL     1     -35.613   5.560   4.162  1.00 20.00     0.041 C 
HETATM    9  C5  UNL     1     -34.409   3.887   5.599  1.00 20.00     0.041 C 
ENDBRANCH   1   6
TORSDOF 4
ENDMDL
MODEL 2
REMARK VINA RESULT:      -3.4     11.271     12.216
REMARK  4 active torsions:
REMARK  status: ('A' for Active; 'I' for Inactive)
REMARK    1  A    between atoms: C1_1  and  N8_8 
REMARK    2  A    between atoms: C1_1  and  N9_9 
REMARK    3  A    between atoms: C6_6  and  N8_8 
REMARK    4  A    between atoms: C7_7  and  N9_9 
ROOT
HETATM    1  N9  UNL     1     -34.158  16.040  -4.324  1.00 20.00    -0.220 NA
ENDROOT
BRANCH   1   2
HETATM    2  C1  UNL     1     -33.905  16.309  -3.211  1.00 20.00     0.091 C 
BRANCH   2   3
HETATM    3  N8  UNL     1     -33.646  16.597  -2.103  1.00 20.00    -0.231 NA
BRANCH   3   4
HETATM    4  C6  UNL     1     -34.762  16.463  -1.163  1.00 20.00     0.156 C 
HETATM    5  C2  UNL     1     -34.537  17.397   0.009  1.00 20.00     0.029 C 
ENDBRANCH   3   4
ENDBRANCH   2   3
ENDBRANCH   1   2
BRANCH   1   6
HETATM    6  C7  UNL     1     -34.567  14.644  -4.532  1.00 20.00     0.053 C 
HETATM    7  C3  UNL     1     -33.534  13.735  -3.866  1.00 20.00     0.041 C 
HETATM    8  C4  UNL     1     -35.941  14.457  -3.891  1.00 20.00     0.041 C 
HETATM    9  C5  UNL     1     -34.634  14.380  -6.036  1.00 20.00     0.041 C 
ENDBRANCH   1   6
TORSDOF 4
ENDMDL
MODEL 3
REMARK VINA RESULT:      -3.4     11.275     12.194
REMARK  4 active torsions:
REMARK  status: ('A' for Active; 'I' for Inactive)
REMARK    1  A    between atoms: C1_1  and  N8_8 
REMARK    2  A    between atoms: C1_1  and  N9_9 
REMARK    3  A    between atoms: C6_6  and  N8_8 
REMARK    4  A    between atoms: C7_7  and  N9_9 
ROOT
HETATM    1  N9  UNL     1     -34.202  16.034  -4.350  1.00 20.00    -0.220 NA
ENDROOT
BRANCH   1   2
HETATM    2  C1  UNL     1     -33.930  16.313  -3.245  1.00 20.00     0.091 C 
BRANCH   2   3
HETATM    3  N8  UNL     1     -33.637  16.593  -2.142  1.00 20.00    -0.231 NA
BRANCH   3   4
HETATM    4  C6  UNL     1     -34.722  16.444  -1.169  1.00 20.00     0.156 C 
HETATM    5  C2  UNL     1     -34.505  17.423  -0.033  1.00 20.00     0.029 C 
ENDBRANCH   3   4
ENDBRANCH   2   3
ENDBRANCH   1   2
BRANCH   1   6
HETATM    6  C7  UNL     1     -34.607  14.634  -4.539  1.00 20.00     0.053 C 
HETATM    7  C3  UNL     1     -35.984  14.442  -3.903  1.00 20.00     0.041 C 
HETATM    8  C4  UNL     1     -34.665  14.360  -6.040  1.00 20.00     0.041 C 
HETATM    9  C5  UNL     1     -33.569  13.737  -3.867  1.00 20.00     0.041 C 
ENDBRANCH   1   6
TORSDOF 4
ENDMDL
MODEL 4
REMARK VINA RESULT:      -3.4     11.134     12.520
REMARK  4 active torsions:
REMARK  status: ('A' for Active; 'I' for Inactive)
REMARK    1  A    between atoms: C1_1  and  N8_8 
REMARK    2  A    between atoms: C1_1  and  N9_9 
REMARK    3  A    between atoms: C6_6  and  N8_8 
REMARK    4  A    between atoms: C7_7  and  N9_9 
ROOT
HETATM    1  N9  UNL     1     -35.548  15.303  -4.615  1.00 20.00    -0.220 NA
ENDROOT
BRANCH   1   2
HETATM    2  C1  UNL     1     -36.488  14.749  -4.187  1.00 20.00     0.091 C 
BRANCH   2   3
HETATM    3  N8  UNL     1     -37.438  14.192  -3.778  1.00 20.00    -0.231 NA
BRANCH   3   4
HETATM    4  C6  UNL     1     -38.630  15.035  -3.656  1.00 20.00     0.156 C 
HETATM    5  C2  UNL     1     -39.685  14.540  -4.624  1.00 20.00     0.029 C 
ENDBRANCH   3   4
ENDBRANCH   2   3
ENDBRANCH   1   2
BRANCH   1   6
HETATM    6  C7  UNL     1     -34.351  15.208  -3.768  1.00 20.00     0.053 C 
HETATM    7  C3  UNL     1     -34.691  15.771  -2.388  1.00 20.00     0.041 C 
HETATM    8  C4  UNL     1     -33.963  13.734  -3.668  1.00 20.00     0.041 C 
HETATM    9  C5  UNL     1     -33.231  16.016  -4.424  1.00 20.00     0.041 C 
ENDBRANCH   1   6
TORSDOF 4
ENDMDL
MODEL 5
REMARK VINA RESULT:      -3.4     11.516     12.648
REMARK  4 active torsions:
REMARK  status: ('A' for Active; 'I' for Inactive)
REMARK    1  A    between atoms: C1_1  and  N8_8 
REMARK    2  A    between atoms: C1_1  and  N9_9 
REMARK    3  A    between atoms: C6_6  and  N8_8 
REMARK    4  A    between atoms: C7_7  and  N9_9 
ROOT
HETATM    1  N9  UNL     1     -33.915  15.495  -5.280  1.00 20.00    -0.220 NA
ENDROOT
BRANCH   1   2
HETATM    2  C1  UNL     1     -33.602  15.632  -4.159  1.00 20.00     0.091 C 
BRANCH   2   3
HETATM    3  N8  UNL     1     -33.297  15.789  -3.036  1.00 20.00    -0.231 NA
BRANCH   3   4
HETATM    4  C6  UNL     1     -33.919  16.949  -2.394  1.00 20.00     0.156 C 
HETATM    5  C2  UNL     1     -34.642  16.494  -1.143  1.00 20.00     0.029 C 
ENDBRANCH   3   4
ENDBRANCH   2   3
ENDBRANCH   1   2
BRANCH   1   6
HETATM    6  C7  UNL     1     -35.023  14.552  -5.488  1.00 20.00     0.053 C 
HETATM    7  C3  UNL     1     -35.254  14.403  -6.992  1.00 20.00     0.041 C 
HETATM    8  C4  UNL     1     -34.624  13.214  -4.870  1.00 20.00     0.041 C 
HETATM    9  C5  UNL     1     -36.268  15.112  -4.801  1.00 20.00     0.041 C 
ENDBRANCH   1   6
TORSDOF 4
ENDMDL
MODEL 6
REMARK VINA RESULT:      -3.4     11.126     12.508
REMARK  4 active torsions:
REMARK  status: ('A' for Active; 'I' for Inactive)
REMARK    1  A    between atoms: C1_1  and  N8_8 
REMARK    2  A    between atoms: C1_1  and  N9_9 
REMARK    3  A    between atoms: C6_6  and  N8_8 
REMARK    4  A    between atoms: C7_7  and  N9_9 
ROOT
HETATM    1  N9  UNL     1     -35.629  15.415  -4.513  1.00 20.00    -0.220 NA
ENDROOT
BRANCH   1   2
HETATM    2  C1  UNL     1     -36.561  14.818  -4.129  1.00 20.00     0.091 C 
BRANCH   2   3
HETATM    3  N8  UNL     1     -37.507  14.237  -3.745  1.00 20.00    -0.231 NA
BRANCH   3   4
HETATM    4  C6  UNL     1     -38.725  15.047  -3.662  1.00 20.00     0.156 C 
HETATM    5  C2  UNL     1     -39.739  14.519  -4.655  1.00 20.00     0.029 C 
ENDBRANCH   3   4
ENDBRANCH   2   3
ENDBRANCH   1   2
BRANCH   1   6
HETATM    6  C7  UNL     1     -34.422  15.246  -3.692  1.00 20.00     0.053 C 
HETATM    7  C3  UNL     1     -33.278  16.015  -4.352  1.00 20.00     0.041 C 
HETATM    8  C4  UNL     1     -34.716  15.808  -2.302  1.00 20.00     0.041 C 
HETATM    9  C5  UNL     1     -34.098  13.755  -3.612  1.00 20.00     0.041 C 
ENDBRANCH   1   6
TORSDOF 4
ENDMDL
MODEL 7
REMARK VINA RESULT:      -3.3     11.615     12.498
REMARK  4 active torsions:
REMARK  status: ('A' for Active; 'I' for Inactive)
REMARK    1  A    between atoms: C1_1  and  N8_8 
REMARK    2  A    between atoms: C1_1  and  N9_9 
REMARK    3  A    between atoms: C6_6  and  N8_8 
REMARK    4  A    between atoms: C7_7  and  N9_9 
ROOT
HETATM    1  N9  UNL     1     -35.416  14.729  -3.399  1.00 20.00    -0.220 NA
ENDROOT
BRANCH   1   2
HETATM    2  C1  UNL     1     -35.207  14.174  -4.410  1.00 20.00     0.091 C 
BRANCH   2   3
HETATM    3  N8  UNL     1     -34.998  13.598  -5.413  1.00 20.00    -0.231 NA
BRANCH   3   4
HETATM    4  C6  UNL     1     -35.432  14.305  -6.620  1.00 20.00     0.156 C 
HETATM    5  C2  UNL     1     -34.293  15.167  -7.125  1.00 20.00     0.029 C 
ENDBRANCH   3   4
ENDBRANCH   2   3
ENDBRANCH   1   2
BRANCH   1   6
HETATM    6  C7  UNL     1     -34.533  15.875  -3.144  1.00 20.00     0.053 C 
HETATM    7  C3  UNL     1     -34.989  17.040  -4.022  1.00 20.00     0.041 C 
HETATM    8  C4  UNL     1     -34.649  16.238  -1.665  1.00 20.00     0.041 C 
HETATM    9  C5  UNL     1     -33.101  15.466  -3.487  1.00 20.00     0.041 C 
ENDBRANCH   1   6
TORSDOF 4
ENDMDL
MODEL 8
REMARK VINA RESULT:      -3.3      9.124     10.822
REMARK  4 active torsions:
REMARK  status: ('A' for Active; 'I' for Inactive)
REMARK    1  A    between atoms: C1_1  and  N8_8 
REMARK    2  A    between atoms: C1_1  and  N9_9 
REMARK    3  A    between atoms: C6_6  and  N8_8 
REMARK    4  A    between atoms: C7_7  and  N9_9 
ROOT
HETATM    1  N9  UNL     1     -41.133   6.804  -2.046  1.00 20.00    -0.220 NA
ENDROOT
BRANCH   1   2
HETATM    2  C1  UNL     1     -41.088   6.335  -0.973  1.00 20.00     0.091 C 
BRANCH   2   3
HETATM    3  N8  UNL     1     -41.024   5.874   0.106  1.00 20.00    -0.231 NA
BRANCH   3   4
HETATM    4  C6  UNL     1     -41.819   4.659   0.295  1.00 20.00     0.156 C 
HETATM    5  C2  UNL     1     -43.107   5.017   1.008  1.00 20.00     0.029 C 
ENDBRANCH   3   4
ENDBRANCH   2   3
ENDBRANCH   1   2
BRANCH   1   6
HETATM    6  C7  UNL     1     -42.491   7.105  -2.519  1.00 20.00     0.053 C 
HETATM    7  C3  UNL     1     -42.384   7.975  -3.772  1.00 20.00     0.041 C 
HETATM    8  C4  UNL     1     -43.181   5.781  -2.841  1.00 20.00     0.041 C 
HETATM    9  C5  UNL     1     -43.236   7.844  -1.408  1.00 20.00     0.041 C 
ENDBRANCH   1   6
TORSDOF 4
ENDMDL
MODEL 9
REMARK VINA RESULT:      -3.2     11.109     12.451
REMARK  4 active torsions:
REMARK  status: ('A' for Active; 'I' for Inactive)
REMARK    1  A    between atoms: C1_1  and  N8_8 
REMARK    2  A    between atoms: C1_1  and  N9_9 
REMARK    3  A    between atoms: C6_6  and  N8_8 
REMARK    4  A    between atoms: C7_7  and  N9_9 
ROOT
HETATM    1  N9  UNL     1     -33.340  16.144  -3.663  1.00 20.00    -0.220 NA
ENDROOT
BRANCH   1   2
HETATM    2  C1  UNL     1     -33.552  14.991  -3.656  1.00 20.00     0.091 C 
BRANCH   2   3
HETATM    3  N8  UNL     1     -33.746  13.832  -3.640  1.00 20.00    -0.231 NA
BRANCH   3   4
HETATM    4  C6  UNL     1     -35.002  13.418  -4.269  1.00 20.00     0.156 C 
HETATM    5  C2  UNL     1     -34.995  13.854  -5.720  1.00 20.00     0.029 C 
ENDBRANCH   3   4
ENDBRANCH   2   3
ENDBRANCH   1   2
BRANCH   1   6
HETATM    6  C7  UNL     1     -34.322  16.944  -2.918  1.00 20.00     0.053 C 
HETATM    7  C3  UNL     1     -35.616  16.997  -3.731  1.00 20.00     0.041 C 
HETATM    8  C4  UNL     1     -34.560  16.262  -1.572  1.00 20.00     0.041 C 
HETATM    9  C5  UNL     1     -33.749  18.346  -2.718  1.00 20.00     0.041 C 
ENDBRANCH   1   6
TORSDOF 4
ENDMDL
