MODEL 1
REMARK VINA RESULT:      -4.4      0.000      0.000
REMARK  0 active torsions:
REMARK  status: ('A' for Active; 'I' for Inactive)
ROOT
HETATM    1  C1  UNL     1     -34.698  13.545  -4.235  1.00 20.00     0.129 C 
HETATM    2  C2  UNL     1     -35.881  14.417  -3.841  1.00 20.00     0.093 C 
HETATM    3  C3  UNL     1     -33.321  13.897  -3.690  1.00 20.00     0.093 C 
HETATM    4  C4  UNL     1     -34.854  16.434  -4.998  1.00 20.00     0.017 C 
HETATM    5  C5  UNL     1     -33.347  16.128  -4.909  1.00 20.00     0.017 C 
HETATM    6  C6  UNL     1     -35.553  15.908  -3.741  1.00 20.00     0.054 C 
HETATM    7  C7  UNL     1     -33.054  15.400  -3.594  1.00 20.00     0.054 C 
HETATM    8  O8  UNL     1     -34.868  12.517  -4.891  1.00 20.00    -0.298 OA
HETATM    9  S9  UNL     1     -34.275  16.136  -2.486  1.00 20.00    -0.159 SA
ENDROOT
TORSDOF 0
ENDMDL
MODEL 2
REMARK VINA RESULT:      -4.4      1.175      2.285
REMARK  0 active torsions:
REMARK  status: ('A' for Active; 'I' for Inactive)
ROOT
HETATM    1  C1  UNL     1     -34.619  13.655  -4.535  1.00 20.00     0.129 C 
HETATM    2  C2  UNL     1     -33.335  14.029  -3.808  1.00 20.00     0.093 C 
HETATM    3  C3  UNL     1     -35.282  14.698  -5.424  1.00 20.00     0.093 C 
HETATM    4  C4  UNL     1     -34.544  15.827  -2.478  1.00 20.00     0.017 C 
HETATM    5  C5  UNL     1     -35.690  16.220  -3.429  1.00 20.00     0.017 C 
HETATM    6  C6  UNL     1     -33.302  15.472  -3.301  1.00 20.00     0.054 C 
HETATM    7  C7  UNL     1     -35.203  16.124  -4.878  1.00 20.00     0.054 C 
HETATM    8  O8  UNL     1     -35.051  12.502  -4.491  1.00 20.00    -0.298 OA
HETATM    9  S9  UNL     1     -33.465  16.586  -4.712  1.00 20.00    -0.159 SA
ENDROOT
TORSDOF 0
ENDMDL
MODEL 3
REMARK VINA RESULT:      -4.2      1.550      1.848
REMARK  0 active torsions:
REMARK  status: ('A' for Active; 'I' for Inactive)
ROOT
HETATM    1  C1  UNL     1     -33.641  13.814  -3.871  1.00 20.00     0.129 C 
HETATM    2  C2  UNL     1     -35.003  13.401  -4.409  1.00 20.00     0.093 C 
HETATM    3  C3  UNL     1     -33.417  15.274  -3.503  1.00 20.00     0.093 C 
HETATM    4  C4  UNL     1     -34.717  14.895  -6.446  1.00 20.00     0.017 C 
HETATM    5  C5  UNL     1     -33.782  15.997  -5.912  1.00 20.00     0.017 C 
HETATM    6  C6  UNL     1     -35.655  14.439  -5.324  1.00 20.00     0.054 C 
HETATM    7  C7  UNL     1     -34.106  16.267  -4.440  1.00 20.00     0.054 C 
HETATM    8  O8  UNL     1     -32.776  12.968  -3.637  1.00 20.00    -0.298 OA
HETATM    9  S9  UNL     1     -35.886  15.968  -4.393  1.00 20.00    -0.159 SA
ENDROOT
TORSDOF 0
ENDMDL
MODEL 4
REMARK VINA RESULT:      -4.2      1.282      2.126
REMARK  0 active torsions:
REMARK  status: ('A' for Active; 'I' for Inactive)
ROOT
HETATM    1  C1  UNL     1     -35.056  13.743  -4.787  1.00 20.00     0.129 C 
HETATM    2  C2  UNL     1     -34.465  14.578  -5.913  1.00 20.00     0.093 C 
HETATM    3  C3  UNL     1     -35.918  14.437  -3.741  1.00 20.00     0.093 C 
HETATM    4  C4  UNL     1     -33.097  15.942  -4.261  1.00 20.00     0.017 C 
HETATM    5  C5  UNL     1     -33.952  15.858  -2.983  1.00 20.00     0.017 C 
HETATM    6  C6  UNL     1     -34.017  15.977  -5.485  1.00 20.00     0.054 C 
HETATM    7  C7  UNL     1     -35.435  15.838  -3.364  1.00 20.00     0.054 C 
HETATM    8  O8  UNL     1     -34.930  12.517  -4.782  1.00 20.00    -0.298 OA
HETATM    9  S9  UNL     1     -35.448  16.873  -4.844  1.00 20.00    -0.159 SA
ENDROOT
TORSDOF 0
ENDMDL
MODEL 5
REMARK VINA RESULT:      -4.1      1.956      2.697
REMARK  0 active torsions:
REMARK  status: ('A' for Active; 'I' for Inactive)
ROOT
HETATM    1  C1  UNL     1     -36.853  14.742  -4.030  1.00 20.00     0.129 C 
HETATM    2  C2  UNL     1     -36.455  14.727  -5.498  1.00 20.00     0.093 C 
HETATM    3  C3  UNL     1     -35.921  15.411  -3.030  1.00 20.00     0.093 C 
HETATM    4  C4  UNL     1     -34.395  13.329  -4.986  1.00 20.00     0.017 C 
HETATM    5  C5  UNL     1     -34.081  13.732  -3.533  1.00 20.00     0.017 C 
HETATM    6  C6  UNL     1     -34.956  14.540  -5.738  1.00 20.00     0.054 C 
HETATM    7  C7  UNL     1     -34.435  15.207  -3.327  1.00 20.00     0.054 C 
HETATM    8  O8  UNL     1     -37.953  14.317  -3.674  1.00 20.00    -0.298 OA
HETATM    9  S9  UNL     1     -34.069  15.903  -4.953  1.00 20.00    -0.159 SA
ENDROOT
TORSDOF 0
ENDMDL
MODEL 6
REMARK VINA RESULT:      -4.0      1.577      2.609
REMARK  0 active torsions:
REMARK  status: ('A' for Active; 'I' for Inactive)
ROOT
HETATM    1  C1  UNL     1     -34.454  15.037  -6.198  1.00 20.00     0.129 C 
HETATM    2  C2  UNL     1     -34.137  16.329  -5.459  1.00 20.00     0.093 C 
HETATM    3  C3  UNL     1     -35.258  13.964  -5.478  1.00 20.00     0.093 C 
HETATM    4  C4  UNL     1     -32.766  15.069  -3.728  1.00 20.00     0.017 C 
HETATM    5  C5  UNL     1     -33.426  13.678  -3.740  1.00 20.00     0.017 C 
HETATM    6  C6  UNL     1     -33.835  16.139  -3.972  1.00 20.00     0.054 C 
HETATM    7  C7  UNL     1     -34.929  13.830  -3.990  1.00 20.00     0.054 C 
HETATM    8  O8  UNL     1     -34.160  14.907  -7.388  1.00 20.00    -0.298 OA
HETATM    9  S9  UNL     1     -35.279  15.404  -3.176  1.00 20.00    -0.159 SA
ENDROOT
TORSDOF 0
ENDMDL
MODEL 7
REMARK VINA RESULT:      -4.0      2.210      2.867
REMARK  0 active torsions:
REMARK  status: ('A' for Active; 'I' for Inactive)
ROOT
HETATM    1  C1  UNL     1     -34.717  16.035  -2.186  1.00 20.00     0.129 C 
HETATM    2  C2  UNL     1     -35.943  15.672  -3.013  1.00 20.00     0.093 C 
HETATM    3  C3  UNL     1     -33.406  16.306  -2.910  1.00 20.00     0.093 C 
HETATM    4  C4  UNL     1     -34.823  13.547  -3.845  1.00 20.00     0.017 C 
HETATM    5  C5  UNL     1     -33.330  13.921  -3.784  1.00 20.00     0.017 C 
HETATM    6  C6  UNL     1     -35.640  14.786  -4.222  1.00 20.00     0.054 C 
HETATM    7  C7  UNL     1     -33.164  15.405  -4.122  1.00 20.00     0.054 C 
HETATM    8  O8  UNL     1     -34.811  16.211  -0.971  1.00 20.00    -0.298 OA
HETATM    9  S9  UNL     1     -34.498  15.663  -5.311  1.00 20.00    -0.159 SA
ENDROOT
TORSDOF 0
ENDMDL
MODEL 8
REMARK VINA RESULT:      -4.0      1.663      2.001
REMARK  0 active torsions:
REMARK  status: ('A' for Active; 'I' for Inactive)
ROOT
HETATM    1  C1  UNL     1     -36.419  14.472  -3.813  1.00 20.00     0.129 C 
HETATM    2  C2  UNL     1     -35.937  15.811  -3.275  1.00 20.00     0.093 C 
HETATM    3  C3  UNL     1     -35.382  13.441  -4.235  1.00 20.00     0.093 C 
HETATM    4  C4  UNL     1     -34.840  16.374  -5.498  1.00 20.00     0.017 C 
HETATM    5  C5  UNL     1     -34.514  14.979  -6.062  1.00 20.00     0.017 C 
HETATM    6  C6  UNL     1     -34.688  16.352  -3.974  1.00 20.00     0.054 C 
HETATM    7  C7  UNL     1     -34.147  14.038  -4.911  1.00 20.00     0.054 C 
HETATM    8  O8  UNL     1     -37.618  14.188  -3.805  1.00 20.00    -0.298 OA
HETATM    9  S9  UNL     1     -33.343  15.168  -3.755  1.00 20.00    -0.159 SA
ENDROOT
TORSDOF 0
ENDMDL
MODEL 9
REMARK VINA RESULT:      -4.0      1.514      2.980
REMARK  0 active torsions:
REMARK  status: ('A' for Active; 'I' for Inactive)
ROOT
HETATM    1  C1  UNL     1     -34.354  15.718  -5.867  1.00 20.00     0.129 C 
HETATM    2  C2  UNL     1     -33.289  16.124  -4.859  1.00 20.00     0.093 C 
HETATM    3  C3  UNL     1     -35.743  15.363  -5.357  1.00 20.00     0.093 C 
HETATM    4  C4  UNL     1     -33.375  13.833  -3.760  1.00 20.00     0.017 C 
HETATM    5  C5  UNL     1     -34.819  13.385  -4.054  1.00 20.00     0.017 C 
HETATM    6  C6  UNL     1     -33.349  15.349  -3.541  1.00 20.00     0.054 C 
HETATM    7  C7  UNL     1     -35.744  14.605  -4.028  1.00 20.00     0.054 C 
HETATM    8  O8  UNL     1     -34.127  15.780  -7.077  1.00 20.00    -0.298 OA
HETATM    9  S9  UNL     1     -34.957  15.637  -2.772  1.00 20.00    -0.159 SA
ENDROOT
TORSDOF 0
ENDMDL
