MODEL 1
REMARK VINA RESULT:      -4.8      0.000      0.000
REMARK  2 active torsions:
REMARK  status: ('A' for Active; 'I' for Inactive)
REMARK    1  A    between atoms: C1_1  and  C3_3 
REMARK    2  A    between atoms: C2_2  and  C5_5 
ROOT
HETATM    1  C1  UNL     1     -34.871   5.350   3.692  1.00 20.00     0.003 C 
HETATM    2  C2  UNL     1     -35.196   4.579   4.737  1.00 20.00     0.041 C 
ENDROOT
BRANCH   1   3
HETATM    3  C3  UNL     1     -33.881   6.400   3.774  1.00 20.00    -0.004 C 
HETATM    4  C4  UNL     1     -32.693   6.339   3.155  1.00 20.00    -0.031 C 
HETATM    5  C6  UNL     1     -31.661   7.416   3.233  1.00 20.00     0.036 C 
ENDBRANCH   1   3
BRANCH   2   6
HETATM    6  C5  UNL     1     -34.518   4.803   6.028  1.00 20.00     0.258 C 
HETATM    7  O7  UNL     1     -34.774   5.770   6.735  1.00 20.00    -0.302 OA
ENDBRANCH   2   6
TORSDOF 2
ENDMDL
MODEL 2
REMARK VINA RESULT:      -4.5      1.475      1.800
REMARK  2 active torsions:
REMARK  status: ('A' for Active; 'I' for Inactive)
REMARK    1  A    between atoms: C1_1  and  C3_3 
REMARK    2  A    between atoms: C2_2  and  C5_5 
ROOT
HETATM    1  C1  UNL     1     -33.896   6.345   5.847  1.00 20.00     0.003 C 
HETATM    2  C2  UNL     1     -34.655   5.304   6.211  1.00 20.00     0.041 C 
ENDROOT
BRANCH   1   3
HETATM    3  C3  UNL     1     -33.701   6.724   4.466  1.00 20.00    -0.004 C 
HETATM    4  C4  UNL     1     -32.493   6.795   3.887  1.00 20.00    -0.031 C 
HETATM    5  C6  UNL     1     -32.279   7.187   2.462  1.00 20.00     0.036 C 
ENDBRANCH   1   3
BRANCH   2   6
HETATM    6  C5  UNL     1     -35.326   4.508   5.165  1.00 20.00     0.258 C 
HETATM    7  O7  UNL     1     -34.982   3.362   4.904  1.00 20.00    -0.302 OA
ENDBRANCH   2   6
TORSDOF 2
ENDMDL
MODEL 3
REMARK VINA RESULT:      -4.2      2.078      3.748
REMARK  2 active torsions:
REMARK  status: ('A' for Active; 'I' for Inactive)
REMARK    1  A    between atoms: C1_1  and  C3_3 
REMARK    2  A    between atoms: C2_2  and  C5_5 
ROOT
HETATM    1  C1  UNL     1     -34.292   5.463   3.027  1.00 20.00     0.003 C 
HETATM    2  C2  UNL     1     -33.128   5.950   2.578  1.00 20.00     0.041 C 
ENDROOT
BRANCH   1   3
HETATM    3  C3  UNL     1     -34.688   5.543   4.415  1.00 20.00    -0.004 C 
HETATM    4  C4  UNL     1     -34.821   4.467   5.204  1.00 20.00    -0.031 C 
HETATM    5  C6  UNL     1     -35.231   4.536   6.638  1.00 20.00     0.036 C 
ENDBRANCH   1   3
BRANCH   2   6
HETATM    6  C5  UNL     1     -32.209   6.599   3.532  1.00 20.00     0.258 C 
HETATM    7  O7  UNL     1     -31.654   7.661   3.276  1.00 20.00    -0.302 OA
ENDBRANCH   2   6
TORSDOF 2
ENDMDL
MODEL 4
REMARK VINA RESULT:      -4.1      2.389      3.034
REMARK  2 active torsions:
REMARK  status: ('A' for Active; 'I' for Inactive)
REMARK    1  A    between atoms: C1_1  and  C3_3 
REMARK    2  A    between atoms: C2_2  and  C5_5 
ROOT
HETATM    1  C1  UNL     1     -34.966   4.289   5.863  1.00 20.00     0.003 C 
HETATM    2  C2  UNL     1     -35.104   4.148   4.539  1.00 20.00     0.041 C 
ENDROOT
BRANCH   1   3
HETATM    3  C3  UNL     1     -34.759   5.573   6.493  1.00 20.00    -0.004 C 
HETATM    4  C4  UNL     1     -33.630   6.285   6.355  1.00 20.00    -0.031 C 
HETATM    5  C6  UNL     1     -33.403   7.612   7.002  1.00 20.00     0.036 C 
ENDBRANCH   1   3
BRANCH   2   6
HETATM    6  C5  UNL     1     -35.044   5.347   3.682  1.00 20.00     0.258 C 
HETATM    7  O7  UNL     1     -34.106   5.553   2.921  1.00 20.00    -0.302 OA
ENDBRANCH   2   6
TORSDOF 2
ENDMDL
MODEL 5
REMARK VINA RESULT:      -4.1     11.690     12.333
REMARK  2 active torsions:
REMARK  status: ('A' for Active; 'I' for Inactive)
REMARK    1  A    between atoms: C1_1  and  C3_3 
REMARK    2  A    between atoms: C2_2  and  C5_5 
ROOT
HETATM    1  C1  UNL     1     -33.519  15.711  -3.277  1.00 20.00     0.003 C 
HETATM    2  C2  UNL     1     -33.730  14.676  -4.099  1.00 20.00     0.041 C 
ENDROOT
BRANCH   1   3
HETATM    3  C3  UNL     1     -34.358  15.982  -2.131  1.00 20.00    -0.004 C 
HETATM    4  C4  UNL     1     -34.056  16.899  -1.200  1.00 20.00    -0.031 C 
HETATM    5  C6  UNL     1     -34.913  17.187  -0.012  1.00 20.00     0.036 C 
ENDBRANCH   1   3
BRANCH   2   6
HETATM    6  C5  UNL     1     -34.862  13.768  -3.830  1.00 20.00     0.258 C 
HETATM    7  O7  UNL     1     -34.964  12.680  -4.383  1.00 20.00    -0.302 OA
ENDBRANCH   2   6
TORSDOF 2
ENDMDL
MODEL 6
REMARK VINA RESULT:      -4.1      1.767      2.514
REMARK  2 active torsions:
REMARK  status: ('A' for Active; 'I' for Inactive)
REMARK    1  A    between atoms: C1_1  and  C3_3 
REMARK    2  A    between atoms: C2_2  and  C5_5 
ROOT
HETATM    1  C1  UNL     1     -32.617   6.626   4.022  1.00 20.00     0.003 C 
HETATM    2  C2  UNL     1     -33.658   5.894   4.438  1.00 20.00     0.041 C 
ENDROOT
BRANCH   1   3
HETATM    3  C3  UNL     1     -32.453   7.039   2.647  1.00 20.00    -0.004 C 
HETATM    4  C4  UNL     1     -32.096   8.283   2.291  1.00 20.00    -0.031 C 
HETATM    5  C6  UNL     1     -31.924   8.722   0.874  1.00 20.00     0.036 C 
ENDBRANCH   1   3
BRANCH   2   6
HETATM    6  C5  UNL     1     -34.686   5.492   3.458  1.00 20.00     0.258 C 
HETATM    7  O7  UNL     1     -35.873   5.425   3.755  1.00 20.00    -0.302 OA
ENDBRANCH   2   6
TORSDOF 2
ENDMDL
MODEL 7
REMARK VINA RESULT:      -4.1      2.812      4.576
REMARK  2 active torsions:
REMARK  status: ('A' for Active; 'I' for Inactive)
REMARK    1  A    between atoms: C1_1  and  C3_3 
REMARK    2  A    between atoms: C2_2  and  C5_5 
ROOT
HETATM    1  C1  UNL     1     -32.005   6.870   3.538  1.00 20.00     0.003 C 
HETATM    2  C2  UNL     1     -31.585   7.932   2.839  1.00 20.00     0.041 C 
ENDROOT
BRANCH   1   3
HETATM    3  C3  UNL     1     -33.288   6.244   3.312  1.00 20.00    -0.004 C 
HETATM    4  C4  UNL     1     -34.087   5.827   4.306  1.00 20.00    -0.031 C 
HETATM    5  C6  UNL     1     -35.413   5.178   4.086  1.00 20.00     0.036 C 
ENDBRANCH   1   3
BRANCH   2   6
HETATM    6  C5  UNL     1     -32.462   8.489   1.791  1.00 20.00     0.258 C 
HETATM    7  O7  UNL     1     -32.419   9.672   1.474  1.00 20.00    -0.302 OA
ENDBRANCH   2   6
TORSDOF 2
ENDMDL
MODEL 8
REMARK VINA RESULT:      -3.6     11.959     13.330
REMARK  2 active torsions:
REMARK  status: ('A' for Active; 'I' for Inactive)
REMARK    1  A    between atoms: C1_1  and  C3_3 
REMARK    2  A    between atoms: C2_2  and  C5_5 
ROOT
HETATM    1  C1  UNL     1     -32.908  15.241  -3.736  1.00 20.00     0.003 C 
HETATM    2  C2  UNL     1     -33.410  14.004  -3.629  1.00 20.00     0.041 C 
ENDROOT
BRANCH   1   3
HETATM    3  C3  UNL     1     -33.172  16.095  -4.872  1.00 20.00    -0.004 C 
HETATM    4  C4  UNL     1     -33.496  17.391  -4.757  1.00 20.00    -0.031 C 
HETATM    5  C6  UNL     1     -33.772  18.283  -5.922  1.00 20.00     0.036 C 
ENDBRANCH   1   3
BRANCH   2   6
HETATM    6  C5  UNL     1     -34.271  13.486  -4.709  1.00 20.00     0.258 C 
HETATM    7  O7  UNL     1     -35.097  12.603  -4.511  1.00 20.00    -0.302 OA
ENDBRANCH   2   6
TORSDOF 2
ENDMDL
MODEL 9
REMARK VINA RESULT:      -3.5     12.550     13.214
REMARK  2 active torsions:
REMARK  status: ('A' for Active; 'I' for Inactive)
REMARK    1  A    between atoms: C1_1  and  C3_3 
REMARK    2  A    between atoms: C2_2  and  C5_5 
ROOT
HETATM    1  C1  UNL     1     -34.769  15.540  -2.428  1.00 20.00     0.003 C 
HETATM    2  C2  UNL     1     -34.624  15.511  -3.759  1.00 20.00     0.041 C 
ENDROOT
BRANCH   1   3
HETATM    3  C3  UNL     1     -34.190  16.576  -1.602  1.00 20.00    -0.004 C 
HETATM    4  C4  UNL     1     -34.713  16.956  -0.427  1.00 20.00    -0.031 C 
HETATM    5  C6  UNL     1     -34.125  18.025   0.435  1.00 20.00     0.036 C 
ENDBRANCH   1   3
BRANCH   2   6
HETATM    6  C5  UNL     1     -33.846  16.578  -4.416  1.00 20.00     0.258 C 
HETATM    7  O7  UNL     1     -32.748  16.364  -4.917  1.00 20.00    -0.302 OA
ENDBRANCH   2   6
TORSDOF 2
ENDMDL
