MODEL 1
REMARK VINA RESULT:      -4.8      0.000      0.000
REMARK  3 active torsions:
REMARK  status: ('A' for Active; 'I' for Inactive)
REMARK    1  A    between atoms: C1_1  and  C2_2 
REMARK    2  A    between atoms: C4_4  and  C6_6 
REMARK    3  A    between atoms: C6_6  and  O7_7 
ROOT
HETATM    1  C2  UNL     1     -33.959   6.386   3.763  1.00 20.00    -0.002 C 
HETATM    2  C4  UNL     1     -32.704   6.262   3.308  1.00 20.00    -0.001 C 
ENDROOT
BRANCH   1   3
HETATM    3  C1  UNL     1     -34.890   5.283   3.826  1.00 20.00    -0.005 C 
HETATM    4  C3  UNL     1     -35.214   4.662   4.970  1.00 20.00    -0.031 C 
HETATM    5  C5  UNL     1     -34.655   5.037   6.303  1.00 20.00     0.036 C 
ENDBRANCH   1   3
BRANCH   2   6
HETATM    6  C6  UNL     1     -31.732   7.397   3.243  1.00 20.00     0.191 C 
BRANCH   6   7
HETATM    7  O7  UNL     1     -32.020   8.211   2.113  1.00 20.00    -0.397 OA
HETATM    8  H17 UNL     1     -31.930   9.133   2.403  1.00 20.00     0.209 HD
ENDBRANCH   6   7
ENDBRANCH   2   6
TORSDOF 3
ENDMDL
MODEL 2
REMARK VINA RESULT:      -4.3      2.561      4.433
REMARK  3 active torsions:
REMARK  status: ('A' for Active; 'I' for Inactive)
REMARK    1  A    between atoms: C1_1  and  C2_2 
REMARK    2  A    between atoms: C4_4  and  C6_6 
REMARK    3  A    between atoms: C6_6  and  O7_7 
ROOT
HETATM    1  C2  UNL     1     -33.354   6.139   3.378  1.00 20.00    -0.002 C 
HETATM    2  C4  UNL     1     -34.048   5.681   4.430  1.00 20.00    -0.001 C 
ENDROOT
BRANCH   1   3
HETATM    3  C1  UNL     1     -32.041   6.731   3.494  1.00 20.00    -0.005 C 
HETATM    4  C3  UNL     1     -31.654   7.802   2.786  1.00 20.00    -0.031 C 
HETATM    5  C5  UNL     1     -32.531   8.504   1.800  1.00 20.00     0.036 C 
ENDBRANCH   1   3
BRANCH   2   6
HETATM    6  C6  UNL     1     -35.405   5.063   4.319  1.00 20.00     0.191 C 
BRANCH   6   7
HETATM    7  O7  UNL     1     -35.402   3.784   4.940  1.00 20.00    -0.397 OA
HETATM    8  H17 UNL     1     -34.668   3.285   4.548  1.00 20.00     0.209 HD
ENDBRANCH   6   7
ENDBRANCH   2   6
TORSDOF 3
ENDMDL
MODEL 3
REMARK VINA RESULT:      -3.9      1.348      2.101
REMARK  3 active torsions:
REMARK  status: ('A' for Active; 'I' for Inactive)
REMARK    1  A    between atoms: C1_1  and  C2_2 
REMARK    2  A    between atoms: C4_4  and  C6_6 
REMARK    3  A    between atoms: C6_6  and  O7_7 
ROOT
HETATM    1  C2  UNL     1     -32.627   6.757   2.865  1.00 20.00    -0.002 C 
HETATM    2  C4  UNL     1     -32.125   7.973   2.603  1.00 20.00    -0.001 C 
ENDROOT
BRANCH   1   3
HETATM    3  C1  UNL     1     -32.908   6.290   4.203  1.00 20.00    -0.005 C 
HETATM    4  C3  UNL     1     -34.064   5.704   4.547  1.00 20.00    -0.031 C 
HETATM    5  C5  UNL     1     -35.189   5.467   3.593  1.00 20.00     0.036 C 
ENDBRANCH   1   3
BRANCH   2   6
HETATM    6  C6  UNL     1     -31.835   8.468   1.221  1.00 20.00     0.191 C 
BRANCH   6   7
HETATM    7  O7  UNL     1     -32.316   9.797   1.076  1.00 20.00    -0.397 OA
HETATM    8  H17 UNL     1     -31.602  10.310   0.665  1.00 20.00     0.209 HD
ENDBRANCH   6   7
ENDBRANCH   2   6
TORSDOF 3
ENDMDL
MODEL 4
REMARK VINA RESULT:      -3.9      2.596      4.301
REMARK  3 active torsions:
REMARK  status: ('A' for Active; 'I' for Inactive)
REMARK    1  A    between atoms: C1_1  and  C2_2 
REMARK    2  A    between atoms: C4_4  and  C6_6 
REMARK    3  A    between atoms: C6_6  and  O7_7 
ROOT
HETATM    1  C2  UNL     1     -33.438   6.142   4.114  1.00 20.00    -0.002 C 
HETATM    2  C4  UNL     1     -34.583   5.454   4.236  1.00 20.00    -0.001 C 
ENDROOT
BRANCH   1   3
HETATM    3  C1  UNL     1     -32.967   6.676   2.857  1.00 20.00    -0.005 C 
HETATM    4  C3  UNL     1     -31.912   7.498   2.758  1.00 20.00    -0.031 C 
HETATM    5  C5  UNL     1     -31.106   7.955   3.930  1.00 20.00     0.036 C 
ENDBRANCH   1   3
BRANCH   2   6
HETATM    6  C6  UNL     1     -35.080   4.901   5.534  1.00 20.00     0.191 C 
BRANCH   6   7
HETATM    7  O7  UNL     1     -35.438   3.536   5.368  1.00 20.00    -0.397 OA
HETATM    8  H17 UNL     1     -34.795   3.151   4.752  1.00 20.00     0.209 HD
ENDBRANCH   6   7
ENDBRANCH   2   6
TORSDOF 3
ENDMDL
MODEL 5
REMARK VINA RESULT:      -3.9     11.448     11.863
REMARK  3 active torsions:
REMARK  status: ('A' for Active; 'I' for Inactive)
REMARK    1  A    between atoms: C1_1  and  C2_2 
REMARK    2  A    between atoms: C4_4  and  C6_6 
REMARK    3  A    between atoms: C6_6  and  O7_7 
ROOT
HETATM    1  C2  UNL     1     -34.774  15.671  -2.624  1.00 20.00    -0.002 C 
HETATM    2  C4  UNL     1     -34.647  14.866  -3.690  1.00 20.00    -0.001 C 
ENDROOT
BRANCH   1   3
HETATM    3  C1  UNL     1     -33.753  16.607  -2.215  1.00 20.00    -0.005 C 
HETATM    4  C3  UNL     1     -33.795  17.277  -1.054  1.00 20.00    -0.031 C 
HETATM    5  C5  UNL     1     -34.896  17.132  -0.054  1.00 20.00     0.036 C 
ENDBRANCH   1   3
BRANCH   2   6
HETATM    6  C6  UNL     1     -35.700  13.897  -4.124  1.00 20.00     0.191 C 
BRANCH   6   7
HETATM    7  O7  UNL     1     -35.163  12.581  -4.142  1.00 20.00    -0.397 OA
HETATM    8  H17 UNL     1     -35.384  12.201  -5.007  1.00 20.00     0.209 HD
ENDBRANCH   6   7
ENDBRANCH   2   6
TORSDOF 3
ENDMDL
MODEL 6
REMARK VINA RESULT:      -3.7     11.683     12.056
REMARK  3 active torsions:
REMARK  status: ('A' for Active; 'I' for Inactive)
REMARK    1  A    between atoms: C1_1  and  C2_2 
REMARK    2  A    between atoms: C4_4  and  C6_6 
REMARK    3  A    between atoms: C6_6  and  O7_7 
ROOT
HETATM    1  C2  UNL     1     -33.891  16.559  -1.974  1.00 20.00    -0.002 C 
HETATM    2  C4  UNL     1     -33.990  15.598  -2.904  1.00 20.00    -0.001 C 
ENDROOT
BRANCH   1   3
HETATM    3  C1  UNL     1     -34.771  16.647  -0.832  1.00 20.00    -0.005 C 
HETATM    4  C3  UNL     1     -34.560  17.486   0.193  1.00 20.00    -0.031 C 
HETATM    5  C5  UNL     1     -33.399  18.422   0.272  1.00 20.00     0.036 C 
ENDBRANCH   1   3
BRANCH   2   6
HETATM    6  C6  UNL     1     -33.081  15.497  -4.088  1.00 20.00     0.191 C 
BRANCH   6   7
HETATM    7  O7  UNL     1     -31.941  14.717  -3.752  1.00 20.00    -0.397 OA
HETATM    8  H17 UNL     1     -32.164  13.794  -3.954  1.00 20.00     0.209 HD
ENDBRANCH   6   7
ENDBRANCH   2   6
TORSDOF 3
ENDMDL
MODEL 7
REMARK VINA RESULT:      -3.7      2.482      4.533
REMARK  3 active torsions:
REMARK  status: ('A' for Active; 'I' for Inactive)
REMARK    1  A    between atoms: C1_1  and  C2_2 
REMARK    2  A    between atoms: C4_4  and  C6_6 
REMARK    3  A    between atoms: C6_6  and  O7_7 
ROOT
HETATM    1  C2  UNL     1     -32.590   7.260   3.165  1.00 20.00    -0.002 C 
HETATM    2  C4  UNL     1     -33.324   6.151   3.341  1.00 20.00    -0.001 C 
ENDROOT
BRANCH   1   3
HETATM    3  C1  UNL     1     -31.858   7.539   1.952  1.00 20.00    -0.005 C 
HETATM    4  C3  UNL     1     -31.903   8.723   1.324  1.00 20.00    -0.031 C 
HETATM    5  C5  UNL     1     -32.710   9.885   1.803  1.00 20.00     0.036 C 
ENDBRANCH   1   3
BRANCH   2   6
HETATM    6  C6  UNL     1     -34.089   5.856   4.592  1.00 20.00     0.191 C 
BRANCH   6   7
HETATM    7  O7  UNL     1     -35.292   5.171   4.268  1.00 20.00    -0.397 OA
HETATM    8  H17 UNL     1     -35.707   4.923   5.110  1.00 20.00     0.209 HD
ENDBRANCH   6   7
ENDBRANCH   2   6
TORSDOF 3
ENDMDL
MODEL 8
REMARK VINA RESULT:      -3.3     11.671     12.047
REMARK  3 active torsions:
REMARK  status: ('A' for Active; 'I' for Inactive)
REMARK    1  A    between atoms: C1_1  and  C2_2 
REMARK    2  A    between atoms: C4_4  and  C6_6 
REMARK    3  A    between atoms: C6_6  and  O7_7 
ROOT
HETATM    1  C2  UNL     1     -34.783  16.411  -1.553  1.00 20.00    -0.002 C 
HETATM    2  C4  UNL     1     -34.498  15.766  -2.694  1.00 20.00    -0.001 C 
ENDROOT
BRANCH   1   3
HETATM    3  C1  UNL     1     -33.876  17.343  -0.924  1.00 20.00    -0.005 C 
HETATM    4  C3  UNL     1     -34.090  17.867   0.292  1.00 20.00    -0.031 C 
HETATM    5  C5  UNL     1     -35.284  17.551   1.132  1.00 20.00     0.036 C 
ENDBRANCH   1   3
BRANCH   2   6
HETATM    6  C6  UNL     1     -35.432  14.803  -3.355  1.00 20.00     0.191 C 
BRANCH   6   7
HETATM    7  O7  UNL     1     -36.763  15.051  -2.920  1.00 20.00    -0.397 OA
HETATM    8  H17 UNL     1     -37.349  14.571  -3.527  1.00 20.00     0.209 HD
ENDBRANCH   6   7
ENDBRANCH   2   6
TORSDOF 3
ENDMDL
MODEL 9
REMARK VINA RESULT:      -3.3     11.356     11.993
REMARK  3 active torsions:
REMARK  status: ('A' for Active; 'I' for Inactive)
REMARK    1  A    between atoms: C1_1  and  C2_2 
REMARK    2  A    between atoms: C4_4  and  C6_6 
REMARK    3  A    between atoms: C6_6  and  O7_7 
ROOT
HETATM    1  C2  UNL     1     -34.361  15.726  -2.380  1.00 20.00    -0.002 C 
HETATM    2  C4  UNL     1     -34.029  16.724  -1.547  1.00 20.00    -0.001 C 
ENDROOT
BRANCH   1   3
HETATM    3  C1  UNL     1     -33.609  15.410  -3.573  1.00 20.00    -0.005 C 
HETATM    4  C3  UNL     1     -33.896  14.367  -4.365  1.00 20.00    -0.031 C 
HETATM    5  C5  UNL     1     -35.018  13.415  -4.107  1.00 20.00     0.036 C 
ENDBRANCH   1   3
BRANCH   2   6
HETATM    6  C6  UNL     1     -34.798  17.056  -0.308  1.00 20.00     0.191 C 
BRANCH   6   7
HETATM    7  O7  UNL     1     -36.094  17.521  -0.658  1.00 20.00    -0.397 OA
HETATM    8  H17 UNL     1     -35.972  18.358  -1.134  1.00 20.00     0.209 HD
ENDBRANCH   6   7
ENDBRANCH   2   6
TORSDOF 3
ENDMDL
