MODEL 1
REMARK VINA RESULT:      -4.4      0.000      0.000
REMARK  2 active torsions:
REMARK  status: ('A' for Active; 'I' for Inactive)
REMARK    1  A    between atoms: C4_4  and  C10_10 
REMARK    2  A    between atoms: C10_10  and  O11_11 
ROOT
HETATM    1  C1  UNL     1     -34.311  16.302  -5.008  1.00 20.00    -0.069 C 
HETATM    2  C2  UNL     1     -34.420  16.172  -6.332  1.00 20.00    -0.085 C 
HETATM    3  C3  UNL     1     -34.249  17.512  -4.099  1.00 20.00     0.043 C 
HETATM    4  C4  UNL     1     -34.645  16.516  -2.979  1.00 20.00     0.025 C 
HETATM    5  C5  UNL     1     -34.181  15.297  -3.860  1.00 20.00    -0.018 C 
HETATM    6  C6  UNL     1     -34.461  14.827  -7.002  1.00 20.00     0.043 C 
HETATM    7  C7  UNL     1     -34.510  17.361  -7.247  1.00 20.00     0.043 C 
HETATM    8  C8  UNL     1     -32.758  14.779  -3.651  1.00 20.00     0.020 C 
HETATM    9  C9  UNL     1     -35.195  14.153  -3.873  1.00 20.00     0.020 C 
ENDROOT
BRANCH   4  10
HETATM   10  C10 UNL     1     -33.986  16.746  -1.628  1.00 20.00     0.170 C 
BRANCH  10  11
HETATM   11  O11 UNL     1     -34.902  16.391  -0.608  1.00 20.00    -0.400 OA
HETATM   12  H29 UNL     1     -35.526  17.130  -0.515  1.00 20.00     0.209 HD
ENDBRANCH  10  11
ENDBRANCH   4  10
TORSDOF 2
ENDMDL
MODEL 2
REMARK VINA RESULT:      -4.3      2.091      3.995
REMARK  2 active torsions:
REMARK  status: ('A' for Active; 'I' for Inactive)
REMARK    1  A    between atoms: C4_4  and  C10_10 
REMARK    2  A    between atoms: C10_10  and  O11_11 
ROOT
HETATM    1  C1  UNL     1     -34.195  16.596  -3.042  1.00 20.00    -0.069 C 
HETATM    2  C2  UNL     1     -33.978  17.715  -2.346  1.00 20.00    -0.085 C 
HETATM    3  C3  UNL     1     -34.078  15.129  -2.684  1.00 20.00     0.043 C 
HETATM    4  C4  UNL     1     -34.991  14.901  -3.916  1.00 20.00     0.025 C 
HETATM    5  C5  UNL     1     -34.628  16.323  -4.485  1.00 20.00    -0.018 C 
HETATM    6  C6  UNL     1     -34.172  19.079  -2.946  1.00 20.00     0.043 C 
HETATM    7  C7  UNL     1     -33.524  17.690  -0.913  1.00 20.00     0.043 C 
HETATM    8  C8  UNL     1     -33.486  16.405  -5.498  1.00 20.00     0.020 C 
HETATM    9  C9  UNL     1     -35.853  17.103  -4.960  1.00 20.00     0.020 C 
ENDROOT
BRANCH   4  10
HETATM   10  C10 UNL     1     -34.678  13.669  -4.750  1.00 20.00     0.170 C 
BRANCH  10  11
HETATM   11  O11 UNL     1     -35.361  12.557  -4.196  1.00 20.00    -0.400 OA
HETATM   12  H29 UNL     1     -35.209  12.579  -3.237  1.00 20.00     0.209 HD
ENDBRANCH  10  11
ENDBRANCH   4  10
TORSDOF 2
ENDMDL
MODEL 3
REMARK VINA RESULT:      -4.3      2.350      4.354
REMARK  2 active torsions:
REMARK  status: ('A' for Active; 'I' for Inactive)
REMARK    1  A    between atoms: C4_4  and  C10_10 
REMARK    2  A    between atoms: C10_10  and  O11_11 
ROOT
HETATM    1  C1  UNL     1     -35.009  16.228  -2.519  1.00 20.00    -0.069 C 
HETATM    2  C2  UNL     1     -35.196  17.156  -1.578  1.00 20.00    -0.085 C 
HETATM    3  C3  UNL     1     -33.892  15.238  -2.772  1.00 20.00     0.043 C 
HETATM    4  C4  UNL     1     -34.939  14.492  -3.638  1.00 20.00     0.025 C 
HETATM    5  C5  UNL     1     -35.822  15.792  -3.740  1.00 20.00    -0.018 C 
HETATM    6  C6  UNL     1     -36.420  18.029  -1.548  1.00 20.00     0.043 C 
HETATM    7  C7  UNL     1     -34.198  17.394  -0.479  1.00 20.00     0.043 C 
HETATM    8  C8  UNL     1     -35.622  16.683  -4.966  1.00 20.00     0.020 C 
HETATM    9  C9  UNL     1     -37.304  15.524  -3.480  1.00 20.00     0.020 C 
ENDROOT
BRANCH   4  10
HETATM   10  C10 UNL     1     -34.409  13.855  -4.913  1.00 20.00     0.170 C 
BRANCH  10  11
HETATM   11  O11 UNL     1     -34.782  12.488  -4.929  1.00 20.00    -0.400 OA
HETATM   12  H29 UNL     1     -35.035  12.272  -5.842  1.00 20.00     0.209 HD
ENDBRANCH  10  11
ENDBRANCH   4  10
TORSDOF 2
ENDMDL
MODEL 4
REMARK VINA RESULT:      -4.3      2.298      4.188
REMARK  2 active torsions:
REMARK  status: ('A' for Active; 'I' for Inactive)
REMARK    1  A    between atoms: C4_4  and  C10_10 
REMARK    2  A    between atoms: C10_10  and  O11_11 
ROOT
HETATM    1  C1  UNL     1     -34.056  17.083  -3.210  1.00 20.00    -0.069 C 
HETATM    2  C2  UNL     1     -33.995  17.458  -1.930  1.00 20.00    -0.085 C 
HETATM    3  C3  UNL     1     -33.561  17.723  -4.490  1.00 20.00     0.043 C 
HETATM    4  C4  UNL     1     -33.699  16.301  -5.090  1.00 20.00     0.025 C 
HETATM    5  C5  UNL     1     -34.664  15.871  -3.922  1.00 20.00    -0.018 C 
HETATM    6  C6  UNL     1     -34.576  16.623  -0.824  1.00 20.00     0.043 C 
HETATM    7  C7  UNL     1     -33.341  18.743  -1.505  1.00 20.00     0.043 C 
HETATM    8  C8  UNL     1     -36.167  15.991  -4.170  1.00 20.00     0.020 C 
HETATM    9  C9  UNL     1     -34.303  14.511  -3.324  1.00 20.00     0.020 C 
ENDROOT
BRANCH   4  10
HETATM   10  C10 UNL     1     -34.200  16.235  -6.524  1.00 20.00     0.170 C 
BRANCH  10  11
HETATM   11  O11 UNL     1     -33.885  14.961  -7.059  1.00 20.00    -0.400 OA
HETATM   12  H29 UNL     1     -34.727  14.527  -7.275  1.00 20.00     0.209 HD
ENDBRANCH  10  11
ENDBRANCH   4  10
TORSDOF 2
ENDMDL
MODEL 5
REMARK VINA RESULT:      -4.2      1.473      1.529
REMARK  2 active torsions:
REMARK  status: ('A' for Active; 'I' for Inactive)
REMARK    1  A    between atoms: C4_4  and  C10_10 
REMARK    2  A    between atoms: C10_10  and  O11_11 
ROOT
HETATM    1  C1  UNL     1     -35.532  15.658  -4.588  1.00 20.00    -0.069 C 
HETATM    2  C2  UNL     1     -36.032  15.320  -5.779  1.00 20.00    -0.085 C 
HETATM    3  C3  UNL     1     -35.979  16.648  -3.533  1.00 20.00     0.043 C 
HETATM    4  C4  UNL     1     -35.074  15.826  -2.580  1.00 20.00     0.025 C 
HETATM    5  C5  UNL     1     -34.296  15.210  -3.802  1.00 20.00    -0.018 C 
HETATM    6  C6  UNL     1     -35.385  14.283  -6.653  1.00 20.00     0.043 C 
HETATM    7  C7  UNL     1     -37.280  15.952  -6.330  1.00 20.00     0.043 C 
HETATM    8  C8  UNL     1     -33.005  15.902  -4.236  1.00 20.00     0.020 C 
HETATM    9  C9  UNL     1     -34.107  13.698  -3.684  1.00 20.00     0.020 C 
ENDROOT
BRANCH   4  10
HETATM   10  C10 UNL     1     -34.304  16.630  -1.543  1.00 20.00     0.170 C 
BRANCH  10  11
HETATM   11  O11 UNL     1     -34.954  16.498  -0.290  1.00 20.00    -0.400 OA
HETATM   12  H29 UNL     1     -34.278  16.229   0.354  1.00 20.00     0.209 HD
ENDBRANCH  10  11
ENDBRANCH   4  10
TORSDOF 2
ENDMDL
MODEL 6
REMARK VINA RESULT:      -4.2      2.096      3.195
REMARK  2 active torsions:
REMARK  status: ('A' for Active; 'I' for Inactive)
REMARK    1  A    between atoms: C4_4  and  C10_10 
REMARK    2  A    between atoms: C10_10  and  O11_11 
ROOT
HETATM    1  C1  UNL     1     -34.269  16.802  -5.297  1.00 20.00    -0.069 C 
HETATM    2  C2  UNL     1     -34.298  18.106  -5.579  1.00 20.00    -0.085 C 
HETATM    3  C3  UNL     1     -33.470  15.987  -4.302  1.00 20.00     0.043 C 
HETATM    4  C4  UNL     1     -34.568  14.913  -4.514  1.00 20.00     0.025 C 
HETATM    5  C5  UNL     1     -35.007  15.587  -5.867  1.00 20.00    -0.018 C 
HETATM    6  C6  UNL     1     -35.203  18.676  -6.636  1.00 20.00     0.043 C 
HETATM    7  C7  UNL     1     -33.427  19.099  -4.861  1.00 20.00     0.043 C 
HETATM    8  C8  UNL     1     -34.395  15.042  -7.157  1.00 20.00     0.020 C 
HETATM    9  C9  UNL     1     -36.523  15.739  -5.989  1.00 20.00     0.020 C 
ENDROOT
BRANCH   4  10
HETATM   10  C10 UNL     1     -34.086  13.470  -4.530  1.00 20.00     0.170 C 
BRANCH  10  11
HETATM   11  O11 UNL     1     -35.152  12.629  -4.125  1.00 20.00    -0.400 OA
HETATM   12  H29 UNL     1     -35.234  12.717  -3.161  1.00 20.00     0.209 HD
ENDBRANCH  10  11
ENDBRANCH   4  10
TORSDOF 2
ENDMDL
MODEL 7
REMARK VINA RESULT:      -4.2     12.269     14.234
REMARK  2 active torsions:
REMARK  status: ('A' for Active; 'I' for Inactive)
REMARK    1  A    between atoms: C4_4  and  C10_10 
REMARK    2  A    between atoms: C10_10  and  O11_11 
ROOT
HETATM    1  C1  UNL     1     -42.344   5.708  -2.174  1.00 20.00    -0.069 C 
HETATM    2  C2  UNL     1     -42.094   7.017  -2.099  1.00 20.00    -0.085 C 
HETATM    3  C3  UNL     1     -43.144   4.872  -3.151  1.00 20.00     0.043 C 
HETATM    4  C4  UNL     1     -42.325   3.683  -2.587  1.00 20.00     0.025 C 
HETATM    5  C5  UNL     1     -41.953   4.512  -1.301  1.00 20.00    -0.018 C 
HETATM    6  C6  UNL     1     -41.250   7.609  -1.005  1.00 20.00     0.043 C 
HETATM    7  C7  UNL     1     -42.639   7.993  -3.105  1.00 20.00     0.043 C 
HETATM    8  C8  UNL     1     -42.837   4.332  -0.067  1.00 20.00     0.020 C 
HETATM    9  C9  UNL     1     -40.469   4.419  -0.944  1.00 20.00     0.020 C 
ENDROOT
BRANCH   4  10
HETATM   10  C10 UNL     1     -43.085   2.374  -2.428  1.00 20.00     0.170 C 
BRANCH  10  11
HETATM   11  O11 UNL     1     -42.250   1.309  -2.850  1.00 20.00    -0.400 OA
HETATM   12  H29 UNL     1     -42.278   0.633  -2.153  1.00 20.00     0.209 HD
ENDBRANCH  10  11
ENDBRANCH   4  10
TORSDOF 2
ENDMDL
MODEL 8
REMARK VINA RESULT:      -4.1      1.970      3.330
REMARK  2 active torsions:
REMARK  status: ('A' for Active; 'I' for Inactive)
REMARK    1  A    between atoms: C4_4  and  C10_10 
REMARK    2  A    between atoms: C10_10  and  O11_11 
ROOT
HETATM    1  C1  UNL     1     -34.323  16.800  -5.034  1.00 20.00    -0.069 C 
HETATM    2  C2  UNL     1     -34.061  18.109  -5.036  1.00 20.00    -0.085 C 
HETATM    3  C3  UNL     1     -34.241  15.737  -6.110  1.00 20.00     0.043 C 
HETATM    4  C4  UNL     1     -34.239  14.738  -4.925  1.00 20.00     0.025 C 
HETATM    5  C5  UNL     1     -34.834  15.833  -3.963  1.00 20.00    -0.018 C 
HETATM    6  C6  UNL     1     -34.226  18.959  -3.808  1.00 20.00     0.043 C 
HETATM    7  C7  UNL     1     -33.580  18.825  -6.267  1.00 20.00     0.043 C 
HETATM    8  C8  UNL     1     -36.352  15.859  -3.780  1.00 20.00     0.020 C 
HETATM    9  C9  UNL     1     -34.109  15.900  -2.619  1.00 20.00     0.020 C 
ENDROOT
BRANCH   4  10
HETATM   10  C10 UNL     1     -35.014  13.448  -5.147  1.00 20.00     0.170 C 
BRANCH  10  11
HETATM   11  O11 UNL     1     -34.879  12.631  -3.997  1.00 20.00    -0.400 OA
HETATM   12  H29 UNL     1     -34.007  12.206  -4.051  1.00 20.00     0.209 HD
ENDBRANCH  10  11
ENDBRANCH   4  10
TORSDOF 2
ENDMDL
MODEL 9
REMARK VINA RESULT:      -4.1      2.577      4.245
REMARK  2 active torsions:
REMARK  status: ('A' for Active; 'I' for Inactive)
REMARK    1  A    between atoms: C4_4  and  C10_10 
REMARK    2  A    between atoms: C10_10  and  O11_11 
ROOT
HETATM    1  C1  UNL     1     -35.421  15.987  -3.736  1.00 20.00    -0.069 C 
HETATM    2  C2  UNL     1     -35.550  16.623  -2.570  1.00 20.00    -0.085 C 
HETATM    3  C3  UNL     1     -36.214  16.040  -5.025  1.00 20.00     0.043 C 
HETATM    4  C4  UNL     1     -34.950  15.410  -5.664  1.00 20.00     0.025 C 
HETATM    5  C5  UNL     1     -34.440  14.931  -4.254  1.00 20.00    -0.018 C 
HETATM    6  C6  UNL     1     -34.608  16.388  -1.422  1.00 20.00     0.043 C 
HETATM    7  C7  UNL     1     -36.647  17.620  -2.320  1.00 20.00     0.043 C 
HETATM    8  C8  UNL     1     -34.787  13.505  -3.828  1.00 20.00     0.020 C 
HETATM    9  C9  UNL     1     -32.961  15.239  -4.021  1.00 20.00     0.020 C 
ENDROOT
BRANCH   4  10
HETATM   10  C10 UNL     1     -35.205  14.376  -6.749  1.00 20.00     0.170 C 
BRANCH  10  11
HETATM   11  O11 UNL     1     -34.425  14.706  -7.886  1.00 20.00    -0.400 OA
HETATM   12  H29 UNL     1     -33.532  14.357  -7.730  1.00 20.00     0.209 HD
ENDBRANCH  10  11
ENDBRANCH   4  10
TORSDOF 2
ENDMDL
