MODEL 1
REMARK VINA RESULT:      -4.4      0.000      0.000
REMARK  1 active torsions:
REMARK  status: ('A' for Active; 'I' for Inactive)
REMARK    1  A    between atoms: C2_2  and  C3_3 
ROOT
HETATM    1  C1  UNL     1     -33.895  16.293  -3.431  1.00 20.00     0.010 C 
HETATM    2  C2  UNL     1     -33.700  15.358  -4.370  1.00 20.00     0.074 C 
HETATM    3  C4  UNL     1     -34.330  15.956  -2.026  1.00 20.00     0.058 C 
HETATM    4  C5  UNL     1     -33.956  17.220  -1.248  1.00 20.00     0.026 C 
HETATM    5  C6  UNL     1     -34.047  18.350  -2.276  1.00 20.00     0.122 C 
HETATM    6  C8  UNL     1     -33.489  18.432  -4.721  1.00 20.00     0.149 C 
HETATM    7  N9  UNL     1     -33.743  17.666  -3.523  1.00 20.00    -0.388 N 
ENDROOT
BRANCH   2   8
HETATM    8  C3  UNL     1     -33.906  13.919  -4.060  1.00 20.00     0.147 C 
HETATM    9  C7  UNL     1     -35.284  13.366  -4.314  1.00 20.00     0.096 C 
HETATM   10  O10 UNL     1     -33.001  13.202  -3.642  1.00 20.00    -0.294 OA
ENDBRANCH   2   8
TORSDOF 1
ENDMDL
MODEL 2
REMARK VINA RESULT:      -4.2      0.711      2.145
REMARK  1 active torsions:
REMARK  status: ('A' for Active; 'I' for Inactive)
REMARK    1  A    between atoms: C2_2  and  C3_3 
ROOT
HETATM    1  C1  UNL     1     -33.826  16.366  -3.751  1.00 20.00     0.010 C 
HETATM    2  C2  UNL     1     -34.114  15.268  -3.040  1.00 20.00     0.074 C 
HETATM    3  C4  UNL     1     -33.417  16.310  -5.202  1.00 20.00     0.058 C 
HETATM    4  C5  UNL     1     -33.667  17.743  -5.676  1.00 20.00     0.026 C 
HETATM    5  C6  UNL     1     -33.477  18.604  -4.426  1.00 20.00     0.122 C 
HETATM    6  C8  UNL     1     -34.038  18.194  -2.014  1.00 20.00     0.149 C 
HETATM    7  N9  UNL     1     -33.850  17.692  -3.356  1.00 20.00    -0.388 N 
ENDROOT
BRANCH   2   8
HETATM    8  C3  UNL     1     -34.041  13.921  -3.662  1.00 20.00     0.147 C 
HETATM    9  C7  UNL     1     -35.298  13.416  -4.323  1.00 20.00     0.096 C 
HETATM   10  O10 UNL     1     -33.009  13.255  -3.667  1.00 20.00    -0.294 OA
ENDBRANCH   2   8
TORSDOF 1
ENDMDL
MODEL 3
REMARK VINA RESULT:      -4.0      2.409      4.286
REMARK  1 active torsions:
REMARK  status: ('A' for Active; 'I' for Inactive)
REMARK    1  A    between atoms: C2_2  and  C3_3 
ROOT
HETATM    1  C1  UNL     1     -35.104  15.476  -3.214  1.00 20.00     0.010 C 
HETATM    2  C2  UNL     1     -35.456  16.579  -2.542  1.00 20.00     0.074 C 
HETATM    3  C4  UNL     1     -33.664  15.070  -3.413  1.00 20.00     0.058 C 
HETATM    4  C5  UNL     1     -33.781  13.588  -3.777  1.00 20.00     0.026 C 
HETATM    5  C6  UNL     1     -35.150  13.461  -4.449  1.00 20.00     0.122 C 
HETATM    6  C8  UNL     1     -37.342  14.598  -4.003  1.00 20.00     0.149 C 
HETATM    7  N9  UNL     1     -35.910  14.527  -3.818  1.00 20.00    -0.388 N 
ENDROOT
BRANCH   2   8
HETATM    8  C3  UNL     1     -34.423  17.468  -1.950  1.00 20.00     0.147 C 
HETATM    9  C7  UNL     1     -34.151  17.299  -0.478  1.00 20.00     0.096 C 
HETATM   10  O10 UNL     1     -33.798  18.286  -2.622  1.00 20.00    -0.294 OA
ENDBRANCH   2   8
TORSDOF 1
ENDMDL
MODEL 4
REMARK VINA RESULT:      -3.9     11.855     13.094
REMARK  1 active torsions:
REMARK  status: ('A' for Active; 'I' for Inactive)
REMARK    1  A    between atoms: C2_2  and  C3_3 
ROOT
HETATM    1  C1  UNL     1     -41.917   6.073  -2.251  1.00 20.00     0.010 C 
HETATM    2  C2  UNL     1     -42.694   6.563  -3.226  1.00 20.00     0.074 C 
HETATM    3  C4  UNL     1     -41.160   6.960  -1.294  1.00 20.00     0.058 C 
HETATM    4  C5  UNL     1     -40.843   6.010  -0.136  1.00 20.00     0.026 C 
HETATM    5  C6  UNL     1     -40.763   4.625  -0.782  1.00 20.00     0.122 C 
HETATM    6  C8  UNL     1     -42.058   3.581  -2.661  1.00 20.00     0.149 C 
HETATM    7  N9  UNL     1     -41.663   4.755  -1.917  1.00 20.00    -0.388 N 
ENDROOT
BRANCH   2   8
HETATM    8  C3  UNL     1     -42.848   8.029  -3.409  1.00 20.00     0.147 C 
HETATM    9  C7  UNL     1     -42.294   8.611  -4.683  1.00 20.00     0.096 C 
HETATM   10  O10 UNL     1     -43.417   8.738  -2.583  1.00 20.00    -0.294 OA
ENDBRANCH   2   8
TORSDOF 1
ENDMDL
MODEL 5
REMARK VINA RESULT:      -3.9     12.468     13.807
REMARK  1 active torsions:
REMARK  status: ('A' for Active; 'I' for Inactive)
REMARK    1  A    between atoms: C2_2  and  C3_3 
ROOT
HETATM    1  C1  UNL     1     -42.034   5.225  -2.110  1.00 20.00     0.010 C 
HETATM    2  C2  UNL     1     -42.562   4.386  -3.010  1.00 20.00     0.074 C 
HETATM    3  C4  UNL     1     -41.450   4.750  -0.802  1.00 20.00     0.058 C 
HETATM    4  C5  UNL     1     -40.582   5.936  -0.373  1.00 20.00     0.026 C 
HETATM    5  C6  UNL     1     -41.265   7.159  -0.989  1.00 20.00     0.122 C 
HETATM    6  C8  UNL     1     -42.461   7.481  -3.172  1.00 20.00     0.149 C 
HETATM    7  N9  UNL     1     -41.902   6.601  -2.171  1.00 20.00    -0.388 N 
ENDROOT
BRANCH   2   8
HETATM    8  C3  UNL     1     -42.594   2.923  -2.756  1.00 20.00     0.147 C 
HETATM    9  C7  UNL     1     -41.538   2.096  -3.443  1.00 20.00     0.096 C 
HETATM   10  O10 UNL     1     -43.417   2.405  -2.006  1.00 20.00    -0.294 OA
ENDBRANCH   2   8
TORSDOF 1
ENDMDL
MODEL 6
REMARK VINA RESULT:      -3.9      2.914      4.528
REMARK  1 active torsions:
REMARK  status: ('A' for Active; 'I' for Inactive)
REMARK    1  A    between atoms: C2_2  and  C3_3 
ROOT
HETATM    1  C1  UNL     1     -35.933  14.798  -5.476  1.00 20.00     0.010 C 
HETATM    2  C2  UNL     1     -35.790  14.633  -4.155  1.00 20.00     0.074 C 
HETATM    3  C4  UNL     1     -34.780  14.670  -6.441  1.00 20.00     0.058 C 
HETATM    4  C5  UNL     1     -35.487  14.462  -7.782  1.00 20.00     0.026 C 
HETATM    5  C6  UNL     1     -36.827  15.185  -7.630  1.00 20.00     0.122 C 
HETATM    6  C8  UNL     1     -38.372  15.443  -5.669  1.00 20.00     0.149 C 
HETATM    7  N9  UNL     1     -37.076  15.088  -6.200  1.00 20.00    -0.388 N 
ENDROOT
BRANCH   2   8
HETATM    8  C3  UNL     1     -34.463  14.307  -3.572  1.00 20.00     0.147 C 
HETATM    9  C7  UNL     1     -33.626  15.472  -3.109  1.00 20.00     0.096 C 
HETATM   10  O10 UNL     1     -34.067  13.151  -3.444  1.00 20.00    -0.294 OA
ENDBRANCH   2   8
TORSDOF 1
ENDMDL
MODEL 7
REMARK VINA RESULT:      -3.9      2.644      4.274
REMARK  1 active torsions:
REMARK  status: ('A' for Active; 'I' for Inactive)
REMARK    1  A    between atoms: C2_2  and  C3_3 
ROOT
HETATM    1  C1  UNL     1     -35.703  14.594  -4.937  1.00 20.00     0.010 C 
HETATM    2  C2  UNL     1     -35.075  14.200  -3.822  1.00 20.00     0.074 C 
HETATM    3  C4  UNL     1     -34.979  14.824  -6.241  1.00 20.00     0.058 C 
HETATM    4  C5  UNL     1     -36.113  14.778  -7.267  1.00 20.00     0.026 C 
HETATM    5  C6  UNL     1     -37.350  15.253  -6.500  1.00 20.00     0.122 C 
HETATM    6  C8  UNL     1     -38.080  14.900  -4.125  1.00 20.00     0.149 C 
HETATM    7  N9  UNL     1     -37.049  14.847  -5.137  1.00 20.00    -0.388 N 
ENDROOT
BRANCH   2   8
HETATM    8  C3  UNL     1     -33.607  13.966  -3.823  1.00 20.00     0.147 C 
HETATM    9  C7  UNL     1     -32.733  15.170  -3.587  1.00 20.00     0.096 C 
HETATM   10  O10 UNL     1     -33.121  12.849  -3.980  1.00 20.00    -0.294 OA
ENDBRANCH   2   8
TORSDOF 1
ENDMDL
MODEL 8
REMARK VINA RESULT:      -3.9      2.733      3.767
REMARK  1 active torsions:
REMARK  status: ('A' for Active; 'I' for Inactive)
REMARK    1  A    between atoms: C2_2  and  C3_3 
ROOT
HETATM    1  C1  UNL     1     -35.239  15.574  -5.562  1.00 20.00     0.010 C 
HETATM    2  C2  UNL     1     -35.289  14.931  -4.388  1.00 20.00     0.074 C 
HETATM    3  C4  UNL     1     -34.442  15.061  -6.736  1.00 20.00     0.058 C 
HETATM    4  C5  UNL     1     -35.059  15.817  -7.915  1.00 20.00     0.026 C 
HETATM    5  C6  UNL     1     -35.567  17.129  -7.312  1.00 20.00     0.122 C 
HETATM    6  C8  UNL     1     -36.599  17.654  -5.085  1.00 20.00     0.149 C 
HETATM    7  N9  UNL     1     -35.864  16.749  -5.940  1.00 20.00    -0.388 N 
ENDROOT
BRANCH   2   8
HETATM    8  C3  UNL     1     -34.548  13.658  -4.190  1.00 20.00     0.147 C 
HETATM    9  C7  UNL     1     -33.146  13.772  -3.649  1.00 20.00     0.096 C 
HETATM   10  O10 UNL     1     -35.050  12.562  -4.426  1.00 20.00    -0.294 OA
ENDBRANCH   2   8
TORSDOF 1
ENDMDL
MODEL 9
REMARK VINA RESULT:      -3.8      2.794      3.974
REMARK  1 active torsions:
REMARK  status: ('A' for Active; 'I' for Inactive)
REMARK    1  A    between atoms: C2_2  and  C3_3 
ROOT
HETATM    1  C1  UNL     1     -35.579  14.866  -3.688  1.00 20.00     0.010 C 
HETATM    2  C2  UNL     1     -36.705  15.585  -3.607  1.00 20.00     0.074 C 
HETATM    3  C4  UNL     1     -35.519  13.523  -4.374  1.00 20.00     0.058 C 
HETATM    4  C5  UNL     1     -34.021  13.343  -4.628  1.00 20.00     0.026 C 
HETATM    5  C6  UNL     1     -33.340  14.129  -3.506  1.00 20.00     0.122 C 
HETATM    6  C8  UNL     1     -33.950  16.281  -2.366  1.00 20.00     0.149 C 
HETATM    7  N9  UNL     1     -34.314  15.169  -3.215  1.00 20.00    -0.388 N 
ENDROOT
BRANCH   2   8
HETATM    8  C3  UNL     1     -37.970  15.081  -4.202  1.00 20.00     0.147 C 
HETATM    9  C7  UNL     1     -38.309  15.577  -5.583  1.00 20.00     0.096 C 
HETATM   10  O10 UNL     1     -38.698  14.282  -3.617  1.00 20.00    -0.294 OA
ENDBRANCH   2   8
TORSDOF 1
ENDMDL
