MODEL 1
REMARK VINA RESULT:      -4.8      0.000      0.000
REMARK  1 active torsions:
REMARK  status: ('A' for Active; 'I' for Inactive)
REMARK    1  A    between atoms: C6_6  and  C10_10 
ROOT
HETATM    1  C1  UNL     1     -34.680  14.524  -3.050  1.00 20.00     0.053 C 
HETATM    2  C2  UNL     1     -34.884  15.814  -2.739  1.00 20.00    -0.080 C 
HETATM    3  C3  UNL     1     -35.046  13.998  -4.391  1.00 20.00     0.154 C 
HETATM    4  C4  UNL     1     -35.426  16.818  -3.723  1.00 20.00     0.034 C 
HETATM    5  C5  UNL     1     -35.299  16.353  -5.172  1.00 20.00     0.017 C 
HETATM    6  C6  UNL     1     -35.798  14.920  -5.342  1.00 20.00     0.063 C 
HETATM    7  C7  UNL     1     -34.579  16.342  -1.368  1.00 20.00     0.043 C 
HETATM    8  O11 UNL     1     -34.791  12.825  -4.662  1.00 20.00    -0.293 OA
ENDROOT
BRANCH   6   9
HETATM    9  C10 UNL     1     -35.640  14.465  -6.790  1.00 20.00    -0.011 C 
HETATM   10  C8  UNL     1     -36.836  14.914  -7.628  1.00 20.00     0.010 C 
HETATM   11  C9  UNL     1     -34.339  14.999  -7.384  1.00 20.00     0.010 C 
ENDBRANCH   6   9
TORSDOF 1
ENDMDL
MODEL 2
REMARK VINA RESULT:      -4.5      2.496      3.681
REMARK  1 active torsions:
REMARK  status: ('A' for Active; 'I' for Inactive)
REMARK    1  A    between atoms: C6_6  and  C10_10 
ROOT
HETATM    1  C1  UNL     1     -33.672  18.379  -2.566  1.00 20.00     0.053 C 
HETATM    2  C2  UNL     1     -33.972  18.163  -1.276  1.00 20.00    -0.080 C 
HETATM    3  C3  UNL     1     -33.707  17.268  -3.553  1.00 20.00     0.154 C 
HETATM    4  C4  UNL     1     -34.417  16.822  -0.752  1.00 20.00     0.034 C 
HETATM    5  C5  UNL     1     -34.913  15.891  -1.857  1.00 20.00     0.017 C 
HETATM    6  C6  UNL     1     -33.937  15.855  -3.032  1.00 20.00     0.063 C 
HETATM    7  C7  UNL     1     -33.877  19.263  -0.260  1.00 20.00     0.043 C 
HETATM    8  O11 UNL     1     -33.485  17.514  -4.737  1.00 20.00    -0.293 OA
ENDROOT
BRANCH   6   9
HETATM    9  C10 UNL     1     -34.460  14.939  -4.136  1.00 20.00    -0.011 C 
HETATM   10  C8  UNL     1     -33.775  13.575  -4.072  1.00 20.00     0.010 C 
HETATM   11  C9  UNL     1     -35.976  14.783  -4.033  1.00 20.00     0.010 C 
ENDBRANCH   6   9
TORSDOF 1
ENDMDL
MODEL 3
REMARK VINA RESULT:      -4.4      1.691      1.895
REMARK  1 active torsions:
REMARK  status: ('A' for Active; 'I' for Inactive)
REMARK    1  A    between atoms: C6_6  and  C10_10 
ROOT
HETATM    1  C1  UNL     1     -33.479  16.193  -2.812  1.00 20.00     0.053 C 
HETATM    2  C2  UNL     1     -34.674  16.245  -2.205  1.00 20.00    -0.080 C 
HETATM    3  C3  UNL     1     -33.366  15.781  -4.236  1.00 20.00     0.154 C 
HETATM    4  C4  UNL     1     -35.970  15.958  -2.919  1.00 20.00     0.034 C 
HETATM    5  C5  UNL     1     -35.839  16.046  -4.438  1.00 20.00     0.017 C 
HETATM    6  C6  UNL     1     -34.620  15.272  -4.936  1.00 20.00     0.063 C 
HETATM    7  C7  UNL     1     -34.794  16.597  -0.751  1.00 20.00     0.043 C 
HETATM    8  O11 UNL     1     -32.262  15.802  -4.778  1.00 20.00    -0.293 OA
ENDROOT
BRANCH   6   9
HETATM    9  C10 UNL     1     -34.491  15.390  -6.452  1.00 20.00    -0.011 C 
HETATM   10  C8  UNL     1     -35.390  14.371  -7.150  1.00 20.00     0.010 C 
HETATM   11  C9  UNL     1     -34.830  16.806  -6.912  1.00 20.00     0.010 C 
ENDBRANCH   6   9
TORSDOF 1
ENDMDL
MODEL 4
REMARK VINA RESULT:      -4.4      2.244      4.751
REMARK  1 active torsions:
REMARK  status: ('A' for Active; 'I' for Inactive)
REMARK    1  A    between atoms: C6_6  and  C10_10 
ROOT
HETATM    1  C1  UNL     1     -36.007  15.061  -4.111  1.00 20.00     0.053 C 
HETATM    2  C2  UNL     1     -34.890  14.350  -4.327  1.00 20.00    -0.080 C 
HETATM    3  C3  UNL     1     -36.078  16.049  -3.002  1.00 20.00     0.154 C 
HETATM    4  C4  UNL     1     -33.630  14.536  -3.521  1.00 20.00     0.034 C 
HETATM    5  C5  UNL     1     -33.600  15.868  -2.773  1.00 20.00     0.017 C 
HETATM    6  C6  UNL     1     -34.909  16.116  -2.027  1.00 20.00     0.063 C 
HETATM    7  C7  UNL     1     -34.828  13.304  -5.402  1.00 20.00     0.043 C 
HETATM    8  O11 UNL     1     -37.096  16.727  -2.871  1.00 20.00    -0.293 OA
ENDROOT
BRANCH   6   9
HETATM    9  C10 UNL     1     -34.870  17.461  -1.306  1.00 20.00    -0.011 C 
HETATM   10  C8  UNL     1     -34.850  17.258   0.208  1.00 20.00     0.010 C 
HETATM   11  C9  UNL     1     -33.659  18.276  -1.753  1.00 20.00     0.010 C 
ENDBRANCH   6   9
TORSDOF 1
ENDMDL
MODEL 5
REMARK VINA RESULT:      -4.4      1.645      2.226
REMARK  1 active torsions:
REMARK  status: ('A' for Active; 'I' for Inactive)
REMARK    1  A    between atoms: C6_6  and  C10_10 
ROOT
HETATM    1  C1  UNL     1     -35.956  16.177  -2.250  1.00 20.00     0.053 C 
HETATM    2  C2  UNL     1     -34.730  16.475  -1.792  1.00 20.00    -0.080 C 
HETATM    3  C3  UNL     1     -36.144  15.626  -3.617  1.00 20.00     0.154 C 
HETATM    4  C4  UNL     1     -33.475  16.222  -2.586  1.00 20.00     0.034 C 
HETATM    5  C5  UNL     1     -33.685  15.220  -3.720  1.00 20.00     0.017 C 
HETATM    6  C6  UNL     1     -34.931  15.558  -4.536  1.00 20.00     0.063 C 
HETATM    7  C7  UNL     1     -34.533  17.091  -0.438  1.00 20.00     0.043 C 
HETATM    8  O11 UNL     1     -37.275  15.308  -3.982  1.00 20.00    -0.293 OA
ENDROOT
BRANCH   6   9
HETATM    9  C10 UNL     1     -35.139  14.533  -5.648  1.00 20.00    -0.011 C 
HETATM   10  C8  UNL     1     -34.416  14.969  -6.922  1.00 20.00     0.010 C 
HETATM   11  C9  UNL     1     -34.658  13.153  -5.205  1.00 20.00     0.010 C 
ENDBRANCH   6   9
TORSDOF 1
ENDMDL
MODEL 6
REMARK VINA RESULT:      -4.3     11.264     12.939
REMARK  1 active torsions:
REMARK  status: ('A' for Active; 'I' for Inactive)
REMARK    1  A    between atoms: C6_6  and  C10_10 
ROOT
HETATM    1  C1  UNL     1     -34.783   4.750   4.425  1.00 20.00     0.053 C 
HETATM    2  C2  UNL     1     -34.777   5.150   5.706  1.00 20.00    -0.080 C 
HETATM    3  C3  UNL     1     -34.078   5.536   3.379  1.00 20.00     0.154 C 
HETATM    4  C4  UNL     1     -34.021   6.364   6.182  1.00 20.00     0.034 C 
HETATM    5  C5  UNL     1     -32.942   6.811   5.198  1.00 20.00     0.017 C 
HETATM    6  C6  UNL     1     -33.486   6.884   3.772  1.00 20.00     0.063 C 
HETATM    7  C7  UNL     1     -35.538   4.400   6.760  1.00 20.00     0.043 C 
HETATM    8  O11 UNL     1     -34.053   5.109   2.226  1.00 20.00    -0.293 OA
ENDROOT
BRANCH   6   9
HETATM    9  C10 UNL     1     -32.388   7.308   2.800  1.00 20.00    -0.011 C 
HETATM   10  C8  UNL     1     -32.816   8.549   2.016  1.00 20.00     0.010 C 
HETATM   11  C9  UNL     1     -31.081   7.570   3.544  1.00 20.00     0.010 C 
ENDBRANCH   6   9
TORSDOF 1
ENDMDL
MODEL 7
REMARK VINA RESULT:      -4.0      2.133      2.776
REMARK  1 active torsions:
REMARK  status: ('A' for Active; 'I' for Inactive)
REMARK    1  A    between atoms: C6_6  and  C10_10 
ROOT
HETATM    1  C1  UNL     1     -35.719  14.021  -3.795  1.00 20.00     0.053 C 
HETATM    2  C2  UNL     1     -34.551  14.225  -4.423  1.00 20.00    -0.080 C 
HETATM    3  C3  UNL     1     -36.993  14.516  -4.378  1.00 20.00     0.154 C 
HETATM    4  C4  UNL     1     -34.450  14.899  -5.767  1.00 20.00     0.034 C 
HETATM    5  C5  UNL     1     -35.779  14.917  -6.520  1.00 20.00     0.017 C 
HETATM    6  C6  UNL     1     -36.920  15.392  -5.623  1.00 20.00     0.063 C 
HETATM    7  C7  UNL     1     -33.251  13.787  -3.813  1.00 20.00     0.043 C 
HETATM    8  O11 UNL     1     -38.051  14.259  -3.806  1.00 20.00    -0.293 OA
ENDROOT
BRANCH   6   9
HETATM    9  C10 UNL     1     -38.242  15.380  -6.384  1.00 20.00    -0.011 C 
HETATM   10  C8  UNL     1     -38.948  16.729  -6.255  1.00 20.00     0.010 C 
HETATM   11  C9  UNL     1     -38.015  15.033  -7.853  1.00 20.00     0.010 C 
ENDBRANCH   6   9
TORSDOF 1
ENDMDL
MODEL 8
REMARK VINA RESULT:      -4.0      1.084      1.259
REMARK  1 active torsions:
REMARK  status: ('A' for Active; 'I' for Inactive)
REMARK    1  A    between atoms: C6_6  and  C10_10 
ROOT
HETATM    1  C1  UNL     1     -34.295  15.580  -2.296  1.00 20.00     0.053 C 
HETATM    2  C2  UNL     1     -34.194  16.916  -2.226  1.00 20.00    -0.080 C 
HETATM    3  C3  UNL     1     -34.770  14.917  -3.539  1.00 20.00     0.154 C 
HETATM    4  C4  UNL     1     -34.487  17.823  -3.393  1.00 20.00     0.034 C 
HETATM    5  C5  UNL     1     -34.467  17.087  -4.732  1.00 20.00     0.017 C 
HETATM    6  C6  UNL     1     -35.285  15.799  -4.670  1.00 20.00     0.063 C 
HETATM    7  C7  UNL     1     -33.778  17.600  -0.956  1.00 20.00     0.043 C 
HETATM    8  O11 UNL     1     -34.793  13.688  -3.589  1.00 20.00    -0.293 OA
ENDROOT
BRANCH   6   9
HETATM    9  C10 UNL     1     -35.234  15.065  -6.007  1.00 20.00    -0.011 C 
HETATM   10  C8  UNL     1     -36.597  15.109  -6.696  1.00 20.00     0.010 C 
HETATM   11  C9  UNL     1     -34.159  15.665  -6.910  1.00 20.00     0.010 C 
ENDBRANCH   6   9
TORSDOF 1
ENDMDL
MODEL 9
REMARK VINA RESULT:      -4.0      1.617      4.483
REMARK  1 active torsions:
REMARK  status: ('A' for Active; 'I' for Inactive)
REMARK    1  A    between atoms: C6_6  and  C10_10 
ROOT
HETATM    1  C1  UNL     1     -34.403  15.052  -4.999  1.00 20.00     0.053 C 
HETATM    2  C2  UNL     1     -35.569  15.582  -5.399  1.00 20.00    -0.080 C 
HETATM    3  C3  UNL     1     -33.666  15.621  -3.840  1.00 20.00     0.154 C 
HETATM    4  C4  UNL     1     -36.237  16.727  -4.683  1.00 20.00     0.034 C 
HETATM    5  C5  UNL     1     -35.717  16.919  -3.260  1.00 20.00     0.017 C 
HETATM    6  C6  UNL     1     -34.190  16.912  -3.221  1.00 20.00     0.063 C 
HETATM    7  C7  UNL     1     -36.289  15.057  -6.607  1.00 20.00     0.043 C 
HETATM    8  O11 UNL     1     -32.631  15.074  -3.463  1.00 20.00    -0.293 OA
ENDROOT
BRANCH   6   9
HETATM    9  C10 UNL     1     -33.688  17.080  -1.790  1.00 20.00    -0.011 C 
HETATM   10  C8  UNL     1     -33.340  18.541  -1.511  1.00 20.00     0.010 C 
HETATM   11  C9  UNL     1     -34.729  16.577  -0.792  1.00 20.00     0.010 C 
ENDBRANCH   6   9
TORSDOF 1
ENDMDL
