MODEL 1
REMARK VINA RESULT:      -4.6      0.000      0.000
REMARK  2 active torsions:
REMARK  status: ('A' for Active; 'I' for Inactive)
REMARK    1  A    between atoms: C4_4  and  C10_10 
REMARK    2  A    between atoms: C10_10  and  O11_11 
ROOT
HETATM    1  C1  UNL     1     -33.972  16.565  -5.056  1.00 20.00    -0.069 C 
HETATM    2  C2  UNL     1     -33.746  17.878  -5.137  1.00 20.00    -0.085 C 
HETATM    3  C3  UNL     1     -34.325  15.522  -6.095  1.00 20.00     0.043 C 
HETATM    4  C4  UNL     1     -34.803  14.681  -4.882  1.00 20.00     0.025 C 
HETATM    5  C5  UNL     1     -33.950  15.564  -3.897  1.00 20.00    -0.018 C 
HETATM    6  C6  UNL     1     -33.406  18.707  -3.929  1.00 20.00     0.043 C 
HETATM    7  C7  UNL     1     -33.817  18.623  -6.440  1.00 20.00     0.043 C 
HETATM    8  C8  UNL     1     -34.727  15.986  -2.651  1.00 20.00     0.020 C 
HETATM    9  C9  UNL     1     -32.549  15.066  -3.539  1.00 20.00     0.020 C 
ENDROOT
BRANCH   4  10
HETATM   10  C10 UNL     1     -34.527  13.188  -4.963  1.00 20.00     0.170 C 
BRANCH  10  11
HETATM   11  O11 UNL     1     -35.430  12.509  -4.107  1.00 20.00    -0.400 OA
HETATM   12  H29 UNL     1     -35.245  12.811  -3.202  1.00 20.00     0.209 HD
ENDBRANCH  10  11
ENDBRANCH   4  10
TORSDOF 2
ENDMDL
MODEL 2
REMARK VINA RESULT:      -4.5      1.479      2.967
REMARK  2 active torsions:
REMARK  status: ('A' for Active; 'I' for Inactive)
REMARK    1  A    between atoms: C4_4  and  C10_10 
REMARK    2  A    between atoms: C10_10  and  O11_11 
ROOT
HETATM    1  C1  UNL     1     -34.334  16.815  -2.696  1.00 20.00    -0.069 C 
HETATM    2  C2  UNL     1     -33.860  17.899  -2.079  1.00 20.00    -0.085 C 
HETATM    3  C3  UNL     1     -34.879  15.500  -2.180  1.00 20.00     0.043 C 
HETATM    4  C4  UNL     1     -34.588  14.980  -3.612  1.00 20.00     0.025 C 
HETATM    5  C5  UNL     1     -34.546  16.452  -4.169  1.00 20.00    -0.018 C 
HETATM    6  C6  UNL     1     -33.369  19.101  -2.838  1.00 20.00     0.043 C 
HETATM    7  C7  UNL     1     -33.783  17.997  -0.581  1.00 20.00     0.043 C 
HETATM    8  C8  UNL     1     -33.351  16.707  -5.085  1.00 20.00     0.020 C 
HETATM    9  C9  UNL     1     -35.836  17.017  -4.764  1.00 20.00     0.020 C 
ENDROOT
BRANCH   4  10
HETATM   10  C10 UNL     1     -35.607  14.005  -4.181  1.00 20.00     0.170 C 
BRANCH  10  11
HETATM   11  O11 UNL     1     -35.063  12.696  -4.131  1.00 20.00    -0.400 OA
HETATM   12  H29 UNL     1     -35.182  12.306  -5.013  1.00 20.00     0.209 HD
ENDBRANCH  10  11
ENDBRANCH   4  10
TORSDOF 2
ENDMDL
MODEL 3
REMARK VINA RESULT:      -4.3      1.680      2.564
REMARK  2 active torsions:
REMARK  status: ('A' for Active; 'I' for Inactive)
REMARK    1  A    between atoms: C4_4  and  C10_10 
REMARK    2  A    between atoms: C10_10  and  O11_11 
ROOT
HETATM    1  C1  UNL     1     -34.234  16.414  -3.823  1.00 20.00    -0.069 C 
HETATM    2  C2  UNL     1     -34.155  17.035  -2.644  1.00 20.00    -0.085 C 
HETATM    3  C3  UNL     1     -33.828  16.822  -5.223  1.00 20.00     0.043 C 
HETATM    4  C4  UNL     1     -34.797  15.698  -5.678  1.00 20.00     0.025 C 
HETATM    5  C5  UNL     1     -34.740  15.034  -4.252  1.00 20.00    -0.018 C 
HETATM    6  C6  UNL     1     -34.640  16.398  -1.371  1.00 20.00     0.043 C 
HETATM    7  C7  UNL     1     -33.578  18.416  -2.505  1.00 20.00     0.043 C 
HETATM    8  C8  UNL     1     -36.120  14.648  -3.722  1.00 20.00     0.020 C 
HETATM    9  C9  UNL     1     -33.726  13.910  -4.038  1.00 20.00     0.020 C 
ENDROOT
BRANCH   4  10
HETATM   10  C10 UNL     1     -34.350  14.891  -6.887  1.00 20.00     0.170 C 
BRANCH  10  11
HETATM   11  O11 UNL     1     -35.492  14.315  -7.498  1.00 20.00    -0.400 OA
HETATM   12  H29 UNL     1     -35.315  13.365  -7.592  1.00 20.00     0.209 HD
ENDBRANCH  10  11
ENDBRANCH   4  10
TORSDOF 2
ENDMDL
MODEL 4
REMARK VINA RESULT:      -4.2      2.305      3.530
REMARK  2 active torsions:
REMARK  status: ('A' for Active; 'I' for Inactive)
REMARK    1  A    between atoms: C4_4  and  C10_10 
REMARK    2  A    between atoms: C10_10  and  O11_11 
ROOT
HETATM    1  C1  UNL     1     -35.143  15.555  -3.455  1.00 20.00    -0.069 C 
HETATM    2  C2  UNL     1     -33.933  15.807  -2.953  1.00 20.00    -0.085 C 
HETATM    3  C3  UNL     1     -36.519  16.097  -3.132  1.00 20.00     0.043 C 
HETATM    4  C4  UNL     1     -37.035  14.826  -3.857  1.00 20.00     0.025 C 
HETATM    5  C5  UNL     1     -35.646  14.637  -4.573  1.00 20.00    -0.018 C 
HETATM    6  C6  UNL     1     -32.696  15.119  -3.461  1.00 20.00     0.043 C 
HETATM    7  C7  UNL     1     -33.719  16.797  -1.842  1.00 20.00     0.043 C 
HETATM    8  C8  UNL     1     -35.140  13.197  -4.518  1.00 20.00     0.020 C 
HETATM    9  C9  UNL     1     -35.490  15.230  -5.975  1.00 20.00     0.020 C 
ENDROOT
BRANCH   4  10
HETATM   10  C10 UNL     1     -38.284  15.011  -4.704  1.00 20.00     0.170 C 
BRANCH  10  11
HETATM   11  O11 UNL     1     -39.266  14.081  -4.278  1.00 20.00    -0.400 OA
HETATM   12  H29 UNL     1     -39.154  13.969  -3.319  1.00 20.00     0.209 HD
ENDBRANCH  10  11
ENDBRANCH   4  10
TORSDOF 2
ENDMDL
MODEL 5
REMARK VINA RESULT:      -4.1      2.172      3.385
REMARK  2 active torsions:
REMARK  status: ('A' for Active; 'I' for Inactive)
REMARK    1  A    between atoms: C4_4  and  C10_10 
REMARK    2  A    between atoms: C10_10  and  O11_11 
ROOT
HETATM    1  C1  UNL     1     -34.490  16.197  -4.879  1.00 20.00    -0.069 C 
HETATM    2  C2  UNL     1     -34.421  16.172  -6.211  1.00 20.00    -0.085 C 
HETATM    3  C3  UNL     1     -34.469  17.329  -3.874  1.00 20.00     0.043 C 
HETATM    4  C4  UNL     1     -34.093  16.225  -2.850  1.00 20.00     0.025 C 
HETATM    5  C5  UNL     1     -34.641  15.107  -3.814  1.00 20.00    -0.018 C 
HETATM    6  C6  UNL     1     -34.463  14.887  -6.991  1.00 20.00     0.043 C 
HETATM    7  C7  UNL     1     -34.293  17.427  -7.029  1.00 20.00     0.043 C 
HETATM    8  C8  UNL     1     -33.687  13.921  -3.950  1.00 20.00     0.020 C 
HETATM    9  C9  UNL     1     -36.083  14.642  -3.606  1.00 20.00     0.020 C 
ENDROOT
BRANCH   4  10
HETATM   10  C10 UNL     1     -34.704  16.371  -1.466  1.00 20.00     0.170 C 
BRANCH  10  11
HETATM   11  O11 UNL     1     -33.836  17.154  -0.664  1.00 20.00    -0.400 OA
HETATM   12  H29 UNL     1     -33.186  17.560  -1.262  1.00 20.00     0.209 HD
ENDBRANCH  10  11
ENDBRANCH   4  10
TORSDOF 2
ENDMDL
MODEL 6
REMARK VINA RESULT:      -4.1     11.553     13.559
REMARK  2 active torsions:
REMARK  status: ('A' for Active; 'I' for Inactive)
REMARK    1  A    between atoms: C4_4  and  C10_10 
REMARK    2  A    between atoms: C10_10  and  O11_11 
ROOT
HETATM    1  C1  UNL     1     -42.774   5.636  -1.595  1.00 20.00    -0.069 C 
HETATM    2  C2  UNL     1     -42.849   4.595  -0.763  1.00 20.00    -0.085 C 
HETATM    3  C3  UNL     1     -43.178   5.820  -3.043  1.00 20.00     0.043 C 
HETATM    4  C4  UNL     1     -42.216   7.037  -3.009  1.00 20.00     0.025 C 
HETATM    5  C5  UNL     1     -42.276   7.075  -1.436  1.00 20.00    -0.018 C 
HETATM    6  C6  UNL     1     -42.368   4.673   0.659  1.00 20.00     0.043 C 
HETATM    7  C7  UNL     1     -43.417   3.271  -1.188  1.00 20.00     0.043 C 
HETATM    8  C8  UNL     1     -40.898   7.225  -0.793  1.00 20.00     0.020 C 
HETATM    9  C9  UNL     1     -43.297   8.015  -0.793  1.00 20.00     0.020 C 
ENDROOT
BRANCH   4  10
HETATM   10  C10 UNL     1     -42.668   8.257  -3.795  1.00 20.00     0.170 C 
BRANCH  10  11
HETATM   11  O11 UNL     1     -41.569   8.751  -4.543  1.00 20.00    -0.400 OA
HETATM   12  H29 UNL     1     -41.803   8.665  -5.482  1.00 20.00     0.209 HD
ENDBRANCH  10  11
ENDBRANCH   4  10
TORSDOF 2
ENDMDL
MODEL 7
REMARK VINA RESULT:      -4.1      1.033      2.512
REMARK  2 active torsions:
REMARK  status: ('A' for Active; 'I' for Inactive)
REMARK    1  A    between atoms: C4_4  and  C10_10 
REMARK    2  A    between atoms: C10_10  and  O11_11 
ROOT
HETATM    1  C1  UNL     1     -34.233  16.790  -5.259  1.00 20.00    -0.069 C 
HETATM    2  C2  UNL     1     -33.998  18.006  -5.757  1.00 20.00    -0.085 C 
HETATM    3  C3  UNL     1     -33.986  16.176  -3.897  1.00 20.00     0.043 C 
HETATM    4  C4  UNL     1     -34.121  14.821  -4.640  1.00 20.00     0.025 C 
HETATM    5  C5  UNL     1     -34.864  15.521  -5.839  1.00 20.00    -0.018 C 
HETATM    6  C6  UNL     1     -34.345  18.370  -7.174  1.00 20.00     0.043 C 
HETATM    7  C7  UNL     1     -33.369  19.097  -4.938  1.00 20.00     0.043 C 
HETATM    8  C8  UNL     1     -34.330  15.087  -7.203  1.00 20.00     0.020 C 
HETATM    9  C9  UNL     1     -36.393  15.525  -5.814  1.00 20.00     0.020 C 
ENDROOT
BRANCH   4  10
HETATM   10  C10 UNL     1     -34.832  13.716  -3.874  1.00 20.00     0.170 C 
BRANCH  10  11
HETATM   11  O11 UNL     1     -34.828  12.539  -4.663  1.00 20.00    -0.400 OA
HETATM   12  H29 UNL     1     -33.966  12.111  -4.530  1.00 20.00     0.209 HD
ENDBRANCH  10  11
ENDBRANCH   4  10
TORSDOF 2
ENDMDL
MODEL 8
REMARK VINA RESULT:      -4.0      2.799      4.497
REMARK  2 active torsions:
REMARK  status: ('A' for Active; 'I' for Inactive)
REMARK    1  A    between atoms: C4_4  and  C10_10 
REMARK    2  A    between atoms: C10_10  and  O11_11 
ROOT
HETATM    1  C1  UNL     1     -34.652  15.157  -3.308  1.00 20.00    -0.069 C 
HETATM    2  C2  UNL     1     -34.075  14.090  -3.865  1.00 20.00    -0.085 C 
HETATM    3  C3  UNL     1     -34.208  16.106  -2.216  1.00 20.00     0.043 C 
HETATM    4  C4  UNL     1     -35.713  16.467  -2.113  1.00 20.00     0.025 C 
HETATM    5  C5  UNL     1     -35.980  15.879  -3.549  1.00 20.00    -0.018 C 
HETATM    6  C6  UNL     1     -34.741  13.300  -4.958  1.00 20.00     0.043 C 
HETATM    7  C7  UNL     1     -32.720  13.599  -3.439  1.00 20.00     0.043 C 
HETATM    8  C8  UNL     1     -37.215  14.980  -3.602  1.00 20.00     0.020 C 
HETATM    9  C9  UNL     1     -35.949  16.854  -4.727  1.00 20.00     0.020 C 
ENDROOT
BRANCH   4  10
HETATM   10  C10 UNL     1     -36.025  17.931  -1.845  1.00 20.00     0.170 C 
BRANCH  10  11
HETATM   11  O11 UNL     1     -37.097  18.008  -0.921  1.00 20.00    -0.400 OA
HETATM   12  H29 UNL     1     -37.652  18.757  -1.192  1.00 20.00     0.209 HD
ENDBRANCH  10  11
ENDBRANCH   4  10
TORSDOF 2
ENDMDL
MODEL 9
REMARK VINA RESULT:      -4.0      1.851      3.322
REMARK  2 active torsions:
REMARK  status: ('A' for Active; 'I' for Inactive)
REMARK    1  A    between atoms: C4_4  and  C10_10 
REMARK    2  A    between atoms: C10_10  and  O11_11 
ROOT
HETATM    1  C1  UNL     1     -34.593  16.596  -2.980  1.00 20.00    -0.069 C 
HETATM    2  C2  UNL     1     -34.626  17.355  -1.883  1.00 20.00    -0.085 C 
HETATM    3  C3  UNL     1     -34.553  15.096  -3.185  1.00 20.00     0.043 C 
HETATM    4  C4  UNL     1     -34.043  15.447  -4.608  1.00 20.00     0.025 C 
HETATM    5  C5  UNL     1     -34.604  16.912  -4.478  1.00 20.00    -0.018 C 
HETATM    6  C6  UNL     1     -34.662  18.857  -1.952  1.00 20.00     0.043 C 
HETATM    7  C7  UNL     1     -34.627  16.765  -0.501  1.00 20.00     0.043 C 
HETATM    8  C8  UNL     1     -33.604  17.974  -4.932  1.00 20.00     0.020 C 
HETATM    9  C9  UNL     1     -36.000  17.183  -5.042  1.00 20.00     0.020 C 
ENDROOT
BRANCH   4  10
HETATM   10  C10 UNL     1     -34.552  14.557  -5.730  1.00 20.00     0.170 C 
BRANCH  10  11
HETATM   11  O11 UNL     1     -33.881  14.907  -6.929  1.00 20.00    -0.400 OA
HETATM   12  H29 UNL     1     -33.463  15.771  -6.780  1.00 20.00     0.209 HD
ENDBRANCH  10  11
ENDBRANCH   4  10
TORSDOF 2
ENDMDL
