MODEL 1
REMARK VINA RESULT:      -4.6      0.000      0.000
REMARK  3 active torsions:
REMARK  status: ('A' for Active; 'I' for Inactive)
REMARK    1  A    between atoms: C1_1  and  C4_4 
REMARK    2  A    between atoms: C4_4  and  C5_5 
REMARK    3  A    between atoms: N6_6  and  O7_7 
ROOT
HETATM    1  C1  UNL     1     -34.510   5.526   4.923  1.00 20.00     0.035 C 
HETATM    2  C2  UNL     1     -34.275   5.925   6.361  1.00 20.00     0.068 C 
HETATM    3  N6  UNL     1     -35.088   4.421   4.561  1.00 20.00    -0.146 NA
ENDROOT
BRANCH   1   4
HETATM    4  C4  UNL     1     -34.078   6.493   3.837  1.00 20.00     0.056 C 
BRANCH   4   5
HETATM    5  C5  UNL     1     -32.688   6.167   3.296  1.00 20.00     0.001 C 
HETATM    6  C3  UNL     1     -31.801   7.397   3.171  1.00 20.00     0.005 C 
ENDBRANCH   4   5
ENDBRANCH   1   4
BRANCH   3   7
HETATM    7  O7  UNL     1     -35.451   3.657   5.671  1.00 20.00    -0.266 OA
HETATM    8  H18 UNL     1     -35.780   2.844   5.250  1.00 20.00     0.247 HD
ENDBRANCH   3   7
TORSDOF 3
ENDMDL
MODEL 2
REMARK VINA RESULT:      -4.3      1.721      1.845
REMARK  3 active torsions:
REMARK  status: ('A' for Active; 'I' for Inactive)
REMARK    1  A    between atoms: C1_1  and  C4_4 
REMARK    2  A    between atoms: C4_4  and  C5_5 
REMARK    3  A    between atoms: N6_6  and  O7_7 
ROOT
HETATM    1  C1  UNL     1     -34.135   5.755   4.495  1.00 20.00     0.035 C 
HETATM    2  C2  UNL     1     -35.220   4.705   4.544  1.00 20.00     0.068 C 
HETATM    3  N6  UNL     1     -33.753   6.455   5.520  1.00 20.00    -0.146 NA
ENDROOT
BRANCH   1   4
HETATM    4  C4  UNL     1     -33.422   5.980   3.174  1.00 20.00     0.056 C 
BRANCH   4   5
HETATM    5  C5  UNL     1     -32.169   6.837   3.336  1.00 20.00     0.001 C 
HETATM    6  C3  UNL     1     -32.083   7.955   2.308  1.00 20.00     0.005 C 
ENDBRANCH   4   5
ENDBRANCH   1   4
BRANCH   3   7
HETATM    7  O7  UNL     1     -34.481   6.111   6.661  1.00 20.00    -0.266 OA
HETATM    8  H18 UNL     1     -33.769   5.914   7.294  1.00 20.00     0.247 HD
ENDBRANCH   3   7
TORSDOF 3
ENDMDL
MODEL 3
REMARK VINA RESULT:      -4.0      1.047      1.332
REMARK  3 active torsions:
REMARK  status: ('A' for Active; 'I' for Inactive)
REMARK    1  A    between atoms: C1_1  and  C4_4 
REMARK    2  A    between atoms: C4_4  and  C5_5 
REMARK    3  A    between atoms: N6_6  and  O7_7 
ROOT
HETATM    1  C1  UNL     1     -33.858   5.765   4.083  1.00 20.00     0.035 C 
HETATM    2  C2  UNL     1     -33.760   6.448   5.427  1.00 20.00     0.068 C 
HETATM    3  N6  UNL     1     -34.837   4.987   3.733  1.00 20.00    -0.146 NA
ENDROOT
BRANCH   1   4
HETATM    4  C4  UNL     1     -32.763   6.034   3.067  1.00 20.00     0.056 C 
BRANCH   4   5
HETATM    5  C5  UNL     1     -32.068   7.371   3.313  1.00 20.00     0.001 C 
HETATM    6  C3  UNL     1     -32.034   8.254   2.074  1.00 20.00     0.005 C 
ENDBRANCH   4   5
ENDBRANCH   1   4
BRANCH   3   7
HETATM    7  O7  UNL     1     -35.773   4.865   4.761  1.00 20.00    -0.266 OA
HETATM    8  H18 UNL     1     -36.051   5.789   4.883  1.00 20.00     0.247 HD
ENDBRANCH   3   7
TORSDOF 3
ENDMDL
MODEL 4
REMARK VINA RESULT:      -4.0     11.875     12.193
REMARK  3 active torsions:
REMARK  status: ('A' for Active; 'I' for Inactive)
REMARK    1  A    between atoms: C1_1  and  C4_4 
REMARK    2  A    between atoms: C4_4  and  C5_5 
REMARK    3  A    between atoms: N6_6  and  O7_7 
ROOT
HETATM    1  C1  UNL     1     -34.819  14.621  -3.328  1.00 20.00     0.035 C 
HETATM    2  C2  UNL     1     -36.270  14.906  -3.635  1.00 20.00     0.068 C 
HETATM    3  N6  UNL     1     -34.231  13.490  -3.578  1.00 20.00    -0.146 NA
ENDROOT
BRANCH   1   4
HETATM    4  C4  UNL     1     -33.987  15.738  -2.726  1.00 20.00     0.056 C 
BRANCH   4   5
HETATM    5  C5  UNL     1     -34.626  16.314  -1.464  1.00 20.00     0.001 C 
HETATM    6  C3  UNL     1     -33.826  17.464  -0.871  1.00 20.00     0.005 C 
ENDBRANCH   4   5
ENDBRANCH   1   4
BRANCH   3   7
HETATM    7  O7  UNL     1     -35.118  12.581  -4.156  1.00 20.00    -0.266 OA
HETATM    8  H18 UNL     1     -34.808  11.739  -3.780  1.00 20.00     0.247 HD
ENDBRANCH   3   7
TORSDOF 3
ENDMDL
MODEL 5
REMARK VINA RESULT:      -3.8      2.872      3.657
REMARK  3 active torsions:
REMARK  status: ('A' for Active; 'I' for Inactive)
REMARK    1  A    between atoms: C1_1  and  C4_4 
REMARK    2  A    between atoms: C4_4  and  C5_5 
REMARK    3  A    between atoms: N6_6  and  O7_7 
ROOT
HETATM    1  C1  UNL     1     -33.402   6.321   3.911  1.00 20.00     0.035 C 
HETATM    2  C2  UNL     1     -33.453   6.876   5.315  1.00 20.00     0.068 C 
HETATM    3  N6  UNL     1     -32.473   6.606   3.050  1.00 20.00    -0.146 NA
ENDROOT
BRANCH   1   4
HETATM    4  C4  UNL     1     -34.484   5.342   3.494  1.00 20.00     0.056 C 
BRANCH   4   5
HETATM    5  C5  UNL     1     -35.425   5.000   4.648  1.00 20.00     0.001 C 
HETATM    6  C3  UNL     1     -34.898   3.872   5.523  1.00 20.00     0.005 C 
ENDBRANCH   4   5
ENDBRANCH   1   4
BRANCH   3   7
HETATM    7  O7  UNL     1     -31.541   7.491   3.592  1.00 20.00    -0.266 OA
HETATM    8  H18 UNL     1     -30.728   7.231   3.125  1.00 20.00     0.247 HD
ENDBRANCH   3   7
TORSDOF 3
ENDMDL
MODEL 6
REMARK VINA RESULT:      -3.8      2.938      3.982
REMARK  3 active torsions:
REMARK  status: ('A' for Active; 'I' for Inactive)
REMARK    1  A    between atoms: C1_1  and  C4_4 
REMARK    2  A    between atoms: C4_4  and  C5_5 
REMARK    3  A    between atoms: N6_6  and  O7_7 
ROOT
HETATM    1  C1  UNL     1     -33.306   6.345   3.842  1.00 20.00     0.035 C 
HETATM    2  C2  UNL     1     -33.907   5.567   2.695  1.00 20.00     0.068 C 
HETATM    3  N6  UNL     1     -32.333   7.196   3.713  1.00 20.00    -0.146 NA
ENDROOT
BRANCH   1   4
HETATM    4  C4  UNL     1     -33.902   6.148   5.224  1.00 20.00     0.056 C 
BRANCH   4   5
HETATM    5  C5  UNL     1     -35.108   5.212   5.202  1.00 20.00     0.001 C 
HETATM    6  C3  UNL     1     -34.843   3.893   5.913  1.00 20.00     0.005 C 
ENDBRANCH   4   5
ENDBRANCH   1   4
BRANCH   3   7
HETATM    7  O7  UNL     1     -31.919   7.286   2.384  1.00 20.00    -0.266 OA
HETATM    8  H18 UNL     1     -32.546   7.938   2.027  1.00 20.00     0.247 HD
ENDBRANCH   3   7
TORSDOF 3
ENDMDL
MODEL 7
REMARK VINA RESULT:      -3.7     11.981     12.783
REMARK  3 active torsions:
REMARK  status: ('A' for Active; 'I' for Inactive)
REMARK    1  A    between atoms: C1_1  and  C4_4 
REMARK    2  A    between atoms: C4_4  and  C5_5 
REMARK    3  A    between atoms: N6_6  and  O7_7 
ROOT
HETATM    1  C1  UNL     1     -34.412  14.478  -3.736  1.00 20.00     0.035 C 
HETATM    2  C2  UNL     1     -35.785  15.008  -3.397  1.00 20.00     0.068 C 
HETATM    3  N6  UNL     1     -34.173  13.250  -4.087  1.00 20.00    -0.146 NA
ENDROOT
BRANCH   1   4
HETATM    4  C4  UNL     1     -33.246  15.448  -3.701  1.00 20.00     0.056 C 
BRANCH   4   5
HETATM    5  C5  UNL     1     -33.180  16.312  -4.958  1.00 20.00     0.001 C 
HETATM    6  C3  UNL     1     -33.583  17.757  -4.701  1.00 20.00     0.005 C 
ENDBRANCH   4   5
ENDBRANCH   1   4
BRANCH   3   7
HETATM    7  O7  UNL     1     -35.347  12.495  -4.100  1.00 20.00    -0.266 OA
HETATM    8  H18 UNL     1     -35.133  11.789  -3.466  1.00 20.00     0.247 HD
ENDBRANCH   3   7
TORSDOF 3
ENDMDL
MODEL 8
REMARK VINA RESULT:      -3.6     12.691     13.139
REMARK  3 active torsions:
REMARK  status: ('A' for Active; 'I' for Inactive)
REMARK    1  A    between atoms: C1_1  and  C4_4 
REMARK    2  A    between atoms: C4_4  and  C5_5 
REMARK    3  A    between atoms: N6_6  and  O7_7 
ROOT
HETATM    1  C1  UNL     1     -33.847  15.489  -3.345  1.00 20.00     0.035 C 
HETATM    2  C2  UNL     1     -33.676  14.021  -3.655  1.00 20.00     0.068 C 
HETATM    3  N6  UNL     1     -33.308  16.446  -4.038  1.00 20.00    -0.146 NA
ENDROOT
BRANCH   1   4
HETATM    4  C4  UNL     1     -34.734  15.870  -2.174  1.00 20.00     0.056 C 
BRANCH   4   5
HETATM    5  C5  UNL     1     -34.080  16.916  -1.274  1.00 20.00     0.001 C 
HETATM    6  C3  UNL     1     -34.856  17.155   0.013  1.00 20.00     0.005 C 
ENDBRANCH   4   5
ENDBRANCH   1   4
BRANCH   3   7
HETATM    7  O7  UNL     1     -32.551  15.936  -5.093  1.00 20.00    -0.266 OA
HETATM    8  H18 UNL     1     -32.255  15.085  -4.728  1.00 20.00     0.247 HD
ENDBRANCH   3   7
TORSDOF 3
ENDMDL
MODEL 9
REMARK VINA RESULT:      -3.6      1.849      3.298
REMARK  3 active torsions:
REMARK  status: ('A' for Active; 'I' for Inactive)
REMARK    1  A    between atoms: C1_1  and  C4_4 
REMARK    2  A    between atoms: C4_4  and  C5_5 
REMARK    3  A    between atoms: N6_6  and  O7_7 
ROOT
HETATM    1  C1  UNL     1     -33.689   6.074   4.102  1.00 20.00     0.035 C 
HETATM    2  C2  UNL     1     -32.360   6.361   3.445  1.00 20.00     0.068 C 
HETATM    3  N6  UNL     1     -34.690   5.506   3.500  1.00 20.00    -0.146 NA
ENDROOT
BRANCH   1   4
HETATM    4  C4  UNL     1     -33.852   6.439   5.566  1.00 20.00     0.056 C 
BRANCH   4   5
HETATM    5  C5  UNL     1     -34.813   5.498   6.289  1.00 20.00     0.001 C 
HETATM    6  C3  UNL     1     -34.469   4.030   6.080  1.00 20.00     0.005 C 
ENDBRANCH   4   5
ENDBRANCH   1   4
BRANCH   3   7
HETATM    7  O7  UNL     1     -34.374   5.206   2.175  1.00 20.00    -0.266 OA
HETATM    8  H18 UNL     1     -35.151   4.690   1.900  1.00 20.00     0.247 HD
ENDBRANCH   3   7
TORSDOF 3
ENDMDL
