MODEL 1
REMARK VINA RESULT:      -5.3      0.000      0.000
REMARK  0 active torsions:
REMARK  status: ('A' for Active; 'I' for Inactive)
ROOT
HETATM    1  C1  UNL     1     -35.169   4.439   4.852  1.00 20.00     0.027 A 
HETATM    2  C2  UNL     1     -35.192   4.796   6.192  1.00 20.00     0.116 A 
HETATM    3  C3  UNL     1     -33.765   6.589   5.876  1.00 20.00     0.124 A 
HETATM    4  C4  UNL     1     -34.383   5.218   4.027  1.00 20.00    -0.049 A 
HETATM    5  C5  UNL     1     -33.670   6.306   4.532  1.00 20.00    -0.030 A 
HETATM    6  C6  UNL     1     -34.192   5.096   2.548  1.00 20.00     0.040 C 
HETATM    7  C7  UNL     1     -32.920   5.934   2.346  1.00 20.00     0.014 C 
HETATM    8  C8  UNL     1     -32.939   7.025   3.440  1.00 20.00     0.017 C 
HETATM    9  C9  UNL     1     -31.542   7.502   3.803  1.00 20.00     0.015 C 
HETATM   10  N10 UNL     1     -34.512   5.846   6.725  1.00 20.00    -0.273 NA
ENDROOT
TORSDOF 0
ENDMDL
MODEL 2
REMARK VINA RESULT:      -4.7      9.557     10.757
REMARK  0 active torsions:
REMARK  status: ('A' for Active; 'I' for Inactive)
ROOT
HETATM    1  C1  UNL     1     -41.931   3.328  -2.359  1.00 20.00     0.027 A 
HETATM    2  C2  UNL     1     -42.895   3.469  -3.346  1.00 20.00     0.116 A 
HETATM    3  C3  UNL     1     -42.953   5.773  -3.146  1.00 20.00     0.124 A 
HETATM    4  C4  UNL     1     -41.498   4.493  -1.759  1.00 20.00    -0.049 A 
HETATM    5  C5  UNL     1     -42.007   5.733  -2.148  1.00 20.00    -0.030 A 
HETATM    6  C6  UNL     1     -40.454   4.654  -0.700  1.00 20.00     0.040 C 
HETATM    7  C7  UNL     1     -40.767   6.069  -0.191  1.00 20.00     0.014 C 
HETATM    8  C8  UNL     1     -41.346   6.846  -1.394  1.00 20.00     0.017 C 
HETATM    9  C9  UNL     1     -42.272   7.972  -0.963  1.00 20.00     0.015 C 
HETATM   10  N10 UNL     1     -43.417   4.656  -3.754  1.00 20.00    -0.273 NA
ENDROOT
TORSDOF 0
ENDMDL
MODEL 3
REMARK VINA RESULT:      -4.7      1.720      4.007
REMARK  0 active torsions:
REMARK  status: ('A' for Active; 'I' for Inactive)
ROOT
HETATM    1  C1  UNL     1     -32.233   7.490   4.275  1.00 20.00     0.027 A 
HETATM    2  C2  UNL     1     -32.042   7.140   2.946  1.00 20.00     0.116 A 
HETATM    3  C3  UNL     1     -33.715   5.543   2.988  1.00 20.00     0.124 A 
HETATM    4  C4  UNL     1     -33.216   6.797   4.952  1.00 20.00    -0.049 A 
HETATM    5  C5  UNL     1     -33.971   5.813   4.313  1.00 20.00    -0.030 A 
HETATM    6  C6  UNL     1     -33.665   6.980   6.367  1.00 20.00     0.040 C 
HETATM    7  C7  UNL     1     -34.427   5.666   6.605  1.00 20.00     0.014 C 
HETATM    8  C8  UNL     1     -35.005   5.245   5.236  1.00 20.00     0.017 C 
HETATM    9  C9  UNL     1     -35.208   3.742   5.133  1.00 20.00     0.015 C 
HETATM   10  N10 UNL     1     -32.753   6.187   2.287  1.00 20.00    -0.273 NA
ENDROOT
TORSDOF 0
ENDMDL
MODEL 4
REMARK VINA RESULT:      -4.6     12.470     13.725
REMARK  0 active torsions:
REMARK  status: ('A' for Active; 'I' for Inactive)
ROOT
HETATM    1  C1  UNL     1     -33.657  14.947  -3.592  1.00 20.00     0.027 A 
HETATM    2  C2  UNL     1     -34.135  13.659  -3.406  1.00 20.00     0.116 A 
HETATM    3  C3  UNL     1     -34.915  13.491  -5.577  1.00 20.00     0.124 A 
HETATM    4  C4  UNL     1     -33.851  15.494  -4.844  1.00 20.00    -0.049 A 
HETATM    5  C5  UNL     1     -34.484  14.769  -5.854  1.00 20.00    -0.030 A 
HETATM    6  C6  UNL     1     -33.416  16.836  -5.343  1.00 20.00     0.040 C 
HETATM    7  C7  UNL     1     -34.293  16.981  -6.597  1.00 20.00     0.014 C 
HETATM    8  C8  UNL     1     -34.528  15.551  -7.131  1.00 20.00     0.017 C 
HETATM    9  C9  UNL     1     -35.824  15.433  -7.916  1.00 20.00     0.015 C 
HETATM   10  N10 UNL     1     -34.759  12.919  -4.361  1.00 20.00    -0.273 NA
ENDROOT
TORSDOF 0
ENDMDL
MODEL 5
REMARK VINA RESULT:      -4.6     12.625     13.890
REMARK  0 active torsions:
REMARK  status: ('A' for Active; 'I' for Inactive)
ROOT
HETATM    1  C1  UNL     1     -34.948  14.719  -7.028  1.00 20.00     0.027 A 
HETATM    2  C2  UNL     1     -34.808  15.992  -7.560  1.00 20.00     0.116 A 
HETATM    3  C3  UNL     1     -33.856  16.838  -5.629  1.00 20.00     0.124 A 
HETATM    4  C4  UNL     1     -34.518  14.551  -5.728  1.00 20.00    -0.049 A 
HETATM    5  C5  UNL     1     -33.965  15.613  -5.012  1.00 20.00    -0.030 A 
HETATM    6  C6  UNL     1     -34.512  13.297  -4.912  1.00 20.00     0.040 C 
HETATM    7  C7  UNL     1     -34.340  13.869  -3.496  1.00 20.00     0.014 C 
HETATM    8  C8  UNL     1     -33.526  15.172  -3.649  1.00 20.00     0.017 C 
HETATM    9  C9  UNL     1     -33.804  16.162  -2.529  1.00 20.00     0.015 C 
HETATM   10  N10 UNL     1     -34.276  17.053  -6.897  1.00 20.00    -0.273 NA
ENDROOT
TORSDOF 0
ENDMDL
MODEL 6
REMARK VINA RESULT:      -4.5      9.697     11.096
REMARK  0 active torsions:
REMARK  status: ('A' for Active; 'I' for Inactive)
ROOT
HETATM    1  C1  UNL     1     -41.913   7.673  -1.908  1.00 20.00     0.027 A 
HETATM    2  C2  UNL     1     -42.805   7.908  -2.943  1.00 20.00     0.116 A 
HETATM    3  C3  UNL     1     -43.128   5.655  -3.356  1.00 20.00     0.124 A 
HETATM    4  C4  UNL     1     -41.639   6.349  -1.629  1.00 20.00    -0.049 A 
HETATM    5  C5  UNL     1     -42.246   5.322  -2.353  1.00 20.00    -0.030 A 
HETATM    6  C6  UNL     1     -40.753   5.796  -0.558  1.00 20.00     0.040 C 
HETATM    7  C7  UNL     1     -40.550   4.357  -1.060  1.00 20.00     0.014 C 
HETATM    8  C8  UNL     1     -41.834   3.980  -1.832  1.00 20.00     0.017 C 
HETATM    9  C9  UNL     1     -41.579   2.924  -2.896  1.00 20.00     0.015 C 
HETATM   10  N10 UNL     1     -43.417   6.938  -3.674  1.00 20.00    -0.273 NA
ENDROOT
TORSDOF 0
ENDMDL
MODEL 7
REMARK VINA RESULT:      -4.4      1.569      3.257
REMARK  0 active torsions:
REMARK  status: ('A' for Active; 'I' for Inactive)
ROOT
HETATM    1  C1  UNL     1     -34.297   5.108   2.827  1.00 20.00     0.027 A 
HETATM    2  C2  UNL     1     -33.412   5.938   2.154  1.00 20.00     0.116 A 
HETATM    3  C3  UNL     1     -32.655   6.931   4.101  1.00 20.00     0.124 A 
HETATM    4  C4  UNL     1     -34.334   5.242   4.200  1.00 20.00    -0.049 A 
HETATM    5  C5  UNL     1     -33.510   6.159   4.855  1.00 20.00    -0.030 A 
HETATM    6  C6  UNL     1     -35.155   4.468   5.182  1.00 20.00     0.040 C 
HETATM    7  C7  UNL     1     -35.061   5.372   6.421  1.00 20.00     0.014 C 
HETATM    8  C8  UNL     1     -33.692   6.082   6.340  1.00 20.00     0.017 C 
HETATM    9  C9  UNL     1     -33.691   7.420   7.061  1.00 20.00     0.015 C 
HETATM   10  N10 UNL     1     -32.594   6.844   2.752  1.00 20.00    -0.273 NA
ENDROOT
TORSDOF 0
ENDMDL
MODEL 8
REMARK VINA RESULT:      -4.4     11.509     12.451
REMARK  0 active torsions:
REMARK  status: ('A' for Active; 'I' for Inactive)
ROOT
HETATM    1  C1  UNL     1     -35.877  14.059  -4.797  1.00 20.00     0.027 A 
HETATM    2  C2  UNL     1     -34.765  13.239  -4.922  1.00 20.00     0.116 A 
HETATM    3  C3  UNL     1     -33.656  14.251  -3.162  1.00 20.00     0.124 A 
HETATM    4  C4  UNL     1     -35.822  15.012  -3.801  1.00 20.00    -0.049 A 
HETATM    5  C5  UNL     1     -34.707  15.119  -2.969  1.00 20.00    -0.030 A 
HETATM    6  C6  UNL     1     -36.873  16.003  -3.412  1.00 20.00     0.040 C 
HETATM    7  C7  UNL     1     -36.046  17.000  -2.585  1.00 20.00     0.014 C 
HETATM    8  C8  UNL     1     -34.905  16.186  -1.937  1.00 20.00     0.017 C 
HETATM    9  C9  UNL     1     -33.681  17.038  -1.645  1.00 20.00     0.015 C 
HETATM   10  N10 UNL     1     -33.659  13.310  -4.134  1.00 20.00    -0.273 NA
ENDROOT
TORSDOF 0
ENDMDL
MODEL 9
REMARK VINA RESULT:      -4.3     12.289     13.531
REMARK  0 active torsions:
REMARK  status: ('A' for Active; 'I' for Inactive)
ROOT
HETATM    1  C1  UNL     1     -33.883  16.161  -2.489  1.00 20.00     0.027 A 
HETATM    2  C2  UNL     1     -33.826  17.517  -2.770  1.00 20.00     0.116 A 
HETATM    3  C3  UNL     1     -34.483  17.224  -4.969  1.00 20.00     0.124 A 
HETATM    4  C4  UNL     1     -34.252  15.336  -3.533  1.00 20.00    -0.049 A 
HETATM    5  C5  UNL     1     -34.557  15.862  -4.789  1.00 20.00    -0.030 A 
HETATM    6  C6  UNL     1     -34.431  13.851  -3.518  1.00 20.00     0.040 C 
HETATM    7  C7  UNL     1     -34.405  13.537  -5.022  1.00 20.00     0.014 C 
HETATM    8  C8  UNL     1     -34.980  14.781  -5.736  1.00 20.00     0.017 C 
HETATM    9  C9  UNL     1     -34.456  14.925  -7.156  1.00 20.00     0.015 C 
HETATM   10  N10 UNL     1     -34.114  18.070  -3.979  1.00 20.00    -0.273 NA
ENDROOT
TORSDOF 0
ENDMDL
