MODEL 1
REMARK VINA RESULT:      -4.9      0.000      0.000
REMARK  1 active torsions:
REMARK  status: ('A' for Active; 'I' for Inactive)
REMARK    1  A    between atoms: C1_1  and  C2_2 
ROOT
HETATM    1  C1  UNL     1     -33.339   6.138   3.904  1.00 20.00     0.028 C 
HETATM    2  C4  UNL     1     -33.628   6.667   5.293  1.00 20.00     0.059 C 
HETATM    3  C5  UNL     1     -34.309   5.599   6.137  1.00 20.00     0.008 C 
HETATM    4  C6  UNL     1     -35.251   4.710   5.325  1.00 20.00     0.022 C 
HETATM    5  C7  UNL     1     -35.493   5.262   3.926  1.00 20.00     0.149 C 
HETATM    6  N9  UNL     1     -34.219   5.471   3.230  1.00 20.00    -0.294 NA
ENDROOT
BRANCH   1   7
HETATM    7  C2  UNL     1     -32.018   6.435   3.320  1.00 20.00     0.022 C 
HETATM    8  C3  UNL     1     -31.803   7.516   2.601  1.00 20.00    -0.029 C 
HETATM    9  C8  UNL     1     -32.880   8.514   2.329  1.00 20.00     0.036 C 
ENDBRANCH   1   7
TORSDOF 1
ENDMDL
MODEL 2
REMARK VINA RESULT:      -4.3      1.325      3.913
REMARK  1 active torsions:
REMARK  status: ('A' for Active; 'I' for Inactive)
REMARK    1  A    between atoms: C1_1  and  C2_2 
ROOT
HETATM    1  C1  UNL     1     -33.803   6.405   4.844  1.00 20.00     0.028 C 
HETATM    2  C4  UNL     1     -34.708   6.105   3.669  1.00 20.00     0.059 C 
HETATM    3  C5  UNL     1     -33.943   5.353   2.588  1.00 20.00     0.008 C 
HETATM    4  C6  UNL     1     -32.482   5.790   2.480  1.00 20.00     0.022 C 
HETATM    5  C7  UNL     1     -32.201   7.051   3.287  1.00 20.00     0.149 C 
HETATM    6  N9  UNL     1     -32.604   6.865   4.685  1.00 20.00    -0.294 NA
ENDROOT
BRANCH   1   7
HETATM    7  C2  UNL     1     -34.344   6.184   6.198  1.00 20.00     0.022 C 
HETATM    8  C3  UNL     1     -34.789   5.008   6.585  1.00 20.00    -0.029 C 
HETATM    9  C8  UNL     1     -34.776   3.819   5.682  1.00 20.00     0.036 C 
ENDBRANCH   1   7
TORSDOF 1
ENDMDL
MODEL 3
REMARK VINA RESULT:      -4.1      9.427     10.332
REMARK  1 active torsions:
REMARK  status: ('A' for Active; 'I' for Inactive)
REMARK    1  A    between atoms: C1_1  and  C2_2 
ROOT
HETATM    1  C1  UNL     1     -41.399   5.377  -1.121  1.00 20.00     0.028 C 
HETATM    2  C4  UNL     1     -42.204   5.360   0.161  1.00 20.00     0.059 C 
HETATM    3  C5  UNL     1     -43.357   6.351   0.078  1.00 20.00     0.008 C 
HETATM    4  C6  UNL     1     -43.005   7.607  -0.719  1.00 20.00     0.022 C 
HETATM    5  C7  UNL     1     -41.514   7.698  -1.014  1.00 20.00     0.149 C 
HETATM    6  N9  UNL     1     -41.052   6.483  -1.696  1.00 20.00    -0.294 NA
ENDROOT
BRANCH   1   7
HETATM    7  C2  UNL     1     -40.990   4.080  -1.690  1.00 20.00     0.022 C 
HETATM    8  C3  UNL     1     -41.729   3.444  -2.574  1.00 20.00    -0.029 C 
HETATM    9  C8  UNL     1     -43.030   3.993  -3.060  1.00 20.00     0.036 C 
ENDBRANCH   1   7
TORSDOF 1
ENDMDL
MODEL 4
REMARK VINA RESULT:      -4.0     11.058     12.074
REMARK  1 active torsions:
REMARK  status: ('A' for Active; 'I' for Inactive)
REMARK    1  A    between atoms: C1_1  and  C2_2 
ROOT
HETATM    1  C1  UNL     1     -34.786  15.083  -3.223  1.00 20.00     0.028 C 
HETATM    2  C4  UNL     1     -33.603  15.995  -2.978  1.00 20.00     0.059 C 
HETATM    3  C5  UNL     1     -33.804  16.792  -1.695  1.00 20.00     0.008 C 
HETATM    4  C6  UNL     1     -35.265  17.168  -1.452  1.00 20.00     0.022 C 
HETATM    5  C7  UNL     1     -36.137  16.894  -2.670  1.00 20.00     0.149 C 
HETATM    6  N9  UNL     1     -36.006  15.494  -3.090  1.00 20.00    -0.294 NA
ENDROOT
BRANCH   1   7
HETATM    7  C2  UNL     1     -34.508  13.701  -3.654  1.00 20.00     0.022 C 
HETATM    8  C3  UNL     1     -34.489  13.360  -4.925  1.00 20.00    -0.029 C 
HETATM    9  C8  UNL     1     -34.747  14.348  -6.015  1.00 20.00     0.036 C 
ENDBRANCH   1   7
TORSDOF 1
ENDMDL
MODEL 5
REMARK VINA RESULT:      -4.0     11.220     12.934
REMARK  1 active torsions:
REMARK  status: ('A' for Active; 'I' for Inactive)
REMARK    1  A    between atoms: C1_1  and  C2_2 
ROOT
HETATM    1  C1  UNL     1     -33.221  15.866  -3.812  1.00 20.00     0.028 C 
HETATM    2  C4  UNL     1     -33.875  16.545  -2.628  1.00 20.00     0.059 C 
HETATM    3  C5  UNL     1     -35.116  17.307  -3.072  1.00 20.00     0.008 C 
HETATM    4  C6  UNL     1     -34.970  17.922  -4.464  1.00 20.00     0.022 C 
HETATM    5  C7  UNL     1     -33.534  17.859  -4.969  1.00 20.00     0.149 C 
HETATM    6  N9  UNL     1     -33.041  16.478  -4.938  1.00 20.00    -0.294 NA
ENDROOT
BRANCH   1   7
HETATM    7  C2  UNL     1     -32.759  14.477  -3.636  1.00 20.00     0.022 C 
HETATM    8  C3  UNL     1     -33.556  13.449  -3.835  1.00 20.00    -0.029 C 
HETATM    9  C8  UNL     1     -34.979  13.620  -4.253  1.00 20.00     0.036 C 
ENDBRANCH   1   7
TORSDOF 1
ENDMDL
MODEL 6
REMARK VINA RESULT:      -3.9     11.440     12.468
REMARK  1 active torsions:
REMARK  status: ('A' for Active; 'I' for Inactive)
REMARK    1  A    between atoms: C1_1  and  C2_2 
ROOT
HETATM    1  C1  UNL     1     -34.048  15.282  -3.340  1.00 20.00     0.028 C 
HETATM    2  C4  UNL     1     -33.303  15.940  -4.482  1.00 20.00     0.059 C 
HETATM    3  C5  UNL     1     -34.039  15.712  -5.796  1.00 20.00     0.008 C 
HETATM    4  C6  UNL     1     -34.722  14.347  -5.866  1.00 20.00     0.022 C 
HETATM    5  C7  UNL     1     -34.290  13.432  -4.728  1.00 20.00     0.149 C 
HETATM    6  N9  UNL     1     -34.521  14.081  -3.433  1.00 20.00    -0.294 NA
ENDROOT
BRANCH   1   7
HETATM    7  C2  UNL     1     -34.195  16.047  -2.088  1.00 20.00     0.022 C 
HETATM    8  C3  UNL     1     -35.229  16.832  -1.871  1.00 20.00    -0.029 C 
HETATM    9  C8  UNL     1     -36.322  16.999  -2.875  1.00 20.00     0.036 C 
ENDBRANCH   1   7
TORSDOF 1
ENDMDL
MODEL 7
REMARK VINA RESULT:      -3.9      8.835     10.136
REMARK  1 active torsions:
REMARK  status: ('A' for Active; 'I' for Inactive)
REMARK    1  A    between atoms: C1_1  and  C2_2 
ROOT
HETATM    1  C1  UNL     1     -41.630   4.988  -0.601  1.00 20.00     0.028 C 
HETATM    2  C4  UNL     1     -40.972   4.052  -1.592  1.00 20.00     0.059 C 
HETATM    3  C5  UNL     1     -41.992   3.547  -2.604  1.00 20.00     0.008 C 
HETATM    4  C6  UNL     1     -43.381   3.346  -1.998  1.00 20.00     0.022 C 
HETATM    5  C7  UNL     1     -43.361   3.439  -0.478  1.00 20.00     0.149 C 
HETATM    6  N9  UNL     1     -42.768   4.711  -0.051  1.00 20.00    -0.294 NA
ENDROOT
BRANCH   1   7
HETATM    7  C2  UNL     1     -40.914   6.229  -0.252  1.00 20.00     0.022 C 
HETATM    8  C3  UNL     1     -41.116   7.355  -0.903  1.00 20.00    -0.029 C 
HETATM    9  C8  UNL     1     -42.083   7.452  -2.037  1.00 20.00     0.036 C 
ENDBRANCH   1   7
TORSDOF 1
ENDMDL
MODEL 8
REMARK VINA RESULT:      -3.9     11.373     13.111
REMARK  1 active torsions:
REMARK  status: ('A' for Active; 'I' for Inactive)
REMARK    1  A    between atoms: C1_1  and  C2_2 
ROOT
HETATM    1  C1  UNL     1     -34.413  14.759  -5.898  1.00 20.00     0.028 C 
HETATM    2  C4  UNL     1     -34.372  13.554  -4.982  1.00 20.00     0.059 C 
HETATM    3  C5  UNL     1     -34.671  13.966  -3.547  1.00 20.00     0.008 C 
HETATM    4  C6  UNL     1     -34.122  15.350  -3.200  1.00 20.00     0.022 C 
HETATM    5  C7  UNL     1     -33.180  15.878  -4.274  1.00 20.00     0.149 C 
HETATM    6  N9  UNL     1     -33.844  15.877  -5.582  1.00 20.00    -0.294 NA
ENDROOT
BRANCH   1   7
HETATM    7  C2  UNL     1     -35.105  14.612  -7.192  1.00 20.00     0.022 C 
HETATM    8  C3  UNL     1     -36.383  14.890  -7.332  1.00 20.00    -0.029 C 
HETATM    9  C8  UNL     1     -37.218  15.374  -6.192  1.00 20.00     0.036 C 
ENDBRANCH   1   7
TORSDOF 1
ENDMDL
MODEL 9
REMARK VINA RESULT:      -3.9     11.266     13.415
REMARK  1 active torsions:
REMARK  status: ('A' for Active; 'I' for Inactive)
REMARK    1  A    between atoms: C1_1  and  C2_2 
ROOT
HETATM    1  C1  UNL     1     -35.122  14.408  -5.579  1.00 20.00     0.028 C 
HETATM    2  C4  UNL     1     -34.495  14.752  -6.913  1.00 20.00     0.059 C 
HETATM    3  C5  UNL     1     -34.486  16.261  -7.121  1.00 20.00     0.008 C 
HETATM    4  C6  UNL     1     -35.713  16.951  -6.525  1.00 20.00     0.022 C 
HETATM    5  C7  UNL     1     -36.781  15.951  -6.101  1.00 20.00     0.149 C 
HETATM    6  N9  UNL     1     -36.219  14.963  -5.174  1.00 20.00    -0.294 NA
ENDROOT
BRANCH   1   7
HETATM    7  C2  UNL     1     -34.455  13.384  -4.753  1.00 20.00     0.022 C 
HETATM    8  C3  UNL     1     -33.525  13.696  -3.876  1.00 20.00    -0.029 C 
HETATM    9  C8  UNL     1     -33.084  15.106  -3.656  1.00 20.00     0.036 C 
ENDBRANCH   1   7
TORSDOF 1
ENDMDL
