MODEL 1
REMARK VINA RESULT:      -4.8      0.000      0.000
REMARK  4 active torsions:
REMARK  status: ('A' for Active; 'I' for Inactive)
REMARK    1  A    between atoms: C6_6  and  C8_8 
REMARK    2  A    between atoms: C7_7  and  C9_9 
REMARK    3  A    between atoms: C10_10  and  C11_11 
REMARK    4  A    between atoms: C11_11  and  O12_12 
ROOT
HETATM    1  C4  UNL     1     -34.281  15.063  -2.986  1.00 20.00     0.012 C 
HETATM    2  C5  UNL     1     -33.833  15.802  -5.248  1.00 20.00     0.012 C 
HETATM    3  C8  UNL     1     -33.909  16.541  -2.900  1.00 20.00    -0.006 C 
HETATM    4  C9  UNL     1     -33.623  17.011  -4.342  1.00 20.00    -0.006 C 
HETATM    5  C10 UNL     1     -34.679  14.812  -4.443  1.00 20.00     0.010 C 
ENDROOT
BRANCH   5   6
HETATM    6  C11 UNL     1     -34.464  13.367  -4.871  1.00 20.00     0.168 C 
BRANCH   6   7
HETATM    7  O12 UNL     1     -35.354  12.540  -4.142  1.00 20.00    -0.400 OA
HETATM    8  H30 UNL     1     -36.254  12.762  -4.437  1.00 20.00     0.209 HD
ENDBRANCH   6   7
ENDBRANCH   5   6
BRANCH   3   9
HETATM    9  C6  UNL     1     -34.967  17.557  -2.410  1.00 20.00    -0.010 C 
HETATM   10  C1  UNL     1     -34.464  19.009  -2.455  1.00 20.00     0.005 C 
HETATM   11  C2  UNL     1     -33.412  19.047  -1.337  1.00 20.00     0.005 C 
HETATM   12  C7  UNL     1     -33.440  17.612  -0.786  1.00 20.00    -0.010 C 
HETATM   13  C3  UNL     1     -34.937  17.291  -0.900  1.00 20.00     0.010 C 
ENDBRANCH   3   9
TORSDOF 4
ENDMDL
MODEL 2
REMARK VINA RESULT:      -4.8      1.051      1.228
REMARK  4 active torsions:
REMARK  status: ('A' for Active; 'I' for Inactive)
REMARK    1  A    between atoms: C6_6  and  C8_8 
REMARK    2  A    between atoms: C7_7  and  C9_9 
REMARK    3  A    between atoms: C10_10  and  C11_11 
REMARK    4  A    between atoms: C11_11  and  O12_12 
ROOT
HETATM    1  C4  UNL     1     -35.575  15.287  -2.959  1.00 20.00     0.012 C 
HETATM    2  C5  UNL     1     -33.452  15.007  -4.090  1.00 20.00     0.012 C 
HETATM    3  C8  UNL     1     -34.560  16.145  -2.207  1.00 20.00    -0.006 C 
HETATM    4  C9  UNL     1     -33.207  15.965  -2.929  1.00 20.00    -0.006 C 
HETATM    5  C10 UNL     1     -34.963  15.019  -4.337  1.00 20.00     0.010 C 
ENDROOT
BRANCH   5   6
HETATM    6  C11 UNL     1     -35.469  13.727  -4.964  1.00 20.00     0.168 C 
BRANCH   6   7
HETATM    7  O12 UNL     1     -35.154  12.650  -4.100  1.00 20.00    -0.400 OA
HETATM    8  H30 UNL     1     -34.745  11.957  -4.646  1.00 20.00     0.209 HD
ENDBRANCH   6   7
ENDBRANCH   5   6
BRANCH   3   9
HETATM    9  C6  UNL     1     -34.738  17.681  -2.189  1.00 20.00    -0.010 C 
HETATM   10  C1  UNL     1     -33.535  18.413  -1.574  1.00 20.00     0.005 C 
HETATM   11  C2  UNL     1     -33.625  18.042  -0.087  1.00 20.00     0.005 C 
HETATM   12  C7  UNL     1     -34.870  17.142  -0.030  1.00 20.00    -0.010 C 
HETATM   13  C3  UNL     1     -35.770  17.832  -1.064  1.00 20.00     0.010 C 
ENDBRANCH   3   9
TORSDOF 4
ENDMDL
MODEL 3
REMARK VINA RESULT:      -4.7      1.093      1.812
REMARK  4 active torsions:
REMARK  status: ('A' for Active; 'I' for Inactive)
REMARK    1  A    between atoms: C6_6  and  C8_8 
REMARK    2  A    between atoms: C7_7  and  C9_9 
REMARK    3  A    between atoms: C10_10  and  C11_11 
REMARK    4  A    between atoms: C11_11  and  O12_12 
ROOT
HETATM    1  C4  UNL     1     -33.631  15.774  -3.045  1.00 20.00     0.012 C 
HETATM    2  C5  UNL     1     -35.932  15.178  -3.502  1.00 20.00     0.012 C 
HETATM    3  C8  UNL     1     -34.501  16.819  -2.352  1.00 20.00    -0.006 C 
HETATM    4  C9  UNL     1     -35.968  16.439  -2.644  1.00 20.00    -0.006 C 
HETATM    5  C10 UNL     1     -34.541  14.570  -3.303  1.00 20.00     0.010 C 
ENDROOT
BRANCH   5   6
HETATM    6  C11 UNL     1     -34.087  13.734  -4.492  1.00 20.00     0.168 C 
BRANCH   6   7
HETATM    7  O12 UNL     1     -34.878  12.560  -4.549  1.00 20.00    -0.400 OA
HETATM    8  H30 UNL     1     -35.419  12.542  -3.741  1.00 20.00     0.209 HD
ENDBRANCH   6   7
ENDBRANCH   5   6
BRANCH   3   9
HETATM    9  C6  UNL     1     -34.473  16.920  -0.809  1.00 20.00    -0.010 C 
HETATM   10  C1  UNL     1     -35.533  17.887  -0.257  1.00 20.00     0.005 C 
HETATM   11  C2  UNL     1     -35.013  19.262  -0.697  1.00 20.00     0.005 C 
HETATM   12  C7  UNL     1     -33.717  18.918  -1.449  1.00 20.00    -0.010 C 
HETATM   13  C3  UNL     1     -33.197  17.747  -0.603  1.00 20.00     0.010 C 
ENDBRANCH   3   9
TORSDOF 4
ENDMDL
MODEL 4
REMARK VINA RESULT:      -4.6     11.100     12.518
REMARK  4 active torsions:
REMARK  status: ('A' for Active; 'I' for Inactive)
REMARK    1  A    between atoms: C6_6  and  C8_8 
REMARK    2  A    between atoms: C7_7  and  C9_9 
REMARK    3  A    between atoms: C10_10  and  C11_11 
REMARK    4  A    between atoms: C11_11  and  O12_12 
ROOT
HETATM    1  C4  UNL     1     -33.270   6.663   2.462  1.00 20.00     0.012 C 
HETATM    2  C5  UNL     1     -31.489   7.737   3.702  1.00 20.00     0.012 C 
HETATM    3  C8  UNL     1     -33.323   6.102   3.881  1.00 20.00    -0.006 C 
HETATM    4  C9  UNL     1     -32.187   6.788   4.671  1.00 20.00    -0.006 C 
HETATM    5  C10 UNL     1     -32.474   7.967   2.552  1.00 20.00     0.010 C 
ENDROOT
BRANCH   5   6
HETATM    6  C11 UNL     1     -31.780   8.326   1.245  1.00 20.00     0.168 C 
BRANCH   6   7
HETATM    7  O12 UNL     1     -32.407   9.472   0.698  1.00 20.00    -0.400 OA
HETATM    8  H30 UNL     1     -33.366   9.353   0.811  1.00 20.00     0.209 HD
ENDBRANCH   6   7
ENDBRANCH   5   6
BRANCH   3   9
HETATM    9  C6  UNL     1     -34.567   6.382   4.755  1.00 20.00    -0.010 C 
HETATM   10  C1  UNL     1     -34.442   5.801   6.173  1.00 20.00     0.005 C 
HETATM   11  C2  UNL     1     -34.525   4.287   5.936  1.00 20.00     0.005 C 
HETATM   12  C7  UNL     1     -34.689   4.183   4.412  1.00 20.00    -0.010 C 
HETATM   13  C3  UNL     1     -35.574   5.406   4.134  1.00 20.00     0.010 C 
ENDBRANCH   3   9
TORSDOF 4
ENDMDL
MODEL 5
REMARK VINA RESULT:      -4.6      2.134      4.587
REMARK  4 active torsions:
REMARK  status: ('A' for Active; 'I' for Inactive)
REMARK    1  A    between atoms: C6_6  and  C8_8 
REMARK    2  A    between atoms: C7_7  and  C9_9 
REMARK    3  A    between atoms: C10_10  and  C11_11 
REMARK    4  A    between atoms: C11_11  and  O12_12 
ROOT
HETATM    1  C4  UNL     1     -34.466  15.939  -1.839  1.00 20.00     0.012 C 
HETATM    2  C5  UNL     1     -34.578  18.227  -2.621  1.00 20.00     0.012 C 
HETATM    3  C8  UNL     1     -34.727  15.877  -3.341  1.00 20.00    -0.006 C 
HETATM    4  C9  UNL     1     -34.798  17.337  -3.839  1.00 20.00    -0.006 C 
HETATM    5  C10 UNL     1     -33.916  17.340  -1.562  1.00 20.00     0.010 C 
ENDROOT
BRANCH   5   6
HETATM    6  C11 UNL     1     -34.193  17.812  -0.141  1.00 20.00     0.168 C 
BRANCH   6   7
HETATM    7  O12 UNL     1     -35.212  17.000   0.416  1.00 20.00    -0.400 OA
HETATM    8  H30 UNL     1     -35.006  16.080   0.176  1.00 20.00     0.209 HD
ENDBRANCH   6   7
ENDBRANCH   5   6
BRANCH   3   9
HETATM    9  C6  UNL     1     -33.658  15.250  -4.266  1.00 20.00    -0.010 C 
HETATM   10  C1  UNL     1     -34.108  15.179  -5.734  1.00 20.00     0.005 C 
HETATM   11  C2  UNL     1     -35.207  14.107  -5.709  1.00 20.00     0.005 C 
HETATM   12  C7  UNL     1     -35.253  13.693  -4.229  1.00 20.00    -0.010 C 
HETATM   13  C3  UNL     1     -33.765  13.774  -3.863  1.00 20.00     0.010 C 
ENDBRANCH   3   9
TORSDOF 4
ENDMDL
MODEL 6
REMARK VINA RESULT:      -4.5     12.176     14.133
REMARK  4 active torsions:
REMARK  status: ('A' for Active; 'I' for Inactive)
REMARK    1  A    between atoms: C6_6  and  C8_8 
REMARK    2  A    between atoms: C7_7  and  C9_9 
REMARK    3  A    between atoms: C10_10  and  C11_11 
REMARK    4  A    between atoms: C11_11  and  O12_12 
ROOT
HETATM    1  C4  UNL     1     -41.311   3.663  -2.283  1.00 20.00     0.012 C 
HETATM    2  C5  UNL     1     -43.370   3.567  -3.551  1.00 20.00     0.012 C 
HETATM    3  C8  UNL     1     -42.016   5.001  -2.077  1.00 20.00    -0.006 C 
HETATM    4  C9  UNL     1     -43.330   4.939  -2.887  1.00 20.00    -0.006 C 
HETATM    5  C10 UNL     1     -42.385   2.690  -2.774  1.00 20.00     0.010 C 
ENDROOT
BRANCH   5   6
HETATM    6  C11 UNL     1     -41.813   1.557  -3.615  1.00 20.00     0.168 C 
BRANCH   6   7
HETATM    7  O12 UNL     1     -40.534   1.942  -4.085  1.00 20.00    -0.400 OA
HETATM    8  H30 UNL     1     -40.562   2.903  -4.231  1.00 20.00     0.209 HD
ENDBRANCH   6   7
ENDBRANCH   5   6
BRANCH   3   9
HETATM    9  C6  UNL     1     -42.504   5.386  -0.661  1.00 20.00    -0.010 C 
HETATM   10  C1  UNL     1     -43.327   6.684  -0.647  1.00 20.00     0.005 C 
HETATM   11  C2  UNL     1     -42.279   7.764  -0.951  1.00 20.00     0.005 C 
HETATM   12  C7  UNL     1     -40.981   6.954  -1.102  1.00 20.00    -0.010 C 
HETATM   13  C3  UNL     1     -41.192   5.873  -0.033  1.00 20.00     0.010 C 
ENDBRANCH   3   9
TORSDOF 4
ENDMDL
MODEL 7
REMARK VINA RESULT:      -4.4      2.447      4.807
REMARK  4 active torsions:
REMARK  status: ('A' for Active; 'I' for Inactive)
REMARK    1  A    between atoms: C6_6  and  C8_8 
REMARK    2  A    between atoms: C7_7  and  C9_9 
REMARK    3  A    between atoms: C10_10  and  C11_11 
REMARK    4  A    between atoms: C11_11  and  O12_12 
ROOT
HETATM    1  C4  UNL     1     -35.848  16.712  -2.392  1.00 20.00     0.012 C 
HETATM    2  C5  UNL     1     -33.590  17.005  -1.568  1.00 20.00     0.012 C 
HETATM    3  C8  UNL     1     -34.931  15.947  -3.342  1.00 20.00    -0.006 C 
HETATM    4  C9  UNL     1     -33.491  16.134  -2.816  1.00 20.00    -0.006 C 
HETATM    5  C10 UNL     1     -35.046  16.916  -1.104  1.00 20.00     0.010 C 
ENDROOT
BRANCH   5   6
HETATM    6  C11 UNL     1     -35.493  18.143  -0.321  1.00 20.00     0.168 C 
BRANCH   6   7
HETATM    7  O12 UNL     1     -36.814  17.930   0.143  1.00 20.00    -0.400 OA
HETATM    8  H30 UNL     1     -36.837  18.209   1.075  1.00 20.00     0.209 HD
ENDBRANCH   6   7
ENDBRANCH   5   6
BRANCH   3   9
HETATM    9  C6  UNL     1     -35.062  14.409  -3.441  1.00 20.00    -0.010 C 
HETATM   10  C1  UNL     1     -34.088  13.792  -4.457  1.00 20.00     0.005 C 
HETATM   11  C2  UNL     1     -34.644  14.269  -5.806  1.00 20.00     0.005 C 
HETATM   12  C7  UNL     1     -35.870  15.101  -5.400  1.00 20.00    -0.010 C 
HETATM   13  C3  UNL     1     -36.387  14.288  -4.205  1.00 20.00     0.010 C 
ENDBRANCH   3   9
TORSDOF 4
ENDMDL
MODEL 8
REMARK VINA RESULT:      -4.2      3.099      5.399
REMARK  4 active torsions:
REMARK  status: ('A' for Active; 'I' for Inactive)
REMARK    1  A    between atoms: C6_6  and  C8_8 
REMARK    2  A    between atoms: C7_7  and  C9_9 
REMARK    3  A    between atoms: C10_10  and  C11_11 
REMARK    4  A    between atoms: C11_11  and  O12_12 
ROOT
HETATM    1  C4  UNL     1     -32.965  17.948  -0.436  1.00 20.00     0.012 C 
HETATM    2  C5  UNL     1     -34.677  18.076   1.271  1.00 20.00     0.012 C 
HETATM    3  C8  UNL     1     -34.158  17.145  -0.949  1.00 20.00    -0.006 C 
HETATM    4  C9  UNL     1     -35.249  17.227   0.140  1.00 20.00    -0.006 C 
HETATM    5  C10 UNL     1     -33.513  18.862   0.663  1.00 20.00     0.010 C 
ENDROOT
BRANCH   5   6
HETATM    6  C11 UNL     1     -32.457  19.243   1.692  1.00 20.00     0.168 C 
BRANCH   6   7
HETATM    7  O12 UNL     1     -31.191  19.262   1.058  1.00 20.00    -0.400 OA
HETATM    8  H30 UNL     1     -30.623  19.861   1.572  1.00 20.00     0.209 HD
ENDBRANCH   6   7
ENDBRANCH   5   6
BRANCH   3   9
HETATM    9  C6  UNL     1     -34.901  17.626  -2.216  1.00 20.00    -0.010 C 
HETATM   10  C1  UNL     1     -36.059  16.698  -2.617  1.00 20.00     0.005 C 
HETATM   11  C2  UNL     1     -35.337  15.434  -3.105  1.00 20.00     0.005 C 
HETATM   12  C7  UNL     1     -33.853  15.791  -2.925  1.00 20.00    -0.010 C 
HETATM   13  C3  UNL     1     -33.869  17.279  -3.297  1.00 20.00     0.010 C 
ENDBRANCH   3   9
TORSDOF 4
ENDMDL
MODEL 9
REMARK VINA RESULT:      -4.2      1.658      2.441
REMARK  4 active torsions:
REMARK  status: ('A' for Active; 'I' for Inactive)
REMARK    1  A    between atoms: C6_6  and  C8_8 
REMARK    2  A    between atoms: C7_7  and  C9_9 
REMARK    3  A    between atoms: C10_10  and  C11_11 
REMARK    4  A    between atoms: C11_11  and  O12_12 
ROOT
HETATM    1  C4  UNL     1     -35.520  15.899  -4.853  1.00 20.00     0.012 C 
HETATM    2  C5  UNL     1     -34.317  13.837  -4.447  1.00 20.00     0.012 C 
HETATM    3  C8  UNL     1     -35.081  15.927  -3.391  1.00 20.00    -0.006 C 
HETATM    4  C9  UNL     1     -34.314  14.611  -3.133  1.00 20.00    -0.006 C 
HETATM    5  C10 UNL     1     -34.629  14.861  -5.541  1.00 20.00     0.010 C 
ENDROOT
BRANCH   5   6
HETATM    6  C11 UNL     1     -35.290  14.237  -6.763  1.00 20.00     0.168 C 
BRANCH   6   7
HETATM    7  O12 UNL     1     -34.569  14.626  -7.918  1.00 20.00    -0.400 OA
HETATM    8  H30 UNL     1     -35.223  14.914  -8.578  1.00 20.00     0.209 HD
ENDBRANCH   6   7
ENDBRANCH   5   6
BRANCH   3   9
HETATM    9  C6  UNL     1     -34.076  17.006  -2.926  1.00 20.00    -0.010 C 
HETATM   10  C1  UNL     1     -33.703  16.873  -1.441  1.00 20.00     0.005 C 
HETATM   11  C2  UNL     1     -34.996  17.279  -0.720  1.00 20.00     0.005 C 
HETATM   12  C7  UNL     1     -35.954  17.596  -1.880  1.00 20.00    -0.010 C 
HETATM   13  C3  UNL     1     -34.987  18.240  -2.883  1.00 20.00     0.010 C 
ENDBRANCH   3   9
TORSDOF 4
ENDMDL
