MODEL 1
REMARK VINA RESULT:      -4.5      0.000      0.000
REMARK  0 active torsions:
REMARK  status: ('A' for Active; 'I' for Inactive)
ROOT
HETATM    1  C1  UNL     1     -33.069   6.215   3.724  1.00 20.00     0.064 C 
HETATM    2  C2  UNL     1     -35.395   5.403   3.991  1.00 20.00     0.045 C 
HETATM    3  C3  UNL     1     -34.155   6.388   5.945  1.00 20.00     0.045 C 
HETATM    4  C4  UNL     1     -35.143   4.034   4.616  1.00 20.00     0.169 C 
HETATM    5  C5  UNL     1     -33.976   4.961   6.454  1.00 20.00     0.169 C 
HETATM    6  C6  UNL     1     -34.348   6.434   4.425  1.00 20.00     0.097 C 
HETATM    7  N7  UNL     1     -32.063   6.042   3.172  1.00 20.00    -0.197 NA
HETATM    8  O8  UNL     1     -35.060   4.133   6.036  1.00 20.00    -0.391 OA
ENDROOT
TORSDOF 0
ENDMDL
MODEL 2
REMARK VINA RESULT:      -4.1     12.470     13.022
REMARK  0 active torsions:
REMARK  status: ('A' for Active; 'I' for Inactive)
ROOT
HETATM    1  C1  UNL     1     -33.353  16.088  -4.360  1.00 20.00     0.064 C 
HETATM    2  C2  UNL     1     -35.140  15.347  -2.810  1.00 20.00     0.045 C 
HETATM    3  C3  UNL     1     -33.556  13.677  -3.826  1.00 20.00     0.045 C 
HETATM    4  C4  UNL     1     -36.185  14.850  -3.806  1.00 20.00     0.169 C 
HETATM    5  C5  UNL     1     -34.694  13.279  -4.762  1.00 20.00     0.169 C 
HETATM    6  C6  UNL     1     -33.711  15.113  -3.313  1.00 20.00     0.097 C 
HETATM    7  N7  UNL     1     -33.073  16.856  -5.184  1.00 20.00    -0.197 NA
HETATM    8  O8  UNL     1     -35.960  13.481  -4.135  1.00 20.00    -0.391 OA
ENDROOT
TORSDOF 0
ENDMDL
MODEL 3
REMARK VINA RESULT:      -4.1     12.698     13.583
REMARK  0 active torsions:
REMARK  status: ('A' for Active; 'I' for Inactive)
ROOT
HETATM    1  C1  UNL     1     -35.914  14.016  -4.286  1.00 20.00     0.064 C 
HETATM    2  C2  UNL     1     -34.346  14.730  -6.067  1.00 20.00     0.045 C 
HETATM    3  C3  UNL     1     -33.476  13.864  -3.871  1.00 20.00     0.045 C 
HETATM    4  C4  UNL     1     -33.983  16.128  -5.574  1.00 20.00     0.169 C 
HETATM    5  C5  UNL     1     -33.164  15.313  -3.509  1.00 20.00     0.169 C 
HETATM    6  C6  UNL     1     -34.601  13.761  -4.907  1.00 20.00     0.097 C 
HETATM    7  N7  UNL     1     -36.948  14.216  -3.797  1.00 20.00    -0.197 NA
HETATM    8  O8  UNL     1     -32.875  16.077  -4.678  1.00 20.00    -0.391 OA
ENDROOT
TORSDOF 0
ENDMDL
MODEL 4
REMARK VINA RESULT:      -4.0     12.620     13.540
REMARK  0 active torsions:
REMARK  status: ('A' for Active; 'I' for Inactive)
ROOT
HETATM    1  C1  UNL     1     -34.552  13.548  -4.084  1.00 20.00     0.064 C 
HETATM    2  C2  UNL     1     -32.943  15.402  -3.743  1.00 20.00     0.045 C 
HETATM    3  C3  UNL     1     -35.325  15.619  -2.964  1.00 20.00     0.045 C 
HETATM    4  C4  UNL     1     -33.319  16.316  -4.907  1.00 20.00     0.169 C 
HETATM    5  C5  UNL     1     -35.560  16.519  -4.173  1.00 20.00     0.169 C 
HETATM    6  C6  UNL     1     -34.158  14.651  -3.187  1.00 20.00     0.097 C 
HETATM    7  N7  UNL     1     -34.862  12.680  -4.790  1.00 20.00    -0.197 NA
HETATM    8  O8  UNL     1     -34.365  17.210  -4.532  1.00 20.00    -0.391 OA
ENDROOT
TORSDOF 0
ENDMDL
MODEL 5
REMARK VINA RESULT:      -3.8     12.517     13.411
REMARK  0 active torsions:
REMARK  status: ('A' for Active; 'I' for Inactive)
ROOT
HETATM    1  C1  UNL     1     -34.139  15.810  -2.558  1.00 20.00     0.064 C 
HETATM    2  C2  UNL     1     -33.357  13.800  -3.779  1.00 20.00     0.045 C 
HETATM    3  C3  UNL     1     -33.299  16.063  -4.875  1.00 20.00     0.045 C 
HETATM    4  C4  UNL     1     -34.585  13.499  -4.636  1.00 20.00     0.169 C 
HETATM    5  C5  UNL     1     -34.529  15.629  -5.667  1.00 20.00     0.169 C 
HETATM    6  C6  UNL     1     -33.172  15.304  -3.550  1.00 20.00     0.097 C 
HETATM    7  N7  UNL     1     -34.900  16.207  -1.777  1.00 20.00    -0.197 NA
HETATM    8  O8  UNL     1     -34.531  14.216  -5.867  1.00 20.00    -0.391 OA
ENDROOT
TORSDOF 0
ENDMDL
MODEL 6
REMARK VINA RESULT:      -3.7     12.677     13.609
REMARK  0 active torsions:
REMARK  status: ('A' for Active; 'I' for Inactive)
ROOT
HETATM    1  C1  UNL     1     -35.306  13.773  -4.093  1.00 20.00     0.064 C 
HETATM    2  C2  UNL     1     -34.831  15.610  -2.499  1.00 20.00     0.045 C 
HETATM    3  C3  UNL     1     -35.726  16.111  -4.796  1.00 20.00     0.045 C 
HETATM    4  C4  UNL     1     -33.470  16.077  -3.009  1.00 20.00     0.169 C 
HETATM    5  C5  UNL     1     -34.312  16.548  -5.170  1.00 20.00     0.169 C 
HETATM    6  C6  UNL     1     -35.729  15.110  -3.636  1.00 20.00     0.097 C 
HETATM    7  N7  UNL     1     -34.973  12.720  -4.452  1.00 20.00    -0.197 NA
HETATM    8  O8  UNL     1     -33.622  17.060  -4.031  1.00 20.00    -0.391 OA
ENDROOT
TORSDOF 0
ENDMDL
MODEL 7
REMARK VINA RESULT:      -3.7      9.165     10.044
REMARK  0 active torsions:
REMARK  status: ('A' for Active; 'I' for Inactive)
ROOT
HETATM    1  C1  UNL     1     -42.446   4.779   0.431  1.00 20.00     0.064 C 
HETATM    2  C2  UNL     1     -41.476   4.443  -1.825  1.00 20.00     0.045 C 
HETATM    3  C3  UNL     1     -40.623   6.275  -0.328  1.00 20.00     0.045 C 
HETATM    4  C4  UNL     1     -42.211   5.527  -2.609  1.00 20.00     0.169 C 
HETATM    5  C5  UNL     1     -41.407   7.251  -1.200  1.00 20.00     0.169 C 
HETATM    6  C6  UNL     1     -41.213   4.862  -0.374  1.00 20.00     0.097 C 
HETATM    7  N7  UNL     1     -43.417   4.713   1.064  1.00 20.00    -0.197 NA
HETATM    8  O8  UNL     1     -41.509   6.767  -2.538  1.00 20.00    -0.391 OA
ENDROOT
TORSDOF 0
ENDMDL
MODEL 8
REMARK VINA RESULT:      -3.7     12.557     13.210
REMARK  0 active torsions:
REMARK  status: ('A' for Active; 'I' for Inactive)
ROOT
HETATM    1  C1  UNL     1     -35.053  14.056  -5.750  1.00 20.00     0.064 C 
HETATM    2  C2  UNL     1     -33.541  13.668  -3.825  1.00 20.00     0.045 C 
HETATM    3  C3  UNL     1     -35.761  14.804  -3.497  1.00 20.00     0.045 C 
HETATM    4  C4  UNL     1     -32.900  15.047  -3.692  1.00 20.00     0.169 C 
HETATM    5  C5  UNL     1     -34.989  16.115  -3.383  1.00 20.00     0.169 C 
HETATM    6  C6  UNL     1     -34.993  13.754  -4.308  1.00 20.00     0.097 C 
HETATM    7  N7  UNL     1     -35.100  14.292  -6.886  1.00 20.00    -0.197 NA
HETATM    8  O8  UNL     1     -33.684  15.891  -2.852  1.00 20.00    -0.391 OA
ENDROOT
TORSDOF 0
ENDMDL
MODEL 9
REMARK VINA RESULT:      -3.6     12.815     13.166
REMARK  0 active torsions:
REMARK  status: ('A' for Active; 'I' for Inactive)
ROOT
HETATM    1  C1  UNL     1     -35.455  16.217  -4.844  1.00 20.00     0.064 C 
HETATM    2  C2  UNL     1     -35.753  13.863  -4.130  1.00 20.00     0.045 C 
HETATM    3  C3  UNL     1     -34.151  15.373  -2.913  1.00 20.00     0.045 C 
HETATM    4  C4  UNL     1     -34.533  13.217  -4.782  1.00 20.00     0.169 C 
HETATM    5  C5  UNL     1     -33.026  14.638  -3.637  1.00 20.00     0.169 C 
HETATM    6  C6  UNL     1     -35.472  15.303  -3.687  1.00 20.00     0.097 C 
HETATM    7  N7  UNL     1     -35.441  16.937  -5.755  1.00 20.00    -0.197 NA
HETATM    8  O8  UNL     1     -33.400  13.290  -3.919  1.00 20.00    -0.391 OA
ENDROOT
TORSDOF 0
ENDMDL
