MODEL 1
REMARK VINA RESULT:      -3.3      0.000      0.000
REMARK  0 active torsions:
REMARK  status: ('A' for Active; 'I' for Inactive)
ROOT
HETATM    1  C1  UNL     1     -33.042  15.273  -3.733  1.00 20.00     0.011 C 
HETATM    2  C2  UNL     1     -33.662  16.147  -2.641  1.00 20.00     0.011 C 
HETATM    3  C3  UNL     1     -33.512  13.821  -3.757  1.00 20.00     0.075 C 
HETATM    4  C4  UNL     1     -35.159  16.018  -2.371  1.00 20.00     0.075 C 
HETATM    5  C5  UNL     1     -36.260  14.211  -4.140  1.00 20.00     0.147 C 
HETATM    6  S6  UNL     1     -34.818  13.536  -4.997  1.00 20.00    -0.159 SA
HETATM    7  S7  UNL     1     -36.194  15.999  -3.862  1.00 20.00    -0.159 SA
ENDROOT
TORSDOF 0
ENDMDL
MODEL 2
REMARK VINA RESULT:      -3.2      2.051      2.968
REMARK  0 active torsions:
REMARK  status: ('A' for Active; 'I' for Inactive)
ROOT
HETATM    1  C1  UNL     1     -34.215  14.991  -3.235  1.00 20.00     0.011 C 
HETATM    2  C2  UNL     1     -34.670  13.623  -3.748  1.00 20.00     0.011 C 
HETATM    3  C3  UNL     1     -33.037  15.613  -3.981  1.00 20.00     0.075 C 
HETATM    4  C4  UNL     1     -34.758  13.406  -5.255  1.00 20.00     0.075 C 
HETATM    5  C5  UNL     1     -34.120  15.749  -6.562  1.00 20.00     0.147 C 
HETATM    6  S6  UNL     1     -33.572  16.836  -5.223  1.00 20.00    -0.159 SA
HETATM    7  S7  UNL     1     -35.575  14.749  -6.162  1.00 20.00    -0.159 SA
ENDROOT
TORSDOF 0
ENDMDL
MODEL 3
REMARK VINA RESULT:      -3.2      1.702      2.635
REMARK  0 active torsions:
REMARK  status: ('A' for Active; 'I' for Inactive)
ROOT
HETATM    1  C1  UNL     1     -34.648  13.365  -4.548  1.00 20.00     0.011 C 
HETATM    2  C2  UNL     1     -33.400  13.814  -3.785  1.00 20.00     0.011 C 
HETATM    3  C3  UNL     1     -35.939  14.091  -4.180  1.00 20.00     0.075 C 
HETATM    4  C4  UNL     1     -33.182  15.308  -3.566  1.00 20.00     0.075 C 
HETATM    5  C5  UNL     1     -35.203  16.724  -4.797  1.00 20.00     0.147 C 
HETATM    6  S6  UNL     1     -36.339  15.430  -5.351  1.00 20.00    -0.159 SA
HETATM    7  S7  UNL     1     -33.452  16.333  -5.040  1.00 20.00    -0.159 SA
ENDROOT
TORSDOF 0
ENDMDL
MODEL 4
REMARK VINA RESULT:      -3.2      1.587      2.527
REMARK  0 active torsions:
REMARK  status: ('A' for Active; 'I' for Inactive)
ROOT
HETATM    1  C1  UNL     1     -33.100  15.216  -3.582  1.00 20.00     0.011 C 
HETATM    2  C2  UNL     1     -33.462  13.749  -3.824  1.00 20.00     0.011 C 
HETATM    3  C3  UNL     1     -33.263  16.140  -4.787  1.00 20.00     0.075 C 
HETATM    4  C4  UNL     1     -34.720  13.436  -4.629  1.00 20.00     0.075 C 
HETATM    5  C5  UNL     1     -35.996  15.789  -5.296  1.00 20.00     0.147 C 
HETATM    6  S6  UNL     1     -34.835  17.062  -4.744  1.00 20.00    -0.159 SA
HETATM    7  S7  UNL     1     -36.181  14.401  -4.148  1.00 20.00    -0.159 SA
ENDROOT
TORSDOF 0
ENDMDL
MODEL 5
REMARK VINA RESULT:      -3.2      1.370      2.675
REMARK  0 active torsions:
REMARK  status: ('A' for Active; 'I' for Inactive)
ROOT
HETATM    1  C1  UNL     1     -33.481  13.770  -3.738  1.00 20.00     0.011 C 
HETATM    2  C2  UNL     1     -34.458  13.369  -4.847  1.00 20.00     0.011 C 
HETATM    3  C3  UNL     1     -33.046  15.233  -3.743  1.00 20.00     0.075 C 
HETATM    4  C4  UNL     1     -35.608  14.315  -5.176  1.00 20.00     0.075 C 
HETATM    5  C5  UNL     1     -35.541  16.478  -3.466  1.00 20.00     0.147 C 
HETATM    6  S6  UNL     1     -33.995  16.242  -2.558  1.00 20.00    -0.159 SA
HETATM    7  S7  UNL     1     -36.492  14.960  -3.727  1.00 20.00    -0.159 SA
ENDROOT
TORSDOF 0
ENDMDL
MODEL 6
REMARK VINA RESULT:      -3.1      1.089      2.544
REMARK  0 active torsions:
REMARK  status: ('A' for Active; 'I' for Inactive)
ROOT
HETATM    1  C1  UNL     1     -35.148  16.188  -2.158  1.00 20.00     0.011 C 
HETATM    2  C2  UNL     1     -33.666  16.226  -2.538  1.00 20.00     0.011 C 
HETATM    3  C3  UNL     1     -36.127  16.349  -3.318  1.00 20.00     0.075 C 
HETATM    4  C4  UNL     1     -33.217  15.470  -3.784  1.00 20.00     0.075 C 
HETATM    5  C5  UNL     1     -35.374  14.155  -4.890  1.00 20.00     0.147 C 
HETATM    6  S6  UNL     1     -36.772  14.748  -3.907  1.00 20.00    -0.159 SA
HETATM    7  S7  UNL     1     -33.887  13.789  -3.927  1.00 20.00    -0.159 SA
ENDROOT
TORSDOF 0
ENDMDL
MODEL 7
REMARK VINA RESULT:      -3.0      1.407      3.299
REMARK  0 active torsions:
REMARK  status: ('A' for Active; 'I' for Inactive)
ROOT
HETATM    1  C1  UNL     1     -35.880  14.354  -5.071  1.00 20.00     0.011 C 
HETATM    2  C2  UNL     1     -34.675  13.418  -4.952  1.00 20.00     0.011 C 
HETATM    3  C3  UNL     1     -36.552  14.730  -3.754  1.00 20.00     0.075 C 
HETATM    4  C4  UNL     1     -33.665  13.675  -3.839  1.00 20.00     0.075 C 
HETATM    5  C5  UNL     1     -34.392  15.937  -2.439  1.00 20.00     0.147 C 
HETATM    6  S6  UNL     1     -36.007  16.357  -3.137  1.00 20.00    -0.159 SA
HETATM    7  S7  UNL     1     -33.165  15.411  -3.662  1.00 20.00    -0.159 SA
ENDROOT
TORSDOF 0
ENDMDL
MODEL 8
REMARK VINA RESULT:      -3.0     11.156     12.075
REMARK  0 active torsions:
REMARK  status: ('A' for Active; 'I' for Inactive)
ROOT
HETATM    1  C1  UNL     1     -41.711   7.327  -0.974  1.00 20.00     0.011 C 
HETATM    2  C2  UNL     1     -40.786   6.240  -0.421  1.00 20.00     0.011 C 
HETATM    3  C3  UNL     1     -41.867   7.346  -2.492  1.00 20.00     0.075 C 
HETATM    4  C4  UNL     1     -40.882   4.836  -1.012  1.00 20.00     0.075 C 
HETATM    5  C5  UNL     1     -42.888   4.769  -2.903  1.00 20.00     0.147 C 
HETATM    6  S6  UNL     1     -43.387   6.502  -3.042  1.00 20.00    -0.159 SA
HETATM    7  S7  UNL     1     -42.577   4.217  -1.207  1.00 20.00    -0.159 SA
ENDROOT
TORSDOF 0
ENDMDL
MODEL 9
REMARK VINA RESULT:      -3.0      1.913      2.177
REMARK  0 active torsions:
REMARK  status: ('A' for Active; 'I' for Inactive)
ROOT
HETATM    1  C1  UNL     1     -34.407  14.103  -3.488  1.00 20.00     0.011 C 
HETATM    2  C2  UNL     1     -34.203  15.439  -2.769  1.00 20.00     0.011 C 
HETATM    3  C3  UNL     1     -35.582  14.054  -4.461  1.00 20.00     0.075 C 
HETATM    4  C4  UNL     1     -34.340  16.726  -3.577  1.00 20.00     0.075 C 
HETATM    5  C5  UNL     1     -34.836  16.106  -6.218  1.00 20.00     0.147 C 
HETATM    6  S6  UNL     1     -35.060  14.311  -6.189  1.00 20.00    -0.159 SA
HETATM    7  S7  UNL     1     -33.482  16.705  -5.176  1.00 20.00    -0.159 SA
ENDROOT
TORSDOF 0
ENDMDL
