MODEL 1
REMARK VINA RESULT:      -5.2      0.000      0.000
REMARK  5 active torsions:
REMARK  status: ('A' for Active; 'I' for Inactive)
REMARK    1  A    between atoms: C3_3  and  C6_6 
REMARK    2  A    between atoms: C5_5  and  C7_7 
REMARK    3  A    between atoms: C6_6  and  C8_8 
REMARK    4  A    between atoms: C7_7  and  C9_9 
REMARK    5  A    between atoms: C8_8  and  C9_9 
ROOT
HETATM    1  C1  UNL     1     -32.300   8.804   0.662  1.00 20.00     0.059 C 
HETATM    2  C5  UNL     1     -31.657   8.314   1.889  1.00 20.00     0.124 C 
HETATM    3  N10 UNL     1     -32.807   9.191  -0.308  1.00 20.00    -0.197 NA
ENDROOT
BRANCH   2   4
HETATM    4  C7  UNL     1     -32.661   7.697   2.864  1.00 20.00     0.014 C 
BRANCH   4   5
HETATM    5  C9  UNL     1     -32.413   6.206   3.109  1.00 20.00     0.001 C 
BRANCH   5   6
HETATM    6  C8  UNL     1     -33.709   5.400   2.975  1.00 20.00     0.004 C 
BRANCH   6   7
HETATM    7  C6  UNL     1     -34.801   5.846   3.955  1.00 20.00     0.033 C 
BRANCH   7   8
HETATM    8  C3  UNL     1     -34.617   5.353   5.371  1.00 20.00    -0.093 C 
HETATM    9  C2  UNL     1     -34.893   4.085   5.714  1.00 20.00     0.014 C 
HETATM   10  C4  UNL     1     -34.077   6.333   6.373  1.00 20.00     0.042 C 
ENDBRANCH   7   8
ENDBRANCH   6   7
ENDBRANCH   5   6
ENDBRANCH   4   5
ENDBRANCH   2   4
TORSDOF 5
ENDMDL
MODEL 2
REMARK VINA RESULT:      -5.1      2.502      4.963
REMARK  5 active torsions:
REMARK  status: ('A' for Active; 'I' for Inactive)
REMARK    1  A    between atoms: C3_3  and  C6_6 
REMARK    2  A    between atoms: C5_5  and  C7_7 
REMARK    3  A    between atoms: C6_6  and  C8_8 
REMARK    4  A    between atoms: C7_7  and  C9_9 
REMARK    5  A    between atoms: C8_8  and  C9_9 
ROOT
HETATM    1  C1  UNL     1     -34.344   5.842   6.386  1.00 20.00     0.059 C 
HETATM    2  C5  UNL     1     -34.932   4.544   6.025  1.00 20.00     0.124 C 
HETATM    3  N10 UNL     1     -33.880   6.866   6.672  1.00 20.00    -0.197 NA
ENDROOT
BRANCH   2   4
HETATM    4  C7  UNL     1     -35.040   4.357   4.511  1.00 20.00     0.014 C 
BRANCH   4   5
HETATM    5  C9  UNL     1     -34.981   5.681   3.742  1.00 20.00     0.001 C 
BRANCH   5   6
HETATM    6  C8  UNL     1     -33.907   5.640   2.651  1.00 20.00     0.004 C 
BRANCH   6   7
HETATM    7  C6  UNL     1     -32.485   5.827   3.196  1.00 20.00     0.033 C 
BRANCH   7   8
HETATM    8  C3  UNL     1     -31.983   7.252   3.170  1.00 20.00    -0.093 C 
HETATM    9  C2  UNL     1     -31.344   7.789   4.221  1.00 20.00     0.014 C 
HETATM   10  C4  UNL     1     -32.197   8.031   1.904  1.00 20.00     0.042 C 
ENDBRANCH   7   8
ENDBRANCH   6   7
ENDBRANCH   5   6
ENDBRANCH   4   5
ENDBRANCH   2   4
TORSDOF 5
ENDMDL
MODEL 3
REMARK VINA RESULT:      -4.9      2.762      5.422
REMARK  5 active torsions:
REMARK  status: ('A' for Active; 'I' for Inactive)
REMARK    1  A    between atoms: C3_3  and  C6_6 
REMARK    2  A    between atoms: C5_5  and  C7_7 
REMARK    3  A    between atoms: C6_6  and  C8_8 
REMARK    4  A    between atoms: C7_7  and  C9_9 
REMARK    5  A    between atoms: C8_8  and  C9_9 
ROOT
HETATM    1  C1  UNL     1     -34.844   4.551   5.681  1.00 20.00     0.059 C 
HETATM    2  C5  UNL     1     -34.462   5.832   6.293  1.00 20.00     0.124 C 
HETATM    3  N10 UNL     1     -35.147   3.539   5.200  1.00 20.00    -0.197 NA
ENDROOT
BRANCH   2   4
HETATM    4  C7  UNL     1     -33.569   6.669   5.374  1.00 20.00     0.014 C 
BRANCH   4   5
HETATM    5  C9  UNL     1     -33.961   6.555   3.898  1.00 20.00     0.001 C 
BRANCH   5   6
HETATM    6  C8  UNL     1     -32.722   6.441   3.004  1.00 20.00     0.004 C 
BRANCH   6   7
HETATM    7  C6  UNL     1     -31.855   7.707   3.010  1.00 20.00     0.033 C 
BRANCH   7   8
HETATM    8  C3  UNL     1     -32.080   8.631   1.836  1.00 20.00    -0.093 C 
HETATM    9  C2  UNL     1     -31.671   8.306   0.601  1.00 20.00     0.014 C 
HETATM   10  C4  UNL     1     -32.814   9.914   2.106  1.00 20.00     0.042 C 
ENDBRANCH   7   8
ENDBRANCH   6   7
ENDBRANCH   5   6
ENDBRANCH   4   5
ENDBRANCH   2   4
TORSDOF 5
ENDMDL
MODEL 4
REMARK VINA RESULT:      -4.7      2.705      5.388
REMARK  5 active torsions:
REMARK  status: ('A' for Active; 'I' for Inactive)
REMARK    1  A    between atoms: C3_3  and  C6_6 
REMARK    2  A    between atoms: C5_5  and  C7_7 
REMARK    3  A    between atoms: C6_6  and  C8_8 
REMARK    4  A    between atoms: C7_7  and  C9_9 
REMARK    5  A    between atoms: C8_8  and  C9_9 
ROOT
HETATM    1  C1  UNL     1     -34.768   5.262   5.752  1.00 20.00     0.059 C 
HETATM    2  C5  UNL     1     -35.214   4.615   4.510  1.00 20.00     0.124 C 
HETATM    3  N10 UNL     1     -34.418   5.773   6.734  1.00 20.00    -0.197 NA
ENDROOT
BRANCH   2   4
HETATM    4  C7  UNL     1     -34.703   5.339   3.263  1.00 20.00     0.014 C 
BRANCH   4   5
HETATM    5  C9  UNL     1     -33.855   6.571   3.596  1.00 20.00     0.001 C 
BRANCH   5   6
HETATM    6  C8  UNL     1     -32.445   6.447   3.009  1.00 20.00     0.004 C 
BRANCH   6   7
HETATM    7  C6  UNL     1     -31.697   7.785   2.949  1.00 20.00     0.033 C 
BRANCH   7   8
HETATM    8  C3  UNL     1     -32.021   8.635   1.743  1.00 20.00    -0.093 C 
HETATM    9  C2  UNL     1     -31.680   8.251   0.504  1.00 20.00     0.014 C 
HETATM   10  C4  UNL     1     -32.774   9.911   1.987  1.00 20.00     0.042 C 
ENDBRANCH   7   8
ENDBRANCH   6   7
ENDBRANCH   5   6
ENDBRANCH   4   5
ENDBRANCH   2   4
TORSDOF 5
ENDMDL
MODEL 5
REMARK VINA RESULT:      -4.4     10.530     11.473
REMARK  5 active torsions:
REMARK  status: ('A' for Active; 'I' for Inactive)
REMARK    1  A    between atoms: C3_3  and  C6_6 
REMARK    2  A    between atoms: C5_5  and  C7_7 
REMARK    3  A    between atoms: C6_6  and  C8_8 
REMARK    4  A    between atoms: C7_7  and  C9_9 
REMARK    5  A    between atoms: C8_8  and  C9_9 
ROOT
HETATM    1  C1  UNL     1     -34.103  13.558  -4.228  1.00 20.00     0.059 C 
HETATM    2  C5  UNL     1     -33.066  14.486  -3.755  1.00 20.00     0.124 C 
HETATM    3  N10 UNL     1     -34.920  12.824  -4.602  1.00 20.00    -0.197 NA
ENDROOT
BRANCH   2   4
HETATM    4  C7  UNL     1     -33.656  15.804  -3.248  1.00 20.00     0.014 C 
BRANCH   4   5
HETATM    5  C9  UNL     1     -34.776  15.599  -2.224  1.00 20.00     0.001 C 
BRANCH   5   6
HETATM    6  C8  UNL     1     -34.835  16.763  -1.229  1.00 20.00     0.004 C 
BRANCH   6   7
HETATM    7  C6  UNL     1     -33.521  17.550  -1.143  1.00 20.00     0.033 C 
BRANCH   7   8
HETATM    8  C3  UNL     1     -33.309  18.282   0.162  1.00 20.00    -0.093 C 
HETATM    9  C2  UNL     1     -34.289  18.390   1.072  1.00 20.00     0.014 C 
HETATM   10  C4  UNL     1     -31.943  18.854   0.412  1.00 20.00     0.042 C 
ENDBRANCH   7   8
ENDBRANCH   6   7
ENDBRANCH   5   6
ENDBRANCH   4   5
ENDBRANCH   2   4
TORSDOF 5
ENDMDL
MODEL 6
REMARK VINA RESULT:      -4.3     10.464     11.885
REMARK  5 active torsions:
REMARK  status: ('A' for Active; 'I' for Inactive)
REMARK    1  A    between atoms: C3_3  and  C6_6 
REMARK    2  A    between atoms: C5_5  and  C7_7 
REMARK    3  A    between atoms: C6_6  and  C8_8 
REMARK    4  A    between atoms: C7_7  and  C9_9 
REMARK    5  A    between atoms: C8_8  and  C9_9 
ROOT
HETATM    1  C1  UNL     1     -34.713  16.617  -0.895  1.00 20.00     0.059 C 
HETATM    2  C5  UNL     1     -34.791  15.900  -2.176  1.00 20.00     0.124 C 
HETATM    3  N10 UNL     1     -34.653  17.183   0.116  1.00 20.00    -0.197 NA
ENDROOT
BRANCH   2   4
HETATM    4  C7  UNL     1     -33.490  15.997  -2.975  1.00 20.00     0.014 C 
BRANCH   4   5
HETATM    5  C9  UNL     1     -33.111  14.679  -3.656  1.00 20.00     0.001 C 
BRANCH   5   6
HETATM    6  C8  UNL     1     -34.302  13.715  -3.698  1.00 20.00     0.004 C 
BRANCH   6   7
HETATM    7  C6  UNL     1     -34.713  13.326  -5.124  1.00 20.00     0.033 C 
BRANCH   7   8
HETATM    8  C3  UNL     1     -35.198  14.475  -5.976  1.00 20.00    -0.093 C 
HETATM    9  C2  UNL     1     -34.549  14.843  -7.092  1.00 20.00     0.014 C 
HETATM   10  C4  UNL     1     -36.458  15.167  -5.541  1.00 20.00     0.042 C 
ENDBRANCH   7   8
ENDBRANCH   6   7
ENDBRANCH   5   6
ENDBRANCH   4   5
ENDBRANCH   2   4
TORSDOF 5
ENDMDL
MODEL 7
REMARK VINA RESULT:      -4.3     10.435     11.861
REMARK  5 active torsions:
REMARK  status: ('A' for Active; 'I' for Inactive)
REMARK    1  A    between atoms: C3_3  and  C6_6 
REMARK    2  A    between atoms: C5_5  and  C7_7 
REMARK    3  A    between atoms: C6_6  and  C8_8 
REMARK    4  A    between atoms: C7_7  and  C9_9 
REMARK    5  A    between atoms: C8_8  and  C9_9 
ROOT
HETATM    1  C1  UNL     1     -34.725  16.597  -0.910  1.00 20.00     0.059 C 
HETATM    2  C5  UNL     1     -34.778  15.907  -2.207  1.00 20.00     0.124 C 
HETATM    3  N10 UNL     1     -34.684  17.142   0.114  1.00 20.00    -0.197 NA
ENDROOT
BRANCH   2   4
HETATM    4  C7  UNL     1     -33.457  16.005  -2.970  1.00 20.00     0.014 C 
BRANCH   4   5
HETATM    5  C9  UNL     1     -33.088  14.704  -3.690  1.00 20.00     0.001 C 
BRANCH   5   6
HETATM    6  C8  UNL     1     -34.253  13.710  -3.668  1.00 20.00     0.004 C 
BRANCH   6   7
HETATM    7  C6  UNL     1     -34.730  13.309  -5.069  1.00 20.00     0.033 C 
BRANCH   7   8
HETATM    8  C3  UNL     1     -35.304  14.441  -5.888  1.00 20.00    -0.093 C 
HETATM    9  C2  UNL     1     -36.453  15.042  -5.545  1.00 20.00     0.014 C 
HETATM   10  C4  UNL     1     -34.514  14.891  -7.083  1.00 20.00     0.042 C 
ENDBRANCH   7   8
ENDBRANCH   6   7
ENDBRANCH   5   6
ENDBRANCH   4   5
ENDBRANCH   2   4
TORSDOF 5
ENDMDL
MODEL 8
REMARK VINA RESULT:      -4.2     10.977     11.960
REMARK  5 active torsions:
REMARK  status: ('A' for Active; 'I' for Inactive)
REMARK    1  A    between atoms: C3_3  and  C6_6 
REMARK    2  A    between atoms: C5_5  and  C7_7 
REMARK    3  A    between atoms: C6_6  and  C8_8 
REMARK    4  A    between atoms: C7_7  and  C9_9 
REMARK    5  A    between atoms: C8_8  and  C9_9 
ROOT
HETATM    1  C1  UNL     1     -34.789  13.546  -5.279  1.00 20.00     0.059 C 
HETATM    2  C5  UNL     1     -34.941  14.386  -6.475  1.00 20.00     0.124 C 
HETATM    3  N10 UNL     1     -34.670  12.881  -4.336  1.00 20.00    -0.197 NA
ENDROOT
BRANCH   2   4
HETATM    4  C7  UNL     1     -34.667  15.863  -6.184  1.00 20.00     0.014 C 
BRANCH   4   5
HETATM    5  C9  UNL     1     -33.345  16.088  -5.444  1.00 20.00     0.001 C 
BRANCH   5   6
HETATM    6  C8  UNL     1     -33.550  16.948  -4.193  1.00 20.00     0.004 C 
BRANCH   6   7
HETATM    7  C6  UNL     1     -33.515  16.137  -2.891  1.00 20.00     0.033 C 
BRANCH   7   8
HETATM    8  C3  UNL     1     -34.761  16.248  -2.045  1.00 20.00    -0.093 C 
HETATM    9  C2  UNL     1     -34.705  16.634  -0.761  1.00 20.00     0.014 C 
HETATM   10  C4  UNL     1     -36.072  15.943  -2.713  1.00 20.00     0.042 C 
ENDBRANCH   7   8
ENDBRANCH   6   7
ENDBRANCH   5   6
ENDBRANCH   4   5
ENDBRANCH   2   4
TORSDOF 5
ENDMDL
MODEL 9
REMARK VINA RESULT:      -4.2     10.744     11.504
REMARK  5 active torsions:
REMARK  status: ('A' for Active; 'I' for Inactive)
REMARK    1  A    between atoms: C3_3  and  C6_6 
REMARK    2  A    between atoms: C5_5  and  C7_7 
REMARK    3  A    between atoms: C6_6  and  C8_8 
REMARK    4  A    between atoms: C7_7  and  C9_9 
REMARK    5  A    between atoms: C8_8  and  C9_9 
ROOT
HETATM    1  C1  UNL     1     -36.957  14.433  -4.161  1.00 20.00     0.059 C 
HETATM    2  C5  UNL     1     -35.580  14.490  -4.670  1.00 20.00     0.124 C 
HETATM    3  N10 UNL     1     -38.046  14.388  -3.761  1.00 20.00    -0.197 NA
ENDROOT
BRANCH   2   4
HETATM    4  C7  UNL     1     -34.544  14.297  -3.562  1.00 20.00     0.014 C 
BRANCH   4   5
HETATM    5  C9  UNL     1     -33.380  15.290  -3.655  1.00 20.00     0.001 C 
BRANCH   5   6
HETATM    6  C8  UNL     1     -33.657  16.547  -2.824  1.00 20.00     0.004 C 
BRANCH   6   7
HETATM    7  C6  UNL     1     -34.456  16.261  -1.546  1.00 20.00     0.033 C 
BRANCH   7   8
HETATM    8  C3  UNL     1     -34.292  17.295  -0.456  1.00 20.00    -0.093 C 
HETATM    9  C2  UNL     1     -35.169  17.392   0.555  1.00 20.00     0.014 C 
HETATM   10  C4  UNL     1     -33.086  18.186  -0.534  1.00 20.00     0.042 C 
ENDBRANCH   7   8
ENDBRANCH   6   7
ENDBRANCH   5   6
ENDBRANCH   4   5
ENDBRANCH   2   4
TORSDOF 5
ENDMDL
