MODEL 1
REMARK VINA RESULT:      -4.6      0.000      0.000
REMARK  0 active torsions:
REMARK  status: ('A' for Active; 'I' for Inactive)
ROOT
HETATM    1  C1  UNL     1     -34.695  15.152  -2.694  1.00 20.00     0.029 A 
HETATM    2  C2  UNL     1     -33.812  16.139  -4.694  1.00 20.00     0.136 A 
HETATM    3  C3  UNL     1     -34.385  16.335  -2.053  1.00 20.00    -0.032 A 
HETATM    4  C4  UNL     1     -34.396  15.047  -4.050  1.00 20.00     0.029 A 
HETATM    5  C5  UNL     1     -33.807  17.368  -2.783  1.00 20.00     0.040 A 
HETATM    6  C6  UNL     1     -34.619  16.735  -0.636  1.00 20.00     0.041 C 
HETATM    7  C7  UNL     1     -33.601  18.578  -1.918  1.00 20.00     0.060 C 
HETATM    8  C8  UNL     1     -33.691  17.956  -0.517  1.00 20.00     0.011 C 
HETATM    9  N9  UNL     1     -33.509  17.315  -4.092  1.00 20.00    -0.264 NA
HETATM   10 BR10 UNL     1     -34.777  13.463  -4.998  1.00 20.00    -0.050 Br
ENDROOT
TORSDOF 0
ENDMDL
MODEL 2
REMARK VINA RESULT:      -4.6     12.085     13.004
REMARK  0 active torsions:
REMARK  status: ('A' for Active; 'I' for Inactive)
ROOT
HETATM    1  C1  UNL     1     -33.073   7.052   4.407  1.00 20.00     0.029 A 
HETATM    2  C2  UNL     1     -33.584   5.872   2.382  1.00 20.00     0.136 A 
HETATM    3  C3  UNL     1     -33.822   6.102   5.071  1.00 20.00    -0.032 A 
HETATM    4  C4  UNL     1     -32.954   6.939   3.023  1.00 20.00     0.029 A 
HETATM    5  C5  UNL     1     -34.409   5.073   4.343  1.00 20.00     0.040 A 
HETATM    6  C6  UNL     1     -34.088   5.957   6.531  1.00 20.00     0.041 C 
HETATM    7  C7  UNL     1     -35.129   4.122   5.254  1.00 20.00     0.060 C 
HETATM    8  C8  UNL     1     -35.279   4.983   6.517  1.00 20.00     0.011 C 
HETATM    9  N9  UNL     1     -34.314   4.919   3.012  1.00 20.00    -0.264 NA
HETATM   10 BR10 UNL     1     -31.958   8.200   2.038  1.00 20.00    -0.050 Br
ENDROOT
TORSDOF 0
ENDMDL
MODEL 3
REMARK VINA RESULT:      -4.5     12.795     13.931
REMARK  0 active torsions:
REMARK  status: ('A' for Active; 'I' for Inactive)
ROOT
HETATM    1  C1  UNL     1     -41.297   3.872  -1.917  1.00 20.00     0.029 A 
HETATM    2  C2  UNL     1     -43.097   4.174  -3.473  1.00 20.00     0.136 A 
HETATM    3  C3  UNL     1     -41.477   5.192  -1.555  1.00 20.00    -0.032 A 
HETATM    4  C4  UNL     1     -42.125   3.349  -2.908  1.00 20.00     0.029 A 
HETATM    5  C5  UNL     1     -42.477   5.933  -2.175  1.00 20.00     0.040 A 
HETATM    6  C6  UNL     1     -40.769   5.994  -0.516  1.00 20.00     0.041 C 
HETATM    7  C7  UNL     1     -42.543   7.319  -1.602  1.00 20.00     0.060 C 
HETATM    8  C8  UNL     1     -41.168   7.422  -0.926  1.00 20.00     0.011 C 
HETATM    9  N9  UNL     1     -43.304   5.468  -3.127  1.00 20.00    -0.264 NA
HETATM   10 BR10 UNL     1     -41.938   1.560  -3.470  1.00 20.00    -0.050 Br
ENDROOT
TORSDOF 0
ENDMDL
MODEL 4
REMARK VINA RESULT:      -4.4      2.177      4.106
REMARK  0 active torsions:
REMARK  status: ('A' for Active; 'I' for Inactive)
ROOT
HETATM    1  C1  UNL     1     -34.794  15.203  -3.102  1.00 20.00     0.029 A 
HETATM    2  C2  UNL     1     -33.904  17.394  -3.502  1.00 20.00     0.136 A 
HETATM    3  C3  UNL     1     -34.678  14.981  -4.459  1.00 20.00    -0.032 A 
HETATM    4  C4  UNL     1     -34.402  16.446  -2.608  1.00 20.00     0.029 A 
HETATM    5  C5  UNL     1     -34.166  15.989  -5.268  1.00 20.00     0.040 A 
HETATM    6  C6  UNL     1     -34.985  13.753  -5.248  1.00 20.00     0.041 C 
HETATM    7  C7  UNL     1     -34.072  15.529  -6.695  1.00 20.00     0.060 C 
HETATM    8  C8  UNL     1     -35.023  14.323  -6.676  1.00 20.00     0.011 C 
HETATM    9  N9  UNL     1     -33.768  17.198  -4.836  1.00 20.00    -0.264 NA
HETATM   10 BR10 UNL     1     -34.538  16.835  -0.769  1.00 20.00    -0.050 Br
ENDROOT
TORSDOF 0
ENDMDL
MODEL 5
REMARK VINA RESULT:      -4.3     11.934     12.893
REMARK  0 active torsions:
REMARK  status: ('A' for Active; 'I' for Inactive)
ROOT
HETATM    1  C1  UNL     1     -33.676   6.212   2.986  1.00 20.00     0.029 A 
HETATM    2  C2  UNL     1     -32.356   7.581   4.448  1.00 20.00     0.136 A 
HETATM    3  C3  UNL     1     -34.227   5.649   4.119  1.00 20.00    -0.032 A 
HETATM    4  C4  UNL     1     -32.710   7.202   3.153  1.00 20.00     0.029 A 
HETATM    5  C5  UNL     1     -33.811   6.097   5.368  1.00 20.00     0.040 A 
HETATM    6  C6  UNL     1     -35.290   4.610   4.240  1.00 20.00     0.041 C 
HETATM    7  C7  UNL     1     -34.567   5.400   6.462  1.00 20.00     0.060 C 
HETATM    8  C8  UNL     1     -35.114   4.180   5.707  1.00 20.00     0.011 C 
HETATM    9  N9  UNL     1     -32.890   7.054   5.577  1.00 20.00    -0.264 NA
HETATM   10 BR10 UNL     1     -31.899   8.015   1.658  1.00 20.00    -0.050 Br
ENDROOT
TORSDOF 0
ENDMDL
MODEL 6
REMARK VINA RESULT:      -4.2     12.502     13.678
REMARK  0 active torsions:
REMARK  status: ('A' for Active; 'I' for Inactive)
ROOT
HETATM    1  C1  UNL     1     -42.780   4.688  -2.927  1.00 20.00     0.029 A 
HETATM    2  C2  UNL     1     -40.848   3.975  -1.697  1.00 20.00     0.136 A 
HETATM    3  C3  UNL     1     -42.615   5.926  -2.339  1.00 20.00    -0.032 A 
HETATM    4  C4  UNL     1     -41.875   3.682  -2.595  1.00 20.00     0.029 A 
HETATM    5  C5  UNL     1     -41.557   6.121  -1.459  1.00 20.00     0.040 A 
HETATM    6  C6  UNL     1     -43.401   7.178  -2.532  1.00 20.00     0.041 C 
HETATM    7  C7  UNL     1     -41.523   7.542  -0.974  1.00 20.00     0.060 C 
HETATM    8  C8  UNL     1     -42.951   7.999  -1.311  1.00 20.00     0.011 C 
HETATM    9  N9  UNL     1     -40.656   5.184  -1.115  1.00 20.00    -0.264 NA
HETATM   10 BR10 UNL     1     -42.035   1.960  -3.344  1.00 20.00    -0.050 Br
ENDROOT
TORSDOF 0
ENDMDL
MODEL 7
REMARK VINA RESULT:      -4.2      2.653      4.190
REMARK  0 active torsions:
REMARK  status: ('A' for Active; 'I' for Inactive)
ROOT
HETATM    1  C1  UNL     1     -33.691  16.077  -2.301  1.00 20.00     0.029 A 
HETATM    2  C2  UNL     1     -35.755  17.284  -2.112  1.00 20.00     0.136 A 
HETATM    3  C3  UNL     1     -34.356  15.204  -3.139  1.00 20.00    -0.032 A 
HETATM    4  C4  UNL     1     -34.410  17.144  -1.768  1.00 20.00     0.029 A 
HETATM    5  C5  UNL     1     -35.697  15.430  -3.424  1.00 20.00     0.040 A 
HETATM    6  C6  UNL     1     -33.837  14.011  -3.868  1.00 20.00     0.041 C 
HETATM    7  C7  UNL     1     -36.215  14.404  -4.391  1.00 20.00     0.060 C 
HETATM    8  C8  UNL     1     -35.150  13.306  -4.250  1.00 20.00     0.011 C 
HETATM    9  N9  UNL     1     -36.428  16.450  -2.941  1.00 20.00    -0.264 NA
HETATM   10 BR10 UNL     1     -33.581  18.377  -0.608  1.00 20.00    -0.050 Br
ENDROOT
TORSDOF 0
ENDMDL
MODEL 8
REMARK VINA RESULT:      -4.1      3.461      4.414
REMARK  0 active torsions:
REMARK  status: ('A' for Active; 'I' for Inactive)
ROOT
HETATM    1  C1  UNL     1     -33.849  16.696  -5.746  1.00 20.00     0.029 A 
HETATM    2  C2  UNL     1     -35.141  15.720  -7.516  1.00 20.00     0.136 A 
HETATM    3  C3  UNL     1     -33.928  15.475  -5.106  1.00 20.00    -0.032 A 
HETATM    4  C4  UNL     1     -34.477  16.825  -6.983  1.00 20.00     0.029 A 
HETATM    5  C5  UNL     1     -34.610  14.431  -5.721  1.00 20.00     0.040 A 
HETATM    6  C6  UNL     1     -33.332  15.045  -3.808  1.00 20.00     0.041 C 
HETATM    7  C7  UNL     1     -34.532  13.183  -4.891  1.00 20.00     0.060 C 
HETATM    8  C8  UNL     1     -34.135  13.764  -3.525  1.00 20.00     0.011 C 
HETATM    9  N9  UNL     1     -35.222  14.508  -6.915  1.00 20.00    -0.264 NA
HETATM   10 BR10 UNL     1     -34.428  18.461  -7.918  1.00 20.00    -0.050 Br
ENDROOT
TORSDOF 0
ENDMDL
MODEL 9
REMARK VINA RESULT:      -4.1      3.184      4.320
REMARK  0 active torsions:
REMARK  status: ('A' for Active; 'I' for Inactive)
ROOT
HETATM    1  C1  UNL     1     -35.708  16.525  -3.149  1.00 20.00     0.029 A 
HETATM    2  C2  UNL     1     -37.715  15.271  -3.541  1.00 20.00     0.136 A 
HETATM    3  C3  UNL     1     -35.009  15.404  -3.552  1.00 20.00    -0.032 A 
HETATM    4  C4  UNL     1     -37.099  16.456  -3.138  1.00 20.00     0.029 A 
HETATM    5  C5  UNL     1     -35.714  14.270  -3.939  1.00 20.00     0.040 A 
HETATM    6  C6  UNL     1     -33.538  15.205  -3.694  1.00 20.00     0.041 C 
HETATM    7  C7  UNL     1     -34.775  13.189  -4.391  1.00 20.00     0.060 C 
HETATM    8  C8  UNL     1     -33.455  13.671  -3.771  1.00 20.00     0.011 C 
HETATM    9  N9  UNL     1     -37.054  14.162  -3.952  1.00 20.00    -0.264 NA
HETATM   10 BR10 UNL     1     -38.129  17.937  -2.591  1.00 20.00    -0.050 Br
ENDROOT
TORSDOF 0
ENDMDL
