MODEL 1
REMARK VINA RESULT:      -4.7      0.000      0.000
REMARK  6 active torsions:
REMARK  status: ('A' for Active; 'I' for Inactive)
REMARK    1  A    between atoms: C1_1  and  C6_6 
REMARK    2  A    between atoms: C1_1  and  C10_10 
REMARK    3  A    between atoms: C7_7  and  C8_8 
REMARK    4  A    between atoms: C8_8  and  C11_11 
REMARK    5  A    between atoms: C9_9  and  C10_10 
REMARK    6  A    between atoms: C9_9  and  C11_11 
ROOT
HETATM    1  C9  UNL     1     -34.765  15.660  -3.202  1.00 20.00     0.016 C 
ENDROOT
BRANCH   1   2
HETATM    2  C10 UNL     1     -34.226  14.238  -3.427  1.00 20.00     0.051 C 
HETATM    3  C4  UNL     1     -32.702  14.185  -3.534  1.00 20.00     0.018 C 
BRANCH   2   4
HETATM    4  C1  UNL     1     -34.856  13.671  -4.701  1.00 20.00     0.130 C 
HETATM    5  O12 UNL     1     -34.887  12.460  -4.923  1.00 20.00    -0.298 OA
BRANCH   4   6
HETATM    6  C6  UNL     1     -35.413  14.688  -5.685  1.00 20.00     0.074 C 
HETATM    7  C2  UNL     1     -34.489  14.926  -6.865  1.00 20.00     0.013 C 
ENDBRANCH   4   6
ENDBRANCH   2   4
ENDBRANCH   1   2
BRANCH   1   8
HETATM    8  C11 UNL     1     -33.704  16.769  -3.014  1.00 20.00    -0.018 C 
HETATM    9  C5  UNL     1     -33.807  17.754  -4.186  1.00 20.00     0.010 C 
BRANCH   8  10
HETATM   10  C8  UNL     1     -33.856  17.481  -1.653  1.00 20.00     0.004 C 
BRANCH  10  11
HETATM   11  C7  UNL     1     -34.665  16.683  -0.627  1.00 20.00    -0.004 C 
HETATM   12  C3  UNL     1     -34.986  17.524   0.601  1.00 20.00     0.005 C 
ENDBRANCH  10  11
ENDBRANCH   8  10
ENDBRANCH   1   8
TORSDOF 6
ENDMDL
MODEL 2
REMARK VINA RESULT:      -4.2      1.328      2.376
REMARK  6 active torsions:
REMARK  status: ('A' for Active; 'I' for Inactive)
REMARK    1  A    between atoms: C1_1  and  C6_6 
REMARK    2  A    between atoms: C1_1  and  C10_10 
REMARK    3  A    between atoms: C7_7  and  C8_8 
REMARK    4  A    between atoms: C8_8  and  C11_11 
REMARK    5  A    between atoms: C9_9  and  C10_10 
REMARK    6  A    between atoms: C9_9  and  C11_11 
ROOT
HETATM    1  C9  UNL     1     -35.949  15.452  -3.176  1.00 20.00     0.016 C 
ENDROOT
BRANCH   1   2
HETATM    2  C10 UNL     1     -35.204  15.005  -4.446  1.00 20.00     0.051 C 
HETATM    3  C4  UNL     1     -36.115  14.899  -5.668  1.00 20.00     0.018 C 
BRANCH   2   4
HETATM    4  C1  UNL     1     -34.539  13.655  -4.174  1.00 20.00     0.130 C 
HETATM    5  O12 UNL     1     -35.095  12.593  -4.454  1.00 20.00    -0.298 OA
BRANCH   4   6
HETATM    6  C6  UNL     1     -33.170  13.700  -3.513  1.00 20.00     0.074 C 
HETATM    7  C2  UNL     1     -32.415  14.981  -3.819  1.00 20.00     0.013 C 
ENDBRANCH   4   6
ENDBRANCH   2   4
ENDBRANCH   1   2
BRANCH   1   8
HETATM    8  C11 UNL     1     -35.395  16.709  -2.467  1.00 20.00    -0.018 C 
HETATM    9  C5  UNL     1     -36.559  17.662  -2.173  1.00 20.00     0.010 C 
BRANCH   8  10
HETATM   10  C8  UNL     1     -34.614  16.345  -1.186  1.00 20.00     0.004 C 
BRANCH  10  11
HETATM   11  C7  UNL     1     -34.554  17.479  -0.158  1.00 20.00    -0.004 C 
HETATM   12  C3  UNL     1     -33.256  18.266  -0.277  1.00 20.00     0.005 C 
ENDBRANCH  10  11
ENDBRANCH   8  10
ENDBRANCH   1   8
TORSDOF 6
ENDMDL
MODEL 3
REMARK VINA RESULT:      -4.1      1.586      4.471
REMARK  6 active torsions:
REMARK  status: ('A' for Active; 'I' for Inactive)
REMARK    1  A    between atoms: C1_1  and  C6_6 
REMARK    2  A    between atoms: C1_1  and  C10_10 
REMARK    3  A    between atoms: C7_7  and  C8_8 
REMARK    4  A    between atoms: C8_8  and  C11_11 
REMARK    5  A    between atoms: C9_9  and  C10_10 
REMARK    6  A    between atoms: C9_9  and  C11_11 
ROOT
HETATM    1  C9  UNL     1     -32.977  15.824  -4.566  1.00 20.00     0.016 C 
ENDROOT
BRANCH   1   2
HETATM    2  C10 UNL     1     -33.470  14.976  -3.381  1.00 20.00     0.051 C 
HETATM    3  C4  UNL     1     -34.051  13.629  -3.809  1.00 20.00     0.018 C 
BRANCH   2   4
HETATM    4  C1  UNL     1     -34.523  15.775  -2.611  1.00 20.00     0.130 C 
HETATM    5  O12 UNL     1     -35.727  15.551  -2.741  1.00 20.00    -0.298 OA
BRANCH   4   6
HETATM    6  C6  UNL     1     -34.000  16.878  -1.705  1.00 20.00     0.074 C 
HETATM    7  C2  UNL     1     -34.714  16.923  -0.366  1.00 20.00     0.013 C 
ENDBRANCH   4   6
ENDBRANCH   2   4
ENDBRANCH   1   2
BRANCH   1   8
HETATM    8  C11 UNL     1     -34.072  16.410  -5.486  1.00 20.00    -0.018 C 
HETATM    9  C5  UNL     1     -33.837  17.919  -5.631  1.00 20.00     0.010 C 
BRANCH   8  10
HETATM   10  C8  UNL     1     -34.108  15.702  -6.856  1.00 20.00     0.004 C 
BRANCH  10  11
HETATM   11  C7  UNL     1     -35.238  14.676  -6.990  1.00 20.00    -0.004 C 
HETATM   12  C3  UNL     1     -36.491  15.133  -6.255  1.00 20.00     0.005 C 
ENDBRANCH  10  11
ENDBRANCH   8  10
ENDBRANCH   1   8
TORSDOF 6
ENDMDL
MODEL 4
REMARK VINA RESULT:      -4.1      1.784      2.451
REMARK  6 active torsions:
REMARK  status: ('A' for Active; 'I' for Inactive)
REMARK    1  A    between atoms: C1_1  and  C6_6 
REMARK    2  A    between atoms: C1_1  and  C10_10 
REMARK    3  A    between atoms: C7_7  and  C8_8 
REMARK    4  A    between atoms: C8_8  and  C11_11 
REMARK    5  A    between atoms: C9_9  and  C10_10 
REMARK    6  A    between atoms: C9_9  and  C11_11 
ROOT
HETATM    1  C9  UNL     1     -34.498  15.508  -4.990  1.00 20.00     0.016 C 
ENDROOT
BRANCH   1   2
HETATM    2  C10 UNL     1     -35.236  14.492  -4.103  1.00 20.00     0.051 C 
HETATM    3  C4  UNL     1     -35.055  13.048  -4.568  1.00 20.00     0.018 C 
BRANCH   2   4
HETATM    4  C1  UNL     1     -36.724  14.849  -4.084  1.00 20.00     0.130 C 
HETATM    5  O12 UNL     1     -37.577  14.045  -3.706  1.00 20.00    -0.298 OA
BRANCH   4   6
HETATM    6  C6  UNL     1     -37.089  16.238  -4.584  1.00 20.00     0.074 C 
HETATM    7  C2  UNL     1     -37.426  17.196  -3.457  1.00 20.00     0.013 C 
ENDBRANCH   4   6
ENDBRANCH   2   4
ENDBRANCH   1   2
BRANCH   1   8
HETATM    8  C11 UNL     1     -33.371  16.317  -4.307  1.00 20.00    -0.018 C 
HETATM    9  C5  UNL     1     -33.566  17.804  -4.630  1.00 20.00     0.010 C 
BRANCH   8  10
HETATM   10  C8  UNL     1     -33.325  16.062  -2.786  1.00 20.00     0.004 C 
BRANCH  10  11
HETATM   11  C7  UNL     1     -33.885  17.217  -1.950  1.00 20.00    -0.004 C 
HETATM   12  C3  UNL     1     -34.683  16.703  -0.759  1.00 20.00     0.005 C 
ENDBRANCH  10  11
ENDBRANCH   8  10
ENDBRANCH   1   8
TORSDOF 6
ENDMDL
MODEL 5
REMARK VINA RESULT:      -4.1     11.017     12.230
REMARK  6 active torsions:
REMARK  status: ('A' for Active; 'I' for Inactive)
REMARK    1  A    between atoms: C1_1  and  C6_6 
REMARK    2  A    between atoms: C1_1  and  C10_10 
REMARK    3  A    between atoms: C7_7  and  C8_8 
REMARK    4  A    between atoms: C8_8  and  C11_11 
REMARK    5  A    between atoms: C9_9  and  C10_10 
REMARK    6  A    between atoms: C9_9  and  C11_11 
ROOT
HETATM    1  C9  UNL     1     -33.908   6.966   4.263  1.00 20.00     0.016 C 
ENDROOT
BRANCH   1   2
HETATM    2  C10 UNL     1     -32.970   6.579   3.107  1.00 20.00     0.051 C 
HETATM    3  C4  UNL     1     -32.217   5.273   3.359  1.00 20.00     0.018 C 
BRANCH   2   4
HETATM    4  C1  UNL     1     -31.974   7.718   2.882  1.00 20.00     0.130 C 
HETATM    5  O12 UNL     1     -31.193   8.077   3.763  1.00 20.00    -0.298 OA
BRANCH   4   6
HETATM    6  C6  UNL     1     -32.027   8.399   1.522  1.00 20.00     0.074 C 
HETATM    7  C2  UNL     1     -32.510   9.835   1.606  1.00 20.00     0.013 C 
ENDBRANCH   4   6
ENDBRANCH   2   4
ENDBRANCH   1   2
BRANCH   1   8
HETATM    8  C11 UNL     1     -33.584   6.344   5.641  1.00 20.00    -0.018 C 
HETATM    9  C5  UNL     1     -33.127   7.459   6.589  1.00 20.00     0.010 C 
BRANCH   8  10
HETATM   10  C8  UNL     1     -34.785   5.562   6.212  1.00 20.00     0.004 C 
BRANCH  10  11
HETATM   11  C7  UNL     1     -34.732   4.057   5.930  1.00 20.00    -0.004 C 
HETATM   12  C3  UNL     1     -35.191   3.742   4.513  1.00 20.00     0.005 C 
ENDBRANCH  10  11
ENDBRANCH   8  10
ENDBRANCH   1   8
TORSDOF 6
ENDMDL
MODEL 6
REMARK VINA RESULT:      -4.1      1.751      2.927
REMARK  6 active torsions:
REMARK  status: ('A' for Active; 'I' for Inactive)
REMARK    1  A    between atoms: C1_1  and  C6_6 
REMARK    2  A    between atoms: C1_1  and  C10_10 
REMARK    3  A    between atoms: C7_7  and  C8_8 
REMARK    4  A    between atoms: C8_8  and  C11_11 
REMARK    5  A    between atoms: C9_9  and  C10_10 
REMARK    6  A    between atoms: C9_9  and  C11_11 
ROOT
HETATM    1  C9  UNL     1     -35.738  14.086  -4.058  1.00 20.00     0.016 C 
ENDROOT
BRANCH   1   2
HETATM    2  C10 UNL     1     -36.554  15.207  -4.724  1.00 20.00     0.051 C 
HETATM    3  C4  UNL     1     -37.982  15.306  -4.189  1.00 20.00     0.018 C 
BRANCH   2   4
HETATM    4  C1  UNL     1     -36.580  14.963  -6.234  1.00 20.00     0.130 C 
HETATM    5  O12 UNL     1     -37.597  15.152  -6.901  1.00 20.00    -0.298 OA
BRANCH   4   6
HETATM    6  C6  UNL     1     -35.291  14.447  -6.854  1.00 20.00     0.074 C 
HETATM    7  C2  UNL     1     -34.256  15.541  -7.047  1.00 20.00     0.013 C 
ENDBRANCH   4   6
ENDBRANCH   2   4
ENDBRANCH   1   2
BRANCH   1   8
HETATM    8  C11 UNL     1     -34.498  14.533  -3.249  1.00 20.00    -0.018 C 
HETATM    9  C5  UNL     1     -33.280  13.738  -3.734  1.00 20.00     0.010 C 
BRANCH   8  10
HETATM   10  C8  UNL     1     -34.267  16.055  -3.352  1.00 20.00     0.004 C 
BRANCH  10  11
HETATM   11  C7  UNL     1     -33.734  16.686  -2.062  1.00 20.00    -0.004 C 
HETATM   12  C3  UNL     1     -34.732  16.542  -0.921  1.00 20.00     0.005 C 
ENDBRANCH  10  11
ENDBRANCH   8  10
ENDBRANCH   1   8
TORSDOF 6
ENDMDL
MODEL 7
REMARK VINA RESULT:      -4.1      1.386      1.741
REMARK  6 active torsions:
REMARK  status: ('A' for Active; 'I' for Inactive)
REMARK    1  A    between atoms: C1_1  and  C6_6 
REMARK    2  A    between atoms: C1_1  and  C10_10 
REMARK    3  A    between atoms: C7_7  and  C8_8 
REMARK    4  A    between atoms: C8_8  and  C11_11 
REMARK    5  A    between atoms: C9_9  and  C10_10 
REMARK    6  A    between atoms: C9_9  and  C11_11 
ROOT
HETATM    1  C9  UNL     1     -33.504  16.127  -3.716  1.00 20.00     0.016 C 
ENDROOT
BRANCH   1   2
HETATM    2  C10 UNL     1     -34.246  14.786  -3.850  1.00 20.00     0.051 C 
HETATM    3  C4  UNL     1     -33.319  13.576  -3.746  1.00 20.00     0.018 C 
BRANCH   2   4
HETATM    4  C1  UNL     1     -34.980  14.765  -5.192  1.00 20.00     0.130 C 
HETATM    5  O12 UNL     1     -34.404  14.466  -6.239  1.00 20.00    -0.298 OA
BRANCH   4   6
HETATM    6  C6  UNL     1     -36.448  15.161  -5.163  1.00 20.00     0.074 C 
HETATM    7  C2  UNL     1     -37.150  14.708  -3.896  1.00 20.00     0.013 C 
ENDBRANCH   4   6
ENDBRANCH   2   4
ENDBRANCH   1   2
BRANCH   1   8
HETATM    8  C11 UNL     1     -34.068  17.116  -2.671  1.00 20.00    -0.018 C 
HETATM    9  C5  UNL     1     -34.996  18.109  -3.383  1.00 20.00     0.010 C 
BRANCH   8  10
HETATM   10  C8  UNL     1     -34.788  16.384  -1.519  1.00 20.00     0.004 C 
BRANCH  10  11
HETATM   11  C7  UNL     1     -34.691  17.107  -0.172  1.00 20.00    -0.004 C 
HETATM   12  C3  UNL     1     -33.487  18.037  -0.128  1.00 20.00     0.005 C 
ENDBRANCH  10  11
ENDBRANCH   8  10
ENDBRANCH   1   8
TORSDOF 6
ENDMDL
MODEL 8
REMARK VINA RESULT:      -4.1      1.762      2.569
REMARK  6 active torsions:
REMARK  status: ('A' for Active; 'I' for Inactive)
REMARK    1  A    between atoms: C1_1  and  C6_6 
REMARK    2  A    between atoms: C1_1  and  C10_10 
REMARK    3  A    between atoms: C7_7  and  C8_8 
REMARK    4  A    between atoms: C8_8  and  C11_11 
REMARK    5  A    between atoms: C9_9  and  C10_10 
REMARK    6  A    between atoms: C9_9  and  C11_11 
ROOT
HETATM    1  C9  UNL     1     -34.585  16.373  -1.436  1.00 20.00     0.016 C 
ENDROOT
BRANCH   1   2
HETATM    2  C10 UNL     1     -34.917  16.291  -2.935  1.00 20.00     0.051 C 
HETATM    3  C4  UNL     1     -36.361  15.868  -3.206  1.00 20.00     0.018 C 
BRANCH   2   4
HETATM    4  C1  UNL     1     -33.954  15.304  -3.597  1.00 20.00     0.130 C 
HETATM    5  O12 UNL     1     -32.932  15.684  -4.170  1.00 20.00    -0.298 OA
BRANCH   4   6
HETATM    6  C6  UNL     1     -34.345  13.836  -3.531  1.00 20.00     0.074 C 
HETATM    7  C2  UNL     1     -34.482  13.205  -4.905  1.00 20.00     0.013 C 
ENDBRANCH   4   6
ENDBRANCH   2   4
ENDBRANCH   1   2
BRANCH   1   8
HETATM    8  C11 UNL     1     -33.633  17.514  -1.010  1.00 20.00    -0.018 C 
HETATM    9  C5  UNL     1     -33.670  18.612  -2.080  1.00 20.00     0.010 C 
BRANCH   8  10
HETATM   10  C8  UNL     1     -33.988  18.064   0.388  1.00 20.00     0.004 C 
BRANCH  10  11
HETATM   11  C7  UNL     1     -35.317  17.538   0.938  1.00 20.00    -0.004 C 
HETATM   12  C3  UNL     1     -35.366  17.637   2.456  1.00 20.00     0.005 C 
ENDBRANCH  10  11
ENDBRANCH   8  10
ENDBRANCH   1   8
TORSDOF 6
ENDMDL
MODEL 9
REMARK VINA RESULT:      -4.0      2.146      5.314
REMARK  6 active torsions:
REMARK  status: ('A' for Active; 'I' for Inactive)
REMARK    1  A    between atoms: C1_1  and  C6_6 
REMARK    2  A    between atoms: C1_1  and  C10_10 
REMARK    3  A    between atoms: C7_7  and  C8_8 
REMARK    4  A    between atoms: C8_8  and  C11_11 
REMARK    5  A    between atoms: C9_9  and  C10_10 
REMARK    6  A    between atoms: C9_9  and  C11_11 
ROOT
HETATM    1  C9  UNL     1     -33.765  15.410  -3.371  1.00 20.00     0.016 C 
ENDROOT
BRANCH   1   2
HETATM    2  C10 UNL     1     -34.303  16.849  -3.304  1.00 20.00     0.051 C 
HETATM    3  C4  UNL     1     -33.685  17.769  -4.357  1.00 20.00     0.018 C 
BRANCH   2   4
HETATM    4  C1  UNL     1     -34.037  17.408  -1.905  1.00 20.00     0.130 C 
HETATM    5  O12 UNL     1     -33.362  18.423  -1.732  1.00 20.00    -0.298 OA
BRANCH   4   6
HETATM    6  C6  UNL     1     -34.627  16.622  -0.744  1.00 20.00     0.074 C 
HETATM    7  C2  UNL     1     -34.873  17.485   0.480  1.00 20.00     0.013 C 
ENDBRANCH   4   6
ENDBRANCH   2   4
ENDBRANCH   1   2
BRANCH   1   8
HETATM    8  C11 UNL     1     -34.800  14.309  -3.698  1.00 20.00    -0.018 C 
HETATM    9  C5  UNL     1     -36.206  14.915  -3.616  1.00 20.00     0.010 C 
BRANCH   8  10
HETATM   10  C8  UNL     1     -34.533  13.666  -5.075  1.00 20.00     0.004 C 
BRANCH  10  11
HETATM   11  C7  UNL     1     -34.461  14.675  -6.225  1.00 20.00    -0.004 C 
HETATM   12  C3  UNL     1     -35.500  14.372  -7.295  1.00 20.00     0.005 C 
ENDBRANCH  10  11
ENDBRANCH   8  10
ENDBRANCH   1   8
TORSDOF 6
ENDMDL
