MODEL 1
REMARK VINA RESULT:      -4.8      0.000      0.000
REMARK  1 active torsions:
REMARK  status: ('A' for Active; 'I' for Inactive)
REMARK    1  A    between atoms: C3_3  and  C4_4 
ROOT
HETATM    1  C1  UNL     1     -34.366   6.019   6.283  1.00 20.00     0.087 C 
HETATM    2  C2  UNL     1     -34.930   4.957   5.526  1.00 20.00     0.093 C 
HETATM    3  C3  UNL     1     -34.869   4.942   4.187  1.00 20.00     0.011 C 
HETATM    4  N7  UNL     1     -33.906   6.883   6.905  1.00 20.00    -0.192 NA
ENDROOT
BRANCH   3   5
HETATM    5  C4  UNL     1     -34.235   5.990   3.417  1.00 20.00    -0.004 C 
HETATM    6  C5  UNL     1     -32.908   6.178   3.388  1.00 20.00    -0.031 C 
HETATM    7  C6  UNL     1     -32.241   7.256   2.597  1.00 20.00     0.036 C 
ENDBRANCH   3   5
TORSDOF 1
ENDMDL
MODEL 2
REMARK VINA RESULT:      -4.6      1.832      2.126
REMARK  1 active torsions:
REMARK  status: ('A' for Active; 'I' for Inactive)
REMARK    1  A    between atoms: C3_3  and  C4_4 
ROOT
HETATM    1  C1  UNL     1     -34.866   4.341   5.570  1.00 20.00     0.087 C 
HETATM    2  C2  UNL     1     -34.464   5.407   6.418  1.00 20.00     0.093 C 
HETATM    3  C3  UNL     1     -33.928   6.532   5.923  1.00 20.00     0.011 C 
HETATM    4  N7  UNL     1     -35.197   3.468   4.881  1.00 20.00    -0.192 NA
ENDROOT
BRANCH   3   5
HETATM    5  C4  UNL     1     -33.718   6.747   4.509  1.00 20.00    -0.004 C 
HETATM    6  C5  UNL     1     -32.501   6.838   3.953  1.00 20.00    -0.031 C 
HETATM    7  C6  UNL     1     -32.270   7.059   2.494  1.00 20.00     0.036 C 
ENDBRANCH   3   5
TORSDOF 1
ENDMDL
MODEL 3
REMARK VINA RESULT:      -4.2      1.728      3.563
REMARK  1 active torsions:
REMARK  status: ('A' for Active; 'I' for Inactive)
REMARK    1  A    between atoms: C3_3  and  C4_4 
ROOT
HETATM    1  C1  UNL     1     -32.146   6.924   3.314  1.00 20.00     0.087 C 
HETATM    2  C2  UNL     1     -32.989   6.112   2.509  1.00 20.00     0.093 C 
HETATM    3  C3  UNL     1     -34.047   5.473   3.025  1.00 20.00     0.011 C 
HETATM    4  N7  UNL     1     -31.456   7.590   3.968  1.00 20.00    -0.192 NA
ENDROOT
BRANCH   3   5
HETATM    5  C4  UNL     1     -34.411   5.555   4.423  1.00 20.00    -0.004 C 
HETATM    6  C5  UNL     1     -34.832   4.499   5.134  1.00 20.00    -0.031 C 
HETATM    7  C6  UNL     1     -35.210   4.570   6.578  1.00 20.00     0.036 C 
ENDBRANCH   3   5
TORSDOF 1
ENDMDL
MODEL 4
REMARK VINA RESULT:      -4.1      2.019      3.186
REMARK  1 active torsions:
REMARK  status: ('A' for Active; 'I' for Inactive)
REMARK    1  A    between atoms: C3_3  and  C4_4 
ROOT
HETATM    1  C1  UNL     1     -34.219   5.406   3.518  1.00 20.00     0.087 C 
HETATM    2  C2  UNL     1     -35.171   4.655   4.259  1.00 20.00     0.093 C 
HETATM    3  C3  UNL     1     -35.172   4.653   5.600  1.00 20.00     0.011 C 
HETATM    4  N7  UNL     1     -33.445   6.019   2.910  1.00 20.00    -0.192 NA
ENDROOT
BRANCH   3   5
HETATM    5  C4  UNL     1     -34.219   5.403   6.388  1.00 20.00    -0.004 C 
HETATM    6  C5  UNL     1     -34.160   6.742   6.388  1.00 20.00    -0.031 C 
HETATM    7  C6  UNL     1     -33.181   7.529   7.197  1.00 20.00     0.036 C 
ENDBRANCH   3   5
TORSDOF 1
ENDMDL
MODEL 5
REMARK VINA RESULT:      -4.0     11.833     12.540
REMARK  1 active torsions:
REMARK  status: ('A' for Active; 'I' for Inactive)
REMARK    1  A    between atoms: C3_3  and  C4_4 
ROOT
HETATM    1  C1  UNL     1     -34.277  13.818  -4.280  1.00 20.00     0.087 C 
HETATM    2  C2  UNL     1     -33.454  14.956  -4.499  1.00 20.00     0.093 C 
HETATM    3  C3  UNL     1     -33.407  15.966  -3.619  1.00 20.00     0.011 C 
HETATM    4  N7  UNL     1     -34.946  12.887  -4.104  1.00 20.00    -0.192 NA
ENDROOT
BRANCH   3   5
HETATM    5  C4  UNL     1     -34.179  15.980  -2.396  1.00 20.00    -0.004 C 
HETATM    6  C5  UNL     1     -34.052  16.931  -1.459  1.00 20.00    -0.031 C 
HETATM    7  C6  UNL     1     -34.842  16.957  -0.192  1.00 20.00     0.036 C 
ENDBRANCH   3   5
TORSDOF 1
ENDMDL
MODEL 6
REMARK VINA RESULT:      -4.0     12.203     12.434
REMARK  1 active torsions:
REMARK  status: ('A' for Active; 'I' for Inactive)
REMARK    1  A    between atoms: C3_3  and  C4_4 
ROOT
HETATM    1  C1  UNL     1     -36.567  14.413  -3.905  1.00 20.00     0.087 C 
HETATM    2  C2  UNL     1     -35.156  14.523  -4.037  1.00 20.00     0.093 C 
HETATM    3  C3  UNL     1     -34.422  15.217  -3.155  1.00 20.00     0.011 C 
HETATM    4  N7  UNL     1     -37.718  14.319  -3.800  1.00 20.00    -0.192 NA
ENDROOT
BRANCH   3   5
HETATM    5  C4  UNL     1     -34.998  15.900  -2.018  1.00 20.00    -0.004 C 
HETATM    6  C5  UNL     1     -34.276  16.643  -1.167  1.00 20.00    -0.031 C 
HETATM    7  C6  UNL     1     -34.858  17.354   0.012  1.00 20.00     0.036 C 
ENDBRANCH   3   5
TORSDOF 1
ENDMDL
MODEL 7
REMARK VINA RESULT:      -4.0      2.738      4.342
REMARK  1 active torsions:
REMARK  status: ('A' for Active; 'I' for Inactive)
REMARK    1  A    between atoms: C3_3  and  C4_4 
ROOT
HETATM    1  C1  UNL     1     -32.062   8.484   1.829  1.00 20.00     0.087 C 
HETATM    2  C2  UNL     1     -31.420   7.835   2.918  1.00 20.00     0.093 C 
HETATM    3  C3  UNL     1     -32.005   6.823   3.574  1.00 20.00     0.011 C 
HETATM    4  N7  UNL     1     -32.582   9.016   0.939  1.00 20.00    -0.192 NA
ENDROOT
BRANCH   3   5
HETATM    5  C4  UNL     1     -33.317   6.319   3.233  1.00 20.00    -0.004 C 
HETATM    6  C5  UNL     1     -34.202   5.899   4.148  1.00 20.00    -0.031 C 
HETATM    7  C6  UNL     1     -35.560   5.376   3.810  1.00 20.00     0.036 C 
ENDBRANCH   3   5
TORSDOF 1
ENDMDL
MODEL 8
REMARK VINA RESULT:      -4.0     12.367     12.881
REMARK  1 active torsions:
REMARK  status: ('A' for Active; 'I' for Inactive)
REMARK    1  A    between atoms: C3_3  and  C4_4 
ROOT
HETATM    1  C1  UNL     1     -32.500  18.879   0.484  1.00 20.00     0.087 C 
HETATM    2  C2  UNL     1     -33.796  18.468   0.897  1.00 20.00     0.093 C 
HETATM    3  C3  UNL     1     -34.514  17.592   0.180  1.00 20.00     0.011 C 
HETATM    4  N7  UNL     1     -31.440  19.216   0.152  1.00 20.00    -0.192 NA
ENDROOT
BRANCH   3   5
HETATM    5  C4  UNL     1     -34.036  17.004  -1.051  1.00 20.00    -0.004 C 
HETATM    6  C5  UNL     1     -34.744  16.115  -1.763  1.00 20.00    -0.031 C 
HETATM    7  C6  UNL     1     -34.262  15.500  -3.036  1.00 20.00     0.036 C 
ENDBRANCH   3   5
TORSDOF 1
ENDMDL
MODEL 9
REMARK VINA RESULT:      -4.0      2.009      3.003
REMARK  1 active torsions:
REMARK  status: ('A' for Active; 'I' for Inactive)
REMARK    1  A    between atoms: C3_3  and  C4_4 
ROOT
HETATM    1  C1  UNL     1     -34.339   5.710   3.758  1.00 20.00     0.087 C 
HETATM    2  C2  UNL     1     -32.955   5.826   4.058  1.00 20.00     0.093 C 
HETATM    3  C3  UNL     1     -32.180   6.736   3.450  1.00 20.00     0.011 C 
HETATM    4  N7  UNL     1     -35.470   5.614   3.517  1.00 20.00    -0.192 NA
ENDROOT
BRANCH   3   5
HETATM    5  C4  UNL     1     -32.682   7.658   2.456  1.00 20.00    -0.004 C 
HETATM    6  C5  UNL     1     -31.885   8.408   1.681  1.00 20.00    -0.031 C 
HETATM    7  C6  UNL     1     -32.390   9.364   0.650  1.00 20.00     0.036 C 
ENDBRANCH   3   5
TORSDOF 1
ENDMDL
