MODEL 1
REMARK VINA RESULT:      -4.7      0.000      0.000
REMARK  1 active torsions:
REMARK  status: ('A' for Active; 'I' for Inactive)
REMARK    1  A    between atoms: C3_3  and  C4_4 
ROOT
HETATM    1  C1  UNL     1     -32.191   6.968   3.228  1.00 20.00     0.087 C 
HETATM    2  C2  UNL     1     -33.273   6.097   2.926  1.00 20.00     0.093 C 
HETATM    3  C3  UNL     1     -34.170   5.747   3.857  1.00 20.00     0.011 C 
HETATM    4  N7  UNL     1     -31.307   7.680   3.472  1.00 20.00    -0.192 NA
ENDROOT
BRANCH   3   5
HETATM    5  C4  UNL     1     -34.112   6.217   5.223  1.00 20.00    -0.004 C 
HETATM    6  C5  UNL     1     -34.555   5.500   6.267  1.00 20.00    -0.031 C 
HETATM    7  C6  UNL     1     -35.155   4.138   6.140  1.00 20.00     0.036 C 
ENDBRANCH   3   5
TORSDOF 1
ENDMDL
MODEL 2
REMARK VINA RESULT:      -4.7      2.155      3.975
REMARK  1 active torsions:
REMARK  status: ('A' for Active; 'I' for Inactive)
REMARK    1  A    between atoms: C3_3  and  C4_4 
ROOT
HETATM    1  C1  UNL     1     -34.791   5.275   5.093  1.00 20.00     0.087 C 
HETATM    2  C2  UNL     1     -34.820   5.396   3.677  1.00 20.00     0.093 C 
HETATM    3  C3  UNL     1     -33.766   5.861   2.993  1.00 20.00     0.011 C 
HETATM    4  N7  UNL     1     -34.770   5.174   6.249  1.00 20.00    -0.192 NA
ENDROOT
BRANCH   3   5
HETATM    5  C4  UNL     1     -32.534   6.272   3.628  1.00 20.00    -0.004 C 
HETATM    6  C5  UNL     1     -31.806   7.319   3.210  1.00 20.00    -0.031 C 
HETATM    7  C6  UNL     1     -32.182   8.177   2.047  1.00 20.00     0.036 C 
ENDBRANCH   3   5
TORSDOF 1
ENDMDL
MODEL 3
REMARK VINA RESULT:      -4.6      1.412      2.046
REMARK  1 active torsions:
REMARK  status: ('A' for Active; 'I' for Inactive)
REMARK    1  A    between atoms: C3_3  and  C4_4 
ROOT
HETATM    1  C1  UNL     1     -32.045   8.050   2.250  1.00 20.00     0.087 C 
HETATM    2  C2  UNL     1     -31.775   7.229   3.378  1.00 20.00     0.093 C 
HETATM    3  C3  UNL     1     -32.606   6.244   3.742  1.00 20.00     0.011 C 
HETATM    4  N7  UNL     1     -32.263   8.721   1.328  1.00 20.00    -0.192 NA
ENDROOT
BRANCH   3   5
HETATM    5  C4  UNL     1     -33.827   5.940   3.029  1.00 20.00    -0.004 C 
HETATM    6  C5  UNL     1     -34.897   5.378   3.611  1.00 20.00    -0.031 C 
HETATM    7  C6  UNL     1     -34.953   5.005   5.056  1.00 20.00     0.036 C 
ENDBRANCH   3   5
TORSDOF 1
ENDMDL
MODEL 4
REMARK VINA RESULT:      -4.3      1.877      3.411
REMARK  1 active torsions:
REMARK  status: ('A' for Active; 'I' for Inactive)
REMARK    1  A    between atoms: C3_3  and  C4_4 
ROOT
HETATM    1  C1  UNL     1     -34.246   5.966   6.424  1.00 20.00     0.087 C 
HETATM    2  C2  UNL     1     -34.557   4.651   5.983  1.00 20.00     0.093 C 
HETATM    3  C3  UNL     1     -34.992   4.415   4.738  1.00 20.00     0.011 C 
HETATM    4  N7  UNL     1     -33.991   7.038   6.787  1.00 20.00    -0.192 NA
ENDROOT
BRANCH   3   5
HETATM    5  C4  UNL     1     -35.176   5.461   3.757  1.00 20.00    -0.004 C 
HETATM    6  C5  UNL     1     -34.166   5.998   3.057  1.00 20.00    -0.031 C 
HETATM    7  C6  UNL     1     -32.740   5.581   3.209  1.00 20.00     0.036 C 
ENDBRANCH   3   5
TORSDOF 1
ENDMDL
MODEL 5
REMARK VINA RESULT:      -4.2     11.674     12.124
REMARK  1 active torsions:
REMARK  status: ('A' for Active; 'I' for Inactive)
REMARK    1  A    between atoms: C3_3  and  C4_4 
ROOT
HETATM    1  C1  UNL     1     -34.154  13.780  -4.059  1.00 20.00     0.087 C 
HETATM    2  C2  UNL     1     -33.289  14.898  -3.914  1.00 20.00     0.093 C 
HETATM    3  C3  UNL     1     -33.529  15.856  -3.009  1.00 20.00     0.011 C 
HETATM    4  N7  UNL     1     -34.859  12.866  -4.179  1.00 20.00    -0.192 NA
ENDROOT
BRANCH   3   5
HETATM    5  C4  UNL     1     -34.669  15.832  -2.120  1.00 20.00    -0.004 C 
HETATM    6  C5  UNL     1     -34.777  16.623  -1.042  1.00 20.00    -0.031 C 
HETATM    7  C6  UNL     1     -33.737  17.616  -0.636  1.00 20.00     0.036 C 
ENDBRANCH   3   5
TORSDOF 1
ENDMDL
MODEL 6
REMARK VINA RESULT:      -3.8     11.760     12.254
REMARK  1 active torsions:
REMARK  status: ('A' for Active; 'I' for Inactive)
REMARK    1  A    between atoms: C3_3  and  C4_4 
ROOT
HETATM    1  C1  UNL     1     -35.464  13.581  -4.201  1.00 20.00     0.087 C 
HETATM    2  C2  UNL     1     -36.350  14.588  -3.729  1.00 20.00     0.093 C 
HETATM    3  C3  UNL     1     -35.891  15.734  -3.208  1.00 20.00     0.011 C 
HETATM    4  N7  UNL     1     -34.744  12.758  -4.588  1.00 20.00    -0.192 NA
ENDROOT
BRANCH   3   5
HETATM    5  C4  UNL     1     -34.483  16.035  -3.083  1.00 20.00    -0.004 C 
HETATM    6  C5  UNL     1     -33.928  16.497  -1.953  1.00 20.00    -0.031 C 
HETATM    7  C6  UNL     1     -34.695  16.752  -0.698  1.00 20.00     0.036 C 
ENDBRANCH   3   5
TORSDOF 1
ENDMDL
MODEL 7
REMARK VINA RESULT:      -3.7     11.810     12.514
REMARK  1 active torsions:
REMARK  status: ('A' for Active; 'I' for Inactive)
REMARK    1  A    between atoms: C3_3  and  C4_4 
ROOT
HETATM    1  C1  UNL     1     -34.926  13.997  -5.828  1.00 20.00     0.087 C 
HETATM    2  C2  UNL     1     -34.900  13.345  -4.565  1.00 20.00     0.093 C 
HETATM    3  C3  UNL     1     -34.210  13.848  -3.532  1.00 20.00     0.011 C 
HETATM    4  N7  UNL     1     -34.949  14.528  -6.860  1.00 20.00    -0.192 NA
ENDROOT
BRANCH   3   5
HETATM    5  C4  UNL     1     -33.448  15.073  -3.615  1.00 20.00    -0.004 C 
HETATM    6  C5  UNL     1     -33.650  16.120  -2.801  1.00 20.00    -0.031 C 
HETATM    7  C6  UNL     1     -34.678  16.141  -1.718  1.00 20.00     0.036 C 
ENDBRANCH   3   5
TORSDOF 1
ENDMDL
MODEL 8
REMARK VINA RESULT:      -3.7     12.199     12.549
REMARK  1 active torsions:
REMARK  status: ('A' for Active; 'I' for Inactive)
REMARK    1  A    between atoms: C3_3  and  C4_4 
ROOT
HETATM    1  C1  UNL     1     -33.628  15.919  -3.891  1.00 20.00     0.087 C 
HETATM    2  C2  UNL     1     -34.571  15.479  -2.923  1.00 20.00     0.093 C 
HETATM    3  C3  UNL     1     -34.669  16.068  -1.724  1.00 20.00     0.011 C 
HETATM    4  N7  UNL     1     -32.859  16.277  -4.684  1.00 20.00    -0.192 NA
ENDROOT
BRANCH   3   5
HETATM    5  C4  UNL     1     -33.837  17.180  -1.322  1.00 20.00    -0.004 C 
HETATM    6  C5  UNL     1     -34.011  17.849  -0.172  1.00 20.00    -0.031 C 
HETATM    7  C6  UNL     1     -35.078  17.525   0.821  1.00 20.00     0.036 C 
ENDBRANCH   3   5
TORSDOF 1
ENDMDL
MODEL 9
REMARK VINA RESULT:      -3.6      1.372      2.264
REMARK  1 active torsions:
REMARK  status: ('A' for Active; 'I' for Inactive)
REMARK    1  A    between atoms: C3_3  and  C4_4 
ROOT
HETATM    1  C1  UNL     1     -32.953   6.635   4.626  1.00 20.00     0.087 C 
HETATM    2  C2  UNL     1     -33.657   6.818   5.847  1.00 20.00     0.093 C 
HETATM    3  C3  UNL     1     -34.385   5.832   6.389  1.00 20.00     0.011 C 
HETATM    4  N7  UNL     1     -32.376   6.489   3.630  1.00 20.00    -0.192 NA
ENDROOT
BRANCH   3   5
HETATM    5  C4  UNL     1     -34.511   4.524   5.787  1.00 20.00    -0.004 C 
HETATM    6  C5  UNL     1     -35.187   4.301   4.650  1.00 20.00    -0.031 C 
HETATM    7  C6  UNL     1     -35.883   5.373   3.877  1.00 20.00     0.036 C 
ENDBRANCH   3   5
TORSDOF 1
ENDMDL
