MODEL 1
REMARK VINA RESULT:      -4.8      0.000      0.000
REMARK  2 active torsions:
REMARK  status: ('A' for Active; 'I' for Inactive)
REMARK    1  A    between atoms: C1_1  and  C6_6 
REMARK    2  A    between atoms: C5_5  and  N7_7 
ROOT
HETATM    1  C1  UNL     1     -34.249   5.748   4.800  1.00 20.00     0.108 C 
HETATM    2  C2  UNL     1     -35.329   5.354   3.823  1.00 20.00     0.075 C 
HETATM    3  N7  UNL     1     -33.136   6.311   4.476  1.00 20.00    -0.285 NA
ENDROOT
BRANCH   1   4
HETATM    4  C6  UNL     1     -34.506   5.468   6.255  1.00 20.00     0.430 C 
HETATM    5  F8  UNL     1     -33.590   4.605   6.766  1.00 20.00    -0.165 F 
HETATM    6  F9  UNL     1     -35.727   4.920   6.478  1.00 20.00    -0.165 F 
HETATM    7  F10 UNL     1     -34.442   6.599   7.002  1.00 20.00    -0.165 F 
ENDBRANCH   1   4
BRANCH   3   8
HETATM    8  C5  UNL     1     -32.886   6.593   3.070  1.00 20.00     0.100 C 
HETATM    9  C3  UNL     1     -32.010   7.832   2.964  1.00 20.00     0.034 C 
HETATM   10  C4  UNL     1     -32.227   5.379   2.432  1.00 20.00     0.034 C 
ENDBRANCH   3   8
TORSDOF 2
ENDMDL
MODEL 2
REMARK VINA RESULT:      -4.3     11.946     12.885
REMARK  2 active torsions:
REMARK  status: ('A' for Active; 'I' for Inactive)
REMARK    1  A    between atoms: C1_1  and  C6_6 
REMARK    2  A    between atoms: C5_5  and  N7_7 
ROOT
HETATM    1  C1  UNL     1     -34.085  15.256  -3.636  1.00 20.00     0.108 C 
HETATM    2  C2  UNL     1     -33.279  16.304  -4.362  1.00 20.00     0.075 C 
HETATM    3  N7  UNL     1     -34.814  15.481  -2.597  1.00 20.00    -0.285 NA
ENDROOT
BRANCH   1   4
HETATM    4  C6  UNL     1     -34.037  13.854  -4.179  1.00 20.00     0.430 C 
HETATM    5  F8  UNL     1     -34.090  13.843  -5.536  1.00 20.00    -0.165 F 
HETATM    6  F9  UNL     1     -35.066  13.085  -3.741  1.00 20.00    -0.165 F 
HETATM    7  F10 UNL     1     -32.893  13.218  -3.824  1.00 20.00    -0.165 F 
ENDBRANCH   1   4
BRANCH   3   8
HETATM    8  C5  UNL     1     -34.873  16.837  -2.073  1.00 20.00     0.100 C 
HETATM    9  C3  UNL     1     -36.232  17.435  -2.404  1.00 20.00     0.034 C 
HETATM   10  C4  UNL     1     -34.624  16.798  -0.572  1.00 20.00     0.034 C 
ENDBRANCH   3   8
TORSDOF 2
ENDMDL
MODEL 3
REMARK VINA RESULT:      -4.3     11.968     12.767
REMARK  2 active torsions:
REMARK  status: ('A' for Active; 'I' for Inactive)
REMARK    1  A    between atoms: C1_1  and  C6_6 
REMARK    2  A    between atoms: C5_5  and  N7_7 
ROOT
HETATM    1  C1  UNL     1     -34.884  14.982  -3.444  1.00 20.00     0.108 C 
HETATM    2  C2  UNL     1     -36.385  15.136  -3.465  1.00 20.00     0.075 C 
HETATM    3  N7  UNL     1     -34.071  15.796  -2.861  1.00 20.00    -0.285 NA
ENDROOT
BRANCH   1   4
HETATM    4  C6  UNL     1     -34.308  13.784  -4.147  1.00 20.00     0.430 C 
HETATM    5  F8  UNL     1     -35.148  12.719  -4.089  1.00 20.00    -0.165 F 
HETATM    6  F9  UNL     1     -33.126  13.380  -3.614  1.00 20.00    -0.165 F 
HETATM    7  F10 UNL     1     -34.079  14.036  -5.460  1.00 20.00    -0.165 F 
ENDBRANCH   1   4
BRANCH   3   8
HETATM    8  C5  UNL     1     -34.624  16.951  -2.171  1.00 20.00     0.100 C 
HETATM    9  C3  UNL     1     -34.594  16.691  -0.672  1.00 20.00     0.034 C 
HETATM   10  C4  UNL     1     -33.815  18.184  -2.546  1.00 20.00     0.034 C 
ENDBRANCH   3   8
TORSDOF 2
ENDMDL
MODEL 4
REMARK VINA RESULT:      -4.3      3.085      4.347
REMARK  2 active torsions:
REMARK  status: ('A' for Active; 'I' for Inactive)
REMARK    1  A    between atoms: C1_1  and  C6_6 
REMARK    2  A    between atoms: C5_5  and  N7_7 
ROOT
HETATM    1  C1  UNL     1     -32.726   6.585   3.310  1.00 20.00     0.108 C 
HETATM    2  C2  UNL     1     -32.177   5.267   2.822  1.00 20.00     0.075 C 
HETATM    3  N7  UNL     1     -33.662   6.710   4.188  1.00 20.00    -0.285 NA
ENDROOT
BRANCH   1   4
HETATM    4  C6  UNL     1     -32.124   7.836   2.731  1.00 20.00     0.430 C 
HETATM    5  F8  UNL     1     -31.156   8.343   3.537  1.00 20.00    -0.165 F 
HETATM    6  F9  UNL     1     -33.038   8.823   2.549  1.00 20.00    -0.165 F 
HETATM    7  F10 UNL     1     -31.551   7.604   1.524  1.00 20.00    -0.165 F 
ENDBRANCH   1   4
BRANCH   3   8
HETATM    8  C5  UNL     1     -34.241   5.503   4.758  1.00 20.00     0.100 C 
HETATM    9  C3  UNL     1     -34.413   5.699   6.257  1.00 20.00     0.034 C 
HETATM   10  C4  UNL     1     -35.569   5.219   4.071  1.00 20.00     0.034 C 
ENDBRANCH   3   8
TORSDOF 2
ENDMDL
MODEL 5
REMARK VINA RESULT:      -4.2     12.499     13.594
REMARK  2 active torsions:
REMARK  status: ('A' for Active; 'I' for Inactive)
REMARK    1  A    between atoms: C1_1  and  C6_6 
REMARK    2  A    between atoms: C5_5  and  N7_7 
ROOT
HETATM    1  C1  UNL     1     -34.364  14.572  -4.668  1.00 20.00     0.108 C 
HETATM    2  C2  UNL     1     -34.981  13.264  -4.241  1.00 20.00     0.075 C 
HETATM    3  N7  UNL     1     -34.754  15.272  -5.679  1.00 20.00    -0.285 NA
ENDROOT
BRANCH   1   4
HETATM    4  C6  UNL     1     -33.220  15.094  -3.843  1.00 20.00     0.430 C 
HETATM    5  F8  UNL     1     -32.326  14.114  -3.554  1.00 20.00    -0.165 F 
HETATM    6  F9  UNL     1     -33.623  15.617  -2.657  1.00 20.00    -0.165 F 
HETATM    7  F10 UNL     1     -32.539  16.072  -4.491  1.00 20.00    -0.165 F 
ENDBRANCH   1   4
BRANCH   3   8
HETATM    8  C5  UNL     1     -35.867  14.778  -6.475  1.00 20.00     0.100 C 
HETATM    9  C3  UNL     1     -37.017  15.770  -6.386  1.00 20.00     0.034 C 
HETATM   10  C4  UNL     1     -35.400  14.584  -7.910  1.00 20.00     0.034 C 
ENDBRANCH   3   8
TORSDOF 2
ENDMDL
MODEL 6
REMARK VINA RESULT:      -4.2     12.484     13.599
REMARK  2 active torsions:
REMARK  status: ('A' for Active; 'I' for Inactive)
REMARK    1  A    between atoms: C1_1  and  C6_6 
REMARK    2  A    between atoms: C5_5  and  N7_7 
ROOT
HETATM    1  C1  UNL     1     -34.365  14.565  -4.655  1.00 20.00     0.108 C 
HETATM    2  C2  UNL     1     -35.014  13.277  -4.213  1.00 20.00     0.075 C 
HETATM    3  N7  UNL     1     -34.730  15.257  -5.680  1.00 20.00    -0.285 NA
ENDROOT
BRANCH   1   4
HETATM    4  C6  UNL     1     -33.217  15.074  -3.828  1.00 20.00     0.430 C 
HETATM    5  F8  UNL     1     -32.550  16.073  -4.461  1.00 20.00    -0.165 F 
HETATM    6  F9  UNL     1     -32.303  14.110  -3.548  1.00 20.00    -0.165 F 
HETATM    7  F10 UNL     1     -33.638  15.572  -2.639  1.00 20.00    -0.165 F 
ENDBRANCH   1   4
BRANCH   3   8
HETATM    8  C5  UNL     1     -35.847  14.774  -6.478  1.00 20.00     0.100 C 
HETATM    9  C3  UNL     1     -36.994  15.769  -6.375  1.00 20.00     0.034 C 
HETATM   10  C4  UNL     1     -35.385  14.595  -7.917  1.00 20.00     0.034 C 
ENDBRANCH   3   8
TORSDOF 2
ENDMDL
MODEL 7
REMARK VINA RESULT:      -4.0     12.321     13.294
REMARK  2 active torsions:
REMARK  status: ('A' for Active; 'I' for Inactive)
REMARK    1  A    between atoms: C1_1  and  C6_6 
REMARK    2  A    between atoms: C5_5  and  N7_7 
ROOT
HETATM    1  C1  UNL     1     -34.427  14.650  -4.241  1.00 20.00     0.108 C 
HETATM    2  C2  UNL     1     -34.393  13.212  -4.695  1.00 20.00     0.075 C 
HETATM    3  N7  UNL     1     -35.477  15.399  -4.253  1.00 20.00    -0.285 NA
ENDROOT
BRANCH   1   4
HETATM    4  C6  UNL     1     -33.141  15.239  -3.731  1.00 20.00     0.430 C 
HETATM    5  F8  UNL     1     -32.201  14.282  -3.523  1.00 20.00    -0.165 F 
HETATM    6  F9  UNL     1     -33.295  15.898  -2.554  1.00 20.00    -0.165 F 
HETATM    7  F10 UNL     1     -32.612  16.127  -4.611  1.00 20.00    -0.165 F 
ENDBRANCH   1   4
BRANCH   3   8
HETATM    8  C5  UNL     1     -36.726  14.831  -4.736  1.00 20.00     0.100 C 
HETATM    9  C3  UNL     1     -37.802  15.036  -3.681  1.00 20.00     0.034 C 
HETATM   10  C4  UNL     1     -37.095  15.497  -6.054  1.00 20.00     0.034 C 
ENDBRANCH   3   8
TORSDOF 2
ENDMDL
MODEL 8
REMARK VINA RESULT:      -4.0     11.733     12.794
REMARK  2 active torsions:
REMARK  status: ('A' for Active; 'I' for Inactive)
REMARK    1  A    between atoms: C1_1  and  C6_6 
REMARK    2  A    between atoms: C5_5  and  N7_7 
ROOT
HETATM    1  C1  UNL     1     -34.254  16.553  -2.474  1.00 20.00     0.108 C 
HETATM    2  C2  UNL     1     -33.721  17.376  -3.621  1.00 20.00     0.075 C 
HETATM    3  N7  UNL     1     -34.676  15.339  -2.577  1.00 20.00    -0.285 NA
ENDROOT
BRANCH   1   4
HETATM    4  C6  UNL     1     -34.281  17.201  -1.118  1.00 20.00     0.430 C 
HETATM    5  F8  UNL     1     -33.035  17.550  -0.706  1.00 20.00    -0.165 F 
HETATM    6  F9  UNL     1     -34.798  16.392  -0.158  1.00 20.00    -0.165 F 
HETATM    7  F10 UNL     1     -35.028  18.334  -1.119  1.00 20.00    -0.165 F 
ENDBRANCH   1   4
BRANCH   3   8
HETATM    8  C5  UNL     1     -34.643  14.702  -3.885  1.00 20.00     0.100 C 
HETATM    9  C3  UNL     1     -33.560  13.633  -3.886  1.00 20.00     0.034 C 
HETATM   10  C4  UNL     1     -36.015  14.116  -4.184  1.00 20.00     0.034 C 
ENDBRANCH   3   8
TORSDOF 2
ENDMDL
MODEL 9
REMARK VINA RESULT:      -4.0      9.568     10.828
REMARK  2 active torsions:
REMARK  status: ('A' for Active; 'I' for Inactive)
REMARK    1  A    between atoms: C1_1  and  C6_6 
REMARK    2  A    between atoms: C5_5  and  N7_7 
ROOT
HETATM    1  C1  UNL     1     -41.865   5.077  -2.003  1.00 20.00     0.108 C 
HETATM    2  C2  UNL     1     -42.780   5.793  -2.966  1.00 20.00     0.075 C 
HETATM    3  N7  UNL     1     -41.650   3.806  -2.004  1.00 20.00    -0.285 NA
ENDROOT
BRANCH   1   4
HETATM    4  C6  UNL     1     -41.152   5.917  -0.980  1.00 20.00     0.430 C 
HETATM    5  F8  UNL     1     -40.016   5.315  -0.544  1.00 20.00    -0.165 F 
HETATM    6  F9  UNL     1     -41.910   6.165   0.118  1.00 20.00    -0.165 F 
HETATM    7  F10 UNL     1     -40.790   7.123  -1.486  1.00 20.00    -0.165 F 
ENDBRANCH   1   4
BRANCH   3   8
HETATM    8  C5  UNL     1     -42.329   2.989  -2.998  1.00 20.00     0.100 C 
HETATM    9  C3  UNL     1     -41.307   2.097  -3.686  1.00 20.00     0.034 C 
HETATM   10  C4  UNL     1     -43.415   2.175  -2.310  1.00 20.00     0.034 C 
ENDBRANCH   3   8
TORSDOF 2
ENDMDL
