MODEL 1
REMARK VINA RESULT:      -4.6      0.000      0.000
REMARK  1 active torsions:
REMARK  status: ('A' for Active; 'I' for Inactive)
REMARK    1  A    between atoms: C3_3  and  C5_5 
ROOT
HETATM    1  C1  UNL     1     -34.572   5.020   3.664  1.00 20.00     0.025 A 
HETATM    2  C2  UNL     1     -33.938   5.782   2.640  1.00 20.00     0.028 A 
HETATM    3  C3  UNL     1     -34.199   5.435   4.924  1.00 20.00     0.089 A 
HETATM    4  C4  UNL     1     -33.104   6.749   3.156  1.00 20.00     0.052 A 
HETATM    5  S9  UNL     1     -33.089   6.738   4.869  1.00 20.00    -0.078 SA
HETATM    6 BR10 UNL     1     -32.087   7.962   2.107  1.00 20.00    -0.043 Br
ENDROOT
BRANCH   3   7
HETATM    7  C5  UNL     1     -34.632   4.904   6.234  1.00 20.00     0.423 C 
HETATM    8  F6  UNL     1     -35.619   3.955   6.155  1.00 20.00    -0.166 F 
HETATM    9  F7  UNL     1     -33.632   4.301   6.952  1.00 20.00    -0.166 F 
HETATM   10  F8  UNL     1     -35.135   5.870   7.066  1.00 20.00    -0.166 F 
ENDBRANCH   3   7
TORSDOF 1
ENDMDL
MODEL 2
REMARK VINA RESULT:      -4.2     13.045     13.838
REMARK  1 active torsions:
REMARK  status: ('A' for Active; 'I' for Inactive)
REMARK    1  A    between atoms: C3_3  and  C5_5 
ROOT
HETATM    1  C1  UNL     1     -34.500  14.810  -6.340  1.00 20.00     0.025 A 
HETATM    2  C2  UNL     1     -34.446  16.034  -7.069  1.00 20.00     0.028 A 
HETATM    3  C3  UNL     1     -34.171  14.983  -5.013  1.00 20.00     0.089 A 
HETATM    4  C4  UNL     1     -34.076  17.094  -6.272  1.00 20.00     0.052 A 
HETATM    5  S9  UNL     1     -33.798  16.615  -4.651  1.00 20.00    -0.078 SA
HETATM    6 BR10 UNL     1     -33.894  18.884  -6.881  1.00 20.00    -0.043 Br
ENDROOT
BRANCH   3   7
HETATM    7  C5  UNL     1     -34.111  13.968  -3.940  1.00 20.00     0.423 C 
HETATM    8  F6  UNL     1     -35.000  12.935  -4.094  1.00 20.00    -0.166 F 
HETATM    9  F7  UNL     1     -32.891  13.356  -3.816  1.00 20.00    -0.166 F 
HETATM   10  F8  UNL     1     -34.378  14.483  -2.698  1.00 20.00    -0.166 F 
ENDBRANCH   3   7
TORSDOF 1
ENDMDL
MODEL 3
REMARK VINA RESULT:      -4.2     13.052     13.887
REMARK  1 active torsions:
REMARK  status: ('A' for Active; 'I' for Inactive)
REMARK    1  A    between atoms: C3_3  and  C5_5 
ROOT
HETATM    1  C1  UNL     1     -34.531  14.768  -6.364  1.00 20.00     0.025 A 
HETATM    2  C2  UNL     1     -34.485  15.983  -7.108  1.00 20.00     0.028 A 
HETATM    3  C3  UNL     1     -34.198  14.958  -5.041  1.00 20.00     0.089 A 
HETATM    4  C4  UNL     1     -34.118  17.055  -6.325  1.00 20.00     0.052 A 
HETATM    5  S9  UNL     1     -33.832  16.595  -4.700  1.00 20.00    -0.078 SA
HETATM    6 BR10 UNL     1     -33.946  18.837  -6.956  1.00 20.00    -0.043 Br
ENDROOT
BRANCH   3   7
HETATM    7  C5  UNL     1     -34.129  13.956  -3.956  1.00 20.00     0.423 C 
HETATM    8  F6  UNL     1     -32.910  13.340  -3.839  1.00 20.00    -0.166 F 
HETATM    9  F7  UNL     1     -34.381  14.463  -2.708  1.00 20.00    -0.166 F 
HETATM   10  F8  UNL     1     -35.029  12.933  -4.112  1.00 20.00    -0.166 F 
ENDBRANCH   3   7
TORSDOF 1
ENDMDL
MODEL 4
REMARK VINA RESULT:      -4.2     10.140     10.748
REMARK  1 active torsions:
REMARK  status: ('A' for Active; 'I' for Inactive)
REMARK    1  A    between atoms: C3_3  and  C5_5 
ROOT
HETATM    1  C1  UNL     1     -40.788   5.425  -0.835  1.00 20.00     0.025 A 
HETATM    2  C2  UNL     1     -40.746   4.096  -1.347  1.00 20.00     0.028 A 
HETATM    3  C3  UNL     1     -41.752   6.189  -1.456  1.00 20.00     0.089 A 
HETATM    4  C4  UNL     1     -41.678   3.895  -2.341  1.00 20.00     0.052 A 
HETATM    5  S9  UNL     1     -42.600   5.305  -2.653  1.00 20.00    -0.078 SA
HETATM    6 BR10 UNL     1     -41.925   2.255  -3.266  1.00 20.00    -0.043 Br
ENDROOT
BRANCH   3   7
HETATM    7  C5  UNL     1     -42.104   7.604  -1.211  1.00 20.00     0.423 C 
HETATM    8  F6  UNL     1     -42.518   8.280  -2.330  1.00 20.00    -0.166 F 
HETATM    9  F7  UNL     1     -43.119   7.780  -0.307  1.00 20.00    -0.166 F 
HETATM   10  F8  UNL     1     -41.058   8.340  -0.719  1.00 20.00    -0.166 F 
ENDBRANCH   3   7
TORSDOF 1
ENDMDL
MODEL 5
REMARK VINA RESULT:      -4.1     12.455     13.089
REMARK  1 active torsions:
REMARK  status: ('A' for Active; 'I' for Inactive)
REMARK    1  A    between atoms: C3_3  and  C5_5 
ROOT
HETATM    1  C1  UNL     1     -33.660  15.873  -2.689  1.00 20.00     0.025 A 
HETATM    2  C2  UNL     1     -34.335  16.974  -2.085  1.00 20.00     0.028 A 
HETATM    3  C3  UNL     1     -34.517  15.076  -3.415  1.00 20.00     0.089 A 
HETATM    4  C4  UNL     1     -35.682  16.975  -2.372  1.00 20.00     0.052 A 
HETATM    5  S9  UNL     1     -36.128  15.654  -3.366  1.00 20.00    -0.078 SA
HETATM    6 BR10 UNL     1     -36.912  18.280  -1.748  1.00 20.00    -0.043 Br
ENDROOT
BRANCH   3   7
HETATM    7  C5  UNL     1     -34.207  13.850  -4.181  1.00 20.00     0.423 C 
HETATM    8  F6  UNL     1     -35.130  12.847  -4.032  1.00 20.00    -0.166 F 
HETATM    9  F7  UNL     1     -34.124  14.043  -5.536  1.00 20.00    -0.166 F 
HETATM   10  F8  UNL     1     -33.010  13.285  -3.828  1.00 20.00    -0.166 F 
ENDBRANCH   3   7
TORSDOF 1
ENDMDL
MODEL 6
REMARK VINA RESULT:      -4.0     12.530     13.328
REMARK  1 active torsions:
REMARK  status: ('A' for Active; 'I' for Inactive)
REMARK    1  A    between atoms: C3_3  and  C5_5 
ROOT
HETATM    1  C1  UNL     1     -34.292  14.558  -3.148  1.00 20.00     0.025 A 
HETATM    2  C2  UNL     1     -34.339  14.148  -4.512  1.00 20.00     0.028 A 
HETATM    3  C3  UNL     1     -34.386  15.926  -3.015  1.00 20.00     0.089 A 
HETATM    4  C4  UNL     1     -34.465  15.218  -5.370  1.00 20.00     0.052 A 
HETATM    5  S9  UNL     1     -34.529  16.710  -4.530  1.00 20.00    -0.078 SA
HETATM    6 BR10 UNL     1     -34.561  15.075  -7.261  1.00 20.00    -0.043 Br
ENDROOT
BRANCH   3   7
HETATM    7  C5  UNL     1     -34.375  16.733  -1.776  1.00 20.00     0.423 C 
HETATM    8  F6  UNL     1     -35.143  17.867  -1.840  1.00 20.00    -0.166 F 
HETATM    9  F7  UNL     1     -34.835  16.067  -0.670  1.00 20.00    -0.166 F 
HETATM   10  F8  UNL     1     -33.123  17.172  -1.432  1.00 20.00    -0.166 F 
ENDBRANCH   3   7
TORSDOF 1
ENDMDL
MODEL 7
REMARK VINA RESULT:      -4.0      3.927      4.568
REMARK  1 active torsions:
REMARK  status: ('A' for Active; 'I' for Inactive)
REMARK    1  A    between atoms: C3_3  and  C5_5 
ROOT
HETATM    1  C1  UNL     1     -33.853   5.813   2.630  1.00 20.00     0.025 A 
HETATM    2  C2  UNL     1     -34.596   5.012   3.545  1.00 20.00     0.028 A 
HETATM    3  C3  UNL     1     -33.069   6.745   3.275  1.00 20.00     0.089 A 
HETATM    4  C4  UNL     1     -34.354   5.364   4.854  1.00 20.00     0.052 A 
HETATM    5  S9  UNL     1     -33.233   6.653   4.977  1.00 20.00    -0.078 SA
HETATM    6 BR10 UNL     1     -35.158   4.528   6.358  1.00 20.00    -0.043 Br
ENDROOT
BRANCH   3   7
HETATM    7  C5  UNL     1     -32.162   7.751   2.684  1.00 20.00     0.423 C 
HETATM    8  F6  UNL     1     -31.562   7.350   1.518  1.00 20.00    -0.166 F 
HETATM    9  F7  UNL     1     -32.771   8.938   2.368  1.00 20.00    -0.166 F 
HETATM   10  F8  UNL     1     -31.127   8.094   3.514  1.00 20.00    -0.166 F 
ENDBRANCH   3   7
TORSDOF 1
ENDMDL
MODEL 8
REMARK VINA RESULT:      -4.0     13.248     14.098
REMARK  1 active torsions:
REMARK  status: ('A' for Active; 'I' for Inactive)
REMARK    1  A    between atoms: C3_3  and  C5_5 
ROOT
HETATM    1  C1  UNL     1     -33.732  16.442  -4.944  1.00 20.00     0.025 A 
HETATM    2  C2  UNL     1     -33.644  17.010  -3.640  1.00 20.00     0.028 A 
HETATM    3  C3  UNL     1     -34.577  15.354  -4.979  1.00 20.00     0.089 A 
HETATM    4  C4  UNL     1     -34.423  16.334  -2.728  1.00 20.00     0.052 A 
HETATM    5  S9  UNL     1     -35.258  15.021  -3.444  1.00 20.00    -0.078 SA
HETATM    6 BR10 UNL     1     -34.568  16.791  -0.891  1.00 20.00    -0.043 Br
ENDROOT
BRANCH   3   7
HETATM    7  C5  UNL     1     -34.930  14.500  -6.133  1.00 20.00     0.423 C 
HETATM    8  F6  UNL     1     -34.927  13.156  -5.858  1.00 20.00    -0.166 F 
HETATM    9  F7  UNL     1     -36.176  14.743  -6.649  1.00 20.00    -0.166 F 
HETATM   10  F8  UNL     1     -34.072  14.646  -7.192  1.00 20.00    -0.166 F 
ENDBRANCH   3   7
TORSDOF 1
ENDMDL
MODEL 9
REMARK VINA RESULT:      -4.0     10.612     11.323
REMARK  1 active torsions:
REMARK  status: ('A' for Active; 'I' for Inactive)
REMARK    1  A    between atoms: C3_3  and  C5_5 
ROOT
HETATM    1  C1  UNL     1     -40.838   4.056  -1.539  1.00 20.00     0.025 A 
HETATM    2  C2  UNL     1     -40.995   5.357  -0.978  1.00 20.00     0.028 A 
HETATM    3  C3  UNL     1     -41.783   3.791  -2.506  1.00 20.00     0.089 A 
HETATM    4  C4  UNL     1     -42.054   6.036  -1.537  1.00 20.00     0.052 A 
HETATM    5  S9  UNL     1     -42.854   5.108  -2.734  1.00 20.00    -0.078 SA
HETATM    6 BR10 UNL     1     -42.580   7.795  -1.051  1.00 20.00    -0.043 Br
ENDROOT
BRANCH   3   7
HETATM    7  C5  UNL     1     -41.955   2.565  -3.313  1.00 20.00     0.423 C 
HETATM    8  F6  UNL     1     -40.798   2.106  -3.889  1.00 20.00    -0.166 F 
HETATM    9  F7  UNL     1     -42.437   1.493  -2.609  1.00 20.00    -0.166 F 
HETATM   10  F8  UNL     1     -42.829   2.727  -4.357  1.00 20.00    -0.166 F 
ENDBRANCH   3   7
TORSDOF 1
ENDMDL
