MODEL 1
REMARK VINA RESULT:      -3.9      0.000      0.000
REMARK  3 active torsions:
REMARK  status: ('A' for Active; 'I' for Inactive)
REMARK    1  A    between atoms: C1_1  and  C5_5 
REMARK    2  A    between atoms: C5_5  and  C6_6 
REMARK    3  A    between atoms: C5_5  and  O8_8 
ROOT
HETATM    1  C5  UNL     1     -33.774  14.392  -3.533  1.00 20.00     0.186 C 
ENDROOT
BRANCH   1   2
HETATM    2  C1  UNL     1     -34.361  13.628  -4.706  1.00 20.00     0.263 C 
HETATM    3  O7  UNL     1     -34.928  12.544  -4.611  1.00 20.00    -0.304 OA
ENDBRANCH   1   2
BRANCH   1   4
HETATM    4  C6  UNL     1     -34.430  15.781  -3.313  1.00 20.00    -0.019 C 
HETATM    5  C2  UNL     1     -35.859  15.812  -3.887  1.00 20.00     0.017 C 
HETATM    6  C3  UNL     1     -33.596  16.854  -4.044  1.00 20.00     0.017 C 
HETATM    7  C4  UNL     1     -34.478  16.150  -1.818  1.00 20.00     0.017 C 
ENDBRANCH   1   4
BRANCH   1   8
HETATM    8  O8  UNL     1     -32.380  14.538  -3.766  1.00 20.00    -0.388 OA
HETATM    9  H20 UNL     1     -32.085  13.729  -4.217  1.00 20.00     0.210 HD
ENDBRANCH   1   8
TORSDOF 3
ENDMDL
MODEL 2
REMARK VINA RESULT:      -3.8      1.773      3.217
REMARK  3 active torsions:
REMARK  status: ('A' for Active; 'I' for Inactive)
REMARK    1  A    between atoms: C1_1  and  C5_5 
REMARK    2  A    between atoms: C5_5  and  C6_6 
REMARK    3  A    between atoms: C5_5  and  O8_8 
ROOT
HETATM    1  C5  UNL     1     -34.484  13.372  -4.884  1.00 20.00     0.186 C 
ENDROOT
BRANCH   1   2
HETATM    2  C1  UNL     1     -33.441  13.741  -3.844  1.00 20.00     0.263 C 
HETATM    3  O7  UNL     1     -32.542  12.993  -3.472  1.00 20.00    -0.304 OA
ENDBRANCH   1   2
BRANCH   1   4
HETATM    4  C6  UNL     1     -35.097  14.603  -5.604  1.00 20.00    -0.019 C 
HETATM    5  C2  UNL     1     -34.170  15.827  -5.485  1.00 20.00     0.017 C 
HETATM    6  C3  UNL     1     -36.445  14.956  -4.940  1.00 20.00     0.017 C 
HETATM    7  C4  UNL     1     -35.360  14.310  -7.093  1.00 20.00     0.017 C 
ENDBRANCH   1   4
BRANCH   1   8
HETATM    8  O8  UNL     1     -35.503  12.628  -4.230  1.00 20.00    -0.388 OA
HETATM    9  H20 UNL     1     -35.876  13.207  -3.544  1.00 20.00     0.210 HD
ENDBRANCH   1   8
TORSDOF 3
ENDMDL
MODEL 3
REMARK VINA RESULT:      -3.8      0.310      1.645
REMARK  3 active torsions:
REMARK  status: ('A' for Active; 'I' for Inactive)
REMARK    1  A    between atoms: C1_1  and  C5_5 
REMARK    2  A    between atoms: C5_5  and  C6_6 
REMARK    3  A    between atoms: C5_5  and  O8_8 
ROOT
HETATM    1  C5  UNL     1     -33.793  14.410  -3.532  1.00 20.00     0.186 C 
ENDROOT
BRANCH   1   2
HETATM    2  C1  UNL     1     -34.343  13.644  -4.722  1.00 20.00     0.263 C 
HETATM    3  O7  UNL     1     -34.856  12.532  -4.650  1.00 20.00    -0.304 OA
ENDBRANCH   1   2
BRANCH   1   4
HETATM    4  C6  UNL     1     -34.559  15.727  -3.241  1.00 20.00    -0.019 C 
HETATM    5  C2  UNL     1     -34.323  16.193  -1.792  1.00 20.00     0.017 C 
HETATM    6  C3  UNL     1     -36.072  15.483  -3.425  1.00 20.00     0.017 C 
HETATM    7  C4  UNL     1     -34.136  16.850  -4.207  1.00 20.00     0.017 C 
ENDBRANCH   1   4
BRANCH   1   8
HETATM    8  O8  UNL     1     -32.423  14.686  -3.791  1.00 20.00    -0.388 OA
HETATM    9  H20 UNL     1     -31.969  13.828  -3.838  1.00 20.00     0.210 HD
ENDBRANCH   1   8
TORSDOF 3
ENDMDL
MODEL 4
REMARK VINA RESULT:      -3.8      1.584      2.697
REMARK  3 active torsions:
REMARK  status: ('A' for Active; 'I' for Inactive)
REMARK    1  A    between atoms: C1_1  and  C5_5 
REMARK    2  A    between atoms: C5_5  and  C6_6 
REMARK    3  A    between atoms: C5_5  and  O8_8 
ROOT
HETATM    1  C5  UNL     1     -35.257  13.824  -3.780  1.00 20.00     0.186 C 
ENDROOT
BRANCH   1   2
HETATM    2  C1  UNL     1     -36.572  14.395  -4.280  1.00 20.00     0.263 C 
HETATM    3  O7  UNL     1     -37.662  14.178  -3.760  1.00 20.00    -0.304 OA
ENDBRANCH   1   2
BRANCH   1   4
HETATM    4  C6  UNL     1     -34.096  14.852  -3.791  1.00 20.00    -0.019 C 
HETATM    5  C2  UNL     1     -32.741  14.155  -3.566  1.00 20.00     0.017 C 
HETATM    6  C3  UNL     1     -34.308  15.866  -2.645  1.00 20.00     0.017 C 
HETATM    7  C4  UNL     1     -34.048  15.634  -5.117  1.00 20.00     0.017 C 
ENDBRANCH   1   4
BRANCH   1   8
HETATM    8  O8  UNL     1     -34.931  12.708  -4.598  1.00 20.00    -0.388 OA
HETATM    9  H20 UNL     1     -35.760  12.225  -4.755  1.00 20.00     0.210 HD
ENDBRANCH   1   8
TORSDOF 3
ENDMDL
MODEL 5
REMARK VINA RESULT:      -3.7      1.353      2.386
REMARK  3 active torsions:
REMARK  status: ('A' for Active; 'I' for Inactive)
REMARK    1  A    between atoms: C1_1  and  C5_5 
REMARK    2  A    between atoms: C5_5  and  C6_6 
REMARK    3  A    between atoms: C5_5  and  O8_8 
ROOT
HETATM    1  C5  UNL     1     -33.855  14.765  -4.255  1.00 20.00     0.186 C 
ENDROOT
BRANCH   1   2
HETATM    2  C1  UNL     1     -34.141  13.332  -4.665  1.00 20.00     0.263 C 
HETATM    3  O7  UNL     1     -35.116  12.688  -4.291  1.00 20.00    -0.304 OA
ENDBRANCH   1   2
BRANCH   1   4
HETATM    4  C6  UNL     1     -34.311  15.810  -5.308  1.00 20.00    -0.019 C 
HETATM    5  C2  UNL     1     -33.410  17.058  -5.271  1.00 20.00     0.017 C 
HETATM    6  C3  UNL     1     -35.756  16.251  -4.988  1.00 20.00     0.017 C 
HETATM    7  C4  UNL     1     -34.297  15.218  -6.730  1.00 20.00     0.017 C 
ENDBRANCH   1   4
BRANCH   1   8
HETATM    8  O8  UNL     1     -32.458  14.879  -4.025  1.00 20.00    -0.388 OA
HETATM    9  H20 UNL     1     -32.329  14.850  -3.062  1.00 20.00     0.210 HD
ENDBRANCH   1   8
TORSDOF 3
ENDMDL
MODEL 6
REMARK VINA RESULT:      -3.6      1.551      2.382
REMARK  3 active torsions:
REMARK  status: ('A' for Active; 'I' for Inactive)
REMARK    1  A    between atoms: C1_1  and  C5_5 
REMARK    2  A    between atoms: C5_5  and  C6_6 
REMARK    3  A    between atoms: C5_5  and  O8_8 
ROOT
HETATM    1  C5  UNL     1     -35.187  14.062  -4.617  1.00 20.00     0.186 C 
ENDROOT
BRANCH   1   2
HETATM    2  C1  UNL     1     -35.051  14.085  -6.129  1.00 20.00     0.263 C 
HETATM    3  O7  UNL     1     -35.924  14.480  -6.895  1.00 20.00    -0.304 OA
ENDBRANCH   1   2
BRANCH   1   4
HETATM    4  C6  UNL     1     -34.078  14.864  -3.886  1.00 20.00    -0.019 C 
HETATM    5  C2  UNL     1     -33.504  15.965  -4.798  1.00 20.00     0.017 C 
HETATM    6  C3  UNL     1     -32.927  13.906  -3.509  1.00 20.00     0.017 C 
HETATM    7  C4  UNL     1     -34.608  15.507  -2.591  1.00 20.00     0.017 C 
ENDBRANCH   1   4
BRANCH   1   8
HETATM    8  O8  UNL     1     -35.165  12.704  -4.201  1.00 20.00    -0.388 OA
HETATM    9  H20 UNL     1     -36.054  12.346  -4.366  1.00 20.00     0.210 HD
ENDBRANCH   1   8
TORSDOF 3
ENDMDL
MODEL 7
REMARK VINA RESULT:      -3.6      1.410      1.922
REMARK  3 active torsions:
REMARK  status: ('A' for Active; 'I' for Inactive)
REMARK    1  A    between atoms: C1_1  and  C5_5 
REMARK    2  A    between atoms: C5_5  and  C6_6 
REMARK    3  A    between atoms: C5_5  and  O8_8 
ROOT
HETATM    1  C5  UNL     1     -34.997  14.993  -4.292  1.00 20.00     0.186 C 
ENDROOT
BRANCH   1   2
HETATM    2  C1  UNL     1     -34.584  13.619  -4.788  1.00 20.00     0.263 C 
HETATM    3  O7  UNL     1     -35.078  12.566  -4.395  1.00 20.00    -0.304 OA
ENDBRANCH   1   2
BRANCH   1   4
HETATM    4  C6  UNL     1     -33.832  15.789  -3.646  1.00 20.00    -0.019 C 
HETATM    5  C2  UNL     1     -33.490  17.038  -4.479  1.00 20.00     0.017 C 
HETATM    6  C3  UNL     1     -32.577  14.892  -3.590  1.00 20.00     0.017 C 
HETATM    7  C4  UNL     1     -34.175  16.220  -2.207  1.00 20.00     0.017 C 
ENDBRANCH   1   4
BRANCH   1   8
HETATM    8  O8  UNL     1     -36.050  14.817  -3.355  1.00 20.00    -0.388 OA
HETATM    9  H20 UNL     1     -36.529  15.662  -3.310  1.00 20.00     0.210 HD
ENDBRANCH   1   8
TORSDOF 3
ENDMDL
MODEL 8
REMARK VINA RESULT:      -3.6      1.422      2.281
REMARK  3 active torsions:
REMARK  status: ('A' for Active; 'I' for Inactive)
REMARK    1  A    between atoms: C1_1  and  C5_5 
REMARK    2  A    between atoms: C5_5  and  C6_6 
REMARK    3  A    between atoms: C5_5  and  O8_8 
ROOT
HETATM    1  C5  UNL     1     -35.008  14.994  -4.328  1.00 20.00     0.186 C 
ENDROOT
BRANCH   1   2
HETATM    2  C1  UNL     1     -34.626  13.618  -4.843  1.00 20.00     0.263 C 
HETATM    3  O7  UNL     1     -35.088  12.566  -4.411  1.00 20.00    -0.304 OA
ENDBRANCH   1   2
BRANCH   1   4
HETATM    4  C6  UNL     1     -33.818  15.770  -3.705  1.00 20.00    -0.019 C 
HETATM    5  C2  UNL     1     -32.563  14.880  -3.623  1.00 20.00     0.017 C 
HETATM    6  C3  UNL     1     -34.192  16.202  -2.271  1.00 20.00     0.017 C 
HETATM    7  C4  UNL     1     -33.486  17.037  -4.514  1.00 20.00     0.017 C 
ENDBRANCH   1   4
BRANCH   1   8
HETATM    8  O8  UNL     1     -36.041  14.826  -3.368  1.00 20.00    -0.388 OA
HETATM    9  H20 UNL     1     -35.622  14.476  -2.563  1.00 20.00     0.210 HD
ENDBRANCH   1   8
TORSDOF 3
ENDMDL
MODEL 9
REMARK VINA RESULT:      -3.5      2.193      2.893
REMARK  3 active torsions:
REMARK  status: ('A' for Active; 'I' for Inactive)
REMARK    1  A    between atoms: C1_1  and  C5_5 
REMARK    2  A    between atoms: C5_5  and  C6_6 
REMARK    3  A    between atoms: C5_5  and  O8_8 
ROOT
HETATM    1  C5  UNL     1     -35.963  15.638  -3.728  1.00 20.00     0.186 C 
ENDROOT
BRANCH   1   2
HETATM    2  C1  UNL     1     -36.794  14.426  -4.110  1.00 20.00     0.263 C 
HETATM    3  O7  UNL     1     -37.935  14.218  -3.710  1.00 20.00    -0.304 OA
ENDBRANCH   1   2
BRANCH   1   4
HETATM    4  C6  UNL     1     -34.436  15.364  -3.737  1.00 20.00    -0.019 C 
HETATM    5  C2  UNL     1     -34.146  13.857  -3.597  1.00 20.00     0.017 C 
HETATM    6  C3  UNL     1     -33.786  16.089  -2.539  1.00 20.00     0.017 C 
HETATM    7  C4  UNL     1     -33.777  15.887  -5.027  1.00 20.00     0.017 C 
ENDBRANCH   1   4
BRANCH   1   8
HETATM    8  O8  UNL     1     -36.379  16.059  -2.437  1.00 20.00    -0.388 OA
HETATM    9  H20 UNL     1     -37.337  16.212  -2.487  1.00 20.00     0.210 HD
ENDBRANCH   1   8
TORSDOF 3
ENDMDL
