MODEL 1
REMARK VINA RESULT:      -3.2      0.000      0.000
REMARK  2 active torsions:
REMARK  status: ('A' for Active; 'I' for Inactive)
REMARK    1  A    between atoms: C1_1  and  N7_7 
REMARK    2  A    between atoms: N6_6  and  N8_8 
ROOT
HETATM    1  C1  UNL     1     -33.293   6.317   4.302  1.00 20.00     0.220 C 
HETATM    2  N6  UNL     1     -33.140   6.536   3.033  1.00 20.00    -0.195 NA
ENDROOT
BRANCH   1   3
HETATM    3  N7  UNL     1     -34.316   5.627   4.928  1.00 20.00    -0.383 N 
HETATM    4  C2  UNL     1     -35.407   5.042   4.161  1.00 20.00     0.150 C 
HETATM    5  C3  UNL     1     -34.487   5.678   6.374  1.00 20.00     0.150 C 
ENDBRANCH   1   3
BRANCH   2   6
HETATM    6  N8  UNL     1     -32.014   7.243   2.754  1.00 20.00    -0.216 NA
HETATM    7  C4  UNL     1     -32.210   8.399   1.869  1.00 20.00     0.138 C 
HETATM    8  C5  UNL     1     -31.286   7.680   3.949  1.00 20.00     0.138 C 
ENDBRANCH   2   6
TORSDOF 2
ENDMDL
MODEL 2
REMARK VINA RESULT:      -3.2      0.088      1.243
REMARK  2 active torsions:
REMARK  status: ('A' for Active; 'I' for Inactive)
REMARK    1  A    between atoms: C1_1  and  N7_7 
REMARK    2  A    between atoms: N6_6  and  N8_8 
ROOT
HETATM    1  C1  UNL     1     -33.356   6.413   4.313  1.00 20.00     0.220 C 
HETATM    2  N6  UNL     1     -33.122   6.505   3.042  1.00 20.00    -0.195 NA
ENDROOT
BRANCH   1   3
HETATM    3  N7  UNL     1     -34.403   5.761   4.941  1.00 20.00    -0.383 N 
HETATM    4  C2  UNL     1     -34.457   5.652   6.392  1.00 20.00     0.150 C 
HETATM    5  C3  UNL     1     -35.343   4.943   4.187  1.00 20.00     0.150 C 
ENDBRANCH   1   3
BRANCH   2   6
HETATM    6  N8  UNL     1     -31.996   7.211   2.763  1.00 20.00    -0.216 NA
HETATM    7  C4  UNL     1     -32.186   8.353   1.859  1.00 20.00     0.138 C 
HETATM    8  C5  UNL     1     -31.282   7.669   3.960  1.00 20.00     0.138 C 
ENDBRANCH   2   6
TORSDOF 2
ENDMDL
MODEL 3
REMARK VINA RESULT:      -3.0     11.312     12.351
REMARK  2 active torsions:
REMARK  status: ('A' for Active; 'I' for Inactive)
REMARK    1  A    between atoms: C1_1  and  N7_7 
REMARK    2  A    between atoms: N6_6  and  N8_8 
ROOT
HETATM    1  C1  UNL     1     -36.340  14.818  -3.683  1.00 20.00     0.220 C 
HETATM    2  N6  UNL     1     -37.421  14.104  -3.728  1.00 20.00    -0.195 NA
ENDROOT
BRANCH   1   3
HETATM    3  N7  UNL     1     -35.032  14.393  -3.844  1.00 20.00    -0.383 N 
HETATM    4  C2  UNL     1     -33.920  15.175  -3.321  1.00 20.00     0.150 C 
HETATM    5  C3  UNL     1     -34.698  13.305  -4.752  1.00 20.00     0.150 C 
ENDBRANCH   1   3
BRANCH   2   6
HETATM    6  N8  UNL     1     -38.546  14.840  -3.539  1.00 20.00    -0.216 NA
HETATM    7  C4  UNL     1     -38.332  16.290  -3.443  1.00 20.00     0.138 C 
HETATM    8  C5  UNL     1     -39.589  14.581  -4.537  1.00 20.00     0.138 C 
ENDBRANCH   2   6
TORSDOF 2
ENDMDL
MODEL 4
REMARK VINA RESULT:      -2.9      0.769      4.291
REMARK  2 active torsions:
REMARK  status: ('A' for Active; 'I' for Inactive)
REMARK    1  A    between atoms: C1_1  and  N7_7 
REMARK    2  A    between atoms: N6_6  and  N8_8 
ROOT
HETATM    1  C1  UNL     1     -32.966   6.431   3.516  1.00 20.00     0.220 C 
HETATM    2  N6  UNL     1     -33.524   6.246   4.671  1.00 20.00    -0.195 NA
ENDROOT
BRANCH   1   3
HETATM    3  N7  UNL     1     -32.020   7.381   3.171  1.00 20.00    -0.383 N 
HETATM    4  C2  UNL     1     -31.034   7.844   4.137  1.00 20.00     0.150 C 
HETATM    5  C3  UNL     1     -32.130   8.139   1.932  1.00 20.00     0.150 C 
ENDBRANCH   1   3
BRANCH   2   6
HETATM    6  N8  UNL     1     -34.407   5.214   4.670  1.00 20.00    -0.216 NA
HETATM    7  C4  UNL     1     -34.909   4.823   5.994  1.00 20.00     0.138 C 
HETATM    8  C5  UNL     1     -35.549   5.423   3.774  1.00 20.00     0.138 C 
ENDBRANCH   2   6
TORSDOF 2
ENDMDL
MODEL 5
REMARK VINA RESULT:      -2.9     11.083     11.716
REMARK  2 active torsions:
REMARK  status: ('A' for Active; 'I' for Inactive)
REMARK    1  A    between atoms: C1_1  and  N7_7 
REMARK    2  A    between atoms: N6_6  and  N8_8 
ROOT
HETATM    1  C1  UNL     1     -34.745  15.487  -2.650  1.00 20.00     0.220 C 
HETATM    2  N6  UNL     1     -33.652  16.182  -2.605  1.00 20.00    -0.195 NA
ENDROOT
BRANCH   1   3
HETATM    3  N7  UNL     1     -35.082  14.488  -3.547  1.00 20.00    -0.383 N 
HETATM    4  C2  UNL     1     -34.059  13.651  -4.158  1.00 20.00     0.150 C 
HETATM    5  C3  UNL     1     -36.422  14.401  -4.111  1.00 20.00     0.150 C 
ENDBRANCH   1   3
BRANCH   2   6
HETATM    6  N8  UNL     1     -33.640  17.079  -1.585  1.00 20.00    -0.216 NA
HETATM    7  C4  UNL     1     -33.721  18.487  -1.995  1.00 20.00     0.138 C 
HETATM    8  C5  UNL     1     -34.665  16.822  -0.569  1.00 20.00     0.138 C 
ENDBRANCH   2   6
TORSDOF 2
ENDMDL
MODEL 6
REMARK VINA RESULT:      -2.9     11.361     12.301
REMARK  2 active torsions:
REMARK  status: ('A' for Active; 'I' for Inactive)
REMARK    1  A    between atoms: C1_1  and  N7_7 
REMARK    2  A    between atoms: N6_6  and  N8_8 
ROOT
HETATM    1  C1  UNL     1     -34.200  15.564  -4.269  1.00 20.00     0.220 C 
HETATM    2  N6  UNL     1     -33.677  15.409  -3.093  1.00 20.00    -0.195 NA
ENDROOT
BRANCH   1   3
HETATM    3  N7  UNL     1     -34.354  14.615  -5.264  1.00 20.00    -0.383 N 
HETATM    4  C2  UNL     1     -34.432  15.003  -6.666  1.00 20.00     0.150 C 
HETATM    5  C3  UNL     1     -34.703  13.237  -4.946  1.00 20.00     0.150 C 
ENDBRANCH   1   3
BRANCH   2   6
HETATM    6  N8  UNL     1     -33.692  16.549  -2.356  1.00 20.00    -0.216 NA
HETATM    7  C4  UNL     1     -33.957  17.778  -3.115  1.00 20.00     0.138 C 
HETATM    8  C5  UNL     1     -34.607  16.494  -1.212  1.00 20.00     0.138 C 
ENDBRANCH   2   6
TORSDOF 2
ENDMDL
MODEL 7
REMARK VINA RESULT:      -2.9     11.149     11.808
REMARK  2 active torsions:
REMARK  status: ('A' for Active; 'I' for Inactive)
REMARK    1  A    between atoms: C1_1  and  N7_7 
REMARK    2  A    between atoms: N6_6  and  N8_8 
ROOT
HETATM    1  C1  UNL     1     -34.802  15.796  -2.177  1.00 20.00     0.220 C 
HETATM    2  N6  UNL     1     -34.304  15.251  -3.242  1.00 20.00    -0.195 NA
ENDROOT
BRANCH   1   3
HETATM    3  N7  UNL     1     -34.351  16.920  -1.505  1.00 20.00    -0.383 N 
HETATM    4  C2  UNL     1     -34.711  17.157  -0.114  1.00 20.00     0.150 C 
HETATM    5  C3  UNL     1     -33.728  18.026  -2.218  1.00 20.00     0.150 C 
ENDBRANCH   1   3
BRANCH   2   6
HETATM    6  N8  UNL     1     -35.001  14.158  -3.649  1.00 20.00    -0.216 NA
HETATM    7  C4  UNL     1     -36.382  14.423  -4.073  1.00 20.00     0.138 C 
HETATM    8  C5  UNL     1     -34.322  13.390  -4.698  1.00 20.00     0.138 C 
ENDBRANCH   2   6
TORSDOF 2
ENDMDL
MODEL 8
REMARK VINA RESULT:      -2.8      9.880     11.100
REMARK  2 active torsions:
REMARK  status: ('A' for Active; 'I' for Inactive)
REMARK    1  A    between atoms: C1_1  and  N7_7 
REMARK    2  A    between atoms: N6_6  and  N8_8 
ROOT
HETATM    1  C1  UNL     1     -41.561   3.618  -2.445  1.00 20.00     0.220 C 
HETATM    2  N6  UNL     1     -42.046   4.819  -2.489  1.00 20.00    -0.195 NA
ENDROOT
BRANCH   1   3
HETATM    3  N7  UNL     1     -42.107   2.460  -2.971  1.00 20.00    -0.383 N 
HETATM    4  C2  UNL     1     -43.290   1.852  -2.380  1.00 20.00     0.150 C 
HETATM    5  C3  UNL     1     -41.386   1.666  -3.957  1.00 20.00     0.150 C 
ENDBRANCH   1   3
BRANCH   2   6
HETATM    6  N8  UNL     1     -41.247   5.732  -1.878  1.00 20.00    -0.216 NA
HETATM    7  C4  UNL     1     -41.767   7.106  -1.869  1.00 20.00     0.138 C 
HETATM    8  C5  UNL     1     -40.872   5.359  -0.511  1.00 20.00     0.138 C 
ENDBRANCH   2   6
TORSDOF 2
ENDMDL
MODEL 9
REMARK VINA RESULT:      -2.8     11.245     12.160
REMARK  2 active torsions:
REMARK  status: ('A' for Active; 'I' for Inactive)
REMARK    1  A    between atoms: C1_1  and  N7_7 
REMARK    2  A    between atoms: N6_6  and  N8_8 
ROOT
HETATM    1  C1  UNL     1     -33.780  16.234  -3.010  1.00 20.00     0.220 C 
HETATM    2  N6  UNL     1     -34.463  15.159  -3.253  1.00 20.00    -0.195 NA
ENDROOT
BRANCH   1   3
HETATM    3  N7  UNL     1     -33.903  17.096  -1.934  1.00 20.00    -0.383 N 
HETATM    4  C2  UNL     1     -34.599  16.687  -0.721  1.00 20.00     0.150 C 
HETATM    5  C3  UNL     1     -33.582  18.510  -2.059  1.00 20.00     0.150 C 
ENDBRANCH   1   3
BRANCH   2   6
HETATM    6  N8  UNL     1     -34.078  14.538  -4.398  1.00 20.00    -0.216 NA
HETATM    7  C4  UNL     1     -34.724  13.244  -4.651  1.00 20.00     0.138 C 
HETATM    8  C5  UNL     1     -34.214  15.377  -5.593  1.00 20.00     0.138 C 
ENDBRANCH   2   6
TORSDOF 2
ENDMDL
