MODEL 1
REMARK VINA RESULT:      -5.3      0.000      0.000
REMARK  0 active torsions:
REMARK  status: ('A' for Active; 'I' for Inactive)
ROOT
HETATM    1  C1  UNL     1     -36.890  15.098  -3.551  1.00 20.00     0.064 C 
HETATM    2  C2  UNL     1     -33.607  16.739  -4.157  1.00 20.00     0.011 C 
HETATM    3  C3  UNL     1     -33.162  14.437  -3.753  1.00 20.00     0.010 C 
HETATM    4  C4  UNL     1     -35.735  15.994  -3.493  1.00 20.00     0.101 C 
HETATM    5  C5  UNL     1     -33.382  15.762  -2.998  1.00 20.00    -0.009 C 
HETATM    6  C6  UNL     1     -34.796  15.942  -4.720  1.00 20.00     0.007 C 
HETATM    7  C7  UNL     1     -34.096  14.580  -4.973  1.00 20.00    -0.013 C 
HETATM    8  C8  UNL     1     -34.774  15.701  -2.315  1.00 20.00     0.003 C 
HETATM    9  C9  UNL     1     -34.975  13.364  -5.208  1.00 20.00     0.010 C 
HETATM   10  C10 UNL     1     -34.913  16.730  -1.195  1.00 20.00     0.011 C 
HETATM   11  N11 UNL     1     -37.806  14.387  -3.597  1.00 20.00    -0.197 NA
ENDROOT
TORSDOF 0
ENDMDL
MODEL 2
REMARK VINA RESULT:      -5.1      1.000      2.975
REMARK  0 active torsions:
REMARK  status: ('A' for Active; 'I' for Inactive)
ROOT
HETATM    1  C1  UNL     1     -36.345  14.391  -4.033  1.00 20.00     0.064 C 
HETATM    2  C2  UNL     1     -32.675  14.995  -4.003  1.00 20.00     0.011 C 
HETATM    3  C3  UNL     1     -33.723  17.096  -3.618  1.00 20.00     0.010 C 
HETATM    4  C4  UNL     1     -34.926  14.437  -4.385  1.00 20.00     0.101 C 
HETATM    5  C5  UNL     1     -33.290  16.171  -4.770  1.00 20.00    -0.009 C 
HETATM    6  C6  UNL     1     -33.963  14.721  -3.209  1.00 20.00     0.007 C 
HETATM    7  C7  UNL     1     -34.137  16.099  -2.517  1.00 20.00    -0.013 C 
HETATM    8  C8  UNL     1     -34.567  15.551  -5.397  1.00 20.00     0.003 C 
HETATM    9  C9  UNL     1     -35.486  16.413  -1.891  1.00 20.00     0.010 C 
HETATM   10  C10 UNL     1     -34.313  14.994  -6.795  1.00 20.00     0.011 C 
HETATM   11  N11 UNL     1     -37.471  14.354  -3.755  1.00 20.00    -0.197 NA
ENDROOT
TORSDOF 0
ENDMDL
MODEL 3
REMARK VINA RESULT:      -5.0      1.557      2.092
REMARK  0 active torsions:
REMARK  status: ('A' for Active; 'I' for Inactive)
ROOT
HETATM    1  C1  UNL     1     -35.195  13.891  -4.075  1.00 20.00     0.064 C 
HETATM    2  C2  UNL     1     -35.654  17.575  -4.319  1.00 20.00     0.011 C 
HETATM    3  C3  UNL     1     -33.562  17.071  -5.336  1.00 20.00     0.010 C 
HETATM    4  C4  UNL     1     -35.435  15.301  -3.766  1.00 20.00     0.101 C 
HETATM    5  C5  UNL     1     -34.181  17.356  -3.955  1.00 20.00    -0.009 C 
HETATM    6  C6  UNL     1     -35.791  16.192  -4.978  1.00 20.00     0.007 C 
HETATM    7  C7  UNL     1     -34.691  16.315  -6.067  1.00 20.00    -0.013 C 
HETATM    8  C8  UNL     1     -34.211  16.026  -3.157  1.00 20.00     0.003 C 
HETATM    9  C9  UNL     1     -34.224  15.041  -6.749  1.00 20.00     0.010 C 
HETATM   10  C10 UNL     1     -34.370  16.256  -1.656  1.00 20.00     0.011 C 
HETATM   11  N11 UNL     1     -35.004  12.773  -4.320  1.00 20.00    -0.197 NA
ENDROOT
TORSDOF 0
ENDMDL
MODEL 4
REMARK VINA RESULT:      -4.8      1.912      3.572
REMARK  0 active torsions:
REMARK  status: ('A' for Active; 'I' for Inactive)
ROOT
HETATM    1  C1  UNL     1     -35.246  17.241  -5.020  1.00 20.00     0.064 C 
HETATM    2  C2  UNL     1     -35.700  13.620  -4.297  1.00 20.00     0.011 C 
HETATM    3  C3  UNL     1     -33.442  14.152  -3.766  1.00 20.00     0.010 C 
HETATM    4  C4  UNL     1     -35.562  15.816  -5.123  1.00 20.00     0.101 C 
HETATM    5  C5  UNL     1     -34.325  13.748  -4.961  1.00 20.00    -0.009 C 
HETATM    6  C6  UNL     1     -35.685  15.067  -3.776  1.00 20.00     0.007 C 
HETATM    7  C7  UNL     1     -34.394  15.018  -2.915  1.00 20.00    -0.013 C 
HETATM    8  C8  UNL     1     -34.492  14.990  -5.877  1.00 20.00     0.003 C 
HETATM    9  C9  UNL     1     -33.784  16.338  -2.477  1.00 20.00     0.010 C 
HETATM   10  C10 UNL     1     -34.947  14.613  -7.284  1.00 20.00     0.011 C 
HETATM   11  N11 UNL     1     -34.995  18.370  -4.938  1.00 20.00    -0.197 NA
ENDROOT
TORSDOF 0
ENDMDL
MODEL 5
REMARK VINA RESULT:      -4.8      1.581      1.918
REMARK  0 active torsions:
REMARK  status: ('A' for Active; 'I' for Inactive)
ROOT
HETATM    1  C1  UNL     1     -35.684  17.236  -4.681  1.00 20.00     0.064 C 
HETATM    2  C2  UNL     1     -32.876  14.955  -3.818  1.00 20.00     0.011 C 
HETATM    3  C3  UNL     1     -34.775  13.584  -4.234  1.00 20.00     0.010 C 
HETATM    4  C4  UNL     1     -34.557  16.586  -4.013  1.00 20.00     0.101 C 
HETATM    5  C5  UNL     1     -34.110  14.393  -3.105  1.00 20.00    -0.009 C 
HETATM    6  C6  UNL     1     -33.709  15.652  -4.907  1.00 20.00     0.007 C 
HETATM    7  C7  UNL     1     -34.454  14.421  -5.489  1.00 20.00    -0.013 C 
HETATM    8  C8  UNL     1     -34.972  15.657  -2.847  1.00 20.00     0.003 C 
HETATM    9  C9  UNL     1     -35.663  14.676  -6.373  1.00 20.00     0.010 C 
HETATM   10  C10 UNL     1     -34.683  16.284  -1.485  1.00 20.00     0.011 C 
HETATM   11  N11 UNL     1     -36.579  17.752  -5.210  1.00 20.00    -0.197 NA
ENDROOT
TORSDOF 0
ENDMDL
MODEL 6
REMARK VINA RESULT:      -4.8     11.189     12.844
REMARK  0 active torsions:
REMARK  status: ('A' for Active; 'I' for Inactive)
ROOT
HETATM    1  C1  UNL     1     -43.227   6.075  -3.170  1.00 20.00     0.064 C 
HETATM    2  C2  UNL     1     -42.447   4.331   0.022  1.00 20.00     0.011 C 
HETATM    3  C3  UNL     1     -40.633   5.807  -0.418  1.00 20.00     0.010 C 
HETATM    4  C4  UNL     1     -42.991   5.057  -2.147  1.00 20.00     0.101 C 
HETATM    5  C5  UNL     1     -41.130   4.390  -0.760  1.00 20.00    -0.009 C 
HETATM    6  C6  UNL     1     -43.029   5.566  -0.687  1.00 20.00     0.007 C 
HETATM    7  C7  UNL     1     -41.945   6.612  -0.313  1.00 20.00    -0.013 C 
HETATM    8  C8  UNL     1     -41.599   4.387  -2.239  1.00 20.00     0.003 C 
HETATM    9  C9  UNL     1     -41.920   7.916  -1.091  1.00 20.00     0.010 C 
HETATM   10  C10 UNL     1     -41.680   2.976  -2.816  1.00 20.00     0.011 C 
HETATM   11  N11 UNL     1     -43.414   6.883  -3.982  1.00 20.00    -0.197 NA
ENDROOT
TORSDOF 0
ENDMDL
MODEL 7
REMARK VINA RESULT:      -4.7      1.976      3.125
REMARK  0 active torsions:
REMARK  status: ('A' for Active; 'I' for Inactive)
ROOT
HETATM    1  C1  UNL     1     -37.228  14.683  -4.136  1.00 20.00     0.064 C 
HETATM    2  C2  UNL     1     -34.478  16.097  -6.205  1.00 20.00     0.011 C 
HETATM    3  C3  UNL     1     -35.655  14.554  -7.583  1.00 20.00     0.010 C 
HETATM    4  C4  UNL     1     -35.920  15.116  -4.629  1.00 20.00     0.101 C 
HETATM    5  C5  UNL     1     -34.528  14.601  -6.535  1.00 20.00    -0.009 C 
HETATM    6  C6  UNL     1     -35.956  16.146  -5.782  1.00 20.00     0.007 C 
HETATM    7  C7  UNL     1     -36.618  15.658  -7.098  1.00 20.00    -0.013 C 
HETATM    8  C8  UNL     1     -35.064  13.970  -5.222  1.00 20.00     0.003 C 
HETATM    9  C9  UNL     1     -38.069  15.213  -7.039  1.00 20.00     0.010 C 
HETATM   10  C10 UNL     1     -33.938  13.551  -4.280  1.00 20.00     0.011 C 
HETATM   11  N11 UNL     1     -38.264  14.340  -3.745  1.00 20.00    -0.197 NA
ENDROOT
TORSDOF 0
ENDMDL
MODEL 8
REMARK VINA RESULT:      -4.7      1.449      2.658
REMARK  0 active torsions:
REMARK  status: ('A' for Active; 'I' for Inactive)
ROOT
HETATM    1  C1  UNL     1     -35.031  13.587  -4.921  1.00 20.00     0.064 C 
HETATM    2  C2  UNL     1     -35.392  17.216  -4.191  1.00 20.00     0.011 C 
HETATM    3  C3  UNL     1     -34.331  16.235  -2.301  1.00 20.00     0.010 C 
HETATM    4  C4  UNL     1     -35.565  14.935  -4.729  1.00 20.00     0.101 C 
HETATM    5  C5  UNL     1     -35.732  16.488  -2.887  1.00 20.00    -0.009 C 
HETATM    6  C6  UNL     1     -34.512  16.067  -4.711  1.00 20.00     0.007 C 
HETATM    7  C7  UNL     1     -33.472  15.998  -3.561  1.00 20.00    -0.013 C 
HETATM    8  C8  UNL     1     -36.300  15.131  -3.381  1.00 20.00     0.003 C 
HETATM    9  C9  UNL     1     -32.595  14.761  -3.472  1.00 20.00     0.010 C 
HETATM   10  C10 UNL     1     -37.816  15.168  -3.555  1.00 20.00     0.011 C 
HETATM   11  N11 UNL     1     -34.608  12.517  -5.074  1.00 20.00    -0.197 NA
ENDROOT
TORSDOF 0
ENDMDL
MODEL 9
REMARK VINA RESULT:      -4.7      2.180      3.703
REMARK  0 active torsions:
REMARK  status: ('A' for Active; 'I' for Inactive)
ROOT
HETATM    1  C1  UNL     1     -35.015  13.575  -5.261  1.00 20.00     0.064 C 
HETATM    2  C2  UNL     1     -34.720  16.527  -7.506  1.00 20.00     0.011 C 
HETATM    3  C3  UNL     1     -34.761  17.358  -5.276  1.00 20.00     0.010 C 
HETATM    4  C4  UNL     1     -35.230  14.564  -6.318  1.00 20.00     0.101 C 
HETATM    5  C5  UNL     1     -35.712  16.929  -6.409  1.00 20.00    -0.009 C 
HETATM    6  C6  UNL     1     -34.022  15.482  -6.619  1.00 20.00     0.007 C 
HETATM    7  C7  UNL     1     -33.567  16.397  -5.451  1.00 20.00    -0.013 C 
HETATM    8  C8  UNL     1     -36.359  15.576  -6.009  1.00 20.00     0.003 C 
HETATM    9  C9  UNL     1     -33.131  15.731  -4.157  1.00 20.00     0.010 C 
HETATM   10  C10 UNL     1     -37.625  15.282  -6.810  1.00 20.00     0.011 C 
HETATM   11  N11 UNL     1     -34.846  12.792  -4.423  1.00 20.00    -0.197 NA
ENDROOT
TORSDOF 0
ENDMDL
