MODEL 1
REMARK VINA RESULT:      -5.3      0.000      0.000
REMARK  1 active torsions:
REMARK  status: ('A' for Active; 'I' for Inactive)
REMARK    1  A    between atoms: C2_2  and  C4_4 
ROOT
HETATM    1  C1  UNL     1     -34.031   6.312   6.370  1.00 20.00     0.146 C 
HETATM    2  C4  UNL     1     -34.618   5.080   5.843  1.00 20.00     0.388 C 
HETATM    3  N5  UNL     1     -33.565   7.287   6.792  1.00 20.00    -0.190 NA
HETATM    4  F9  UNL     1     -33.732   4.066   6.041  1.00 20.00    -0.181 F 
HETATM    5  F10 UNL     1     -35.711   4.775   6.591  1.00 20.00    -0.181 F 
ENDROOT
BRANCH   2   6
HETATM    6  C2  UNL     1     -34.932   5.217   4.390  1.00 20.00     0.247 C 
HETATM    7  C3  UNL     1     -34.036   5.464   3.428  1.00 20.00     0.308 C 
HETATM    8  F7  UNL     1     -34.416   5.569   2.137  1.00 20.00    -0.170 F 
HETATM    9  F8  UNL     1     -32.734   5.612   3.753  1.00 20.00    -0.170 F 
HETATM   10  F6  UNL     1     -36.229   5.108   4.015  1.00 20.00    -0.197 F 
ENDBRANCH   2   6
TORSDOF 1
ENDMDL
MODEL 2
REMARK VINA RESULT:      -5.2      1.819      3.333
REMARK  1 active torsions:
REMARK  status: ('A' for Active; 'I' for Inactive)
REMARK    1  A    between atoms: C2_2  and  C4_4 
ROOT
HETATM    1  C1  UNL     1     -33.056   6.133   3.491  1.00 20.00     0.146 C 
HETATM    2  C4  UNL     1     -34.479   5.825   3.631  1.00 20.00     0.388 C 
HETATM    3  N5  UNL     1     -31.928   6.379   3.376  1.00 20.00    -0.190 NA
HETATM    4  F9  UNL     1     -35.159   6.997   3.759  1.00 20.00    -0.181 F 
HETATM    5  F10 UNL     1     -34.911   5.266   2.470  1.00 20.00    -0.181 F 
ENDROOT
BRANCH   2   6
HETATM    6  C2  UNL     1     -34.723   4.954   4.818  1.00 20.00     0.247 C 
HETATM    7  C3  UNL     1     -34.591   5.334   6.093  1.00 20.00     0.308 C 
HETATM    8  F7  UNL     1     -34.836   4.472   7.103  1.00 20.00    -0.170 F 
HETATM    9  F8  UNL     1     -34.206   6.597   6.375  1.00 20.00    -0.170 F 
HETATM   10  F6  UNL     1     -35.081   3.667   4.589  1.00 20.00    -0.197 F 
ENDBRANCH   2   6
TORSDOF 1
ENDMDL
MODEL 3
REMARK VINA RESULT:      -5.2      2.185      3.063
REMARK  1 active torsions:
REMARK  status: ('A' for Active; 'I' for Inactive)
REMARK    1  A    between atoms: C2_2  and  C4_4 
ROOT
HETATM    1  C1  UNL     1     -34.915   4.494   4.742  1.00 20.00     0.146 C 
HETATM    2  C4  UNL     1     -34.550   5.506   3.752  1.00 20.00     0.388 C 
HETATM    3  N5  UNL     1     -35.206   3.690   5.526  1.00 20.00    -0.190 NA
HETATM    4  F9  UNL     1     -34.163   4.869   2.613  1.00 20.00    -0.181 F 
HETATM    5  F10 UNL     1     -35.669   6.207   3.426  1.00 20.00    -0.181 F 
ENDROOT
BRANCH   2   6
HETATM    6  C2  UNL     1     -33.449   6.378   4.257  1.00 20.00     0.247 C 
HETATM    7  C3  UNL     1     -32.440   6.851   3.517  1.00 20.00     0.308 C 
HETATM    8  F7  UNL     1     -31.488   7.636   4.064  1.00 20.00    -0.170 F 
HETATM    9  F8  UNL     1     -32.372   6.537   2.206  1.00 20.00    -0.170 F 
HETATM   10  F6  UNL     1     -33.455   6.696   5.574  1.00 20.00    -0.197 F 
ENDBRANCH   2   6
TORSDOF 1
ENDMDL
MODEL 4
REMARK VINA RESULT:      -5.2      1.866      3.438
REMARK  1 active torsions:
REMARK  status: ('A' for Active; 'I' for Inactive)
REMARK    1  A    between atoms: C2_2  and  C4_4 
ROOT
HETATM    1  C1  UNL     1     -32.800   6.681   3.550  1.00 20.00     0.146 C 
HETATM    2  C4  UNL     1     -34.101   6.041   3.742  1.00 20.00     0.388 C 
HETATM    3  N5  UNL     1     -31.769   7.190   3.395  1.00 20.00    -0.190 NA
HETATM    4  F9  UNL     1     -35.070   6.931   3.398  1.00 20.00    -0.181 F 
HETATM    5  F10 UNL     1     -34.205   5.013   2.857  1.00 20.00    -0.181 F 
ENDROOT
BRANCH   2   6
HETATM    6  C2  UNL     1     -34.279   5.603   5.158  1.00 20.00     0.247 C 
HETATM    7  C3  UNL     1     -34.823   4.444   5.543  1.00 20.00     0.308 C 
HETATM    8  F7  UNL     1     -34.942   4.135   6.852  1.00 20.00    -0.170 F 
HETATM    9  F8  UNL     1     -35.263   3.573   4.611  1.00 20.00    -0.170 F 
HETATM   10  F6  UNL     1     -33.883   6.457   6.133  1.00 20.00    -0.197 F 
ENDBRANCH   2   6
TORSDOF 1
ENDMDL
MODEL 5
REMARK VINA RESULT:      -5.1      2.244      3.449
REMARK  1 active torsions:
REMARK  status: ('A' for Active; 'I' for Inactive)
REMARK    1  A    between atoms: C2_2  and  C4_4 
ROOT
HETATM    1  C1  UNL     1     -32.337   7.554   2.542  1.00 20.00     0.146 C 
HETATM    2  C4  UNL     1     -32.502   6.519   3.563  1.00 20.00     0.388 C 
HETATM    3  N5  UNL     1     -32.202   8.375   1.734  1.00 20.00    -0.190 NA
HETATM    4  F9  UNL     1     -31.510   5.602   3.406  1.00 20.00    -0.181 F 
HETATM    5  F10 UNL     1     -32.299   7.087   4.782  1.00 20.00    -0.181 F 
ENDROOT
BRANCH   2   6
HETATM    6  C2  UNL     1     -33.838   5.862   3.447  1.00 20.00     0.247 C 
HETATM    7  C3  UNL     1     -34.703   5.695   4.453  1.00 20.00     0.308 C 
HETATM    8  F7  UNL     1     -35.892   5.087   4.251  1.00 20.00    -0.170 F 
HETATM    9  F8  UNL     1     -34.383   6.137   5.687  1.00 20.00    -0.170 F 
HETATM   10  F6  UNL     1     -34.193   5.372   2.235  1.00 20.00    -0.197 F 
ENDBRANCH   2   6
TORSDOF 1
ENDMDL
MODEL 6
REMARK VINA RESULT:      -5.1      2.103      3.750
REMARK  1 active torsions:
REMARK  status: ('A' for Active; 'I' for Inactive)
REMARK    1  A    between atoms: C2_2  and  C4_4 
ROOT
HETATM    1  C1  UNL     1     -32.508   7.348   2.720  1.00 20.00     0.146 C 
HETATM    2  C4  UNL     1     -32.903   6.042   3.246  1.00 20.00     0.388 C 
HETATM    3  N5  UNL     1     -32.193   8.382   2.300  1.00 20.00    -0.190 NA
HETATM    4  F9  UNL     1     -33.820   5.500   2.399  1.00 20.00    -0.181 F 
HETATM    5  F10 UNL     1     -31.821   5.219   3.203  1.00 20.00    -0.181 F 
ENDROOT
BRANCH   2   6
HETATM    6  C2  UNL     1     -33.478   6.169   4.618  1.00 20.00     0.247 C 
HETATM    7  C3  UNL     1     -34.492   5.441   5.099  1.00 20.00     0.308 C 
HETATM    8  F7  UNL     1     -34.944   5.627   6.357  1.00 20.00    -0.170 F 
HETATM    9  F8  UNL     1     -35.072   4.509   4.315  1.00 20.00    -0.170 F 
HETATM   10  F6  UNL     1     -32.951   7.113   5.434  1.00 20.00    -0.197 F 
ENDBRANCH   2   6
TORSDOF 1
ENDMDL
MODEL 7
REMARK VINA RESULT:      -5.1      2.101      3.542
REMARK  1 active torsions:
REMARK  status: ('A' for Active; 'I' for Inactive)
REMARK    1  A    between atoms: C2_2  and  C4_4 
ROOT
HETATM    1  C1  UNL     1     -34.908   4.321   4.641  1.00 20.00     0.146 C 
HETATM    2  C4  UNL     1     -34.562   5.581   3.985  1.00 20.00     0.388 C 
HETATM    3  N5  UNL     1     -35.185   3.320   5.159  1.00 20.00    -0.190 NA
HETATM    4  F9  UNL     1     -33.976   5.294   2.790  1.00 20.00    -0.181 F 
HETATM    5  F10 UNL     1     -35.715   6.238   3.689  1.00 20.00    -0.181 F 
ENDROOT
BRANCH   2   6
HETATM    6  C2  UNL     1     -33.637   6.390   4.833  1.00 20.00     0.247 C 
HETATM    7  C3  UNL     1     -33.794   6.618   6.142  1.00 20.00     0.308 C 
HETATM    8  F7  UNL     1     -32.902   7.364   6.827  1.00 20.00    -0.170 F 
HETATM    9  F8  UNL     1     -34.860   6.097   6.785  1.00 20.00    -0.170 F 
HETATM   10  F6  UNL     1     -32.569   6.962   4.227  1.00 20.00    -0.197 F 
ENDBRANCH   2   6
TORSDOF 1
ENDMDL
MODEL 8
REMARK VINA RESULT:      -4.7     12.185     12.902
REMARK  1 active torsions:
REMARK  status: ('A' for Active; 'I' for Inactive)
REMARK    1  A    between atoms: C2_2  and  C4_4 
ROOT
HETATM    1  C1  UNL     1     -37.154  14.738  -3.696  1.00 20.00     0.146 C 
HETATM    2  C4  UNL     1     -35.787  15.240  -3.560  1.00 20.00     0.388 C 
HETATM    3  N5  UNL     1     -38.239  14.343  -3.803  1.00 20.00    -0.190 NA
HETATM    4  F9  UNL     1     -35.585  16.192  -4.510  1.00 20.00    -0.181 F 
HETATM    5  F10 UNL     1     -35.684  15.878  -2.363  1.00 20.00    -0.181 F 
ENDROOT
BRANCH   2   6
HETATM    6  C2  UNL     1     -34.793  14.136  -3.713  1.00 20.00     0.247 C 
HETATM    7  C3  UNL     1     -33.472  14.262  -3.551  1.00 20.00     0.308 C 
HETATM    8  F7  UNL     1     -32.650  13.203  -3.711  1.00 20.00    -0.170 F 
HETATM    9  F8  UNL     1     -32.953  15.465  -3.226  1.00 20.00    -0.170 F 
HETATM   10  F6  UNL     1     -35.261  12.916  -4.070  1.00 20.00    -0.197 F 
ENDBRANCH   2   6
TORSDOF 1
ENDMDL
MODEL 9
REMARK VINA RESULT:      -4.6      2.129      2.699
REMARK  1 active torsions:
REMARK  status: ('A' for Active; 'I' for Inactive)
REMARK    1  A    between atoms: C2_2  and  C4_4 
ROOT
HETATM    1  C1  UNL     1     -34.945   4.518   5.015  1.00 20.00     0.146 C 
HETATM    2  C4  UNL     1     -34.957   5.712   4.172  1.00 20.00     0.388 C 
HETATM    3  N5  UNL     1     -34.939   3.571   5.686  1.00 20.00    -0.190 NA
HETATM    4  F9  UNL     1     -36.159   5.775   3.537  1.00 20.00    -0.181 F 
HETATM    5  F10 UNL     1     -34.903   6.805   4.980  1.00 20.00    -0.181 F 
ENDROOT
BRANCH   2   6
HETATM    6  C2  UNL     1     -33.847   5.676   3.175  1.00 20.00     0.247 C 
HETATM    7  C3  UNL     1     -32.660   6.275   3.322  1.00 20.00     0.308 C 
HETATM    8  F7  UNL     1     -31.714   6.185   2.363  1.00 20.00    -0.170 F 
HETATM    9  F8  UNL     1     -32.406   6.983   4.443  1.00 20.00    -0.170 F 
HETATM   10  F6  UNL     1     -34.064   5.005   2.019  1.00 20.00    -0.197 F 
ENDBRANCH   2   6
TORSDOF 1
ENDMDL
