MODEL 1
REMARK VINA RESULT:      -5.5      0.000      0.000
REMARK  0 active torsions:
REMARK  status: ('A' for Active; 'I' for Inactive)
ROOT
HETATM    1  C1  UNL     1     -34.617  15.795  -1.851  1.00 20.00     0.013 A 
HETATM    2  C2  UNL     1     -34.338  17.072  -1.362  1.00 20.00     0.043 A 
HETATM    3  C3  UNL     1     -33.604  17.713  -3.549  1.00 20.00     0.050 A 
HETATM    4  C4  UNL     1     -34.406  15.428  -3.203  1.00 20.00    -0.020 A 
HETATM    5  C5  UNL     1     -33.894  16.429  -4.058  1.00 20.00    -0.046 A 
HETATM    6  C6  UNL     1     -33.827  18.034  -2.214  1.00 20.00     0.117 A 
HETATM    7  C7  UNL     1     -33.611  16.190  -5.521  1.00 20.00     0.039 C 
HETATM    8  C8  UNL     1     -34.801  15.603  -6.272  1.00 20.00     0.007 C 
HETATM    9  C9  UNL     1     -34.782  14.085  -6.288  1.00 20.00     0.035 C 
HETATM   10  C10 UNL     1     -34.723  13.998  -3.584  1.00 20.00     0.184 A 
HETATM   11  C11 UNL     1     -34.947  13.426  -4.964  1.00 20.00     0.156 A 
HETATM   12  O12 UNL     1     -33.702  13.258  -4.264  1.00 20.00    -0.370 OA
HETATM   13  F13 UNL     1     -33.551  19.263  -1.763  1.00 20.00    -0.206 F 
ENDROOT
TORSDOF 0
ENDMDL
MODEL 2
REMARK VINA RESULT:      -5.2      3.004      4.876
REMARK  0 active torsions:
REMARK  status: ('A' for Active; 'I' for Inactive)
ROOT
HETATM    1  C1  UNL     1     -36.564  15.191  -4.011  1.00 20.00     0.013 A 
HETATM    2  C2  UNL     1     -35.875  14.095  -4.533  1.00 20.00     0.043 A 
HETATM    3  C3  UNL     1     -33.956  14.734  -3.250  1.00 20.00     0.050 A 
HETATM    4  C4  UNL     1     -35.982  16.096  -3.090  1.00 20.00    -0.020 A 
HETATM    5  C5  UNL     1     -34.648  15.838  -2.706  1.00 20.00    -0.046 A 
HETATM    6  C6  UNL     1     -34.565  13.867  -4.152  1.00 20.00     0.117 A 
HETATM    7  C7  UNL     1     -33.890  16.713  -1.738  1.00 20.00     0.039 C 
HETATM    8  C8  UNL     1     -34.637  16.942  -0.429  1.00 20.00     0.007 C 
HETATM    9  C9  UNL     1     -35.505  18.186  -0.469  1.00 20.00     0.035 C 
HETATM   10  C10 UNL     1     -36.839  17.257  -2.633  1.00 20.00     0.184 A 
HETATM   11  C11 UNL     1     -36.645  18.144  -1.426  1.00 20.00     0.156 A 
HETATM   12  O12 UNL     1     -36.279  18.571  -2.750  1.00 20.00    -0.370 OA
HETATM   13  F13 UNL     1     -33.887  12.824  -4.644  1.00 20.00    -0.206 F 
ENDROOT
TORSDOF 0
ENDMDL
MODEL 3
REMARK VINA RESULT:      -5.2      1.469      2.529
REMARK  0 active torsions:
REMARK  status: ('A' for Active; 'I' for Inactive)
ROOT
HETATM    1  C1  UNL     1     -33.718  17.798  -3.505  1.00 20.00     0.013 A 
HETATM    2  C2  UNL     1     -33.689  17.957  -2.119  1.00 20.00     0.043 A 
HETATM    3  C3  UNL     1     -34.804  15.849  -1.889  1.00 20.00     0.050 A 
HETATM    4  C4  UNL     1     -34.285  16.664  -4.136  1.00 20.00    -0.020 A 
HETATM    5  C5  UNL     1     -34.827  15.673  -3.289  1.00 20.00    -0.046 A 
HETATM    6  C6  UNL     1     -34.236  16.978  -1.307  1.00 20.00     0.117 A 
HETATM    7  C7  UNL     1     -35.470  14.411  -3.811  1.00 20.00     0.039 C 
HETATM    8  C8  UNL     1     -34.581  13.648  -4.788  1.00 20.00     0.007 C 
HETATM    9  C9  UNL     1     -34.824  14.057  -6.229  1.00 20.00     0.035 C 
HETATM   10  C10 UNL     1     -34.274  16.643  -5.650  1.00 20.00     0.184 A 
HETATM   11  C11 UNL     1     -34.458  15.459  -6.570  1.00 20.00     0.156 A 
HETATM   12  O12 UNL     1     -35.521  16.393  -6.311  1.00 20.00    -0.370 OA
HETATM   13  F13 UNL     1     -34.220  17.114   0.023  1.00 20.00    -0.206 F 
ENDROOT
TORSDOF 0
ENDMDL
MODEL 4
REMARK VINA RESULT:      -4.8      2.879      3.272
REMARK  0 active torsions:
REMARK  status: ('A' for Active; 'I' for Inactive)
ROOT
HETATM    1  C1  UNL     1     -35.301  15.666  -2.585  1.00 20.00     0.013 A 
HETATM    2  C2  UNL     1     -33.907  15.632  -2.621  1.00 20.00     0.043 A 
HETATM    3  C3  UNL     1     -34.018  14.915  -4.904  1.00 20.00     0.050 A 
HETATM    4  C4  UNL     1     -36.107  15.331  -3.700  1.00 20.00    -0.020 A 
HETATM    5  C5  UNL     1     -35.429  14.958  -4.882  1.00 20.00    -0.046 A 
HETATM    6  C6  UNL     1     -33.263  15.253  -3.786  1.00 20.00     0.117 A 
HETATM    7  C7  UNL     1     -36.148  14.569  -6.150  1.00 20.00     0.039 C 
HETATM    8  C8  UNL     1     -37.174  15.605  -6.597  1.00 20.00     0.007 C 
HETATM    9  C9  UNL     1     -38.557  15.327  -6.037  1.00 20.00     0.035 C 
HETATM   10  C10 UNL     1     -37.607  15.382  -3.504  1.00 20.00     0.184 A 
HETATM   11  C11 UNL     1     -38.687  15.440  -4.559  1.00 20.00     0.156 A 
HETATM   12  O12 UNL     1     -38.357  14.218  -3.874  1.00 20.00    -0.370 OA
HETATM   13  F13 UNL     1     -31.927  15.211  -3.840  1.00 20.00    -0.206 F 
ENDROOT
TORSDOF 0
ENDMDL
MODEL 5
REMARK VINA RESULT:      -4.8      2.759      4.849
REMARK  0 active torsions:
REMARK  status: ('A' for Active; 'I' for Inactive)
ROOT
HETATM    1  C1  UNL     1     -34.520  16.246  -5.550  1.00 20.00     0.013 A 
HETATM    2  C2  UNL     1     -34.452  14.872  -5.783  1.00 20.00     0.043 A 
HETATM    3  C3  UNL     1     -34.209  14.517  -3.427  1.00 20.00     0.050 A 
HETATM    4  C4  UNL     1     -34.439  16.809  -4.252  1.00 20.00    -0.020 A 
HETATM    5  C5  UNL     1     -34.289  15.904  -3.178  1.00 20.00    -0.046 A 
HETATM    6  C6  UNL     1     -34.293  14.004  -4.718  1.00 20.00     0.117 A 
HETATM    7  C7  UNL     1     -34.183  16.351  -1.740  1.00 20.00     0.039 C 
HETATM    8  C8  UNL     1     -35.318  17.277  -1.317  1.00 20.00     0.007 C 
HETATM    9  C9  UNL     1     -34.976  18.741  -1.524  1.00 20.00     0.035 C 
HETATM   10  C10 UNL     1     -34.496  18.318  -4.154  1.00 20.00     0.184 A 
HETATM   11  C11 UNL     1     -34.796  19.165  -2.939  1.00 20.00     0.156 A 
HETATM   12  O12 UNL     1     -33.453  18.966  -3.415  1.00 20.00    -0.370 OA
HETATM   13  F13 UNL     1     -34.223  12.684  -4.922  1.00 20.00    -0.206 F 
ENDROOT
TORSDOF 0
ENDMDL
MODEL 6
REMARK VINA RESULT:      -4.8      3.024      4.654
REMARK  0 active torsions:
REMARK  status: ('A' for Active; 'I' for Inactive)
ROOT
HETATM    1  C1  UNL     1     -33.338  14.823  -3.096  1.00 20.00     0.013 A 
HETATM    2  C2  UNL     1     -33.505  13.782  -4.009  1.00 20.00     0.043 A 
HETATM    3  C3  UNL     1     -35.829  14.342  -4.171  1.00 20.00     0.050 A 
HETATM    4  C4  UNL     1     -34.401  15.664  -2.687  1.00 20.00    -0.020 A 
HETATM    5  C5  UNL     1     -35.668  15.406  -3.257  1.00 20.00    -0.046 A 
HETATM    6  C6  UNL     1     -34.757  13.539  -4.547  1.00 20.00     0.117 A 
HETATM    7  C7  UNL     1     -36.898  16.212  -2.918  1.00 20.00     0.039 C 
HETATM    8  C8  UNL     1     -36.693  17.713  -3.082  1.00 20.00     0.007 C 
HETATM    9  C9  UNL     1     -36.225  18.376  -1.799  1.00 20.00     0.035 C 
HETATM   10  C10 UNL     1     -34.078  16.733  -1.665  1.00 20.00     0.184 A 
HETATM   11  C11 UNL     1     -34.875  17.970  -1.322  1.00 20.00     0.156 A 
HETATM   12  O12 UNL     1     -34.904  16.793  -0.496  1.00 20.00    -0.370 OA
HETATM   13  F13 UNL     1     -34.937  12.543  -5.422  1.00 20.00    -0.206 F 
ENDROOT
TORSDOF 0
ENDMDL
MODEL 7
REMARK VINA RESULT:      -4.8      2.638      3.497
REMARK  0 active torsions:
REMARK  status: ('A' for Active; 'I' for Inactive)
ROOT
HETATM    1  C1  UNL     1     -37.357  15.375  -5.349  1.00 20.00     0.013 A 
HETATM    2  C2  UNL     1     -38.197  16.434  -5.008  1.00 20.00     0.043 A 
HETATM    3  C3  UNL     1     -36.824  16.863  -3.092  1.00 20.00     0.050 A 
HETATM    4  C4  UNL     1     -36.220  15.019  -4.583  1.00 20.00    -0.020 A 
HETATM    5  C5  UNL     1     -35.960  15.800  -3.436  1.00 20.00    -0.046 A 
HETATM    6  C6  UNL     1     -37.931  17.180  -3.873  1.00 20.00     0.117 A 
HETATM    7  C7  UNL     1     -34.791  15.542  -2.516  1.00 20.00     0.039 C 
HETATM    8  C8  UNL     1     -33.457  15.470  -3.252  1.00 20.00     0.007 C 
HETATM    9  C9  UNL     1     -33.105  14.055  -3.671  1.00 20.00     0.035 C 
HETATM   10  C10 UNL     1     -35.418  13.826  -5.057  1.00 20.00     0.184 A 
HETATM   11  C11 UNL     1     -34.005  13.441  -4.685  1.00 20.00     0.156 A 
HETATM   12  O12 UNL     1     -35.148  12.795  -4.098  1.00 20.00    -0.370 OA
HETATM   13  F13 UNL     1     -38.727  18.198  -3.528  1.00 20.00    -0.206 F 
ENDROOT
TORSDOF 0
ENDMDL
MODEL 8
REMARK VINA RESULT:      -4.8      1.921      2.315
REMARK  0 active torsions:
REMARK  status: ('A' for Active; 'I' for Inactive)
ROOT
HETATM    1  C1  UNL     1     -36.589  17.435  -2.268  1.00 20.00     0.013 A 
HETATM    2  C2  UNL     1     -35.874  18.095  -1.267  1.00 20.00     0.043 A 
HETATM    3  C3  UNL     1     -34.104  16.502  -1.528  1.00 20.00     0.050 A 
HETATM    4  C4  UNL     1     -36.092  16.290  -2.938  1.00 20.00    -0.020 A 
HETATM    5  C5  UNL     1     -34.813  15.835  -2.550  1.00 20.00    -0.046 A 
HETATM    6  C6  UNL     1     -34.627  17.625  -0.895  1.00 20.00     0.117 A 
HETATM    7  C7  UNL     1     -34.152  14.626  -3.167  1.00 20.00     0.039 C 
HETATM    8  C8  UNL     1     -34.102  14.685  -4.690  1.00 20.00     0.007 C 
HETATM    9  C9  UNL     1     -35.310  14.028  -5.333  1.00 20.00     0.035 C 
HETATM   10  C10 UNL     1     -36.992  15.660  -3.979  1.00 20.00     0.184 A 
HETATM   11  C11 UNL     1     -36.615  14.696  -5.080  1.00 20.00     0.156 A 
HETATM   12  O12 UNL     1     -37.244  14.254  -3.864  1.00 20.00    -0.370 OA
HETATM   13  F13 UNL     1     -33.928  18.243   0.064  1.00 20.00    -0.206 F 
ENDROOT
TORSDOF 0
ENDMDL
MODEL 9
REMARK VINA RESULT:      -4.8     12.526     14.405
REMARK  0 active torsions:
REMARK  status: ('A' for Active; 'I' for Inactive)
ROOT
HETATM    1  C1  UNL     1     -41.038   3.150  -2.333  1.00 20.00     0.013 A 
HETATM    2  C2  UNL     1     -41.653   2.375  -3.316  1.00 20.00     0.043 A 
HETATM    3  C3  UNL     1     -43.345   4.055  -3.536  1.00 20.00     0.050 A 
HETATM    4  C4  UNL     1     -41.547   4.405  -1.915  1.00 20.00    -0.020 A 
HETATM    5  C5  UNL     1     -42.725   4.854  -2.551  1.00 20.00    -0.046 A 
HETATM    6  C6  UNL     1     -42.813   2.829  -3.919  1.00 20.00     0.117 A 
HETATM    7  C7  UNL     1     -43.390   6.166  -2.212  1.00 20.00     0.039 C 
HETATM    8  C8  UNL     1     -42.435   7.353  -2.272  1.00 20.00     0.007 C 
HETATM    9  C9  UNL     1     -41.782   7.636  -0.931  1.00 20.00     0.035 C 
HETATM   10  C10 UNL     1     -40.792   5.120  -0.815  1.00 20.00     0.184 A 
HETATM   11  C11 UNL     1     -40.865   6.578  -0.426  1.00 20.00     0.156 A 
HETATM   12  O12 UNL     1     -41.548   5.557   0.322  1.00 20.00    -0.370 OA
HETATM   13  F13 UNL     1     -43.417   2.098  -4.862  1.00 20.00    -0.206 F 
ENDROOT
TORSDOF 0
ENDMDL
