MODEL 1
REMARK VINA RESULT:      -4.7      0.000      0.000
REMARK  0 active torsions:
REMARK  status: ('A' for Active; 'I' for Inactive)
ROOT
HETATM    1  C1  UNL     1     -33.737  17.232  -4.181  1.00 20.00     0.009 A 
HETATM    2  C2  UNL     1     -33.817  17.586  -2.835  1.00 20.00     0.024 A 
HETATM    3  C3  UNL     1     -34.849  15.460  -2.335  1.00 20.00     0.033 A 
HETATM    4  C4  UNL     1     -34.219  15.991  -4.616  1.00 20.00    -0.048 A 
HETATM    5  C5  UNL     1     -34.763  15.090  -3.684  1.00 20.00    -0.022 A 
HETATM    6  C6  UNL     1     -34.374  16.701  -1.914  1.00 20.00     0.034 A 
HETATM    7  C7  UNL     1     -34.098  15.600  -6.067  1.00 20.00     0.069 C 
HETATM    8  C8  UNL     1     -35.313  13.759  -4.137  1.00 20.00     0.308 C 
HETATM    9  C9  UNL     1     -34.987  14.409  -6.431  1.00 20.00     0.274 C 
HETATM   10  N10 UNL     1     -34.819  13.336  -5.452  1.00 20.00     0.087 N 
HETATM   11 CL11 UNL     1     -34.475  17.142  -0.252  1.00 20.00    -0.084 Cl
HETATM   12  H21 UNL     1     -33.830  13.096  -5.379  1.00 20.00     0.316 HD
ENDROOT
TORSDOF 0
ENDMDL
MODEL 2
REMARK VINA RESULT:      -4.5      1.151      2.239
REMARK  0 active torsions:
REMARK  status: ('A' for Active; 'I' for Inactive)
ROOT
HETATM    1  C1  UNL     1     -34.768  15.569  -2.158  1.00 20.00     0.009 A 
HETATM    2  C2  UNL     1     -34.318  16.829  -1.765  1.00 20.00     0.024 A 
HETATM    3  C3  UNL     1     -33.720  17.331  -4.050  1.00 20.00     0.033 A 
HETATM    4  C4  UNL     1     -34.691  15.178  -3.501  1.00 20.00    -0.048 A 
HETATM    5  C5  UNL     1     -34.179  16.071  -4.458  1.00 20.00    -0.022 A 
HETATM    6  C6  UNL     1     -33.793  17.707  -2.709  1.00 20.00     0.034 A 
HETATM    7  C7  UNL     1     -35.211  13.828  -3.926  1.00 20.00     0.069 C 
HETATM    8  C8  UNL     1     -34.061  15.659  -5.905  1.00 20.00     0.308 C 
HETATM    9  C9  UNL     1     -34.721  13.420  -5.317  1.00 20.00     0.274 C 
HETATM   10  N10 UNL     1     -34.913  14.519  -6.262  1.00 20.00     0.087 N 
HETATM   11 CL11 UNL     1     -33.234  19.261  -2.220  1.00 20.00    -0.084 Cl
HETATM   12  H21 UNL     1     -35.890  14.812  -6.247  1.00 20.00     0.316 HD
ENDROOT
TORSDOF 0
ENDMDL
MODEL 3
REMARK VINA RESULT:      -4.4      1.817      1.979
REMARK  0 active torsions:
REMARK  status: ('A' for Active; 'I' for Inactive)
ROOT
HETATM    1  C1  UNL     1     -33.685  16.454  -2.345  1.00 20.00     0.009 A 
HETATM    2  C2  UNL     1     -34.514  17.480  -1.896  1.00 20.00     0.024 A 
HETATM    3  C3  UNL     1     -36.425  16.364  -2.864  1.00 20.00     0.033 A 
HETATM    4  C4  UNL     1     -34.219  15.376  -3.064  1.00 20.00    -0.048 A 
HETATM    5  C5  UNL     1     -35.601  15.321  -3.311  1.00 20.00    -0.022 A 
HETATM    6  C6  UNL     1     -35.882  17.436  -2.157  1.00 20.00     0.034 A 
HETATM    7  C7  UNL     1     -33.322  14.252  -3.517  1.00 20.00     0.069 C 
HETATM    8  C8  UNL     1     -36.192  14.184  -4.108  1.00 20.00     0.308 C 
HETATM    9  C9  UNL     1     -33.977  13.371  -4.582  1.00 20.00     0.274 C 
HETATM   10  N10 UNL     1     -35.329  12.998  -4.168  1.00 20.00     0.087 N 
HETATM   11 CL11 UNL     1     -36.904  18.707  -1.605  1.00 20.00    -0.084 Cl
HETATM   12  H21 UNL     1     -35.293  12.561  -3.247  1.00 20.00     0.316 HD
ENDROOT
TORSDOF 0
ENDMDL
MODEL 4
REMARK VINA RESULT:      -4.4      2.923      4.241
REMARK  0 active torsions:
REMARK  status: ('A' for Active; 'I' for Inactive)
ROOT
HETATM    1  C1  UNL     1     -33.542  17.120  -4.615  1.00 20.00     0.009 A 
HETATM    2  C2  UNL     1     -33.735  15.835  -5.119  1.00 20.00     0.024 A 
HETATM    3  C3  UNL     1     -34.453  15.085  -2.939  1.00 20.00     0.033 A 
HETATM    4  C4  UNL     1     -33.797  17.396  -3.265  1.00 20.00    -0.048 A 
HETATM    5  C5  UNL     1     -34.273  16.376  -2.424  1.00 20.00    -0.022 A 
HETATM    6  C6  UNL     1     -34.188  14.818  -4.282  1.00 20.00     0.034 A 
HETATM    7  C7  UNL     1     -33.620  18.796  -2.734  1.00 20.00     0.069 C 
HETATM    8  C8  UNL     1     -34.528  16.645  -0.961  1.00 20.00     0.308 C 
HETATM    9  C9  UNL     1     -33.578  18.843  -1.205  1.00 20.00     0.274 C 
HETATM   10  N10 UNL     1     -34.685  18.070  -0.645  1.00 20.00     0.087 N 
HETATM   11 CL11 UNL     1     -34.422  13.230  -4.906  1.00 20.00    -0.084 Cl
HETATM   12  H21 UNL     1     -35.565  18.406  -1.037  1.00 20.00     0.316 HD
ENDROOT
TORSDOF 0
ENDMDL
MODEL 5
REMARK VINA RESULT:      -4.4      3.055      4.650
REMARK  0 active torsions:
REMARK  status: ('A' for Active; 'I' for Inactive)
ROOT
HETATM    1  C1  UNL     1     -34.702  14.750  -3.302  1.00 20.00     0.009 A 
HETATM    2  C2  UNL     1     -34.638  14.423  -4.656  1.00 20.00     0.024 A 
HETATM    3  C3  UNL     1     -34.015  16.697  -5.178  1.00 20.00     0.033 A 
HETATM    4  C4  UNL     1     -34.429  16.057  -2.876  1.00 20.00    -0.048 A 
HETATM    5  C5  UNL     1     -34.065  17.034  -3.819  1.00 20.00    -0.022 A 
HETATM    6  C6  UNL     1     -34.297  15.396  -5.592  1.00 20.00     0.034 A 
HETATM    7  C7  UNL     1     -34.465  16.396  -1.408  1.00 20.00     0.069 C 
HETATM    8  C8  UNL     1     -33.794  18.453  -3.384  1.00 20.00     0.308 C 
HETATM    9  C9  UNL     1     -34.512  17.904  -1.154  1.00 20.00     0.274 C 
HETATM   10  N10 UNL     1     -33.494  18.583  -1.953  1.00 20.00     0.087 N 
HETATM   11 CL11 UNL     1     -34.223  14.990  -7.265  1.00 20.00    -0.084 Cl
HETATM   12  H21 UNL     1     -32.581  18.168  -1.762  1.00 20.00     0.316 HD
ENDROOT
TORSDOF 0
ENDMDL
MODEL 6
REMARK VINA RESULT:      -4.3      2.732      3.314
REMARK  0 active torsions:
REMARK  status: ('A' for Active; 'I' for Inactive)
ROOT
HETATM    1  C1  UNL     1     -36.026  16.773  -2.850  1.00 20.00     0.009 A 
HETATM    2  C2  UNL     1     -37.404  16.775  -3.063  1.00 20.00     0.024 A 
HETATM    3  C3  UNL     1     -37.260  14.567  -4.032  1.00 20.00     0.033 A 
HETATM    4  C4  UNL     1     -35.253  15.670  -3.234  1.00 20.00    -0.048 A 
HETATM    5  C5  UNL     1     -35.875  14.551  -3.813  1.00 20.00    -0.022 A 
HETATM    6  C6  UNL     1     -38.019  15.674  -3.655  1.00 20.00     0.034 A 
HETATM    7  C7  UNL     1     -33.769  15.660  -2.969  1.00 20.00     0.069 C 
HETATM    8  C8  UNL     1     -35.056  13.364  -4.258  1.00 20.00     0.308 C 
HETATM    9  C9  UNL     1     -33.037  14.578  -3.766  1.00 20.00     0.274 C 
HETATM   10  N10 UNL     1     -33.731  13.297  -3.633  1.00 20.00     0.087 N 
HETATM   11 CL11 UNL     1     -39.721  15.680  -3.921  1.00 20.00    -0.084 Cl
HETATM   12  H21 UNL     1     -33.836  13.071  -2.643  1.00 20.00     0.316 HD
ENDROOT
TORSDOF 0
ENDMDL
MODEL 7
REMARK VINA RESULT:      -4.3      4.488      5.806
REMARK  0 active torsions:
REMARK  status: ('A' for Active; 'I' for Inactive)
ROOT
HETATM    1  C1  UNL     1     -31.875  18.927   0.545  1.00 20.00     0.009 A 
HETATM    2  C2  UNL     1     -31.536  19.079   1.889  1.00 20.00     0.024 A 
HETATM    3  C3  UNL     1     -33.762  18.398   2.531  1.00 20.00     0.033 A 
HETATM    4  C4  UNL     1     -33.165  18.515   0.183  1.00 20.00    -0.048 A 
HETATM    5  C5  UNL     1     -34.110  18.231   1.183  1.00 20.00    -0.022 A 
HETATM    6  C6  UNL     1     -32.478  18.816   2.880  1.00 20.00     0.034 A 
HETATM    7  C7  UNL     1     -33.515  18.319  -1.270  1.00 20.00     0.069 C 
HETATM    8  C8  UNL     1     -35.513  17.814   0.814  1.00 20.00     0.308 C 
HETATM    9  C9  UNL     1     -35.024  18.237  -1.504  1.00 20.00     0.274 C 
HETATM   10  N10 UNL     1     -35.632  17.304  -0.557  1.00 20.00     0.087 N 
HETATM   11 CL11 UNL     1     -32.058  19.008   4.539  1.00 20.00    -0.084 Cl
HETATM   12  H21 UNL     1     -35.162  16.400  -0.622  1.00 20.00     0.316 HD
ENDROOT
TORSDOF 0
ENDMDL
MODEL 8
REMARK VINA RESULT:      -4.3      1.743      2.191
REMARK  0 active torsions:
REMARK  status: ('A' for Active; 'I' for Inactive)
ROOT
HETATM    1  C1  UNL     1     -35.707  18.317  -2.947  1.00 20.00     0.009 A 
HETATM    2  C2  UNL     1     -35.826  18.318  -1.558  1.00 20.00     0.024 A 
HETATM    3  C3  UNL     1     -34.262  16.483  -1.419  1.00 20.00     0.033 A 
HETATM    4  C4  UNL     1     -34.869  17.392  -3.584  1.00 20.00    -0.048 A 
HETATM    5  C5  UNL     1     -34.127  16.479  -2.814  1.00 20.00    -0.022 A 
HETATM    6  C6  UNL     1     -35.106  17.401  -0.795  1.00 20.00     0.034 A 
HETATM    7  C7  UNL     1     -34.717  17.418  -5.084  1.00 20.00     0.069 C 
HETATM    8  C8  UNL     1     -33.240  15.457  -3.482  1.00 20.00     0.308 C 
HETATM    9  C9  UNL     1     -34.079  16.140  -5.632  1.00 20.00     0.274 C 
HETATM   10  N10 UNL     1     -32.883  15.802  -4.863  1.00 20.00     0.087 N 
HETATM   11 CL11 UNL     1     -35.258  17.403   0.920  1.00 20.00    -0.084 Cl
HETATM   12  H21 UNL     1     -32.248  16.601  -4.856  1.00 20.00     0.316 HD
ENDROOT
TORSDOF 0
ENDMDL
MODEL 9
REMARK VINA RESULT:      -4.2      1.608      1.725
REMARK  0 active torsions:
REMARK  status: ('A' for Active; 'I' for Inactive)
ROOT
HETATM    1  C1  UNL     1     -33.342  15.507  -4.352  1.00 20.00     0.009 A 
HETATM    2  C2  UNL     1     -33.410  15.818  -2.995  1.00 20.00     0.024 A 
HETATM    3  C3  UNL     1     -35.804  16.077  -3.171  1.00 20.00     0.033 A 
HETATM    4  C4  UNL     1     -34.506  15.486  -5.132  1.00 20.00    -0.048 A 
HETATM    5  C5  UNL     1     -35.749  15.756  -4.534  1.00 20.00    -0.022 A 
HETATM    6  C6  UNL     1     -34.639  16.105  -2.405  1.00 20.00     0.034 A 
HETATM    7  C7  UNL     1     -34.431  15.116  -6.591  1.00 20.00     0.069 C 
HETATM    8  C8  UNL     1     -37.011  15.765  -5.362  1.00 20.00     0.308 C 
HETATM    9  C9  UNL     1     -35.697  15.497  -7.360  1.00 20.00     0.274 C 
HETATM   10  N10 UNL     1     -36.884  15.047  -6.635  1.00 20.00     0.087 N 
HETATM   11 CL11 UNL     1     -34.720  16.492  -0.729  1.00 20.00    -0.084 Cl
HETATM   12  H21 UNL     1     -36.808  14.046  -6.450  1.00 20.00     0.316 HD
ENDROOT
TORSDOF 0
ENDMDL
