MODEL 1
REMARK VINA RESULT:      -3.3      0.000      0.000
REMARK  0 active torsions:
REMARK  status: ('A' for Active; 'I' for Inactive)
ROOT
HETATM    1  C1  UNL     1     -35.136   4.698   4.622  1.00 20.00     0.184 C 
HETATM    2  C2  UNL     1     -34.290   5.820   6.126  1.00 20.00     0.184 C 
HETATM    3  C3  UNL     1     -34.557   6.111   4.649  1.00 20.00     0.101 C 
HETATM    4  O4  UNL     1     -35.072   4.602   6.065  1.00 20.00    -0.389 OA
HETATM    5  I5  UNL     1     -32.659   6.429   3.347  1.00 20.00    -0.080 I 
ENDROOT
TORSDOF 0
ENDMDL
MODEL 2
REMARK VINA RESULT:      -3.0      2.878      3.292
REMARK  0 active torsions:
REMARK  status: ('A' for Active; 'I' for Inactive)
ROOT
HETATM    1  C1  UNL     1     -32.874   6.597   4.077  1.00 20.00     0.184 C 
HETATM    2  C2  UNL     1     -33.957   5.423   2.780  1.00 20.00     0.184 C 
HETATM    3  C3  UNL     1     -34.313   6.087   4.109  1.00 20.00     0.101 C 
HETATM    4  O4  UNL     1     -32.704   6.145   2.713  1.00 20.00    -0.389 OA
HETATM    5  I5  UNL     1     -34.806   4.621   5.844  1.00 20.00    -0.080 I 
ENDROOT
TORSDOF 0
ENDMDL
MODEL 3
REMARK VINA RESULT:      -3.0     12.236     12.534
REMARK  0 active torsions:
REMARK  status: ('A' for Active; 'I' for Inactive)
ROOT
HETATM    1  C1  UNL     1     -33.759  13.604  -3.866  1.00 20.00     0.184 C 
HETATM    2  C2  UNL     1     -35.765  13.935  -4.183  1.00 20.00     0.184 C 
HETATM    3  C3  UNL     1     -34.573  14.883  -4.050  1.00 20.00     0.101 C 
HETATM    4  O4  UNL     1     -34.889  12.784  -4.246  1.00 20.00    -0.389 OA
HETATM    5  I5  UNL     1     -34.634  16.292  -2.203  1.00 20.00    -0.080 I 
ENDROOT
TORSDOF 0
ENDMDL
MODEL 4
REMARK VINA RESULT:      -2.8     12.517     12.759
REMARK  0 active torsions:
REMARK  status: ('A' for Active; 'I' for Inactive)
ROOT
HETATM    1  C1  UNL     1     -35.653  14.000  -4.278  1.00 20.00     0.184 C 
HETATM    2  C2  UNL     1     -33.704  13.444  -3.918  1.00 20.00     0.184 C 
HETATM    3  C3  UNL     1     -34.463  14.748  -3.681  1.00 20.00     0.101 C 
HETATM    4  O4  UNL     1     -34.932  12.745  -4.238  1.00 20.00    -0.389 OA
HETATM    5  I5  UNL     1     -33.714  16.566  -4.920  1.00 20.00    -0.080 I 
ENDROOT
TORSDOF 0
ENDMDL
MODEL 5
REMARK VINA RESULT:      -2.7     12.679     12.987
REMARK  0 active torsions:
REMARK  status: ('A' for Active; 'I' for Inactive)
ROOT
HETATM    1  C1  UNL     1     -35.184  13.301  -4.308  1.00 20.00     0.184 C 
HETATM    2  C2  UNL     1     -33.526  14.461  -3.931  1.00 20.00     0.184 C 
HETATM    3  C3  UNL     1     -34.848  14.753  -4.641  1.00 20.00     0.101 C 
HETATM    4  O4  UNL     1     -34.024  13.190  -3.449  1.00 20.00    -0.389 OA
HETATM    5  I5  UNL     1     -34.667  15.233  -6.908  1.00 20.00    -0.080 I 
ENDROOT
TORSDOF 0
ENDMDL
MODEL 6
REMARK VINA RESULT:      -2.6      0.750      1.493
REMARK  0 active torsions:
REMARK  status: ('A' for Active; 'I' for Inactive)
ROOT
HETATM    1  C1  UNL     1     -34.300   5.906   6.331  1.00 20.00     0.184 C 
HETATM    2  C2  UNL     1     -35.039   4.494   5.028  1.00 20.00     0.184 C 
HETATM    3  C3  UNL     1     -33.665   5.148   5.167  1.00 20.00     0.101 C 
HETATM    4  O4  UNL     1     -35.479   5.067   6.283  1.00 20.00    -0.389 OA
HETATM    5  I5  UNL     1     -33.010   6.464   3.367  1.00 20.00    -0.080 I 
ENDROOT
TORSDOF 0
ENDMDL
MODEL 7
REMARK VINA RESULT:      -2.5     12.752     12.935
REMARK  0 active torsions:
REMARK  status: ('A' for Active; 'I' for Inactive)
ROOT
HETATM    1  C1  UNL     1     -36.388  15.177  -3.379  1.00 20.00     0.184 C 
HETATM    2  C2  UNL     1     -35.403  13.588  -4.241  1.00 20.00     0.184 C 
HETATM    3  C3  UNL     1     -34.909  14.805  -3.459  1.00 20.00     0.101 C 
HETATM    4  O4  UNL     1     -36.780  13.887  -3.907  1.00 20.00    -0.389 OA
HETATM    5  I5  UNL     1     -33.579  16.281  -4.664  1.00 20.00    -0.080 I 
ENDROOT
TORSDOF 0
ENDMDL
MODEL 8
REMARK VINA RESULT:      -2.5     12.736     13.202
REMARK  0 active torsions:
REMARK  status: ('A' for Active; 'I' for Inactive)
ROOT
HETATM    1  C1  UNL     1     -33.822  13.852  -3.699  1.00 20.00     0.184 C 
HETATM    2  C2  UNL     1     -34.044  15.450  -4.977  1.00 20.00     0.184 C 
HETATM    3  C3  UNL     1     -33.436  15.325  -3.580  1.00 20.00     0.101 C 
HETATM    4  O4  UNL     1     -34.148  14.011  -5.100  1.00 20.00    -0.389 OA
HETATM    5  I5  UNL     1     -34.541  16.508  -1.913  1.00 20.00    -0.080 I 
ENDROOT
TORSDOF 0
ENDMDL
MODEL 9
REMARK VINA RESULT:      -2.5     13.416     13.740
REMARK  0 active torsions:
REMARK  status: ('A' for Active; 'I' for Inactive)
ROOT
HETATM    1  C1  UNL     1     -33.308  16.556  -4.615  1.00 20.00     0.184 C 
HETATM    2  C2  UNL     1     -33.819  16.215  -2.651  1.00 20.00     0.184 C 
HETATM    3  C3  UNL     1     -33.288  15.297  -3.752  1.00 20.00     0.101 C 
HETATM    4  O4  UNL     1     -33.572  17.389  -3.461  1.00 20.00    -0.389 OA
HETATM    5  I5  UNL     1     -34.744  13.614  -4.422  1.00 20.00    -0.080 I 
ENDROOT
TORSDOF 0
ENDMDL
