MODEL 1
REMARK VINA RESULT:      -3.6      0.000      0.000
REMARK  1 active torsions:
REMARK  status: ('A' for Active; 'I' for Inactive)
REMARK    1  A    between atoms: C3_3  and  C4_4 
ROOT
HETATM    1  C1  UNL     1     -35.905  15.905  -4.631  1.00 20.00     0.087 A 
HETATM    2  C2  UNL     1     -38.069  15.193  -3.848  1.00 20.00     0.166 A 
HETATM    3  C3  UNL     1     -35.984  14.602  -4.185  1.00 20.00     0.125 A 
HETATM    4  N5  UNL     1     -37.225  14.192  -3.736  1.00 20.00    -0.249 NA
HETATM    5  S7  UNL     1     -37.441  16.657  -4.486  1.00 20.00    -0.092 SA
ENDROOT
BRANCH   3   6
HETATM    6  C4  UNL     1     -34.873  13.694  -4.172  1.00 20.00     0.271 C 
HETATM    7  O6  UNL     1     -35.039  12.497  -4.522  1.00 20.00    -0.272 OA
HETATM    8 CL8  UNL     1     -33.242  14.212  -3.669  1.00 20.00    -0.037 Cl
ENDBRANCH   3   6
TORSDOF 1
ENDMDL
MODEL 2
REMARK VINA RESULT:      -3.5      2.623      2.769
REMARK  1 active torsions:
REMARK  status: ('A' for Active; 'I' for Inactive)
REMARK    1  A    between atoms: C3_3  and  C4_4 
ROOT
HETATM    1  C1  UNL     1     -34.138  15.798  -5.767  1.00 20.00     0.087 A 
HETATM    2  C2  UNL     1     -35.356  15.077  -7.715  1.00 20.00     0.166 A 
HETATM    3  C3  UNL     1     -34.563  14.486  -5.758  1.00 20.00     0.125 A 
HETATM    4  N5  UNL     1     -35.262  14.070  -6.875  1.00 20.00    -0.249 NA
HETATM    5  S7  UNL     1     -34.627  16.552  -7.228  1.00 20.00    -0.092 SA
ENDROOT
BRANCH   3   6
HETATM    6  C4  UNL     1     -34.316  13.574  -4.678  1.00 20.00     0.271 C 
HETATM    7  O6  UNL     1     -35.102  12.612  -4.479  1.00 20.00    -0.272 OA
HETATM    8 CL8  UNL     1     -32.914  13.761  -3.592  1.00 20.00    -0.037 Cl
ENDBRANCH   3   6
TORSDOF 1
ENDMDL
MODEL 3
REMARK VINA RESULT:      -3.4      2.515      2.838
REMARK  1 active torsions:
REMARK  status: ('A' for Active; 'I' for Inactive)
REMARK    1  A    between atoms: C3_3  and  C4_4 
ROOT
HETATM    1  C1  UNL     1     -35.838  15.379  -3.267  1.00 20.00     0.087 A 
HETATM    2  C2  UNL     1     -33.639  16.160  -2.673  1.00 20.00     0.166 A 
HETATM    3  C3  UNL     1     -34.789  14.793  -3.945  1.00 20.00     0.125 A 
HETATM    4  N5  UNL     1     -33.527  15.240  -3.605  1.00 20.00    -0.249 NA
HETATM    5  S7  UNL     1     -35.231  16.537  -2.157  1.00 20.00    -0.092 SA
ENDROOT
BRANCH   3   6
HETATM    6  C4  UNL     1     -34.954  13.779  -4.947  1.00 20.00     0.271 C 
HETATM    7  O6  UNL     1     -34.866  12.566  -4.629  1.00 20.00    -0.272 OA
HETATM    8 CL8  UNL     1     -35.281  14.188  -6.652  1.00 20.00    -0.037 Cl
ENDBRANCH   3   6
TORSDOF 1
ENDMDL
MODEL 4
REMARK VINA RESULT:      -3.4      1.345      1.577
REMARK  1 active torsions:
REMARK  status: ('A' for Active; 'I' for Inactive)
REMARK    1  A    between atoms: C3_3  and  C4_4 
ROOT
HETATM    1  C1  UNL     1     -36.910  14.728  -3.979  1.00 20.00     0.087 A 
HETATM    2  C2  UNL     1     -36.099  16.743  -2.939  1.00 20.00     0.166 A 
HETATM    3  C3  UNL     1     -35.566  14.745  -3.669  1.00 20.00     0.125 A 
HETATM    4  N5  UNL     1     -35.099  15.901  -3.073  1.00 20.00    -0.249 NA
HETATM    5  S7  UNL     1     -37.628  16.213  -3.508  1.00 20.00    -0.092 SA
ENDROOT
BRANCH   3   6
HETATM    6  C4  UNL     1     -34.672  13.653  -3.932  1.00 20.00     0.271 C 
HETATM    7  O6  UNL     1     -35.119  12.582  -4.415  1.00 20.00    -0.272 OA
HETATM    8 CL8  UNL     1     -32.925  13.767  -3.591  1.00 20.00    -0.037 Cl
ENDBRANCH   3   6
TORSDOF 1
ENDMDL
MODEL 5
REMARK VINA RESULT:      -3.4      2.944      3.433
REMARK  1 active torsions:
REMARK  status: ('A' for Active; 'I' for Inactive)
REMARK    1  A    between atoms: C3_3  and  C4_4 
ROOT
HETATM    1  C1  UNL     1     -34.956  15.239  -3.442  1.00 20.00     0.087 A 
HETATM    2  C2  UNL     1     -34.498  13.130  -4.510  1.00 20.00     0.166 A 
HETATM    3  C3  UNL     1     -36.060  14.526  -3.860  1.00 20.00     0.125 A 
HETATM    4  N5  UNL     1     -35.799  13.315  -4.473  1.00 20.00    -0.249 NA
HETATM    5  S7  UNL     1     -33.529  14.369  -3.826  1.00 20.00    -0.092 SA
ENDROOT
BRANCH   3   6
HETATM    6  C4  UNL     1     -37.412  14.974  -3.689  1.00 20.00     0.271 C 
HETATM    7  O6  UNL     1     -38.359  14.151  -3.771  1.00 20.00    -0.272 OA
HETATM    8 CL8  UNL     1     -37.801  16.684  -3.361  1.00 20.00    -0.037 Cl
ENDBRANCH   3   6
TORSDOF 1
ENDMDL
MODEL 6
REMARK VINA RESULT:      -3.3      2.867      3.129
REMARK  1 active torsions:
REMARK  status: ('A' for Active; 'I' for Inactive)
REMARK    1  A    between atoms: C3_3  and  C4_4 
ROOT
HETATM    1  C1  UNL     1     -35.086  14.019  -6.018  1.00 20.00     0.087 A 
HETATM    2  C2  UNL     1     -34.210  16.121  -6.802  1.00 20.00     0.166 A 
HETATM    3  C3  UNL     1     -34.461  14.800  -5.069  1.00 20.00     0.125 A 
HETATM    4  N5  UNL     1     -33.957  16.007  -5.517  1.00 20.00    -0.249 NA
HETATM    5  S7  UNL     1     -35.048  14.817  -7.536  1.00 20.00    -0.092 SA
ENDROOT
BRANCH   3   6
HETATM    6  C4  UNL     1     -34.320  14.423  -3.692  1.00 20.00     0.271 C 
HETATM    7  O6  UNL     1     -34.076  13.226  -3.393  1.00 20.00    -0.272 OA
HETATM    8 CL8  UNL     1     -34.483  15.611  -2.371  1.00 20.00    -0.037 Cl
ENDBRANCH   3   6
TORSDOF 1
ENDMDL
MODEL 7
REMARK VINA RESULT:      -3.3     12.235     12.764
REMARK  1 active torsions:
REMARK  status: ('A' for Active; 'I' for Inactive)
REMARK    1  A    between atoms: C3_3  and  C4_4 
ROOT
HETATM    1  C1  UNL     1     -34.764   4.619   4.738  1.00 20.00     0.087 A 
HETATM    2  C2  UNL     1     -34.247   6.127   6.544  1.00 20.00     0.166 A 
HETATM    3  C3  UNL     1     -33.984   5.707   4.407  1.00 20.00     0.125 A 
HETATM    4  N5  UNL     1     -33.686   6.573   5.442  1.00 20.00    -0.249 NA
HETATM    5  S7  UNL     1     -35.146   4.672   6.409  1.00 20.00    -0.092 SA
ENDROOT
BRANCH   3   6
HETATM    6  C4  UNL     1     -33.490   5.963   3.084  1.00 20.00     0.271 C 
HETATM    7  O6  UNL     1     -33.913   5.280   2.116  1.00 20.00    -0.272 OA
HETATM    8 CL8  UNL     1     -32.278   7.231   2.762  1.00 20.00    -0.037 Cl
ENDBRANCH   3   6
TORSDOF 1
ENDMDL
MODEL 8
REMARK VINA RESULT:      -3.2      3.212      3.437
REMARK  1 active torsions:
REMARK  status: ('A' for Active; 'I' for Inactive)
REMARK    1  A    between atoms: C3_3  and  C4_4 
ROOT
HETATM    1  C1  UNL     1     -34.719  15.695  -5.107  1.00 20.00     0.087 A 
HETATM    2  C2  UNL     1     -34.712  13.385  -4.422  1.00 20.00     0.166 A 
HETATM    3  C3  UNL     1     -34.442  15.464  -3.775  1.00 20.00     0.125 A 
HETATM    4  N5  UNL     1     -34.438  14.139  -3.380  1.00 20.00    -0.249 NA
HETATM    5  S7  UNL     1     -34.985  14.201  -5.907  1.00 20.00    -0.092 SA
ENDROOT
BRANCH   3   6
HETATM    6  C4  UNL     1     -34.170  16.503  -2.824  1.00 20.00     0.271 C 
HETATM    7  O6  UNL     1     -33.596  17.558  -3.199  1.00 20.00    -0.272 OA
HETATM    8 CL8  UNL     1     -34.622  16.347  -1.106  1.00 20.00    -0.037 Cl
ENDBRANCH   3   6
TORSDOF 1
ENDMDL
MODEL 9
REMARK VINA RESULT:      -3.2     11.708     12.080
REMARK  1 active torsions:
REMARK  status: ('A' for Active; 'I' for Inactive)
REMARK    1  A    between atoms: C3_3  and  C4_4 
ROOT
HETATM    1  C1  UNL     1     -33.982   5.742   3.244  1.00 20.00     0.087 A 
HETATM    2  C2  UNL     1     -34.410   5.745   5.614  1.00 20.00     0.166 A 
HETATM    3  C3  UNL     1     -33.152   6.541   4.003  1.00 20.00     0.125 A 
HETATM    4  N5  UNL     1     -33.397   6.544   5.363  1.00 20.00    -0.249 NA
HETATM    5  S7  UNL     1     -35.116   4.958   4.263  1.00 20.00    -0.092 SA
ENDROOT
BRANCH   3   6
HETATM    6  C4  UNL     1     -32.090   7.336   3.456  1.00 20.00     0.271 C 
HETATM    7  O6  UNL     1     -31.083   7.604   4.161  1.00 20.00    -0.272 OA
HETATM    8 CL8  UNL     1     -32.150   7.965   1.789  1.00 20.00    -0.037 Cl
ENDBRANCH   3   6
TORSDOF 1
ENDMDL
