MODEL 1
REMARK VINA RESULT:      -4.1      0.000      0.000
REMARK  1 active torsions:
REMARK  status: ('A' for Active; 'I' for Inactive)
REMARK    1  A    between atoms: C1_1  and  C2_2 
ROOT
HETATM    1  C1  UNL     1     -34.776   5.393   4.218  1.00 20.00     0.346 C 
HETATM    2  O3  UNL     1     -33.959   5.700   3.362  1.00 20.00    -0.255 OA
HETATM    3  F4  UNL     1     -36.067   5.392   3.857  1.00 20.00    -0.160 F 
ENDROOT
BRANCH   1   4
HETATM    4  C2  UNL     1     -34.445   5.074   5.639  1.00 20.00     0.369 C 
HETATM    5  F5  UNL     1     -35.489   4.482   6.274  1.00 20.00    -0.222 F 
HETATM    6 CL6  UNL     1     -34.034   6.582   6.461  1.00 20.00    -0.078 Cl
ENDBRANCH   1   4
TORSDOF 1
ENDMDL
MODEL 2
REMARK VINA RESULT:      -4.0      1.746      2.206
REMARK  1 active torsions:
REMARK  status: ('A' for Active; 'I' for Inactive)
REMARK    1  A    between atoms: C1_1  and  C2_2 
ROOT
HETATM    1  C1  UNL     1     -33.941   6.147   4.677  1.00 20.00     0.346 C 
HETATM    2  O3  UNL     1     -33.130   6.592   3.879  1.00 20.00    -0.255 OA
HETATM    3  F4  UNL     1     -33.976   6.715   5.892  1.00 20.00    -0.160 F 
ENDROOT
BRANCH   1   4
HETATM    4  C2  UNL     1     -34.850   4.991   4.418  1.00 20.00     0.369 C 
HETATM    5  F5  UNL     1     -36.051   5.399   3.933  1.00 20.00    -0.222 F 
HETATM    6 CL6  UNL     1     -35.092   4.127   5.939  1.00 20.00    -0.078 Cl
ENDBRANCH   1   4
TORSDOF 1
ENDMDL
MODEL 3
REMARK VINA RESULT:      -4.0      2.177      2.658
REMARK  1 active torsions:
REMARK  status: ('A' for Active; 'I' for Inactive)
REMARK    1  A    between atoms: C1_1  and  C2_2 
ROOT
HETATM    1  C1  UNL     1     -34.454   5.405   6.076  1.00 20.00     0.346 C 
HETATM    2  O3  UNL     1     -34.228   6.569   6.370  1.00 20.00    -0.255 OA
HETATM    3  F4  UNL     1     -33.980   4.463   6.905  1.00 20.00    -0.160 F 
ENDROOT
BRANCH   1   4
HETATM    4  C2  UNL     1     -35.168   4.958   4.843  1.00 20.00     0.369 C 
HETATM    5  F5  UNL     1     -35.202   3.603   4.749  1.00 20.00    -0.222 F 
HETATM    6 CL6  UNL     1     -34.320   5.624   3.443  1.00 20.00    -0.078 Cl
ENDBRANCH   1   4
TORSDOF 1
ENDMDL
MODEL 4
REMARK VINA RESULT:      -4.0      1.983      1.983
REMARK  1 active torsions:
REMARK  status: ('A' for Active; 'I' for Inactive)
REMARK    1  A    between atoms: C1_1  and  C2_2 
ROOT
HETATM    1  C1  UNL     1     -35.099   4.786   4.743  1.00 20.00     0.346 C 
HETATM    2  O3  UNL     1     -35.190   3.600   5.026  1.00 20.00    -0.255 OA
HETATM    3  F4  UNL     1     -36.063   5.304   3.969  1.00 20.00    -0.160 F 
ENDROOT
BRANCH   1   4
HETATM    4  C2  UNL     1     -33.972   5.677   5.151  1.00 20.00     0.369 C 
HETATM    5  F5  UNL     1     -34.344   6.533   6.137  1.00 20.00    -0.222 F 
HETATM    6 CL6  UNL     1     -33.458   6.598   3.734  1.00 20.00    -0.078 Cl
ENDBRANCH   1   4
TORSDOF 1
ENDMDL
MODEL 5
REMARK VINA RESULT:      -3.9      1.848      2.589
REMARK  1 active torsions:
REMARK  status: ('A' for Active; 'I' for Inactive)
REMARK    1  A    between atoms: C1_1  and  C2_2 
ROOT
HETATM    1  C1  UNL     1     -34.882   4.840   5.114  1.00 20.00     0.346 C 
HETATM    2  O3  UNL     1     -35.175   3.654   5.075  1.00 20.00    -0.255 OA
HETATM    3  F4  UNL     1     -34.847   5.420   6.322  1.00 20.00    -0.160 F 
ENDROOT
BRANCH   1   4
HETATM    4  C2  UNL     1     -34.615   5.693   3.918  1.00 20.00     0.369 C 
HETATM    5  F5  UNL     1     -34.575   4.957   2.777  1.00 20.00    -0.222 F 
HETATM    6 CL6  UNL     1     -33.061   6.501   4.152  1.00 20.00    -0.078 Cl
ENDBRANCH   1   4
TORSDOF 1
ENDMDL
MODEL 6
REMARK VINA RESULT:      -3.9      1.742      1.907
REMARK  1 active torsions:
REMARK  status: ('A' for Active; 'I' for Inactive)
REMARK    1  A    between atoms: C1_1  and  C2_2 
ROOT
HETATM    1  C1  UNL     1     -35.199   5.057   4.425  1.00 20.00     0.346 C 
HETATM    2  O3  UNL     1     -35.139   3.903   4.824  1.00 20.00    -0.255 OA
HETATM    3  F4  UNL     1     -36.278   5.397   3.705  1.00 20.00    -0.160 F 
ENDROOT
BRANCH   1   4
HETATM    4  C2  UNL     1     -34.141   6.090   4.635  1.00 20.00     0.369 C 
HETATM    5  F5  UNL     1     -32.943   5.685   4.140  1.00 20.00    -0.222 F 
HETATM    6 CL6  UNL     1     -33.993   6.383   6.370  1.00 20.00    -0.078 Cl
ENDBRANCH   1   4
TORSDOF 1
ENDMDL
MODEL 7
REMARK VINA RESULT:      -3.9      2.141      2.359
REMARK  1 active torsions:
REMARK  status: ('A' for Active; 'I' for Inactive)
REMARK    1  A    between atoms: C1_1  and  C2_2 
ROOT
HETATM    1  C1  UNL     1     -34.948   4.424   5.685  1.00 20.00     0.346 C 
HETATM    2  O3  UNL     1     -35.098   3.596   4.800  1.00 20.00    -0.255 OA
HETATM    3  F4  UNL     1     -35.665   4.255   6.806  1.00 20.00    -0.160 F 
ENDROOT
BRANCH   1   4
HETATM    4  C2  UNL     1     -34.072   5.630   5.589  1.00 20.00     0.369 C 
HETATM    5  F5  UNL     1     -34.401   6.562   6.520  1.00 20.00    -0.222 F 
HETATM    6 CL6  UNL     1     -34.258   6.319   3.973  1.00 20.00    -0.078 Cl
ENDBRANCH   1   4
TORSDOF 1
ENDMDL
MODEL 8
REMARK VINA RESULT:      -3.9      1.827      1.827
REMARK  1 active torsions:
REMARK  status: ('A' for Active; 'I' for Inactive)
REMARK    1  A    between atoms: C1_1  and  C2_2 
ROOT
HETATM    1  C1  UNL     1     -33.934   5.861   4.181  1.00 20.00     0.346 C 
HETATM    2  O3  UNL     1     -32.890   6.461   3.976  1.00 20.00    -0.255 OA
HETATM    3  F4  UNL     1     -34.552   5.330   3.116  1.00 20.00    -0.160 F 
ENDROOT
BRANCH   1   4
HETATM    4  C2  UNL     1     -34.594   5.726   5.514  1.00 20.00     0.369 C 
HETATM    5  F5  UNL     1     -33.819   6.230   6.509  1.00 20.00    -0.222 F 
HETATM    6 CL6  UNL     1     -34.891   4.010   5.810  1.00 20.00    -0.078 Cl
ENDBRANCH   1   4
TORSDOF 1
ENDMDL
MODEL 9
REMARK VINA RESULT:      -3.8      1.947      2.552
REMARK  1 active torsions:
REMARK  status: ('A' for Active; 'I' for Inactive)
REMARK    1  A    between atoms: C1_1  and  C2_2 
ROOT
HETATM    1  C1  UNL     1     -34.838   4.989   5.139  1.00 20.00     0.346 C 
HETATM    2  O3  UNL     1     -34.791   5.436   6.276  1.00 20.00    -0.255 OA
HETATM    3  F4  UNL     1     -35.111   3.683   5.009  1.00 20.00    -0.160 F 
ENDROOT
BRANCH   1   4
HETATM    4  C2  UNL     1     -34.563   5.775   3.900  1.00 20.00     0.369 C 
HETATM    5  F5  UNL     1     -34.595   4.989   2.793  1.00 20.00    -0.222 F 
HETATM    6 CL6  UNL     1     -32.965   6.510   4.056  1.00 20.00    -0.078 Cl
ENDBRANCH   1   4
TORSDOF 1
ENDMDL
