MODEL 1
REMARK VINA RESULT:      -5.3      0.000      0.000
REMARK  1 active torsions:
REMARK  status: ('A' for Active; 'I' for Inactive)
REMARK    1  A    between atoms: C10_10  and  O11_11 
ROOT
HETATM    1  C1  UNL     1     -35.558  16.787  -1.574  1.00 20.00    -0.030 C 
HETATM    2  C2  UNL     1     -34.258  16.419  -1.613  1.00 20.00    -0.025 C 
HETATM    3  C3  UNL     1     -36.244  16.582  -2.927  1.00 20.00     0.032 C 
HETATM    4  C4  UNL     1     -33.637  15.582  -5.237  1.00 20.00     0.013 C 
HETATM    5  C5  UNL     1     -33.232  13.749  -3.742  1.00 20.00     0.037 C 
HETATM    6  C6  UNL     1     -33.931  16.139  -3.033  1.00 20.00     0.017 C 
HETATM    7  C7  UNL     1     -35.285  15.532  -3.436  1.00 20.00     0.003 C 
HETATM    8  C8  UNL     1     -32.980  15.271  -3.862  1.00 20.00    -0.004 C 
HETATM    9  C9  UNL     1     -34.998  14.975  -4.845  1.00 20.00     0.020 C 
HETATM   10  C10 UNL     1     -34.486  13.522  -4.631  1.00 20.00     0.123 C 
ENDROOT
BRANCH  10  11
HETATM   11  O11 UNL     1     -35.425  12.668  -4.009  1.00 20.00    -0.395 OA
HETATM   12  H25 UNL     1     -35.422  11.829  -4.502  1.00 20.00     0.210 HD
ENDBRANCH  10  11
TORSDOF 1
ENDMDL
MODEL 2
REMARK VINA RESULT:      -5.1      1.893      3.649
REMARK  1 active torsions:
REMARK  status: ('A' for Active; 'I' for Inactive)
REMARK    1  A    between atoms: C10_10  and  O11_11 
ROOT
HETATM    1  C1  UNL     1     -34.879  15.508  -7.642  1.00 20.00    -0.030 C 
HETATM    2  C2  UNL     1     -35.157  14.330  -7.039  1.00 20.00    -0.025 C 
HETATM    3  C3  UNL     1     -34.614  16.616  -6.620  1.00 20.00     0.032 C 
HETATM    4  C4  UNL     1     -35.315  15.176  -3.369  1.00 20.00     0.013 C 
HETATM    5  C5  UNL     1     -33.647  13.538  -3.908  1.00 20.00     0.037 C 
HETATM    6  C6  UNL     1     -35.299  14.609  -5.590  1.00 20.00     0.017 C 
HETATM    7  C7  UNL     1     -34.219  15.699  -5.487  1.00 20.00     0.003 C 
HETATM    8  C8  UNL     1     -35.112  13.906  -4.243  1.00 20.00    -0.004 C 
HETATM    9  C9  UNL     1     -34.099  15.910  -3.964  1.00 20.00     0.020 C 
HETATM   10  C10 UNL     1     -33.025  14.895  -3.477  1.00 20.00     0.123 C 
ENDROOT
BRANCH  10  11
HETATM   11  O11 UNL     1     -31.747  15.094  -4.046  1.00 20.00    -0.395 OA
HETATM   12  H25 UNL     1     -31.614  14.393  -4.708  1.00 20.00     0.210 HD
ENDBRANCH  10  11
TORSDOF 1
ENDMDL
MODEL 3
REMARK VINA RESULT:      -4.8      1.673      2.358
REMARK  1 active torsions:
REMARK  status: ('A' for Active; 'I' for Inactive)
REMARK    1  A    between atoms: C10_10  and  O11_11 
ROOT
HETATM    1  C1  UNL     1     -33.774  17.961  -0.758  1.00 20.00    -0.030 C 
HETATM    2  C2  UNL     1     -33.631  18.519  -1.981  1.00 20.00    -0.025 C 
HETATM    3  C3  UNL     1     -34.499  16.615  -0.832  1.00 20.00     0.032 C 
HETATM    4  C4  UNL     1     -35.548  16.226  -4.278  1.00 20.00     0.013 C 
HETATM    5  C5  UNL     1     -33.226  16.435  -4.846  1.00 20.00     0.037 C 
HETATM    6  C6  UNL     1     -34.423  17.695  -2.926  1.00 20.00     0.017 C 
HETATM    7  C7  UNL     1     -34.157  16.328  -2.274  1.00 20.00     0.003 C 
HETATM    8  C8  UNL     1     -34.431  17.300  -4.406  1.00 20.00    -0.004 C 
HETATM    9  C9  UNL     1     -34.738  15.343  -3.310  1.00 20.00     0.020 C 
HETATM   10  C10 UNL     1     -33.575  15.026  -4.293  1.00 20.00     0.123 C 
ENDROOT
BRANCH  10  11
HETATM   11  O11 UNL     1     -32.460  14.408  -3.684  1.00 20.00    -0.395 OA
HETATM   12  H25 UNL     1     -32.127  15.020  -3.004  1.00 20.00     0.210 HD
ENDBRANCH  10  11
TORSDOF 1
ENDMDL
MODEL 4
REMARK VINA RESULT:      -4.8      1.430      2.009
REMARK  1 active torsions:
REMARK  status: ('A' for Active; 'I' for Inactive)
REMARK    1  A    between atoms: C10_10  and  O11_11 
ROOT
HETATM    1  C1  UNL     1     -33.750  16.920  -2.266  1.00 20.00    -0.030 C 
HETATM    2  C2  UNL     1     -33.703  17.178  -3.593  1.00 20.00    -0.025 C 
HETATM    3  C3  UNL     1     -34.855  15.917  -1.926  1.00 20.00     0.032 C 
HETATM    4  C4  UNL     1     -36.677  15.342  -5.005  1.00 20.00     0.013 C 
HETATM    5  C5  UNL     1     -34.579  14.633  -5.931  1.00 20.00     0.037 C 
HETATM    6  C6  UNL     1     -34.892  16.534  -4.200  1.00 20.00     0.017 C 
HETATM    7  C7  UNL     1     -34.932  15.290  -3.298  1.00 20.00     0.003 C 
HETATM    8  C8  UNL     1     -35.334  15.924  -5.533  1.00 20.00    -0.004 C 
HETATM    9  C9  UNL     1     -35.994  14.410  -3.986  1.00 20.00     0.020 C 
HETATM   10  C10 UNL     1     -35.223  13.547  -5.026  1.00 20.00     0.123 C 
ENDROOT
BRANCH  10  11
HETATM   11  O11 UNL     1     -34.252  12.693  -4.456  1.00 20.00    -0.395 OA
HETATM   12  H25 UNL     1     -33.683  13.241  -3.888  1.00 20.00     0.210 HD
ENDBRANCH  10  11
TORSDOF 1
ENDMDL
MODEL 5
REMARK VINA RESULT:      -4.7      1.687      2.966
REMARK  1 active torsions:
REMARK  status: ('A' for Active; 'I' for Inactive)
REMARK    1  A    between atoms: C10_10  and  O11_11 
ROOT
HETATM    1  C1  UNL     1     -33.604  17.638  -5.641  1.00 20.00    -0.030 C 
HETATM    2  C2  UNL     1     -34.417  16.804  -6.328  1.00 20.00    -0.025 C 
HETATM    3  C3  UNL     1     -33.615  17.330  -4.142  1.00 20.00     0.032 C 
HETATM    4  C4  UNL     1     -36.147  14.783  -3.657  1.00 20.00     0.013 C 
HETATM    5  C5  UNL     1     -34.883  13.453  -5.203  1.00 20.00     0.037 C 
HETATM    6  C6  UNL     1     -35.180  16.023  -5.325  1.00 20.00     0.017 C 
HETATM    7  C7  UNL     1     -34.063  15.894  -4.276  1.00 20.00     0.003 C 
HETATM    8  C8  UNL     1     -35.856  14.656  -5.179  1.00 20.00    -0.004 C 
HETATM    9  C9  UNL     1     -34.659  14.887  -3.272  1.00 20.00     0.020 C 
HETATM   10  C10 UNL     1     -34.246  13.478  -3.787  1.00 20.00     0.123 C 
ENDROOT
BRANCH  10  11
HETATM   11  O11 UNL     1     -32.849  13.271  -3.833  1.00 20.00    -0.395 OA
HETATM   12  H25 UNL     1     -32.519  13.706  -4.639  1.00 20.00     0.210 HD
ENDBRANCH  10  11
TORSDOF 1
ENDMDL
MODEL 6
REMARK VINA RESULT:      -4.7      1.417      3.136
REMARK  1 active torsions:
REMARK  status: ('A' for Active; 'I' for Inactive)
REMARK    1  A    between atoms: C10_10  and  O11_11 
ROOT
HETATM    1  C1  UNL     1     -34.408  16.505  -7.228  1.00 20.00    -0.030 C 
HETATM    2  C2  UNL     1     -34.070  17.004  -6.018  1.00 20.00    -0.025 C 
HETATM    3  C3  UNL     1     -34.501  14.977  -7.203  1.00 20.00     0.032 C 
HETATM    4  C4  UNL     1     -33.364  13.953  -3.919  1.00 20.00     0.013 C 
HETATM    5  C5  UNL     1     -35.125  15.332  -3.050  1.00 20.00     0.037 C 
HETATM    6  C6  UNL     1     -33.714  15.848  -5.159  1.00 20.00     0.017 C 
HETATM    7  C7  UNL     1     -34.746  14.855  -5.719  1.00 20.00     0.003 C 
HETATM    8  C8  UNL     1     -33.717  15.449  -3.681  1.00 20.00    -0.004 C 
HETATM    9  C9  UNL     1     -34.640  13.671  -4.736  1.00 20.00     0.020 C 
HETATM   10  C10 UNL     1     -35.651  13.975  -3.593  1.00 20.00     0.123 C 
ENDROOT
BRANCH  10  11
HETATM   11  O11 UNL     1     -36.994  14.064  -4.024  1.00 20.00    -0.395 OA
HETATM   12  H25 UNL     1     -37.463  13.291  -3.665  1.00 20.00     0.210 HD
ENDBRANCH  10  11
TORSDOF 1
ENDMDL
MODEL 7
REMARK VINA RESULT:      -4.7      1.802      3.629
REMARK  1 active torsions:
REMARK  status: ('A' for Active; 'I' for Inactive)
REMARK    1  A    between atoms: C10_10  and  O11_11 
ROOT
HETATM    1  C1  UNL     1     -35.078  13.312  -4.286  1.00 20.00    -0.030 C 
HETATM    2  C2  UNL     1     -35.885  14.346  -4.615  1.00 20.00    -0.025 C 
HETATM    3  C3  UNL     1     -33.773  13.795  -3.648  1.00 20.00     0.032 C 
HETATM    4  C4  UNL     1     -33.813  17.410  -3.886  1.00 20.00     0.013 C 
HETATM    5  C5  UNL     1     -35.861  17.315  -2.640  1.00 20.00     0.037 C 
HETATM    6  C6  UNL     1     -35.099  15.587  -4.413  1.00 20.00     0.017 C 
HETATM    7  C7  UNL     1     -34.307  15.127  -3.178  1.00 20.00     0.003 C 
HETATM    8  C8  UNL     1     -35.318  17.063  -4.067  1.00 20.00    -0.004 C 
HETATM    9  C9  UNL     1     -33.616  16.426  -2.718  1.00 20.00     0.020 C 
HETATM   10  C10 UNL     1     -34.611  17.114  -1.740  1.00 20.00     0.123 C 
ENDROOT
BRANCH  10  11
HETATM   11  O11 UNL     1     -34.907  16.348  -0.589  1.00 20.00    -0.395 OA
HETATM   12  H25 UNL     1     -34.245  15.636  -0.539  1.00 20.00     0.210 HD
ENDBRANCH  10  11
TORSDOF 1
ENDMDL
MODEL 8
REMARK VINA RESULT:      -4.6      1.633      3.441
REMARK  1 active torsions:
REMARK  status: ('A' for Active; 'I' for Inactive)
REMARK    1  A    between atoms: C10_10  and  O11_11 
ROOT
HETATM    1  C1  UNL     1     -35.126  15.212  -7.348  1.00 20.00    -0.030 C 
HETATM    2  C2  UNL     1     -34.465  16.282  -6.852  1.00 20.00    -0.025 C 
HETATM    3  C3  UNL     1     -35.096  14.030  -6.377  1.00 20.00     0.032 C 
HETATM    4  C4  UNL     1     -32.924  15.021  -3.651  1.00 20.00     0.013 C 
HETATM    5  C5  UNL     1     -34.422  16.868  -3.335  1.00 20.00     0.037 C 
HETATM    6  C6  UNL     1     -33.777  15.830  -5.618  1.00 20.00     0.017 C 
HETATM    7  C7  UNL     1     -34.858  14.850  -5.132  1.00 20.00     0.003 C 
HETATM    8  C8  UNL     1     -33.292  16.395  -4.280  1.00 20.00    -0.004 C 
HETATM    9  C9  UNL     1     -34.366  14.483  -3.717  1.00 20.00     0.020 C 
HETATM   10  C10 UNL     1     -34.991  15.541  -2.762  1.00 20.00     0.123 C 
ENDROOT
BRANCH  10  11
HETATM   11  O11 UNL     1     -36.404  15.536  -2.747  1.00 20.00    -0.395 OA
HETATM   12  H25 UNL     1     -36.695  14.734  -3.215  1.00 20.00     0.210 HD
ENDBRANCH  10  11
TORSDOF 1
ENDMDL
MODEL 9
REMARK VINA RESULT:      -4.6      1.642      3.398
REMARK  1 active torsions:
REMARK  status: ('A' for Active; 'I' for Inactive)
REMARK    1  A    between atoms: C10_10  and  O11_11 
ROOT
HETATM    1  C1  UNL     1     -35.720  15.733  -7.716  1.00 20.00    -0.030 C 
HETATM    2  C2  UNL     1     -36.264  16.330  -6.631  1.00 20.00    -0.025 C 
HETATM    3  C3  UNL     1     -34.393  15.049  -7.377  1.00 20.00     0.032 C 
HETATM    4  C4  UNL     1     -33.651  15.936  -3.943  1.00 20.00     0.013 C 
HETATM    5  C5  UNL     1     -35.759  14.930  -3.391  1.00 20.00     0.037 C 
HETATM    6  C6  UNL     1     -35.251  16.267  -5.550  1.00 20.00     0.017 C 
HETATM    7  C7  UNL     1     -34.667  14.889  -5.901  1.00 20.00     0.003 C 
HETATM    8  C8  UNL     1     -35.179  16.218  -4.021  1.00 20.00    -0.004 C 
HETATM    9  C9  UNL     1     -33.753  14.595  -4.694  1.00 20.00     0.020 C 
HETATM   10  C10 UNL     1     -34.649  13.874  -3.647  1.00 20.00     0.123 C 
ENDROOT
BRANCH  10  11
HETATM   11  O11 UNL     1     -35.183  12.645  -4.097  1.00 20.00    -0.395 OA
HETATM   12  H25 UNL     1     -36.094  12.819  -4.394  1.00 20.00     0.210 HD
ENDBRANCH  10  11
TORSDOF 1
ENDMDL
