MODEL 1
REMARK VINA RESULT:      -3.3      0.000      0.000
REMARK  0 active torsions:
REMARK  status: ('A' for Active; 'I' for Inactive)
ROOT
HETATM    1  C1  UNL     1     -33.277   5.792   3.980  1.00 20.00     0.101 C 
HETATM    2  C2  UNL     1     -34.351   3.984   5.280  1.00 20.00     0.067 C 
HETATM    3  C3  UNL     1     -34.409   5.442   4.842  1.00 20.00     0.197 C 
HETATM    4  N4  UNL     1     -32.379   6.066   3.297  1.00 20.00    -0.194 NA
HETATM    5 CL5  UNL     1     -34.366   6.506   6.273  1.00 20.00    -0.085 Cl
HETATM    6 CL6  UNL     1     -35.913   5.738   3.929  1.00 20.00    -0.085 Cl
ENDROOT
TORSDOF 0
ENDMDL
MODEL 2
REMARK VINA RESULT:      -3.3     12.084     12.697
REMARK  0 active torsions:
REMARK  status: ('A' for Active; 'I' for Inactive)
ROOT
HETATM    1  C1  UNL     1     -34.534  13.700  -4.208  1.00 20.00     0.101 C 
HETATM    2  C2  UNL     1     -33.991  15.970  -5.021  1.00 20.00     0.067 C 
HETATM    3  C3  UNL     1     -33.891  14.973  -3.874  1.00 20.00     0.197 C 
HETATM    4  N4  UNL     1     -35.045  12.692  -4.476  1.00 20.00    -0.194 NA
HETATM    5 CL5  UNL     1     -34.692  15.636  -2.425  1.00 20.00    -0.085 Cl
HETATM    6 CL6  UNL     1     -32.176  14.648  -3.506  1.00 20.00    -0.085 Cl
ENDROOT
TORSDOF 0
ENDMDL
MODEL 3
REMARK VINA RESULT:      -3.3     12.198     12.709
REMARK  0 active torsions:
REMARK  status: ('A' for Active; 'I' for Inactive)
ROOT
HETATM    1  C1  UNL     1     -34.541  13.702  -4.203  1.00 20.00     0.101 C 
HETATM    2  C2  UNL     1     -34.573  15.619  -2.644  1.00 20.00     0.067 C 
HETATM    3  C3  UNL     1     -33.908  14.977  -3.854  1.00 20.00     0.197 C 
HETATM    4  N4  UNL     1     -35.044  12.692  -4.477  1.00 20.00    -0.194 NA
HETATM    5 CL5  UNL     1     -32.187  14.665  -3.505  1.00 20.00    -0.085 Cl
HETATM    6 CL6  UNL     1     -34.038  16.063  -5.262  1.00 20.00    -0.085 Cl
ENDROOT
TORSDOF 0
ENDMDL
MODEL 4
REMARK VINA RESULT:      -3.2      1.362      1.956
REMARK  0 active torsions:
REMARK  status: ('A' for Active; 'I' for Inactive)
ROOT
HETATM    1  C1  UNL     1     -33.205   5.827   3.948  1.00 20.00     0.101 C 
HETATM    2  C2  UNL     1     -35.670   5.689   4.062  1.00 20.00     0.067 C 
HETATM    3  C3  UNL     1     -34.351   5.501   4.800  1.00 20.00     0.197 C 
HETATM    4  N4  UNL     1     -32.299   6.088   3.271  1.00 20.00    -0.194 NA
HETATM    5 CL5  UNL     1     -34.188   3.803   5.323  1.00 20.00    -0.085 Cl
HETATM    6 CL6  UNL     1     -34.302   6.567   6.229  1.00 20.00    -0.085 Cl
ENDROOT
TORSDOF 0
ENDMDL
MODEL 5
REMARK VINA RESULT:      -3.1     12.180     12.855
REMARK  0 active torsions:
REMARK  status: ('A' for Active; 'I' for Inactive)
ROOT
HETATM    1  C1  UNL     1     -36.521  14.601  -3.745  1.00 20.00     0.101 C 
HETATM    2  C2  UNL     1     -34.215  13.714  -3.713  1.00 20.00     0.067 C 
HETATM    3  C3  UNL     1     -35.101  14.951  -3.666  1.00 20.00     0.197 C 
HETATM    4  N4  UNL     1     -37.646  14.320  -3.807  1.00 20.00    -0.194 NA
HETATM    5 CL5  UNL     1     -34.717  16.022  -5.041  1.00 20.00    -0.085 Cl
HETATM    6 CL6  UNL     1     -34.831  15.831  -2.139  1.00 20.00    -0.085 Cl
ENDROOT
TORSDOF 0
ENDMDL
MODEL 6
REMARK VINA RESULT:      -3.1      2.434      2.699
REMARK  0 active torsions:
REMARK  status: ('A' for Active; 'I' for Inactive)
ROOT
HETATM    1  C1  UNL     1     -34.178   6.204   5.715  1.00 20.00     0.101 C 
HETATM    2  C2  UNL     1     -35.760   5.762   3.868  1.00 20.00     0.067 C 
HETATM    3  C3  UNL     1     -34.469   5.348   4.562  1.00 20.00     0.197 C 
HETATM    4  N4  UNL     1     -33.951   6.884   6.628  1.00 20.00    -0.194 NA
HETATM    5 CL5  UNL     1     -33.103   5.470   3.422  1.00 20.00    -0.085 Cl
HETATM    6 CL6  UNL     1     -34.607   3.667   5.141  1.00 20.00    -0.085 Cl
ENDROOT
TORSDOF 0
ENDMDL
MODEL 7
REMARK VINA RESULT:      -3.1     13.151     13.900
REMARK  0 active torsions:
REMARK  status: ('A' for Active; 'I' for Inactive)
ROOT
HETATM    1  C1  UNL     1     -34.720  13.814  -5.025  1.00 20.00     0.101 C 
HETATM    2  C2  UNL     1     -34.419  15.016  -7.163  1.00 20.00     0.067 C 
HETATM    3  C3  UNL     1     -34.637  15.131  -5.660  1.00 20.00     0.197 C 
HETATM    4  N4  UNL     1     -34.785  12.768  -4.524  1.00 20.00    -0.194 NA
HETATM    5 CL5  UNL     1     -36.161  16.000  -5.335  1.00 20.00    -0.085 Cl
HETATM    6 CL6  UNL     1     -33.280  16.020  -4.919  1.00 20.00    -0.085 Cl
ENDROOT
TORSDOF 0
ENDMDL
MODEL 8
REMARK VINA RESULT:      -3.1     12.432     12.810
REMARK  0 active torsions:
REMARK  status: ('A' for Active; 'I' for Inactive)
ROOT
HETATM    1  C1  UNL     1     -36.397  14.673  -3.694  1.00 20.00     0.101 C 
HETATM    2  C2  UNL     1     -34.633  16.080  -4.703  1.00 20.00     0.067 C 
HETATM    3  C3  UNL     1     -35.005  15.115  -3.585  1.00 20.00     0.197 C 
HETATM    4  N4  UNL     1     -37.501  14.325  -3.784  1.00 20.00    -0.194 NA
HETATM    5 CL5  UNL     1     -34.799  15.913  -2.003  1.00 20.00    -0.085 Cl
HETATM    6 CL6  UNL     1     -33.958  13.672  -3.659  1.00 20.00    -0.085 Cl
ENDROOT
TORSDOF 0
ENDMDL
MODEL 9
REMARK VINA RESULT:      -3.0     13.131     13.789
REMARK  0 active torsions:
REMARK  status: ('A' for Active; 'I' for Inactive)
ROOT
HETATM    1  C1  UNL     1     -34.751  13.820  -4.867  1.00 20.00     0.101 C 
HETATM    2  C2  UNL     1     -33.427  15.902  -4.731  1.00 20.00     0.067 C 
HETATM    3  C3  UNL     1     -34.577  15.169  -5.410  1.00 20.00     0.197 C 
HETATM    4  N4  UNL     1     -34.887  12.750  -4.435  1.00 20.00    -0.194 NA
HETATM    5 CL5  UNL     1     -34.255  15.026  -7.159  1.00 20.00    -0.085 Cl
HETATM    6 CL6  UNL     1     -36.097  16.068  -5.160  1.00 20.00    -0.085 Cl
ENDROOT
TORSDOF 0
ENDMDL
