MODEL 1
REMARK VINA RESULT:      -4.6      0.000      0.000
REMARK  0 active torsions:
REMARK  status: ('A' for Active; 'I' for Inactive)
ROOT
HETATM    1  C1  UNL     1     -34.377  15.534  -2.292  1.00 20.00     0.015 A 
HETATM    2  C2  UNL     1     -34.054  16.896  -2.291  1.00 20.00     0.025 A 
HETATM    3  C3  UNL     1     -34.815  13.521  -3.891  1.00 20.00     0.031 A 
HETATM    4  C4  UNL     1     -33.985  16.937  -4.720  1.00 20.00     0.054 A 
HETATM    5  C5  UNL     1     -34.798  13.449  -5.265  1.00 20.00     0.091 A 
HETATM    6  C6  UNL     1     -34.507  14.860  -3.523  1.00 20.00    -0.008 A 
HETATM    7  C7  UNL     1     -34.308  15.574  -4.705  1.00 20.00     0.045 A 
HETATM    8  C8  UNL     1     -33.861  17.584  -3.487  1.00 20.00     0.036 A 
HETATM    9  C9  UNL     1     -34.378  15.017  -7.153  1.00 20.00     0.155 C 
HETATM   10  N10 UNL     1     -34.492  14.693  -5.747  1.00 20.00    -0.360 N 
HETATM   11 CL11 UNL     1     -33.464  19.261  -3.450  1.00 20.00    -0.084 Cl
ENDROOT
TORSDOF 0
ENDMDL
MODEL 2
REMARK VINA RESULT:      -4.5      2.347      3.767
REMARK  0 active torsions:
REMARK  status: ('A' for Active; 'I' for Inactive)
ROOT
HETATM    1  C1  UNL     1     -34.721  14.362  -3.415  1.00 20.00     0.015 A 
HETATM    2  C2  UNL     1     -34.676  14.138  -4.796  1.00 20.00     0.025 A 
HETATM    3  C3  UNL     1     -34.415  16.228  -1.619  1.00 20.00     0.031 A 
HETATM    4  C4  UNL     1     -34.108  16.464  -5.210  1.00 20.00     0.054 A 
HETATM    5  C5  UNL     1     -34.097  17.560  -1.757  1.00 20.00     0.091 A 
HETATM    6  C6  UNL     1     -34.456  15.655  -2.920  1.00 20.00    -0.008 A 
HETATM    7  C7  UNL     1     -34.156  16.673  -3.826  1.00 20.00     0.045 A 
HETATM    8  C8  UNL     1     -34.374  15.174  -5.677  1.00 20.00     0.036 A 
HETATM    9  C9  UNL     1     -33.606  19.116  -3.637  1.00 20.00     0.155 C 
HETATM   10  N10 UNL     1     -33.943  17.819  -3.092  1.00 20.00    -0.360 N 
HETATM   11 CL11 UNL     1     -34.328  14.863  -7.372  1.00 20.00    -0.084 Cl
ENDROOT
TORSDOF 0
ENDMDL
MODEL 3
REMARK VINA RESULT:      -4.5      1.441      2.512
REMARK  0 active torsions:
REMARK  status: ('A' for Active; 'I' for Inactive)
ROOT
HETATM    1  C1  UNL     1     -33.755  17.855  -4.165  1.00 20.00     0.015 A 
HETATM    2  C2  UNL     1     -33.930  17.885  -2.777  1.00 20.00     0.025 A 
HETATM    3  C3  UNL     1     -33.918  16.268  -6.229  1.00 20.00     0.031 A 
HETATM    4  C4  UNL     1     -34.575  15.541  -2.753  1.00 20.00     0.054 A 
HETATM    5  C5  UNL     1     -34.270  14.941  -6.311  1.00 20.00     0.091 A 
HETATM    6  C6  UNL     1     -33.992  16.652  -4.861  1.00 20.00    -0.008 A 
HETATM    7  C7  UNL     1     -34.395  15.526  -4.141  1.00 20.00     0.045 A 
HETATM    8  C8  UNL     1     -34.333  16.745  -2.084  1.00 20.00     0.036 A 
HETATM    9  C9  UNL     1     -34.970  13.153  -4.727  1.00 20.00     0.155 C 
HETATM   10  N10 UNL     1     -34.557  14.502  -5.047  1.00 20.00    -0.360 N 
HETATM   11 CL11 UNL     1     -34.540  16.818  -0.374  1.00 20.00    -0.084 Cl
ENDROOT
TORSDOF 0
ENDMDL
MODEL 4
REMARK VINA RESULT:      -4.4      1.785      3.431
REMARK  0 active torsions:
REMARK  status: ('A' for Active; 'I' for Inactive)
ROOT
HETATM    1  C1  UNL     1     -35.037  14.406  -7.140  1.00 20.00     0.015 A 
HETATM    2  C2  UNL     1     -34.930  15.643  -7.787  1.00 20.00     0.025 A 
HETATM    3  C3  UNL     1     -34.726  13.261  -4.817  1.00 20.00     0.031 A 
HETATM    4  C4  UNL     1     -34.212  16.718  -5.729  1.00 20.00     0.054 A 
HETATM    5  C5  UNL     1     -34.328  13.784  -3.608  1.00 20.00     0.091 A 
HETATM    6  C6  UNL     1     -34.728  14.320  -5.767  1.00 20.00    -0.008 A 
HETATM    7  C7  UNL     1     -34.324  15.474  -5.095  1.00 20.00     0.045 A 
HETATM    8  C8  UNL     1     -34.524  16.779  -7.090  1.00 20.00     0.036 A 
HETATM    9  C9  UNL     1     -33.650  16.015  -2.737  1.00 20.00     0.155 C 
HETATM   10  N10 UNL     1     -34.087  15.119  -3.786  1.00 20.00    -0.360 N 
HETATM   11 CL11 UNL     1     -34.404  18.287  -7.917  1.00 20.00    -0.084 Cl
ENDROOT
TORSDOF 0
ENDMDL
MODEL 5
REMARK VINA RESULT:      -4.4     12.259     13.671
REMARK  0 active torsions:
REMARK  status: ('A' for Active; 'I' for Inactive)
ROOT
HETATM    1  C1  UNL     1     -40.879   4.065  -1.526  1.00 20.00     0.015 A 
HETATM    2  C2  UNL     1     -41.566   3.253  -2.435  1.00 20.00     0.025 A 
HETATM    3  C3  UNL     1     -40.769   6.510  -0.622  1.00 20.00     0.031 A 
HETATM    4  C4  UNL     1     -42.961   5.117  -3.132  1.00 20.00     0.054 A 
HETATM    5  C5  UNL     1     -41.510   7.620  -0.954  1.00 20.00     0.091 A 
HETATM    6  C6  UNL     1     -41.236   5.425  -1.415  1.00 20.00    -0.008 A 
HETATM    7  C7  UNL     1     -42.265   5.918  -2.219  1.00 20.00     0.045 A 
HETATM    8  C8  UNL     1     -42.590   3.772  -3.224  1.00 20.00     0.036 A 
HETATM    9  C9  UNL     1     -43.370   8.153  -2.521  1.00 20.00     0.155 C 
HETATM   10  N10 UNL     1     -42.410   7.254  -1.918  1.00 20.00    -0.360 N 
HETATM   11 CL11 UNL     1     -43.416   2.742  -4.333  1.00 20.00    -0.084 Cl
ENDROOT
TORSDOF 0
ENDMDL
MODEL 6
REMARK VINA RESULT:      -4.4     11.864     13.284
REMARK  0 active torsions:
REMARK  status: ('A' for Active; 'I' for Inactive)
ROOT
HETATM    1  C1  UNL     1     -34.207   5.055   2.969  1.00 20.00     0.015 A 
HETATM    2  C2  UNL     1     -33.384   5.886   2.199  1.00 20.00     0.025 A 
HETATM    3  C3  UNL     1     -35.079   4.700   5.401  1.00 20.00     0.031 A 
HETATM    4  C4  UNL     1     -32.836   7.236   4.144  1.00 20.00     0.054 A 
HETATM    5  C5  UNL     1     -34.825   5.406   6.555  1.00 20.00     0.091 A 
HETATM    6  C6  UNL     1     -34.349   5.316   4.347  1.00 20.00    -0.008 A 
HETATM    7  C7  UNL     1     -33.662   6.397   4.901  1.00 20.00     0.045 A 
HETATM    8  C8  UNL     1     -32.711   6.959   2.780  1.00 20.00     0.036 A 
HETATM    9  C9  UNL     1     -33.472   7.393   7.199  1.00 20.00     0.155 C 
HETATM   10  N10 UNL     1     -33.969   6.427   6.243  1.00 20.00    -0.360 N 
HETATM   11 CL11 UNL     1     -31.706   7.962   1.802  1.00 20.00    -0.084 Cl
ENDROOT
TORSDOF 0
ENDMDL
MODEL 7
REMARK VINA RESULT:      -4.4      1.964      3.181
REMARK  0 active torsions:
REMARK  status: ('A' for Active; 'I' for Inactive)
ROOT
HETATM    1  C1  UNL     1     -33.770  18.656  -2.653  1.00 20.00     0.015 A 
HETATM    2  C2  UNL     1     -34.180  18.589  -1.316  1.00 20.00     0.025 A 
HETATM    3  C3  UNL     1     -33.430  17.186  -4.780  1.00 20.00     0.031 A 
HETATM    4  C4  UNL     1     -34.594  16.201  -1.506  1.00 20.00     0.054 A 
HETATM    5  C5  UNL     1     -33.635  15.841  -4.980  1.00 20.00     0.091 A 
HETATM    6  C6  UNL     1     -33.771  17.481  -3.431  1.00 20.00    -0.008 A 
HETATM    7  C7  UNL     1     -34.181  16.284  -2.842  1.00 20.00     0.045 A 
HETATM    8  C8  UNL     1     -34.585  17.379  -0.754  1.00 20.00     0.036 A 
HETATM    9  C9  UNL     1     -34.420  13.909  -3.621  1.00 20.00     0.155 C 
HETATM   10  N10 UNL     1     -34.089  15.305  -3.806  1.00 20.00    -0.360 N 
HETATM   11 CL11 UNL     1     -35.084  17.333   0.895  1.00 20.00    -0.084 Cl
ENDROOT
TORSDOF 0
ENDMDL
MODEL 8
REMARK VINA RESULT:      -4.3      1.779      2.766
REMARK  0 active torsions:
REMARK  status: ('A' for Active; 'I' for Inactive)
ROOT
HETATM    1  C1  UNL     1     -34.497  13.801  -4.718  1.00 20.00     0.015 A 
HETATM    2  C2  UNL     1     -34.477  14.259  -3.396  1.00 20.00     0.025 A 
HETATM    3  C3  UNL     1     -34.746  14.623  -7.181  1.00 20.00     0.031 A 
HETATM    4  C4  UNL     1     -34.810  16.552  -4.128  1.00 20.00     0.054 A 
HETATM    5  C5  UNL     1     -34.936  15.889  -7.686  1.00 20.00     0.091 A 
HETATM    6  C6  UNL     1     -34.676  14.729  -5.764  1.00 20.00    -0.008 A 
HETATM    7  C7  UNL     1     -34.829  16.079  -5.446  1.00 20.00     0.045 A 
HETATM    8  C8  UNL     1     -34.631  15.614  -3.108  1.00 20.00     0.036 A 
HETATM    9  C9  UNL     1     -35.171  18.189  -6.764  1.00 20.00     0.155 C 
HETATM   10  N10 UNL     1     -34.985  16.761  -6.632  1.00 20.00    -0.360 N 
HETATM   11 CL11 UNL     1     -34.600  16.144  -1.468  1.00 20.00    -0.084 Cl
ENDROOT
TORSDOF 0
ENDMDL
MODEL 9
REMARK VINA RESULT:      -4.2      2.615      4.581
REMARK  0 active torsions:
REMARK  status: ('A' for Active; 'I' for Inactive)
ROOT
HETATM    1  C1  UNL     1     -33.568  17.100  -5.243  1.00 20.00     0.015 A 
HETATM    2  C2  UNL     1     -33.761  15.735  -5.487  1.00 20.00     0.025 A 
HETATM    3  C3  UNL     1     -33.641  18.884  -3.342  1.00 20.00     0.031 A 
HETATM    4  C4  UNL     1     -34.315  15.341  -3.153  1.00 20.00     0.054 A 
HETATM    5  C5  UNL     1     -33.941  18.755  -2.005  1.00 20.00     0.091 A 
HETATM    6  C6  UNL     1     -33.750  17.596  -3.936  1.00 20.00    -0.008 A 
HETATM    7  C7  UNL     1     -34.118  16.708  -2.924  1.00 20.00     0.045 A 
HETATM    8  C8  UNL     1     -34.129  14.871  -4.457  1.00 20.00     0.036 A 
HETATM    9  C9  UNL     1     -34.589  16.909  -0.466  1.00 20.00     0.155 C 
HETATM   10  N10 UNL     1     -34.227  17.439  -1.763  1.00 20.00    -0.360 N 
HETATM   11 CL11 UNL     1     -34.358  13.196  -4.793  1.00 20.00    -0.084 Cl
ENDROOT
TORSDOF 0
ENDMDL
