MODEL 1
REMARK VINA RESULT:      -4.5      0.000      0.000
REMARK  3 active torsions:
REMARK  status: ('A' for Active; 'I' for Inactive)
REMARK    1  A    between atoms: C1_1  and  C3_3 
REMARK    2  A    between atoms: C3_3  and  O9_9 
REMARK    3  A    between atoms: C7_7  and  O9_9 
ROOT
HETATM    1  C3  UNL     1     -33.625   5.911   3.245  1.00 20.00     0.282 C 
HETATM    2  O8  UNL     1     -34.084   5.316   2.284  1.00 20.00    -0.260 OA
ENDROOT
BRANCH   1   3
HETATM    3  C1  UNL     1     -32.198   6.245   3.445  1.00 20.00     0.077 C 
HETATM    4  C2  UNL     1     -31.688   7.356   2.898  1.00 20.00    -0.025 C 
HETATM    5  C4  UNL     1     -32.490   8.309   2.073  1.00 20.00     0.036 C 
ENDBRANCH   1   3
BRANCH   1   6
HETATM    6  O9  UNL     1     -34.313   6.385   4.319  1.00 20.00    -0.314 OA
BRANCH   6   7
HETATM    7  C7  UNL     1     -33.999   5.767   5.572  1.00 20.00     0.124 C 
HETATM    8  C5  UNL     1     -33.943   6.833   6.655  1.00 20.00     0.040 C 
HETATM    9  C6  UNL     1     -35.040   4.701   5.878  1.00 20.00     0.040 C 
ENDBRANCH   6   7
ENDBRANCH   1   6
TORSDOF 3
ENDMDL
MODEL 2
REMARK VINA RESULT:      -4.0      1.060      3.847
REMARK  3 active torsions:
REMARK  status: ('A' for Active; 'I' for Inactive)
REMARK    1  A    between atoms: C1_1  and  C3_3 
REMARK    2  A    between atoms: C3_3  and  O9_9 
REMARK    3  A    between atoms: C7_7  and  O9_9 
ROOT
HETATM    1  C3  UNL     1     -33.863   5.888   3.748  1.00 20.00     0.282 C 
HETATM    2  O8  UNL     1     -34.737   5.370   3.071  1.00 20.00    -0.260 OA
ENDROOT
BRANCH   1   3
HETATM    3  C1  UNL     1     -34.016   6.335   5.149  1.00 20.00     0.077 C 
HETATM    4  C2  UNL     1     -34.478   5.485   6.076  1.00 20.00    -0.025 C 
HETATM    5  C4  UNL     1     -34.860   4.072   5.777  1.00 20.00     0.036 C 
ENDBRANCH   1   3
BRANCH   1   6
HETATM    6  O9  UNL     1     -32.586   6.160   3.365  1.00 20.00    -0.314 OA
BRANCH   6   7
HETATM    7  C7  UNL     1     -32.243   7.549   3.315  1.00 20.00     0.124 C 
HETATM    8  C5  UNL     1     -30.993   7.786   4.148  1.00 20.00     0.040 C 
HETATM    9  C6  UNL     1     -32.044   7.963   1.864  1.00 20.00     0.040 C 
ENDBRANCH   6   7
ENDBRANCH   1   6
TORSDOF 3
ENDMDL
MODEL 3
REMARK VINA RESULT:      -3.9     11.354     12.865
REMARK  3 active torsions:
REMARK  status: ('A' for Active; 'I' for Inactive)
REMARK    1  A    between atoms: C1_1  and  C3_3 
REMARK    2  A    between atoms: C3_3  and  O9_9 
REMARK    3  A    between atoms: C7_7  and  O9_9 
ROOT
HETATM    1  C3  UNL     1     -35.356  13.889  -4.455  1.00 20.00     0.282 C 
HETATM    2  O8  UNL     1     -35.048  12.709  -4.435  1.00 20.00    -0.260 OA
ENDROOT
BRANCH   1   3
HETATM    3  C1  UNL     1     -35.311  14.808  -3.297  1.00 20.00     0.077 C 
HETATM    4  C2  UNL     1     -34.142  15.329  -2.901  1.00 20.00    -0.025 C 
HETATM    5  C4  UNL     1     -32.842  15.033  -3.574  1.00 20.00     0.036 C 
ENDBRANCH   1   3
BRANCH   1   6
HETATM    6  O9  UNL     1     -35.801  14.600  -5.527  1.00 20.00    -0.314 OA
BRANCH   6   7
HETATM    7  C7  UNL     1     -34.920  14.628  -6.654  1.00 20.00     0.124 C 
HETATM    8  C5  UNL     1     -35.714  14.336  -7.918  1.00 20.00     0.040 C 
HETATM    9  C6  UNL     1     -34.232  15.984  -6.718  1.00 20.00     0.040 C 
ENDBRANCH   6   7
ENDBRANCH   1   6
TORSDOF 3
ENDMDL
MODEL 4
REMARK VINA RESULT:      -3.9     11.377     12.338
REMARK  3 active torsions:
REMARK  status: ('A' for Active; 'I' for Inactive)
REMARK    1  A    between atoms: C1_1  and  C3_3 
REMARK    2  A    between atoms: C3_3  and  O9_9 
REMARK    3  A    between atoms: C7_7  and  O9_9 
ROOT
HETATM    1  C3  UNL     1     -33.294  16.046  -4.102  1.00 20.00     0.282 C 
HETATM    2  O8  UNL     1     -32.916  16.553  -5.146  1.00 20.00    -0.260 OA
ENDROOT
BRANCH   1   3
HETATM    3  C1  UNL     1     -32.797  14.772  -3.539  1.00 20.00     0.077 C 
HETATM    4  C2  UNL     1     -33.435  13.626  -3.814  1.00 20.00    -0.025 C 
HETATM    5  C4  UNL     1     -34.650  13.549  -4.679  1.00 20.00     0.036 C 
ENDBRANCH   1   3
BRANCH   1   6
HETATM    6  O9  UNL     1     -34.235  16.534  -3.250  1.00 20.00    -0.314 OA
BRANCH   6   7
HETATM    7  C7  UNL     1     -33.740  17.008  -1.993  1.00 20.00     0.124 C 
HETATM    8  C5  UNL     1     -33.589  18.520  -2.053  1.00 20.00     0.040 C 
HETATM    9  C6  UNL     1     -34.691  16.577  -0.886  1.00 20.00     0.040 C 
ENDBRANCH   6   7
ENDBRANCH   1   6
TORSDOF 3
ENDMDL
MODEL 5
REMARK VINA RESULT:      -3.8     11.136     12.008
REMARK  3 active torsions:
REMARK  status: ('A' for Active; 'I' for Inactive)
REMARK    1  A    between atoms: C1_1  and  C3_3 
REMARK    2  A    between atoms: C3_3  and  O9_9 
REMARK    3  A    between atoms: C7_7  and  O9_9 
ROOT
HETATM    1  C3  UNL     1     -34.011  14.089  -3.703  1.00 20.00     0.282 C 
HETATM    2  O8  UNL     1     -32.815  13.861  -3.618  1.00 20.00    -0.260 OA
ENDROOT
BRANCH   1   3
HETATM    3  C1  UNL     1     -34.950  13.410  -4.622  1.00 20.00     0.077 C 
HETATM    4  C2  UNL     1     -35.114  13.870  -5.870  1.00 20.00    -0.025 C 
HETATM    5  C4  UNL     1     -34.389  15.059  -6.409  1.00 20.00     0.036 C 
ENDBRANCH   1   3
BRANCH   1   6
HETATM    6  O9  UNL     1     -34.723  15.001  -2.986  1.00 20.00    -0.314 OA
BRANCH   6   7
HETATM    7  C7  UNL     1     -33.962  16.082  -2.438  1.00 20.00     0.124 C 
HETATM    8  C5  UNL     1     -33.918  17.223  -3.443  1.00 20.00     0.040 C 
HETATM    9  C6  UNL     1     -34.584  16.513  -1.118  1.00 20.00     0.040 C 
ENDBRANCH   6   7
ENDBRANCH   1   6
TORSDOF 3
ENDMDL
MODEL 6
REMARK VINA RESULT:      -3.8      1.567      2.261
REMARK  3 active torsions:
REMARK  status: ('A' for Active; 'I' for Inactive)
REMARK    1  A    between atoms: C1_1  and  C3_3 
REMARK    2  A    between atoms: C3_3  and  O9_9 
REMARK    3  A    between atoms: C7_7  and  O9_9 
ROOT
HETATM    1  C3  UNL     1     -32.101   7.504   3.221  1.00 20.00     0.282 C 
HETATM    2  O8  UNL     1     -31.220   7.664   4.050  1.00 20.00    -0.260 OA
ENDROOT
BRANCH   1   3
HETATM    3  C1  UNL     1     -31.924   7.590   1.755  1.00 20.00     0.077 C 
HETATM    4  C2  UNL     1     -32.139   8.753   1.123  1.00 20.00    -0.025 C 
HETATM    5  C4  UNL     1     -32.558  10.003   1.823  1.00 20.00     0.036 C 
ENDBRANCH   1   3
BRANCH   1   6
HETATM    6  O9  UNL     1     -33.409   7.219   3.461  1.00 20.00    -0.314 OA
BRANCH   6   7
HETATM    7  C7  UNL     1     -33.651   6.012   4.192  1.00 20.00     0.124 C 
HETATM    8  C5  UNL     1     -33.926   6.356   5.648  1.00 20.00     0.040 C 
HETATM    9  C6  UNL     1     -34.816   5.268   3.556  1.00 20.00     0.040 C 
ENDBRANCH   6   7
ENDBRANCH   1   6
TORSDOF 3
ENDMDL
MODEL 7
REMARK VINA RESULT:      -3.7     11.285     12.746
REMARK  3 active torsions:
REMARK  status: ('A' for Active; 'I' for Inactive)
REMARK    1  A    between atoms: C1_1  and  C3_3 
REMARK    2  A    between atoms: C3_3  and  O9_9 
REMARK    3  A    between atoms: C7_7  and  O9_9 
ROOT
HETATM    1  C3  UNL     1     -34.312  13.771  -4.704  1.00 20.00     0.282 C 
HETATM    2  O8  UNL     1     -34.907  12.730  -4.477  1.00 20.00    -0.260 OA
ENDROOT
BRANCH   1   3
HETATM    3  C1  UNL     1     -33.357  14.430  -3.787  1.00 20.00     0.077 C 
HETATM    4  C2  UNL     1     -33.803  15.291  -2.863  1.00 20.00    -0.025 C 
HETATM    5  C4  UNL     1     -35.245  15.640  -2.693  1.00 20.00     0.036 C 
ENDBRANCH   1   3
BRANCH   1   6
HETATM    6  O9  UNL     1     -34.400  14.535  -5.826  1.00 20.00    -0.314 OA
BRANCH   6   7
HETATM    7  C7  UNL     1     -35.703  14.616  -6.414  1.00 20.00     0.124 C 
HETATM    8  C5  UNL     1     -36.325  15.960  -6.068  1.00 20.00     0.040 C 
HETATM    9  C6  UNL     1     -35.585  14.416  -7.918  1.00 20.00     0.040 C 
ENDBRANCH   6   7
ENDBRANCH   1   6
TORSDOF 3
ENDMDL
MODEL 8
REMARK VINA RESULT:      -3.7      1.445      4.020
REMARK  3 active torsions:
REMARK  status: ('A' for Active; 'I' for Inactive)
REMARK    1  A    between atoms: C1_1  and  C3_3 
REMARK    2  A    between atoms: C3_3  and  O9_9 
REMARK    3  A    between atoms: C7_7  and  O9_9 
ROOT
HETATM    1  C3  UNL     1     -33.784   6.546   5.232  1.00 20.00     0.282 C 
HETATM    2  O8  UNL     1     -33.965   6.810   6.409  1.00 20.00    -0.260 OA
ENDROOT
BRANCH   1   3
HETATM    3  C1  UNL     1     -34.789   5.954   4.322  1.00 20.00     0.077 C 
HETATM    4  C2  UNL     1     -35.286   4.736   4.576  1.00 20.00    -0.025 C 
HETATM    5  C4  UNL     1     -34.879   3.912   5.753  1.00 20.00     0.036 C 
ENDBRANCH   1   3
BRANCH   1   6
HETATM    6  O9  UNL     1     -32.642   6.733   4.517  1.00 20.00    -0.314 OA
BRANCH   6   7
HETATM    7  C7  UNL     1     -32.797   6.714   3.094  1.00 20.00     0.124 C 
HETATM    8  C5  UNL     1     -32.152   7.958   2.503  1.00 20.00     0.040 C 
HETATM    9  C6  UNL     1     -32.179   5.439   2.540  1.00 20.00     0.040 C 
ENDBRANCH   6   7
ENDBRANCH   1   6
TORSDOF 3
ENDMDL
MODEL 9
REMARK VINA RESULT:      -3.6     11.270     13.249
REMARK  3 active torsions:
REMARK  status: ('A' for Active; 'I' for Inactive)
REMARK    1  A    between atoms: C1_1  and  C3_3 
REMARK    2  A    between atoms: C3_3  and  O9_9 
REMARK    3  A    between atoms: C7_7  and  O9_9 
ROOT
HETATM    1  C3  UNL     1     -33.221  15.716  -3.583  1.00 20.00     0.282 C 
HETATM    2  O8  UNL     1     -33.608  16.307  -2.588  1.00 20.00    -0.260 OA
ENDROOT
BRANCH   1   3
HETATM    3  C1  UNL     1     -33.041  14.252  -3.694  1.00 20.00     0.077 C 
HETATM    4  C2  UNL     1     -34.101  13.463  -3.917  1.00 20.00    -0.025 C 
HETATM    5  C4  UNL     1     -35.495  13.981  -4.064  1.00 20.00     0.036 C 
ENDBRANCH   1   3
BRANCH   1   6
HETATM    6  O9  UNL     1     -32.877  16.265  -4.779  1.00 20.00    -0.314 OA
BRANCH   6   7
HETATM    7  C7  UNL     1     -33.943  16.903  -5.491  1.00 20.00     0.124 C 
HETATM    8  C5  UNL     1     -33.581  18.361  -5.732  1.00 20.00     0.040 C 
HETATM    9  C6  UNL     1     -34.190  16.158  -6.795  1.00 20.00     0.040 C 
ENDBRANCH   6   7
ENDBRANCH   1   6
TORSDOF 3
ENDMDL
