MODEL 1
REMARK VINA RESULT:      -4.9      0.000      0.000
REMARK  0 active torsions:
REMARK  status: ('A' for Active; 'I' for Inactive)
ROOT
HETATM    1  C1  UNL     1     -34.449  16.332  -2.369  1.00 20.00     0.086 C 
HETATM    2  C2  UNL     1     -34.360  14.910  -5.812  1.00 20.00     0.017 C 
HETATM    3  C3  UNL     1     -35.866  16.166  -4.450  1.00 20.00     0.049 C 
HETATM    4  C4  UNL     1     -35.807  14.858  -5.287  1.00 20.00     0.020 C 
HETATM    5  C5  UNL     1     -33.760  14.956  -4.387  1.00 20.00     0.055 C 
HETATM    6  C6  UNL     1     -35.779  13.693  -4.309  1.00 20.00     0.155 A 
HETATM    7  C7  UNL     1     -34.411  13.745  -3.717  1.00 20.00     0.158 A 
HETATM    8  C8  UNL     1     -34.436  16.246  -3.833  1.00 20.00     0.132 C 
HETATM    9  N9  UNL     1     -34.460  16.400  -1.210  1.00 20.00    -0.195 NA
HETATM   10  O10 UNL     1     -34.827  12.654  -4.546  1.00 20.00    -0.374 OA
HETATM   11 CL11 UNL     1     -33.577  17.710  -4.414  1.00 20.00    -0.102 Cl
ENDROOT
TORSDOF 0
ENDMDL
MODEL 2
REMARK VINA RESULT:      -4.8      2.639      3.454
REMARK  0 active torsions:
REMARK  status: ('A' for Active; 'I' for Inactive)
ROOT
HETATM    1  C1  UNL     1     -36.569  14.505  -4.156  1.00 20.00     0.086 C 
HETATM    2  C2  UNL     1     -33.274  16.139  -4.753  1.00 20.00     0.017 C 
HETATM    3  C3  UNL     1     -34.101  14.108  -3.811  1.00 20.00     0.049 C 
HETATM    4  C4  UNL     1     -33.196  15.318  -3.451  1.00 20.00     0.020 C 
HETATM    5  C5  UNL     1     -34.814  16.262  -4.678  1.00 20.00     0.055 C 
HETATM    6  C6  UNL     1     -33.960  16.177  -2.455  1.00 20.00     0.155 A 
HETATM    7  C7  UNL     1     -35.030  16.820  -3.270  1.00 20.00     0.158 A 
HETATM    8  C8  UNL     1     -35.222  14.758  -4.678  1.00 20.00     0.132 C 
HETATM    9  N9  UNL     1     -37.634  14.304  -3.742  1.00 20.00    -0.195 NA
HETATM   10  O10 UNL     1     -33.978  17.589  -2.677  1.00 20.00    -0.374 OA
HETATM   11 CL11 UNL     1     -35.197  14.097  -6.345  1.00 20.00    -0.102 Cl
ENDROOT
TORSDOF 0
ENDMDL
MODEL 3
REMARK VINA RESULT:      -4.8      2.078      2.445
REMARK  0 active torsions:
REMARK  status: ('A' for Active; 'I' for Inactive)
ROOT
HETATM    1  C1  UNL     1     -37.308  14.968  -3.720  1.00 20.00     0.086 C 
HETATM    2  C2  UNL     1     -33.660  15.712  -3.868  1.00 20.00     0.017 C 
HETATM    3  C3  UNL     1     -35.564  15.884  -5.297  1.00 20.00     0.049 C 
HETATM    4  C4  UNL     1     -34.137  15.270  -5.265  1.00 20.00     0.020 C 
HETATM    5  C5  UNL     1     -34.834  15.002  -3.155  1.00 20.00     0.055 C 
HETATM    6  C6  UNL     1     -34.292  13.765  -5.118  1.00 20.00     0.155 A 
HETATM    7  C7  UNL     1     -34.742  13.579  -3.708  1.00 20.00     0.158 A 
HETATM    8  C8  UNL     1     -36.048  15.712  -3.825  1.00 20.00     0.132 C 
HETATM    9  N9  UNL     1     -38.304  14.379  -3.638  1.00 20.00    -0.195 NA
HETATM   10  O10 UNL     1     -33.466  13.106  -4.154  1.00 20.00    -0.374 OA
HETATM   11 CL11 UNL     1     -36.345  17.310  -3.066  1.00 20.00    -0.102 Cl
ENDROOT
TORSDOF 0
ENDMDL
MODEL 4
REMARK VINA RESULT:      -4.7      1.765      2.149
REMARK  0 active torsions:
REMARK  status: ('A' for Active; 'I' for Inactive)
ROOT
HETATM    1  C1  UNL     1     -33.972  16.804  -3.569  1.00 20.00     0.086 C 
HETATM    2  C2  UNL     1     -34.968  13.286  -4.287  1.00 20.00     0.017 C 
HETATM    3  C3  UNL     1     -34.259  15.212  -5.506  1.00 20.00     0.049 C 
HETATM    4  C4  UNL     1     -35.421  14.182  -5.456  1.00 20.00     0.020 C 
HETATM    5  C5  UNL     1     -34.926  14.469  -3.292  1.00 20.00     0.055 C 
HETATM    6  C6  UNL     1     -36.639  14.897  -4.892  1.00 20.00     0.155 A 
HETATM    7  C7  UNL     1     -36.321  15.077  -3.446  1.00 20.00     0.158 A 
HETATM    8  C8  UNL     1     -33.901  15.404  -4.000  1.00 20.00     0.132 C 
HETATM    9  N9  UNL     1     -34.029  17.912  -3.228  1.00 20.00    -0.195 NA
HETATM   10  O10 UNL     1     -37.388  14.225  -3.876  1.00 20.00    -0.374 OA
HETATM   11 CL11 UNL     1     -32.222  14.864  -3.675  1.00 20.00    -0.102 Cl
ENDROOT
TORSDOF 0
ENDMDL
MODEL 5
REMARK VINA RESULT:      -4.5      2.525      3.426
REMARK  0 active torsions:
REMARK  status: ('A' for Active; 'I' for Inactive)
ROOT
HETATM    1  C1  UNL     1     -34.630  13.784  -4.788  1.00 20.00     0.086 C 
HETATM    2  C2  UNL     1     -34.661  17.476  -4.283  1.00 20.00     0.017 C 
HETATM    3  C3  UNL     1     -33.082  15.688  -4.199  1.00 20.00     0.049 C 
HETATM    4  C4  UNL     1     -33.631  16.848  -3.324  1.00 20.00     0.020 C 
HETATM    5  C5  UNL     1     -35.455  16.156  -4.421  1.00 20.00     0.055 C 
HETATM    6  C6  UNL     1     -34.499  16.230  -2.240  1.00 20.00     0.155 A 
HETATM    7  C7  UNL     1     -35.724  15.780  -2.962  1.00 20.00     0.158 A 
HETATM    8  C8  UNL     1     -34.347  15.211  -4.976  1.00 20.00     0.132 C 
HETATM    9  N9  UNL     1     -34.854  12.655  -4.639  1.00 20.00    -0.195 NA
HETATM   10  O10 UNL     1     -35.772  16.830  -1.990  1.00 20.00    -0.374 OA
HETATM   11 CL11 UNL     1     -34.135  15.453  -6.740  1.00 20.00    -0.102 Cl
ENDROOT
TORSDOF 0
ENDMDL
MODEL 6
REMARK VINA RESULT:      -4.5      2.230      2.929
REMARK  0 active torsions:
REMARK  status: ('A' for Active; 'I' for Inactive)
ROOT
HETATM    1  C1  UNL     1     -34.612  16.401  -6.456  1.00 20.00     0.086 C 
HETATM    2  C2  UNL     1     -34.977  15.060  -2.999  1.00 20.00     0.017 C 
HETATM    3  C3  UNL     1     -33.238  15.904  -4.399  1.00 20.00     0.049 C 
HETATM    4  C4  UNL     1     -33.597  14.654  -3.550  1.00 20.00     0.020 C 
HETATM    5  C5  UNL     1     -35.576  15.244  -4.413  1.00 20.00     0.055 C 
HETATM    6  C6  UNL     1     -33.927  13.527  -4.516  1.00 20.00     0.155 A 
HETATM    7  C7  UNL     1     -35.253  13.908  -5.083  1.00 20.00     0.158 A 
HETATM    8  C8  UNL     1     -34.617  16.328  -4.991  1.00 20.00     0.132 C 
HETATM    9  N9  UNL     1     -34.608  16.458  -7.615  1.00 20.00    -0.195 NA
HETATM   10  O10 UNL     1     -35.100  12.752  -4.251  1.00 20.00    -0.374 OA
HETATM   11 CL11 UNL     1     -35.081  17.960  -4.409  1.00 20.00    -0.102 Cl
ENDROOT
TORSDOF 0
ENDMDL
MODEL 7
REMARK VINA RESULT:      -4.5      2.562      3.327
REMARK  0 active torsions:
REMARK  status: ('A' for Active; 'I' for Inactive)
ROOT
HETATM    1  C1  UNL     1     -34.538  13.691  -4.214  1.00 20.00     0.086 C 
HETATM    2  C2  UNL     1     -33.766  17.335  -4.106  1.00 20.00     0.017 C 
HETATM    3  C3  UNL     1     -34.576  15.649  -2.623  1.00 20.00     0.049 C 
HETATM    4  C4  UNL     1     -34.961  17.049  -3.175  1.00 20.00     0.020 C 
HETATM    5  C5  UNL     1     -34.017  16.064  -4.950  1.00 20.00     0.055 C 
HETATM    6  C6  UNL     1     -36.116  16.854  -4.145  1.00 20.00     0.155 A 
HETATM    7  C7  UNL     1     -35.490  16.211  -5.336  1.00 20.00     0.158 A 
HETATM    8  C8  UNL     1     -33.904  14.964  -3.852  1.00 20.00     0.132 C 
HETATM    9  N9  UNL     1     -35.040  12.685  -4.500  1.00 20.00    -0.195 NA
HETATM   10  O10 UNL     1     -36.044  17.529  -5.403  1.00 20.00    -0.374 OA
HETATM   11 CL11 UNL     1     -32.185  14.588  -3.507  1.00 20.00    -0.102 Cl
ENDROOT
TORSDOF 0
ENDMDL
MODEL 8
REMARK VINA RESULT:      -4.5      2.282      2.745
REMARK  0 active torsions:
REMARK  status: ('A' for Active; 'I' for Inactive)
ROOT
HETATM    1  C1  UNL     1     -36.625  14.867  -3.772  1.00 20.00     0.086 C 
HETATM    2  C2  UNL     1     -33.345  16.118  -5.022  1.00 20.00     0.017 C 
HETATM    3  C3  UNL     1     -35.512  16.997  -4.542  1.00 20.00     0.049 C 
HETATM    4  C4  UNL     1     -34.476  16.919  -5.697  1.00 20.00     0.020 C 
HETATM    5  C5  UNL     1     -34.271  14.916  -4.718  1.00 20.00     0.055 C 
HETATM    6  C6  UNL     1     -35.020  15.946  -6.731  1.00 20.00     0.155 A 
HETATM    7  C7  UNL     1     -34.872  14.608  -6.090  1.00 20.00     0.158 A 
HETATM    8  C8  UNL     1     -35.362  15.609  -3.847  1.00 20.00     0.132 C 
HETATM    9  N9  UNL     1     -37.625  14.281  -3.714  1.00 20.00    -0.195 NA
HETATM   10  O10 UNL     1     -34.120  14.966  -7.255  1.00 20.00    -0.374 OA
HETATM   11 CL11 UNL     1     -34.794  15.804  -2.157  1.00 20.00    -0.102 Cl
ENDROOT
TORSDOF 0
ENDMDL
MODEL 9
REMARK VINA RESULT:      -4.4      1.919      2.507
REMARK  0 active torsions:
REMARK  status: ('A' for Active; 'I' for Inactive)
ROOT
HETATM    1  C1  UNL     1     -36.292  16.757  -2.918  1.00 20.00     0.086 C 
HETATM    2  C2  UNL     1     -33.097  14.945  -3.545  1.00 20.00     0.017 C 
HETATM    3  C3  UNL     1     -33.913  17.186  -3.642  1.00 20.00     0.049 C 
HETATM    4  C4  UNL     1     -33.203  16.126  -4.528  1.00 20.00     0.020 C 
HETATM    5  C5  UNL     1     -34.627  14.886  -3.326  1.00 20.00     0.055 C 
HETATM    6  C6  UNL     1     -34.217  15.636  -5.550  1.00 20.00     0.155 A 
HETATM    7  C7  UNL     1     -35.160  14.795  -4.757  1.00 20.00     0.158 A 
HETATM    8  C8  UNL     1     -34.896  16.324  -2.791  1.00 20.00     0.132 C 
HETATM    9  N9  UNL     1     -37.397  17.100  -3.018  1.00 20.00    -0.195 NA
HETATM   10  O10 UNL     1     -34.313  14.225  -5.761  1.00 20.00    -0.374 OA
HETATM   11 CL11 UNL     1     -34.492  16.437  -1.048  1.00 20.00    -0.102 Cl
ENDROOT
TORSDOF 0
ENDMDL
