MODEL 1
REMARK VINA RESULT:      -4.2      0.000      0.000
REMARK  3 active torsions:
REMARK  status: ('A' for Active; 'I' for Inactive)
REMARK    1  A    between atoms: C3_3  and  C6_6 
REMARK    2  A    between atoms: C4_4  and  C7_7 
REMARK    3  A    between atoms: C5_5  and  C8_8 
ROOT
HETATM    1  C1  UNL     1     -35.722   5.040   4.458  1.00 20.00     0.012 C 
HETATM    2  C2  UNL     1     -34.585   5.879   6.334  1.00 20.00     0.012 C 
HETATM    3  C3  UNL     1     -34.729   6.141   4.834  1.00 20.00    -0.005 C 
HETATM    4  C4  UNL     1     -34.773   3.922   4.873  1.00 20.00     0.022 C 
HETATM    5  C5  UNL     1     -34.014   4.481   6.123  1.00 20.00     0.022 C 
ENDROOT
BRANCH   3   6
HETATM    6  C6  UNL     1     -33.389   5.595   4.266  1.00 20.00     0.048 C 
HETATM    7  C7  UNL     1     -32.477   6.830   4.021  1.00 20.00     0.133 C 
HETATM    8  O9  UNL     1     -32.094   6.272   2.725  1.00 20.00    -0.379 OA
HETATM    9  C8  UNL     1     -33.463   5.758   2.721  1.00 20.00     0.133 C 
ENDBRANCH   3   6
TORSDOF 3
ENDMDL
MODEL 2
REMARK VINA RESULT:      -4.1     11.687     13.014
REMARK  3 active torsions:
REMARK  status: ('A' for Active; 'I' for Inactive)
REMARK    1  A    between atoms: C3_3  and  C6_6 
REMARK    2  A    between atoms: C4_4  and  C7_7 
REMARK    3  A    between atoms: C5_5  and  C8_8 
ROOT
HETATM    1  C1  UNL     1     -33.698  16.359  -2.480  1.00 20.00     0.012 C 
HETATM    2  C2  UNL     1     -35.963  16.471  -3.091  1.00 20.00     0.012 C 
HETATM    3  C3  UNL     1     -34.897  15.440  -2.715  1.00 20.00    -0.005 C 
HETATM    4  C4  UNL     1     -33.691  16.861  -3.919  1.00 20.00     0.022 C 
HETATM    5  C5  UNL     1     -35.200  16.936  -4.327  1.00 20.00     0.022 C 
ENDROOT
BRANCH   3   6
HETATM    6  C6  UNL     1     -34.560  14.787  -4.085  1.00 20.00     0.048 C 
HETATM    7  C7  UNL     1     -35.545  13.598  -4.262  1.00 20.00     0.133 C 
HETATM    8  O9  UNL     1     -34.435  12.768  -4.728  1.00 20.00    -0.379 OA
HETATM    9  C8  UNL     1     -33.653  13.561  -3.780  1.00 20.00     0.133 C 
ENDBRANCH   3   6
TORSDOF 3
ENDMDL
MODEL 3
REMARK VINA RESULT:      -4.1     11.671     12.856
REMARK  3 active torsions:
REMARK  status: ('A' for Active; 'I' for Inactive)
REMARK    1  A    between atoms: C3_3  and  C6_6 
REMARK    2  A    between atoms: C4_4  and  C7_7 
REMARK    3  A    between atoms: C5_5  and  C8_8 
ROOT
HETATM    1  C1  UNL     1     -35.336  16.924  -4.174  1.00 20.00     0.012 C 
HETATM    2  C2  UNL     1     -33.600  16.447  -2.665  1.00 20.00     0.012 C 
HETATM    3  C3  UNL     1     -34.149  15.973  -4.012  1.00 20.00    -0.005 C 
HETATM    4  C4  UNL     1     -36.035  16.401  -2.924  1.00 20.00     0.022 C 
HETATM    5  C5  UNL     1     -34.879  16.082  -1.919  1.00 20.00     0.022 C 
ENDROOT
BRANCH   3   6
HETATM    6  C6  UNL     1     -34.839  14.630  -3.642  1.00 20.00     0.048 C 
HETATM    7  C7  UNL     1     -33.766  13.519  -3.821  1.00 20.00     0.133 C 
HETATM    8  O9  UNL     1     -34.762  12.688  -4.496  1.00 20.00    -0.379 OA
HETATM    9  C8  UNL     1     -35.270  13.969  -4.983  1.00 20.00     0.133 C 
ENDBRANCH   3   6
TORSDOF 3
ENDMDL
MODEL 4
REMARK VINA RESULT:      -3.9     12.346     13.947
REMARK  3 active torsions:
REMARK  status: ('A' for Active; 'I' for Inactive)
REMARK    1  A    between atoms: C3_3  and  C6_6 
REMARK    2  A    between atoms: C4_4  and  C7_7 
REMARK    3  A    between atoms: C5_5  and  C8_8 
ROOT
HETATM    1  C1  UNL     1     -35.353  16.668  -5.682  1.00 20.00     0.012 C 
HETATM    2  C2  UNL     1     -35.906  14.772  -6.953  1.00 20.00     0.012 C 
HETATM    3  C3  UNL     1     -35.781  15.212  -5.493  1.00 20.00    -0.005 C 
HETATM    4  C4  UNL     1     -34.062  16.286  -6.397  1.00 20.00     0.022 C 
HETATM    5  C5  UNL     1     -34.429  15.023  -7.244  1.00 20.00     0.022 C 
ENDROOT
BRANCH   3   6
HETATM    6  C6  UNL     1     -34.461  14.526  -5.045  1.00 20.00     0.048 C 
HETATM    7  C7  UNL     1     -34.834  13.074  -4.636  1.00 20.00     0.133 C 
HETATM    8  O9  UNL     1     -33.991  13.208  -3.449  1.00 20.00    -0.379 OA
HETATM    9  C8  UNL     1     -34.426  14.603  -3.492  1.00 20.00     0.133 C 
ENDBRANCH   3   6
TORSDOF 3
ENDMDL
MODEL 5
REMARK VINA RESULT:      -3.9     12.281     13.487
REMARK  3 active torsions:
REMARK  status: ('A' for Active; 'I' for Inactive)
REMARK    1  A    between atoms: C3_3  and  C6_6 
REMARK    2  A    between atoms: C4_4  and  C7_7 
REMARK    3  A    between atoms: C5_5  and  C8_8 
ROOT
HETATM    1  C1  UNL     1     -34.905  13.268  -4.240  1.00 20.00     0.012 C 
HETATM    2  C2  UNL     1     -35.401  15.326  -3.222  1.00 20.00     0.012 C 
HETATM    3  C3  UNL     1     -35.493  14.637  -4.585  1.00 20.00    -0.005 C 
HETATM    4  C4  UNL     1     -33.550  13.851  -3.855  1.00 20.00     0.022 C 
HETATM    5  C5  UNL     1     -33.880  15.222  -3.177  1.00 20.00     0.022 C 
ENDROOT
BRANCH   3   6
HETATM    6  C6  UNL     1     -34.341  15.309  -5.382  1.00 20.00     0.048 C 
HETATM    7  C7  UNL     1     -34.929  16.611  -5.995  1.00 20.00     0.133 C 
HETATM    8  O9  UNL     1     -34.272  16.293  -7.262  1.00 20.00    -0.379 OA
HETATM    9  C8  UNL     1     -34.541  14.910  -6.872  1.00 20.00     0.133 C 
ENDBRANCH   3   6
TORSDOF 3
ENDMDL
MODEL 6
REMARK VINA RESULT:      -3.8     12.359     13.572
REMARK  3 active torsions:
REMARK  status: ('A' for Active; 'I' for Inactive)
REMARK    1  A    between atoms: C3_3  and  C6_6 
REMARK    2  A    between atoms: C4_4  and  C7_7 
REMARK    3  A    between atoms: C5_5  and  C8_8 
ROOT
HETATM    1  C1  UNL     1     -34.188  15.038  -3.059  1.00 20.00     0.012 C 
HETATM    2  C2  UNL     1     -35.056  13.262  -4.328  1.00 20.00     0.012 C 
HETATM    3  C3  UNL     1     -34.048  14.407  -4.445  1.00 20.00    -0.005 C 
HETATM    4  C4  UNL     1     -35.656  15.390  -3.274  1.00 20.00     0.022 C 
HETATM    5  C5  UNL     1     -36.235  14.208  -4.119  1.00 20.00     0.022 C 
ENDROOT
BRANCH   3   6
HETATM    6  C6  UNL     1     -34.793  15.422  -5.357  1.00 20.00     0.048 C 
HETATM    7  C7  UNL     1     -34.451  15.033  -6.822  1.00 20.00     0.133 C 
HETATM    8  O9  UNL     1     -34.235  16.446  -7.130  1.00 20.00    -0.379 OA
HETATM    9  C8  UNL     1     -33.754  16.509  -5.751  1.00 20.00     0.133 C 
ENDBRANCH   3   6
TORSDOF 3
ENDMDL
MODEL 7
REMARK VINA RESULT:      -3.8      9.416     10.625
REMARK  3 active torsions:
REMARK  status: ('A' for Active; 'I' for Inactive)
REMARK    1  A    between atoms: C3_3  and  C6_6 
REMARK    2  A    between atoms: C4_4  and  C7_7 
REMARK    3  A    between atoms: C5_5  and  C8_8 
ROOT
HETATM    1  C1  UNL     1     -41.842   7.644  -1.086  1.00 20.00     0.012 C 
HETATM    2  C2  UNL     1     -40.949   5.687  -0.141  1.00 20.00     0.012 C 
HETATM    3  C3  UNL     1     -41.333   6.264  -1.505  1.00 20.00    -0.005 C 
HETATM    4  C4  UNL     1     -42.972   7.064  -0.242  1.00 20.00     0.022 C 
HETATM    5  C5  UNL     1     -42.378   5.761   0.387  1.00 20.00     0.022 C 
ENDROOT
BRANCH   3   6
HETATM    6  C6  UNL     1     -42.647   5.504  -1.836  1.00 20.00     0.048 C 
HETATM    7  C7  UNL     1     -42.238   4.256  -2.668  1.00 20.00     0.133 C 
HETATM    8  O9  UNL     1     -43.345   4.525  -3.586  1.00 20.00    -0.379 OA
HETATM    9  C8  UNL     1     -43.051   5.924  -3.278  1.00 20.00     0.133 C 
ENDBRANCH   3   6
TORSDOF 3
ENDMDL
MODEL 8
REMARK VINA RESULT:      -3.8     12.407     13.491
REMARK  3 active torsions:
REMARK  status: ('A' for Active; 'I' for Inactive)
REMARK    1  A    between atoms: C3_3  and  C6_6 
REMARK    2  A    between atoms: C4_4  and  C7_7 
REMARK    3  A    between atoms: C5_5  and  C8_8 
ROOT
HETATM    1  C1  UNL     1     -35.980  14.003  -4.153  1.00 20.00     0.012 C 
HETATM    2  C2  UNL     1     -34.177  15.065  -3.086  1.00 20.00     0.012 C 
HETATM    3  C3  UNL     1     -35.225  15.333  -4.168  1.00 20.00    -0.005 C 
HETATM    4  C4  UNL     1     -34.751  13.203  -4.570  1.00 20.00     0.022 C 
HETATM    5  C5  UNL     1     -33.549  13.910  -3.860  1.00 20.00     0.022 C 
ENDROOT
BRANCH   3   6
HETATM    6  C6  UNL     1     -34.393  15.236  -5.477  1.00 20.00     0.048 C 
HETATM    7  C7  UNL     1     -33.838  16.661  -5.756  1.00 20.00     0.133 C 
HETATM    8  O9  UNL     1     -34.203  16.511  -7.163  1.00 20.00    -0.379 OA
HETATM    9  C8  UNL     1     -35.316  15.728  -6.627  1.00 20.00     0.133 C 
ENDBRANCH   3   6
TORSDOF 3
ENDMDL
MODEL 9
REMARK VINA RESULT:      -3.7      9.442     10.689
REMARK  3 active torsions:
REMARK  status: ('A' for Active; 'I' for Inactive)
REMARK    1  A    between atoms: C3_3  and  C6_6 
REMARK    2  A    between atoms: C4_4  and  C7_7 
REMARK    3  A    between atoms: C5_5  and  C8_8 
ROOT
HETATM    1  C1  UNL     1     -41.994   5.450   0.361  1.00 20.00     0.012 C 
HETATM    2  C2  UNL     1     -42.480   7.461  -0.751  1.00 20.00     0.012 C 
HETATM    3  C3  UNL     1     -42.947   6.005  -0.699  1.00 20.00    -0.005 C 
HETATM    4  C4  UNL     1     -40.754   5.745  -0.476  1.00 20.00     0.022 C 
HETATM    5  C5  UNL     1     -41.078   7.085  -1.217  1.00 20.00     0.022 C 
ENDROOT
BRANCH   3   6
HETATM    6  C6  UNL     1     -42.367   5.417  -2.016  1.00 20.00     0.048 C 
HETATM    7  C7  UNL     1     -43.374   5.782  -3.143  1.00 20.00     0.133 C 
HETATM    8  O9  UNL     1     -43.260   4.421  -3.665  1.00 20.00    -0.379 OA
HETATM    9  C8  UNL     1     -43.097   4.065  -2.256  1.00 20.00     0.133 C 
ENDBRANCH   3   6
TORSDOF 3
ENDMDL
