MODEL 1
REMARK VINA RESULT:      -4.7      0.000      0.000
REMARK  0 active torsions:
REMARK  status: ('A' for Active; 'I' for Inactive)
ROOT
HETATM    1  C1  UNL     1     -32.457   6.723   2.785  1.00 20.00     0.179 A 
HETATM    2  C2  UNL     1     -33.422   6.117   3.545  1.00 20.00    -0.007 A 
HETATM    3  C3  UNL     1     -33.187   6.612   4.846  1.00 20.00     0.070 A 
HETATM    4  C4  UNL     1     -34.489   5.144   3.210  1.00 20.00     0.043 C 
HETATM    5  C5  UNL     1     -34.013   6.253   6.027  1.00 20.00     0.062 C 
HETATM    6  C6  UNL     1     -35.529   5.061   4.344  1.00 20.00     0.005 C 
HETATM    7  C7  UNL     1     -34.869   5.005   5.736  1.00 20.00     0.006 C 
HETATM    8  N8  UNL     1     -32.162   7.465   4.889  1.00 20.00    -0.133 NA
HETATM    9  O9  UNL     1     -31.699   7.530   3.575  1.00 20.00    -0.225 OA
ENDROOT
TORSDOF 0
ENDMDL
MODEL 2
REMARK VINA RESULT:      -4.7     11.741     13.216
REMARK  0 active torsions:
REMARK  status: ('A' for Active; 'I' for Inactive)
ROOT
HETATM    1  C1  UNL     1     -33.600  14.293  -3.496  1.00 20.00     0.179 A 
HETATM    2  C2  UNL     1     -33.884  14.908  -4.686  1.00 20.00    -0.007 A 
HETATM    3  C3  UNL     1     -34.673  13.961  -5.376  1.00 20.00     0.070 A 
HETATM    4  C4  UNL     1     -33.498  16.226  -5.245  1.00 20.00     0.043 C 
HETATM    5  C5  UNL     1     -35.250  14.193  -6.723  1.00 20.00     0.062 C 
HETATM    6  C6  UNL     1     -34.376  16.584  -6.459  1.00 20.00     0.005 C 
HETATM    7  C7  UNL     1     -34.565  15.389  -7.414  1.00 20.00     0.006 C 
HETATM    8  N8  UNL     1     -34.870  12.849  -4.665  1.00 20.00    -0.133 NA
HETATM    9  O9  UNL     1     -34.182  13.064  -3.471  1.00 20.00    -0.225 OA
ENDROOT
TORSDOF 0
ENDMDL
MODEL 3
REMARK VINA RESULT:      -4.6     11.769     12.833
REMARK  0 active torsions:
REMARK  status: ('A' for Active; 'I' for Inactive)
ROOT
HETATM    1  C1  UNL     1     -34.853  13.486  -5.640  1.00 20.00     0.179 A 
HETATM    2  C2  UNL     1     -34.405  14.731  -5.290  1.00 20.00    -0.007 A 
HETATM    3  C3  UNL     1     -34.018  14.584  -3.940  1.00 20.00     0.070 A 
HETATM    4  C4  UNL     1     -34.322  16.008  -6.039  1.00 20.00     0.043 C 
HETATM    5  C5  UNL     1     -33.435  15.678  -3.125  1.00 20.00     0.062 C 
HETATM    6  C6  UNL     1     -33.409  17.012  -5.309  1.00 20.00     0.005 C 
HETATM    7  C7  UNL     1     -33.678  17.047  -3.792  1.00 20.00     0.006 C 
HETATM    8  N8  UNL     1     -34.202  13.341  -3.491  1.00 20.00    -0.133 NA
HETATM    9  O9  UNL     1     -34.737  12.647  -4.576  1.00 20.00    -0.225 OA
ENDROOT
TORSDOF 0
ENDMDL
MODEL 4
REMARK VINA RESULT:      -4.6     11.294     12.005
REMARK  0 active torsions:
REMARK  status: ('A' for Active; 'I' for Inactive)
ROOT
HETATM    1  C1  UNL     1     -33.555  13.556  -3.914  1.00 20.00     0.179 A 
HETATM    2  C2  UNL     1     -34.286  14.605  -3.426  1.00 20.00    -0.007 A 
HETATM    3  C3  UNL     1     -35.610  14.303  -3.811  1.00 20.00     0.070 A 
HETATM    4  C4  UNL     1     -33.900  15.830  -2.685  1.00 20.00     0.043 C 
HETATM    5  C5  UNL     1     -36.781  15.152  -3.478  1.00 20.00     0.062 C 
HETATM    6  C6  UNL     1     -35.136  16.500  -2.054  1.00 20.00     0.005 C 
HETATM    7  C7  UNL     1     -36.329  16.555  -3.029  1.00 20.00     0.006 C 
HETATM    8  N8  UNL     1     -35.695  13.150  -4.479  1.00 20.00    -0.133 NA
HETATM    9  O9  UNL     1     -34.384  12.681  -4.544  1.00 20.00    -0.225 OA
ENDROOT
TORSDOF 0
ENDMDL
MODEL 5
REMARK VINA RESULT:      -4.5     10.183     11.096
REMARK  0 active torsions:
REMARK  status: ('A' for Active; 'I' for Inactive)
ROOT
HETATM    1  C1  UNL     1     -42.434   3.807  -2.930  1.00 20.00     0.179 A 
HETATM    2  C2  UNL     1     -41.868   4.737  -2.100  1.00 20.00    -0.007 A 
HETATM    3  C3  UNL     1     -42.514   5.942  -2.452  1.00 20.00     0.070 A 
HETATM    4  C4  UNL     1     -40.811   4.638  -1.064  1.00 20.00     0.043 C 
HETATM    5  C5  UNL     1     -42.247   7.245  -1.794  1.00 20.00     0.062 C 
HETATM    6  C6  UNL     1     -40.802   5.893  -0.170  1.00 20.00     0.005 C 
HETATM    7  C7  UNL     1     -40.933   7.192  -0.989  1.00 20.00     0.006 C 
HETATM    8  N8  UNL     1     -43.417   5.771  -3.420  1.00 20.00    -0.133 NA
HETATM    9  O9  UNL     1     -43.360   4.411  -3.722  1.00 20.00    -0.225 OA
ENDROOT
TORSDOF 0
ENDMDL
MODEL 6
REMARK VINA RESULT:      -4.5      0.943      2.049
REMARK  0 active torsions:
REMARK  status: ('A' for Active; 'I' for Inactive)
ROOT
HETATM    1  C1  UNL     1     -32.149   7.511   4.690  1.00 20.00     0.179 A 
HETATM    2  C2  UNL     1     -33.200   6.658   4.897  1.00 20.00    -0.007 A 
HETATM    3  C3  UNL     1     -33.464   6.130   3.614  1.00 20.00     0.070 A 
HETATM    4  C4  UNL     1     -33.975   6.306   6.111  1.00 20.00     0.043 C 
HETATM    5  C5  UNL     1     -34.519   5.124   3.337  1.00 20.00     0.062 C 
HETATM    6  C6  UNL     1     -34.807   5.031   5.878  1.00 20.00     0.005 C 
HETATM    7  C7  UNL     1     -35.516   5.039   4.510  1.00 20.00     0.006 C 
HETATM    8  N8  UNL     1     -32.635   6.612   2.685  1.00 20.00    -0.133 NA
HETATM    9  O9  UNL     1     -31.803   7.492   3.375  1.00 20.00    -0.225 OA
ENDROOT
TORSDOF 0
ENDMDL
MODEL 7
REMARK VINA RESULT:      -4.4     10.150     11.013
REMARK  0 active torsions:
REMARK  status: ('A' for Active; 'I' for Inactive)
ROOT
HETATM    1  C1  UNL     1     -42.476   7.597  -3.172  1.00 20.00     0.179 A 
HETATM    2  C2  UNL     1     -41.995   6.853  -2.128  1.00 20.00    -0.007 A 
HETATM    3  C3  UNL     1     -42.480   5.553  -2.388  1.00 20.00     0.070 A 
HETATM    4  C4  UNL     1     -41.182   7.210  -0.941  1.00 20.00     0.043 C 
HETATM    5  C5  UNL     1     -42.190   4.377  -1.530  1.00 20.00     0.062 C 
HETATM    6  C6  UNL     1     -40.608   5.946  -0.271  1.00 20.00     0.005 C 
HETATM    7  C7  UNL     1     -41.656   4.822  -0.154  1.00 20.00     0.006 C 
HETATM    8  N8  UNL     1     -43.197   5.493  -3.513  1.00 20.00    -0.133 NA
HETATM    9  O9  UNL     1     -43.194   6.797  -4.005  1.00 20.00    -0.225 OA
ENDROOT
TORSDOF 0
ENDMDL
MODEL 8
REMARK VINA RESULT:      -4.3     11.498     12.302
REMARK  0 active torsions:
REMARK  status: ('A' for Active; 'I' for Inactive)
ROOT
HETATM    1  C1  UNL     1     -36.540  16.175  -2.988  1.00 20.00     0.179 A 
HETATM    2  C2  UNL     1     -35.342  15.559  -3.232  1.00 20.00    -0.007 A 
HETATM    3  C3  UNL     1     -35.708  14.335  -3.834  1.00 20.00     0.070 A 
HETATM    4  C4  UNL     1     -33.940  15.957  -2.956  1.00 20.00     0.043 C 
HETATM    5  C5  UNL     1     -34.731  13.323  -4.307  1.00 20.00     0.062 C 
HETATM    6  C6  UNL     1     -32.956  15.082  -3.755  1.00 20.00     0.005 C 
HETATM    7  C7  UNL     1     -33.336  13.588  -3.710  1.00 20.00     0.006 C 
HETATM    8  N8  UNL     1     -37.031  14.207  -3.962  1.00 20.00    -0.133 NA
HETATM    9  O9  UNL     1     -37.555  15.380  -3.419  1.00 20.00    -0.225 OA
ENDROOT
TORSDOF 0
ENDMDL
MODEL 9
REMARK VINA RESULT:      -4.3     11.417     11.891
REMARK  0 active torsions:
REMARK  status: ('A' for Active; 'I' for Inactive)
ROOT
HETATM    1  C1  UNL     1     -35.336  13.240  -4.525  1.00 20.00     0.179 A 
HETATM    2  C2  UNL     1     -35.451  14.397  -3.803  1.00 20.00    -0.007 A 
HETATM    3  C3  UNL     1     -34.137  14.646  -3.352  1.00 20.00     0.070 A 
HETATM    4  C4  UNL     1     -36.614  15.257  -3.475  1.00 20.00     0.043 C 
HETATM    5  C5  UNL     1     -33.753  15.825  -2.537  1.00 20.00     0.062 C 
HETATM    6  C6  UNL     1     -36.149  16.627  -2.946  1.00 20.00     0.005 C 
HETATM    7  C7  UNL     1     -34.999  16.498  -1.928  1.00 20.00     0.006 C 
HETATM    8  N8  UNL     1     -33.271  13.720  -3.771  1.00 20.00    -0.133 NA
HETATM    9  O9  UNL     1     -34.041  12.826  -4.514  1.00 20.00    -0.225 OA
ENDROOT
TORSDOF 0
ENDMDL
