MODEL 1
REMARK VINA RESULT:      -5.0      0.000      0.000
REMARK  3 active torsions:
REMARK  status: ('A' for Active; 'I' for Inactive)
REMARK    1  A    between atoms: C3_3  and  C5_5 
REMARK    2  A    between atoms: C4_4  and  C6_6 
REMARK    3  A    between atoms: C5_5  and  C6_6 
ROOT
HETATM    1  C1  UNL     1     -34.282   6.000   6.425  1.00 20.00     0.087 C 
HETATM    2  C3  UNL     1     -34.904   4.771   6.081  1.00 20.00     0.093 C 
HETATM    3  N7  UNL     1     -33.773   7.003   6.713  1.00 20.00    -0.192 NA
ENDROOT
BRANCH   2   4
HETATM    4  C5  UNL     1     -35.157   4.448   4.804  1.00 20.00     0.011 C 
BRANCH   4   5
HETATM    5  C6  UNL     1     -35.065   5.399   3.718  1.00 20.00     0.011 C 
BRANCH   5   6
HETATM    6  C4  UNL     1     -34.013   5.461   2.889  1.00 20.00     0.093 C 
HETATM    7  C2  UNL     1     -32.908   6.314   3.155  1.00 20.00     0.087 C 
HETATM    8  N8  UNL     1     -32.003   7.008   3.370  1.00 20.00    -0.192 NA
ENDBRANCH   5   6
ENDBRANCH   4   5
ENDBRANCH   2   4
TORSDOF 3
ENDMDL
MODEL 2
REMARK VINA RESULT:      -5.0      0.040      3.181
REMARK  3 active torsions:
REMARK  status: ('A' for Active; 'I' for Inactive)
REMARK    1  A    between atoms: C3_3  and  C5_5 
REMARK    2  A    between atoms: C4_4  and  C6_6 
REMARK    3  A    between atoms: C5_5  and  C6_6 
ROOT
HETATM    1  C1  UNL     1     -32.923   6.285   3.159  1.00 20.00     0.087 C 
HETATM    2  C3  UNL     1     -34.041   5.448   2.899  1.00 20.00     0.093 C 
HETATM    3  N7  UNL     1     -32.007   6.967   3.367  1.00 20.00    -0.192 NA
ENDROOT
BRANCH   2   4
HETATM    4  C5  UNL     1     -35.094   5.409   3.727  1.00 20.00     0.011 C 
BRANCH   4   5
HETATM    5  C6  UNL     1     -35.213   4.453   4.806  1.00 20.00     0.011 C 
BRANCH   5   6
HETATM    6  C4  UNL     1     -34.868   4.733   6.070  1.00 20.00     0.093 C 
HETATM    7  C2  UNL     1     -34.286   5.981   6.423  1.00 20.00     0.087 C 
HETATM    8  N8  UNL     1     -33.811   6.999   6.713  1.00 20.00    -0.192 NA
ENDBRANCH   5   6
ENDBRANCH   4   5
ENDBRANCH   2   4
TORSDOF 3
ENDMDL
MODEL 3
REMARK VINA RESULT:      -4.5      1.758      4.079
REMARK  3 active torsions:
REMARK  status: ('A' for Active; 'I' for Inactive)
REMARK    1  A    between atoms: C3_3  and  C5_5 
REMARK    2  A    between atoms: C4_4  and  C6_6 
REMARK    3  A    between atoms: C5_5  and  C6_6 
ROOT
HETATM    1  C1  UNL     1     -32.055   8.062   2.202  1.00 20.00     0.087 C 
HETATM    2  C3  UNL     1     -31.895   7.074   3.210  1.00 20.00     0.093 C 
HETATM    3  N7  UNL     1     -32.180   8.870   1.377  1.00 20.00    -0.192 NA
ENDROOT
BRANCH   2   4
HETATM    4  C5  UNL     1     -32.950   6.538   3.838  1.00 20.00     0.011 C 
BRANCH   4   5
HETATM    5  C6  UNL     1     -33.973   5.778   3.153  1.00 20.00     0.011 C 
BRANCH   5   6
HETATM    6  C4  UNL     1     -35.099   5.364   3.751  1.00 20.00     0.093 C 
HETATM    7  C2  UNL     1     -35.071   4.702   5.009  1.00 20.00     0.087 C 
HETATM    8  N8  UNL     1     -35.051   4.162   6.035  1.00 20.00    -0.192 NA
ENDBRANCH   5   6
ENDBRANCH   4   5
ENDBRANCH   2   4
TORSDOF 3
ENDMDL
MODEL 4
REMARK VINA RESULT:      -4.5      1.765      2.531
REMARK  3 active torsions:
REMARK  status: ('A' for Active; 'I' for Inactive)
REMARK    1  A    between atoms: C3_3  and  C5_5 
REMARK    2  A    between atoms: C4_4  and  C6_6 
REMARK    3  A    between atoms: C5_5  and  C6_6 
ROOT
HETATM    1  C1  UNL     1     -35.083   4.751   5.038  1.00 20.00     0.087 C 
HETATM    2  C3  UNL     1     -35.084   5.367   3.758  1.00 20.00     0.093 C 
HETATM    3  N7  UNL     1     -35.088   4.247   6.084  1.00 20.00    -0.192 NA
ENDROOT
BRANCH   2   4
HETATM    4  C5  UNL     1     -33.942   5.711   3.147  1.00 20.00     0.011 C 
BRANCH   4   5
HETATM    5  C6  UNL     1     -32.943   6.559   3.761  1.00 20.00     0.011 C 
BRANCH   5   6
HETATM    6  C4  UNL     1     -31.903   7.069   3.087  1.00 20.00     0.093 C 
HETATM    7  C2  UNL     1     -32.070   8.129   2.155  1.00 20.00     0.087 C 
HETATM    8  N8  UNL     1     -32.203   8.994   1.394  1.00 20.00    -0.192 NA
ENDBRANCH   5   6
ENDBRANCH   4   5
ENDBRANCH   2   4
TORSDOF 3
ENDMDL
MODEL 5
REMARK VINA RESULT:      -4.5      1.935      2.369
REMARK  3 active torsions:
REMARK  status: ('A' for Active; 'I' for Inactive)
REMARK    1  A    between atoms: C3_3  and  C5_5 
REMARK    2  A    between atoms: C4_4  and  C6_6 
REMARK    3  A    between atoms: C5_5  and  C6_6 
ROOT
HETATM    1  C1  UNL     1     -34.833   4.521   5.663  1.00 20.00     0.087 C 
HETATM    2  C3  UNL     1     -34.411   5.766   6.200  1.00 20.00     0.093 C 
HETATM    3  N7  UNL     1     -35.181   3.501   5.229  1.00 20.00    -0.192 NA
ENDROOT
BRANCH   2   4
HETATM    4  C5  UNL     1     -33.698   6.636   5.472  1.00 20.00     0.011 C 
BRANCH   4   5
HETATM    5  C6  UNL     1     -33.489   6.488   4.048  1.00 20.00     0.011 C 
BRANCH   5   6
HETATM    6  C4  UNL     1     -32.305   6.700   3.457  1.00 20.00     0.093 C 
HETATM    7  C2  UNL     1     -32.141   7.698   2.459  1.00 20.00     0.087 C 
HETATM    8  N8  UNL     1     -32.004   8.513   1.645  1.00 20.00    -0.192 NA
ENDBRANCH   5   6
ENDBRANCH   4   5
ENDBRANCH   2   4
TORSDOF 3
ENDMDL
MODEL 6
REMARK VINA RESULT:      -4.5      1.923      4.127
REMARK  3 active torsions:
REMARK  status: ('A' for Active; 'I' for Inactive)
REMARK    1  A    between atoms: C3_3  and  C5_5 
REMARK    2  A    between atoms: C4_4  and  C6_6 
REMARK    3  A    between atoms: C5_5  and  C6_6 
ROOT
HETATM    1  C1  UNL     1     -32.166   7.690   2.444  1.00 20.00     0.087 C 
HETATM    2  C3  UNL     1     -32.336   6.659   3.406  1.00 20.00     0.093 C 
HETATM    3  N7  UNL     1     -32.021   8.530   1.656  1.00 20.00    -0.192 NA
ENDROOT
BRANCH   2   4
HETATM    4  C5  UNL     1     -33.504   6.478   4.038  1.00 20.00     0.011 C 
BRANCH   4   5
HETATM    5  C6  UNL     1     -33.655   6.619   5.470  1.00 20.00     0.011 C 
BRANCH   5   6
HETATM    6  C4  UNL     1     -34.390   5.780   6.213  1.00 20.00     0.093 C 
HETATM    7  C2  UNL     1     -34.848   4.537   5.696  1.00 20.00     0.087 C 
HETATM    8  N8  UNL     1     -35.222   3.522   5.277  1.00 20.00    -0.192 NA
ENDBRANCH   5   6
ENDBRANCH   4   5
ENDBRANCH   2   4
TORSDOF 3
ENDMDL
MODEL 7
REMARK VINA RESULT:      -4.0     11.842     12.700
REMARK  3 active torsions:
REMARK  status: ('A' for Active; 'I' for Inactive)
REMARK    1  A    between atoms: C3_3  and  C5_5 
REMARK    2  A    between atoms: C4_4  and  C6_6 
REMARK    3  A    between atoms: C5_5  and  C6_6 
ROOT
HETATM    1  C1  UNL     1     -34.129  13.711  -3.998  1.00 20.00     0.087 C 
HETATM    2  C3  UNL     1     -33.205  14.746  -3.697  1.00 20.00     0.093 C 
HETATM    3  N7  UNL     1     -34.881  12.861  -4.246  1.00 20.00    -0.192 NA
ENDROOT
BRANCH   2   4
HETATM    4  C5  UNL     1     -33.583  15.855  -3.045  1.00 20.00     0.011 C 
BRANCH   4   5
HETATM    5  C6  UNL     1     -34.694  15.883  -2.118  1.00 20.00     0.011 C 
BRANCH   5   6
HETATM    6  C4  UNL     1     -34.674  16.582  -0.975  1.00 20.00     0.093 C 
HETATM    7  C2  UNL     1     -33.722  17.614  -0.752  1.00 20.00     0.087 C 
HETATM    8  N8  UNL     1     -32.946  18.457  -0.568  1.00 20.00    -0.192 NA
ENDBRANCH   5   6
ENDBRANCH   4   5
ENDBRANCH   2   4
TORSDOF 3
ENDMDL
MODEL 8
REMARK VINA RESULT:      -4.0     11.868     12.460
REMARK  3 active torsions:
REMARK  status: ('A' for Active; 'I' for Inactive)
REMARK    1  A    between atoms: C3_3  and  C5_5 
REMARK    2  A    between atoms: C4_4  and  C6_6 
REMARK    3  A    between atoms: C5_5  and  C6_6 
ROOT
HETATM    1  C1  UNL     1     -33.657  17.667  -0.788  1.00 20.00     0.087 C 
HETATM    2  C3  UNL     1     -34.598  16.610  -0.911  1.00 20.00     0.093 C 
HETATM    3  N7  UNL     1     -32.889  18.531  -0.682  1.00 20.00    -0.192 NA
ENDROOT
BRANCH   2   4
HETATM    4  C5  UNL     1     -34.698  15.889  -2.037  1.00 20.00     0.011 C 
BRANCH   4   5
HETATM    5  C6  UNL     1     -33.685  15.896  -3.069  1.00 20.00     0.011 C 
BRANCH   5   6
HETATM    6  C4  UNL     1     -33.256  14.783  -3.678  1.00 20.00     0.093 C 
HETATM    7  C2  UNL     1     -34.149  13.730  -4.018  1.00 20.00     0.087 C 
HETATM    8  N8  UNL     1     -34.876  12.870  -4.297  1.00 20.00    -0.192 NA
ENDBRANCH   5   6
ENDBRANCH   4   5
ENDBRANCH   2   4
TORSDOF 3
ENDMDL
MODEL 9
REMARK VINA RESULT:      -3.9     11.809     12.277
REMARK  3 active torsions:
REMARK  status: ('A' for Active; 'I' for Inactive)
REMARK    1  A    between atoms: C3_3  and  C5_5 
REMARK    2  A    between atoms: C4_4  and  C6_6 
REMARK    3  A    between atoms: C5_5  and  C6_6 
ROOT
HETATM    1  C1  UNL     1     -34.794  17.036  -0.194  1.00 20.00     0.087 C 
HETATM    2  C3  UNL     1     -34.674  16.302  -1.404  1.00 20.00     0.093 C 
HETATM    3  N7  UNL     1     -34.896  17.633   0.797  1.00 20.00    -0.192 NA
ENDROOT
BRANCH   2   4
HETATM    4  C5  UNL     1     -33.688  16.549  -2.278  1.00 20.00     0.011 C 
BRANCH   4   5
HETATM    5  C6  UNL     1     -33.592  15.891  -3.563  1.00 20.00     0.011 C 
BRANCH   5   6
HETATM    6  C4  UNL     1     -33.228  14.608  -3.701  1.00 20.00     0.093 C 
HETATM    7  C2  UNL     1     -34.161  13.610  -4.092  1.00 20.00     0.087 C 
HETATM    8  N8  UNL     1     -34.921  12.793  -4.412  1.00 20.00    -0.192 NA
ENDBRANCH   5   6
ENDBRANCH   4   5
ENDBRANCH   2   4
TORSDOF 3
ENDMDL
