MODEL 1
REMARK VINA RESULT:      -5.2      0.000      0.000
REMARK  3 active torsions:
REMARK  status: ('A' for Active; 'I' for Inactive)
REMARK    1  A    between atoms: C3_3  and  C8_8 
REMARK    2  A    between atoms: C7_7  and  C8_8 
REMARK    3  A    between atoms: N9_9  and  O10_10 
ROOT
HETATM    1  C1  UNL     1     -34.141   5.942   5.668  1.00 20.00     0.043 C 
HETATM    2  C4  UNL     1     -35.018   4.725   5.637  1.00 20.00     0.057 C 
HETATM    3  C5  UNL     1     -35.603   4.818   4.235  1.00 20.00     0.006 C 
HETATM    4  C6  UNL     1     -34.489   5.445   3.402  1.00 20.00     0.011 C 
HETATM    5  C7  UNL     1     -33.899   6.538   4.301  1.00 20.00     0.039 C 
HETATM    6  N9  UNL     1     -33.676   6.423   6.771  1.00 20.00    -0.145 NA
ENDROOT
BRANCH   5   7
HETATM    7  C8  UNL     1     -32.436   6.807   3.999  1.00 20.00     0.036 C 
BRANCH   7   8
HETATM    8  C3  UNL     1     -32.222   7.092   2.543  1.00 20.00    -0.036 C 
HETATM    9  C2  UNL     1     -32.091   8.322   2.034  1.00 20.00     0.007 C 
ENDBRANCH   7   8
ENDBRANCH   5   7
BRANCH   6  10
HETATM   10  O10 UNL     1     -32.903   7.546   6.472  1.00 20.00    -0.266 OA
HETATM   11  H23 UNL     1     -32.394   7.656   7.293  1.00 20.00     0.247 HD
ENDBRANCH   6  10
TORSDOF 3
ENDMDL
MODEL 2
REMARK VINA RESULT:      -4.8     11.722     12.983
REMARK  3 active torsions:
REMARK  status: ('A' for Active; 'I' for Inactive)
REMARK    1  A    between atoms: C3_3  and  C8_8 
REMARK    2  A    between atoms: C7_7  and  C8_8 
REMARK    3  A    between atoms: N9_9  and  O10_10 
ROOT
HETATM    1  C1  UNL     1     -34.779  14.216  -5.437  1.00 20.00     0.043 C 
HETATM    2  C4  UNL     1     -34.405  14.882  -6.729  1.00 20.00     0.057 C 
HETATM    3  C5  UNL     1     -34.937  16.289  -6.501  1.00 20.00     0.006 C 
HETATM    4  C6  UNL     1     -34.761  16.521  -5.003  1.00 20.00     0.011 C 
HETATM    5  C7  UNL     1     -35.168  15.193  -4.354  1.00 20.00     0.039 C 
HETATM    6  N9  UNL     1     -34.783  12.932  -5.304  1.00 20.00    -0.145 NA
ENDROOT
BRANCH   5   7
HETATM    7  C8  UNL     1     -34.462  14.957  -3.031  1.00 20.00     0.036 C 
BRANCH   7   8
HETATM    8  C3  UNL     1     -34.168  16.249  -2.330  1.00 20.00    -0.036 C 
HETATM    9  C2  UNL     1     -34.590  16.541  -1.095  1.00 20.00     0.007 C 
ENDBRANCH   7   8
ENDBRANCH   5   7
BRANCH   6  10
HETATM   10  O10 UNL     1     -35.172  12.625  -4.000  1.00 20.00    -0.266 OA
HETATM   11  H23 UNL     1     -36.000  12.141  -4.152  1.00 20.00     0.247 HD
ENDBRANCH   6  10
TORSDOF 3
ENDMDL
MODEL 3
REMARK VINA RESULT:      -4.6     12.050     12.920
REMARK  3 active torsions:
REMARK  status: ('A' for Active; 'I' for Inactive)
REMARK    1  A    between atoms: C3_3  and  C8_8 
REMARK    2  A    between atoms: C7_7  and  C8_8 
REMARK    3  A    between atoms: N9_9  and  O10_10 
ROOT
HETATM    1  C1  UNL     1     -34.117  15.408  -5.274  1.00 20.00     0.043 C 
HETATM    2  C4  UNL     1     -35.034  14.305  -5.718  1.00 20.00     0.057 C 
HETATM    3  C5  UNL     1     -34.617  13.180  -4.782  1.00 20.00     0.006 C 
HETATM    4  C6  UNL     1     -34.226  13.889  -3.489  1.00 20.00     0.011 C 
HETATM    5  C7  UNL     1     -33.452  15.132  -3.947  1.00 20.00     0.039 C 
HETATM    6  N9  UNL     1     -33.917  16.462  -5.990  1.00 20.00    -0.145 NA
ENDROOT
BRANCH   5   7
HETATM    7  C8  UNL     1     -33.560  16.276  -2.956  1.00 20.00     0.036 C 
BRANCH   7   8
HETATM    8  C3  UNL     1     -34.644  16.028  -1.950  1.00 20.00    -0.036 C 
HETATM    9  C2  UNL     1     -34.699  16.618  -0.751  1.00 20.00     0.007 C 
ENDBRANCH   7   8
ENDBRANCH   5   7
BRANCH   6  10
HETATM   10  O10 UNL     1     -33.022  17.292  -5.313  1.00 20.00    -0.266 OA
HETATM   11  H23 UNL     1     -32.191  17.106  -5.782  1.00 20.00     0.247 HD
ENDBRANCH   6  10
TORSDOF 3
ENDMDL
MODEL 4
REMARK VINA RESULT:      -4.5     11.653     12.367
REMARK  3 active torsions:
REMARK  status: ('A' for Active; 'I' for Inactive)
REMARK    1  A    between atoms: C3_3  and  C8_8 
REMARK    2  A    between atoms: C7_7  and  C8_8 
REMARK    3  A    between atoms: N9_9  and  O10_10 
ROOT
HETATM    1  C1  UNL     1     -35.110  13.954  -4.052  1.00 20.00     0.043 C 
HETATM    2  C4  UNL     1     -36.566  14.269  -4.229  1.00 20.00     0.057 C 
HETATM    3  C5  UNL     1     -36.776  15.314  -3.142  1.00 20.00     0.006 C 
HETATM    4  C6  UNL     1     -35.446  16.058  -3.072  1.00 20.00     0.011 C 
HETATM    5  C7  UNL     1     -34.380  14.963  -3.197  1.00 20.00     0.039 C 
HETATM    6  N9  UNL     1     -34.569  12.903  -4.570  1.00 20.00    -0.145 NA
ENDROOT
BRANCH   5   7
HETATM    7  C8  UNL     1     -33.094  15.477  -3.816  1.00 20.00     0.036 C 
BRANCH   7   8
HETATM    8  C3  UNL     1     -33.359  16.599  -4.775  1.00 20.00    -0.036 C 
HETATM    9  C2  UNL     1     -33.623  16.424  -6.075  1.00 20.00     0.007 C 
ENDBRANCH   7   8
ENDBRANCH   5   7
BRANCH   6  10
HETATM   10  O10 UNL     1     -33.215  12.890  -4.230  1.00 20.00    -0.266 OA
HETATM   11  H23 UNL     1     -33.160  12.090  -3.681  1.00 20.00     0.247 HD
ENDBRANCH   6  10
TORSDOF 3
ENDMDL
MODEL 5
REMARK VINA RESULT:      -4.5     11.728     12.598
REMARK  3 active torsions:
REMARK  status: ('A' for Active; 'I' for Inactive)
REMARK    1  A    between atoms: C3_3  and  C8_8 
REMARK    2  A    between atoms: C7_7  and  C8_8 
REMARK    3  A    between atoms: N9_9  and  O10_10 
ROOT
HETATM    1  C1  UNL     1     -35.774  15.418  -3.340  1.00 20.00     0.043 C 
HETATM    2  C4  UNL     1     -35.104  16.708  -2.970  1.00 20.00     0.057 C 
HETATM    3  C5  UNL     1     -33.722  16.217  -2.562  1.00 20.00     0.006 C 
HETATM    4  C6  UNL     1     -33.467  15.015  -3.467  1.00 20.00     0.011 C 
HETATM    5  C7  UNL     1     -34.807  14.271  -3.512  1.00 20.00     0.039 C 
HETATM    6  N9  UNL     1     -37.055  15.323  -3.467  1.00 20.00    -0.145 NA
ENDROOT
BRANCH   5   7
HETATM    7  C8  UNL     1     -34.993  13.498  -4.805  1.00 20.00     0.036 C 
BRANCH   7   8
HETATM    8  C3  UNL     1     -34.612  14.324  -5.996  1.00 20.00    -0.036 C 
HETATM    9  C2  UNL     1     -35.400  14.509  -7.061  1.00 20.00     0.007 C 
ENDBRANCH   7   8
ENDBRANCH   5   7
BRANCH   6  10
HETATM   10  O10 UNL     1     -37.368  14.008  -3.814  1.00 20.00    -0.266 OA
HETATM   11  H23 UNL     1     -36.818  13.879  -4.605  1.00 20.00     0.247 HD
ENDBRANCH   6  10
TORSDOF 3
ENDMDL
MODEL 6
REMARK VINA RESULT:      -4.4     11.890     12.992
REMARK  3 active torsions:
REMARK  status: ('A' for Active; 'I' for Inactive)
REMARK    1  A    between atoms: C3_3  and  C8_8 
REMARK    2  A    between atoms: C7_7  and  C8_8 
REMARK    3  A    between atoms: N9_9  and  O10_10 
ROOT
HETATM    1  C1  UNL     1     -34.105  14.465  -4.183  1.00 20.00     0.043 C 
HETATM    2  C4  UNL     1     -33.254  15.585  -3.660  1.00 20.00     0.057 C 
HETATM    3  C5  UNL     1     -33.077  16.432  -4.912  1.00 20.00     0.006 C 
HETATM    4  C6  UNL     1     -34.385  16.253  -5.676  1.00 20.00     0.011 C 
HETATM    5  C7  UNL     1     -34.720  14.764  -5.530  1.00 20.00     0.039 C 
HETATM    6  N9  UNL     1     -34.257  13.360  -3.536  1.00 20.00    -0.145 NA
ENDROOT
BRANCH   5   7
HETATM    7  C8  UNL     1     -36.213  14.499  -5.596  1.00 20.00     0.036 C 
BRANCH   7   8
HETATM    8  C3  UNL     1     -36.978  15.462  -4.737  1.00 20.00    -0.036 C 
HETATM    9  C2  UNL     1     -37.730  15.097  -3.693  1.00 20.00     0.007 C 
ENDBRANCH   7   8
ENDBRANCH   5   7
BRANCH   6  10
HETATM   10  O10 UNL     1     -35.097  12.527  -4.276  1.00 20.00    -0.266 OA
HETATM   11  H23 UNL     1     -34.841  12.752  -5.186  1.00 20.00     0.247 HD
ENDBRANCH   6  10
TORSDOF 3
ENDMDL
MODEL 7
REMARK VINA RESULT:      -4.3     12.409     13.025
REMARK  3 active torsions:
REMARK  status: ('A' for Active; 'I' for Inactive)
REMARK    1  A    between atoms: C3_3  and  C8_8 
REMARK    2  A    between atoms: C7_7  and  C8_8 
REMARK    3  A    between atoms: N9_9  and  O10_10 
ROOT
HETATM    1  C1  UNL     1     -34.636  15.763  -4.995  1.00 20.00     0.043 C 
HETATM    2  C4  UNL     1     -36.006  15.872  -5.599  1.00 20.00     0.057 C 
HETATM    3  C5  UNL     1     -36.806  14.956  -4.685  1.00 20.00     0.006 C 
HETATM    4  C6  UNL     1     -36.144  15.114  -3.319  1.00 20.00     0.011 C 
HETATM    5  C7  UNL     1     -34.640  15.144  -3.618  1.00 20.00     0.039 C 
HETATM    6  N9  UNL     1     -33.577  16.144  -5.626  1.00 20.00    -0.145 NA
ENDROOT
BRANCH   5   7
HETATM    7  C8  UNL     1     -33.863  15.939  -2.585  1.00 20.00     0.036 C 
BRANCH   7   8
HETATM    8  C3  UNL     1     -34.736  16.344  -1.435  1.00 20.00    -0.036 C 
HETATM    9  C2  UNL     1     -34.357  17.190  -0.471  1.00 20.00     0.007 C 
ENDBRANCH   7   8
ENDBRANCH   5   7
BRANCH   6  10
HETATM   10  O10 UNL     1     -32.470  15.915  -4.807  1.00 20.00    -0.266 OA
HETATM   11  H23 UNL     1     -32.047  16.790  -4.802  1.00 20.00     0.247 HD
ENDBRANCH   6  10
TORSDOF 3
ENDMDL
MODEL 8
REMARK VINA RESULT:      -4.3     12.091     12.770
REMARK  3 active torsions:
REMARK  status: ('A' for Active; 'I' for Inactive)
REMARK    1  A    between atoms: C3_3  and  C8_8 
REMARK    2  A    between atoms: C7_7  and  C8_8 
REMARK    3  A    between atoms: N9_9  and  O10_10 
ROOT
HETATM    1  C1  UNL     1     -36.162  14.629  -4.247  1.00 20.00     0.043 C 
HETATM    2  C4  UNL     1     -35.114  13.896  -5.033  1.00 20.00     0.057 C 
HETATM    3  C5  UNL     1     -34.391  15.051  -5.711  1.00 20.00     0.006 C 
HETATM    4  C6  UNL     1     -34.472  16.192  -4.701  1.00 20.00     0.011 C 
HETATM    5  C7  UNL     1     -35.896  16.112  -4.137  1.00 20.00     0.039 C 
HETATM    6  N9  UNL     1     -37.190  14.029  -3.749  1.00 20.00    -0.145 NA
ENDROOT
BRANCH   5   7
HETATM    7  C8  UNL     1     -35.986  16.649  -2.721  1.00 20.00     0.036 C 
BRANCH   7   8
HETATM    8  C3  UNL     1     -34.838  16.173  -1.881  1.00 20.00    -0.036 C 
HETATM    9  C2  UNL     1     -34.402  16.805  -0.786  1.00 20.00     0.007 C 
ENDBRANCH   7   8
ENDBRANCH   5   7
BRANCH   6  10
HETATM   10  O10 UNL     1     -37.971  14.973  -3.081  1.00 20.00    -0.266 OA
HETATM   11  H23 UNL     1     -38.684  14.417  -2.723  1.00 20.00     0.247 HD
ENDBRANCH   6  10
TORSDOF 3
ENDMDL
MODEL 9
REMARK VINA RESULT:      -4.2      9.678     11.001
REMARK  3 active torsions:
REMARK  status: ('A' for Active; 'I' for Inactive)
REMARK    1  A    between atoms: C3_3  and  C8_8 
REMARK    2  A    between atoms: C7_7  and  C8_8 
REMARK    3  A    between atoms: N9_9  and  O10_10 
ROOT
HETATM    1  C1  UNL     1     -42.208   5.806  -2.478  1.00 20.00     0.043 C 
HETATM    2  C4  UNL     1     -43.413   5.332  -3.236  1.00 20.00     0.057 C 
HETATM    3  C5  UNL     1     -43.148   3.835  -3.307  1.00 20.00     0.006 C 
HETATM    4  C6  UNL     1     -42.420   3.518  -2.004  1.00 20.00     0.011 C 
HETATM    5  C7  UNL     1     -41.446   4.687  -1.809  1.00 20.00     0.039 C 
HETATM    6  N9  UNL     1     -41.867   7.050  -2.443  1.00 20.00    -0.145 NA
ENDROOT
BRANCH   5   7
HETATM    7  C8  UNL     1     -41.138   4.943  -0.345  1.00 20.00     0.036 C 
BRANCH   7   8
HETATM    8  C3  UNL     1     -42.302   4.587   0.529  1.00 20.00    -0.036 C 
HETATM    9  C2  UNL     1     -43.143   5.484   1.056  1.00 20.00     0.007 C 
ENDBRANCH   7   8
ENDBRANCH   5   7
BRANCH   6  10
HETATM   10  O10 UNL     1     -40.713   7.169  -1.665  1.00 20.00    -0.266 OA
HETATM   11  H23 UNL     1     -40.720   8.117  -1.451  1.00 20.00     0.247 HD
ENDBRANCH   6  10
TORSDOF 3
ENDMDL
