MODEL 1
REMARK VINA RESULT:      -4.1      0.000      0.000
REMARK  3 active torsions:
REMARK  status: ('A' for Active; 'I' for Inactive)
REMARK    1  A    between atoms: C3_3  and  C7_7 
REMARK    2  A    between atoms: C4_4  and  C5_5 
REMARK    3  A    between atoms: C7_7  and  O9_9 
ROOT
HETATM    1  C1  UNL     1     -34.367  15.194  -3.041  1.00 20.00     0.031 A 
HETATM    2  C2  UNL     1     -33.572  17.160  -3.993  1.00 20.00     0.060 A 
HETATM    3  C3  UNL     1     -33.899  16.521  -2.817  1.00 20.00    -0.027 A 
HETATM    4  C4  UNL     1     -34.380  14.869  -4.381  1.00 20.00     0.043 A 
HETATM    5  S10 UNL     1     -33.829  16.161  -5.360  1.00 20.00    -0.098 SA
ENDROOT
BRANCH   3   6
HETATM    6  C7  UNL     1     -33.779  17.139  -1.477  1.00 20.00     0.206 C 
BRANCH   6   7
HETATM    7  O9  UNL     1     -34.684  16.509  -0.572  1.00 20.00    -0.391 OA
HETATM    8  C6  UNL     1     -35.068  17.390   0.473  1.00 20.00     0.201 C 
ENDBRANCH   6   7
ENDBRANCH   3   6
BRANCH   4   9
HETATM    9  C5  UNL     1     -34.777  13.648  -5.001  1.00 20.00     0.277 C 
HETATM   10  O8  UNL     1     -35.029  12.594  -4.378  1.00 20.00    -0.301 OA
ENDBRANCH   4   9
TORSDOF 3
ENDMDL
MODEL 2
REMARK VINA RESULT:      -3.7      1.614      1.660
REMARK  3 active torsions:
REMARK  status: ('A' for Active; 'I' for Inactive)
REMARK    1  A    between atoms: C3_3  and  C7_7 
REMARK    2  A    between atoms: C4_4  and  C5_5 
REMARK    3  A    between atoms: C7_7  and  O9_9 
ROOT
HETATM    1  C1  UNL     1     -35.597  15.792  -2.617  1.00 20.00     0.031 A 
HETATM    2  C2  UNL     1     -33.369  15.711  -3.274  1.00 20.00     0.060 A 
HETATM    3  C3  UNL     1     -34.261  16.209  -2.349  1.00 20.00    -0.027 A 
HETATM    4  C4  UNL     1     -35.676  14.992  -3.736  1.00 20.00     0.043 A 
HETATM    5  S10 UNL     1     -34.143  14.745  -4.458  1.00 20.00    -0.098 SA
ENDROOT
BRANCH   3   6
HETATM    6  C7  UNL     1     -33.878  17.075  -1.211  1.00 20.00     0.206 C 
BRANCH   6   7
HETATM    7  O9  UNL     1     -34.712  16.795  -0.089  1.00 20.00    -0.391 OA
HETATM    8  C6  UNL     1     -34.883  17.943   0.728  1.00 20.00     0.201 C 
ENDBRANCH   6   7
ENDBRANCH   3   6
BRANCH   4   9
HETATM    9  C5  UNL     1     -36.826  14.383  -4.321  1.00 20.00     0.277 C 
HETATM   10  O8  UNL     1     -37.911  14.217  -3.725  1.00 20.00    -0.301 OA
ENDBRANCH   4   9
TORSDOF 3
ENDMDL
MODEL 3
REMARK VINA RESULT:      -3.7      1.932      2.276
REMARK  3 active torsions:
REMARK  status: ('A' for Active; 'I' for Inactive)
REMARK    1  A    between atoms: C3_3  and  C7_7 
REMARK    2  A    between atoms: C4_4  and  C5_5 
REMARK    3  A    between atoms: C7_7  and  O9_9 
ROOT
HETATM    1  C1  UNL     1     -34.135  15.850  -4.930  1.00 20.00     0.031 A 
HETATM    2  C2  UNL     1     -34.316  14.069  -3.447  1.00 20.00     0.060 A 
HETATM    3  C3  UNL     1     -34.076  15.420  -3.573  1.00 20.00    -0.027 A 
HETATM    4  C4  UNL     1     -34.418  14.811  -5.790  1.00 20.00     0.043 A 
HETATM    5  S10 UNL     1     -34.611  13.325  -4.960  1.00 20.00    -0.098 SA
ENDROOT
BRANCH   3   6
HETATM    6  C7  UNL     1     -33.790  16.321  -2.433  1.00 20.00     0.206 C 
BRANCH   6   7
HETATM    7  O9  UNL     1     -34.747  16.108  -1.397  1.00 20.00    -0.391 OA
HETATM    8  C6  UNL     1     -34.588  17.047  -0.345  1.00 20.00     0.201 C 
ENDBRANCH   6   7
ENDBRANCH   3   6
BRANCH   4   9
HETATM    9  C5  UNL     1     -34.560  14.837  -7.209  1.00 20.00     0.277 C 
HETATM   10  O8  UNL     1     -35.481  14.268  -7.833  1.00 20.00    -0.301 OA
ENDBRANCH   4   9
TORSDOF 3
ENDMDL
MODEL 4
REMARK VINA RESULT:      -3.7      1.808      1.979
REMARK  3 active torsions:
REMARK  status: ('A' for Active; 'I' for Inactive)
REMARK    1  A    between atoms: C3_3  and  C7_7 
REMARK    2  A    between atoms: C4_4  and  C5_5 
REMARK    3  A    between atoms: C7_7  and  O9_9 
ROOT
HETATM    1  C1  UNL     1     -34.049  16.171  -2.250  1.00 20.00     0.031 A 
HETATM    2  C2  UNL     1     -33.654  17.852  -3.805  1.00 20.00     0.060 A 
HETATM    3  C3  UNL     1     -33.868  17.566  -2.474  1.00 20.00    -0.027 A 
HETATM    4  C4  UNL     1     -33.966  15.443  -3.417  1.00 20.00     0.043 A 
HETATM    5  S10 UNL     1     -33.671  16.442  -4.777  1.00 20.00    -0.098 SA
ENDROOT
BRANCH   3   6
HETATM    6  C7  UNL     1     -33.906  18.587  -1.403  1.00 20.00     0.206 C 
BRANCH   6   7
HETATM    7  O9  UNL     1     -32.652  19.263  -1.335  1.00 20.00    -0.391 OA
HETATM    8  C6  UNL     1     -32.135  19.263  -0.013  1.00 20.00     0.201 C 
ENDBRANCH   6   7
ENDBRANCH   3   6
BRANCH   4   9
HETATM    9  C5  UNL     1     -34.091  14.034  -3.604  1.00 20.00     0.277 C 
HETATM   10  O8  UNL     1     -33.123  13.247  -3.667  1.00 20.00    -0.301 OA
ENDBRANCH   4   9
TORSDOF 3
ENDMDL
MODEL 5
REMARK VINA RESULT:      -3.6     11.528     12.175
REMARK  3 active torsions:
REMARK  status: ('A' for Active; 'I' for Inactive)
REMARK    1  A    between atoms: C3_3  and  C7_7 
REMARK    2  A    between atoms: C4_4  and  C5_5 
REMARK    3  A    between atoms: C7_7  and  O9_9 
ROOT
HETATM    1  C1  UNL     1     -33.125   6.563   4.810  1.00 20.00     0.031 A 
HETATM    2  C2  UNL     1     -33.801   5.940   2.675  1.00 20.00     0.060 A 
HETATM    3  C3  UNL     1     -32.897   6.677   3.408  1.00 20.00    -0.027 A 
HETATM    4  C4  UNL     1     -34.195   5.743   5.095  1.00 20.00     0.043 A 
HETATM    5  S10 UNL     1     -34.919   5.115   3.675  1.00 20.00    -0.098 SA
ENDROOT
BRANCH   3   6
HETATM    6  C7  UNL     1     -31.815   7.493   2.812  1.00 20.00     0.206 C 
BRANCH   6   7
HETATM    7  O9  UNL     1     -32.366   8.669   2.222  1.00 20.00    -0.391 OA
HETATM    8  C6  UNL     1     -31.929   8.830   0.882  1.00 20.00     0.201 C 
ENDBRANCH   6   7
ENDBRANCH   3   6
BRANCH   4   9
HETATM    9  C5  UNL     1     -34.732   5.382   6.366  1.00 20.00     0.277 C 
HETATM   10  O8  UNL     1     -35.359   4.324   6.588  1.00 20.00    -0.301 OA
ENDBRANCH   4   9
TORSDOF 3
ENDMDL
MODEL 6
REMARK VINA RESULT:      -3.6      1.529      4.150
REMARK  3 active torsions:
REMARK  status: ('A' for Active; 'I' for Inactive)
REMARK    1  A    between atoms: C3_3  and  C7_7 
REMARK    2  A    between atoms: C4_4  and  C5_5 
REMARK    3  A    between atoms: C7_7  and  O9_9 
ROOT
HETATM    1  C1  UNL     1     -33.969  16.149  -2.494  1.00 20.00     0.031 A 
HETATM    2  C2  UNL     1     -33.242  16.386  -4.689  1.00 20.00     0.060 A 
HETATM    3  C3  UNL     1     -33.399  15.513  -3.635  1.00 20.00    -0.027 A 
HETATM    4  C4  UNL     1     -34.225  17.484  -2.720  1.00 20.00     0.043 A 
HETATM    5  S10 UNL     1     -33.780  17.965  -4.302  1.00 20.00    -0.098 SA
ENDROOT
BRANCH   3   6
HETATM    6  C7  UNL     1     -33.022  14.082  -3.680  1.00 20.00     0.206 C 
BRANCH   6   7
HETATM    7  O9  UNL     1     -34.169  13.271  -3.432  1.00 20.00    -0.391 OA
HETATM    8  C6  UNL     1     -35.011  13.203  -4.572  1.00 20.00     0.201 C 
ENDBRANCH   6   7
ENDBRANCH   3   6
BRANCH   4   9
HETATM    9  C5  UNL     1     -34.787  18.449  -1.833  1.00 20.00     0.277 C 
HETATM   10  O8  UNL     1     -35.441  18.162  -0.807  1.00 20.00    -0.301 OA
ENDBRANCH   4   9
TORSDOF 3
ENDMDL
MODEL 7
REMARK VINA RESULT:      -3.4     12.625     14.069
REMARK  3 active torsions:
REMARK  status: ('A' for Active; 'I' for Inactive)
REMARK    1  A    between atoms: C3_3  and  C7_7 
REMARK    2  A    between atoms: C4_4  and  C5_5 
REMARK    3  A    between atoms: C7_7  and  O9_9 
ROOT
HETATM    1  C1  UNL     1     -40.941   3.648  -2.391  1.00 20.00     0.031 A 
HETATM    2  C2  UNL     1     -42.857   4.042  -1.136  1.00 20.00     0.060 A 
HETATM    3  C3  UNL     1     -41.555   4.430  -1.371  1.00 20.00    -0.027 A 
HETATM    4  C4  UNL     1     -41.795   2.693  -2.897  1.00 20.00     0.043 A 
HETATM    5  S10 UNL     1     -43.332   2.742  -2.144  1.00 20.00    -0.098 SA
ENDROOT
BRANCH   3   6
HETATM    6  C7  UNL     1     -40.874   5.528  -0.648  1.00 20.00     0.206 C 
BRANCH   6   7
HETATM    7  O9  UNL     1     -40.789   6.678  -1.488  1.00 20.00    -0.391 OA
HETATM    8  C6  UNL     1     -41.775   7.641  -1.148  1.00 20.00     0.201 C 
ENDBRANCH   6   7
ENDBRANCH   3   6
BRANCH   4   9
HETATM    9  C5  UNL     1     -41.553   1.727  -3.919  1.00 20.00     0.277 C 
HETATM   10  O8  UNL     1     -41.631   0.492  -3.750  1.00 20.00    -0.301 OA
ENDBRANCH   4   9
TORSDOF 3
ENDMDL
MODEL 8
REMARK VINA RESULT:      -3.4      2.314      5.066
REMARK  3 active torsions:
REMARK  status: ('A' for Active; 'I' for Inactive)
REMARK    1  A    between atoms: C3_3  and  C7_7 
REMARK    2  A    between atoms: C4_4  and  C5_5 
REMARK    3  A    between atoms: C7_7  and  O9_9 
ROOT
HETATM    1  C1  UNL     1     -34.213  15.937  -5.068  1.00 20.00     0.031 A 
HETATM    2  C2  UNL     1     -34.553  13.654  -5.344  1.00 20.00     0.060 A 
HETATM    3  C3  UNL     1     -34.467  14.873  -5.981  1.00 20.00    -0.027 A 
HETATM    4  C4  UNL     1     -34.115  15.491  -3.768  1.00 20.00     0.043 A 
HETATM    5  S10 UNL     1     -34.328  13.796  -3.653  1.00 20.00    -0.098 SA
ENDROOT
BRANCH   3   6
HETATM    6  C7  UNL     1     -34.621  15.057  -7.442  1.00 20.00     0.206 C 
BRANCH   6   7
HETATM    7  O9  UNL     1     -35.706  14.262  -7.918  1.00 20.00    -0.391 OA
HETATM    8  C6  UNL     1     -36.927  14.984  -7.891  1.00 20.00     0.201 C 
ENDBRANCH   6   7
ENDBRANCH   3   6
BRANCH   4   9
HETATM    9  C5  UNL     1     -33.869  16.243  -2.581  1.00 20.00     0.277 C 
HETATM   10  O8  UNL     1     -34.555  16.154  -1.540  1.00 20.00    -0.301 OA
ENDBRANCH   4   9
TORSDOF 3
ENDMDL
MODEL 9
REMARK VINA RESULT:      -3.3      2.517      2.924
REMARK  3 active torsions:
REMARK  status: ('A' for Active; 'I' for Inactive)
REMARK    1  A    between atoms: C3_3  and  C7_7 
REMARK    2  A    between atoms: C4_4  and  C5_5 
REMARK    3  A    between atoms: C7_7  and  O9_9 
ROOT
HETATM    1  C1  UNL     1     -33.923  15.588  -4.979  1.00 20.00     0.031 A 
HETATM    2  C2  UNL     1     -34.592  16.458  -7.028  1.00 20.00     0.060 A 
HETATM    3  C3  UNL     1     -34.023  16.744  -5.806  1.00 20.00    -0.027 A 
HETATM    4  C4  UNL     1     -34.419  14.463  -5.600  1.00 20.00     0.043 A 
HETATM    5  S10 UNL     1     -35.002  14.802  -7.174  1.00 20.00    -0.098 SA
ENDROOT
BRANCH   3   6
HETATM    6  C7  UNL     1     -33.568  18.093  -5.399  1.00 20.00     0.206 C 
BRANCH   6   7
HETATM    7  O9  UNL     1     -34.443  18.616  -4.400  1.00 20.00    -0.391 OA
HETATM    8  C6  UNL     1     -33.743  18.904  -3.200  1.00 20.00     0.201 C 
ENDBRANCH   6   7
ENDBRANCH   3   6
BRANCH   4   9
HETATM    9  C5  UNL     1     -34.494  13.127  -5.104  1.00 20.00     0.277 C 
HETATM   10  O8  UNL     1     -35.239  12.768  -4.167  1.00 20.00    -0.301 OA
ENDBRANCH   4   9
TORSDOF 3
ENDMDL
