MODEL 1
REMARK VINA RESULT:      -5.1      0.000      0.000
REMARK  3 active torsions:
REMARK  status: ('A' for Active; 'I' for Inactive)
REMARK    1  A    between atoms: C2_2  and  C7_7 
REMARK    2  A    between atoms: C3_3  and  C8_8 
REMARK    3  A    between atoms: C8_8  and  C9_9 
ROOT
HETATM    1  C1  UNL     1     -33.741   6.673   5.868  1.00 20.00     0.095 C 
HETATM    2  C2  UNL     1     -34.020   5.944   4.666  1.00 20.00     0.024 C 
HETATM    3  C3  UNL     1     -33.305   6.181   3.537  1.00 20.00    -0.067 C 
HETATM    4  C4  UNL     1     -33.530   5.459   2.226  1.00 20.00     0.044 C 
HETATM    5  N10 UNL     1     -33.527   7.255   6.849  1.00 20.00    -0.192 NA
ENDROOT
BRANCH   2   6
HETATM    6  C7  UNL     1     -35.168   4.954   4.744  1.00 20.00     0.046 C 
HETATM    7  C5  UNL     1     -35.089   4.083   5.990  1.00 20.00     0.011 C 
ENDBRANCH   2   6
BRANCH   3   8
HETATM    8  C8  UNL     1     -32.211   7.235   3.453  1.00 20.00     0.034 C 
BRANCH   8   9
HETATM    9  C9  UNL     1     -31.976   7.709   2.017  1.00 20.00    -0.000 C 
HETATM   10  C6  UNL     1     -32.392   9.161   1.838  1.00 20.00     0.005 C 
ENDBRANCH   8   9
ENDBRANCH   3   8
TORSDOF 3
ENDMDL
MODEL 2
REMARK VINA RESULT:      -4.7     11.601     12.965
REMARK  3 active torsions:
REMARK  status: ('A' for Active; 'I' for Inactive)
REMARK    1  A    between atoms: C2_2  and  C7_7 
REMARK    2  A    between atoms: C3_3  and  C8_8 
REMARK    3  A    between atoms: C8_8  and  C9_9 
ROOT
HETATM    1  C1  UNL     1     -34.576  13.649  -4.947  1.00 20.00     0.095 C 
HETATM    2  C2  UNL     1     -34.230  14.957  -5.420  1.00 20.00     0.024 C 
HETATM    3  C3  UNL     1     -33.804  15.910  -4.554  1.00 20.00    -0.067 C 
HETATM    4  C4  UNL     1     -33.419  17.315  -4.965  1.00 20.00     0.044 C 
HETATM    5  N10 UNL     1     -34.858  12.585  -4.580  1.00 20.00    -0.192 NA
ENDROOT
BRANCH   2   6
HETATM    6  C7  UNL     1     -34.414  15.191  -6.908  1.00 20.00     0.046 C 
HETATM    7  C5  UNL     1     -35.799  14.777  -7.386  1.00 20.00     0.011 C 
ENDBRANCH   2   6
BRANCH   3   8
HETATM    8  C8  UNL     1     -33.703  15.683  -3.053  1.00 20.00     0.034 C 
BRANCH   8   9
HETATM    9  C9  UNL     1     -34.946  16.177  -2.309  1.00 20.00    -0.000 C 
HETATM   10  C6  UNL     1     -34.603  16.627  -0.897  1.00 20.00     0.005 C 
ENDBRANCH   8   9
ENDBRANCH   3   8
TORSDOF 3
ENDMDL
MODEL 3
REMARK VINA RESULT:      -4.7     11.744     12.233
REMARK  3 active torsions:
REMARK  status: ('A' for Active; 'I' for Inactive)
REMARK    1  A    between atoms: C2_2  and  C7_7 
REMARK    2  A    between atoms: C3_3  and  C8_8 
REMARK    3  A    between atoms: C8_8  and  C9_9 
ROOT
HETATM    1  C1  UNL     1     -36.767  14.389  -3.969  1.00 20.00     0.095 C 
HETATM    2  C2  UNL     1     -35.352  14.421  -4.190  1.00 20.00     0.024 C 
HETATM    3  C3  UNL     1     -34.543  15.129  -3.361  1.00 20.00    -0.067 C 
HETATM    4  C4  UNL     1     -33.041  15.219  -3.519  1.00 20.00     0.044 C 
HETATM    5  N10 UNL     1     -37.916  14.352  -3.802  1.00 20.00    -0.192 NA
ENDROOT
BRANCH   2   6
HETATM    6  C7  UNL     1     -34.856  13.663  -5.407  1.00 20.00     0.046 C 
HETATM    7  C5  UNL     1     -35.076  14.442  -6.697  1.00 20.00     0.011 C 
ENDBRANCH   2   6
BRANCH   3   8
HETATM    8  C8  UNL     1     -35.066  15.951  -2.193  1.00 20.00     0.034 C 
BRANCH   8   9
HETATM    9  C9  UNL     1     -33.969  16.802  -1.549  1.00 20.00    -0.000 C 
HETATM   10  C6  UNL     1     -34.418  17.360  -0.207  1.00 20.00     0.005 C 
ENDBRANCH   8   9
ENDBRANCH   3   8
TORSDOF 3
ENDMDL
MODEL 4
REMARK VINA RESULT:      -4.3      0.755      4.001
REMARK  3 active torsions:
REMARK  status: ('A' for Active; 'I' for Inactive)
REMARK    1  A    between atoms: C2_2  and  C7_7 
REMARK    2  A    between atoms: C3_3  and  C8_8 
REMARK    3  A    between atoms: C8_8  and  C9_9 
ROOT
HETATM    1  C1  UNL     1     -33.314   6.862   5.407  1.00 20.00     0.095 C 
HETATM    2  C2  UNL     1     -33.215   6.407   4.052  1.00 20.00     0.024 C 
HETATM    3  C3  UNL     1     -34.196   5.642   3.510  1.00 20.00    -0.067 C 
HETATM    4  C4  UNL     1     -34.174   5.119   2.091  1.00 20.00     0.044 C 
HETATM    5  N10 UNL     1     -33.381   7.239   6.503  1.00 20.00    -0.192 NA
ENDROOT
BRANCH   2   6
HETATM    6  C7  UNL     1     -31.948   6.800   3.314  1.00 20.00     0.046 C 
HETATM    7  C5  UNL     1     -32.158   8.014   2.421  1.00 20.00     0.011 C 
ENDBRANCH   2   6
BRANCH   3   8
HETATM    8  C8  UNL     1     -35.421   5.189   4.289  1.00 20.00     0.034 C 
BRANCH   8   9
HETATM    9  C9  UNL     1     -35.149   3.930   5.115  1.00 20.00    -0.000 C 
HETATM   10  C6  UNL     1     -35.184   4.227   6.606  1.00 20.00     0.005 C 
ENDBRANCH   8   9
ENDBRANCH   3   8
TORSDOF 3
ENDMDL
MODEL 5
REMARK VINA RESULT:      -4.2     11.536     13.191
REMARK  3 active torsions:
REMARK  status: ('A' for Active; 'I' for Inactive)
REMARK    1  A    between atoms: C2_2  and  C7_7 
REMARK    2  A    between atoms: C3_3  and  C8_8 
REMARK    3  A    between atoms: C8_8  and  C9_9 
ROOT
HETATM    1  C1  UNL     1     -34.449  13.794  -4.506  1.00 20.00     0.095 C 
HETATM    2  C2  UNL     1     -34.024  15.160  -4.436  1.00 20.00     0.024 C 
HETATM    3  C3  UNL     1     -33.958  15.917  -5.560  1.00 20.00    -0.067 C 
HETATM    4  C4  UNL     1     -33.521  17.366  -5.579  1.00 20.00     0.044 C 
HETATM    5  N10 UNL     1     -34.793  12.686  -4.546  1.00 20.00    -0.192 NA
ENDROOT
BRANCH   2   6
HETATM    6  C7  UNL     1     -33.626  15.659  -3.059  1.00 20.00     0.046 C 
HETATM    7  C5  UNL     1     -34.836  15.962  -2.187  1.00 20.00     0.011 C 
ENDBRANCH   2   6
BRANCH   3   8
HETATM    8  C8  UNL     1     -34.282  15.378  -6.945  1.00 20.00     0.034 C 
BRANCH   8   9
HETATM    9  C9  UNL     1     -35.560  15.993  -7.520  1.00 20.00    -0.000 C 
HETATM   10  C6  UNL     1     -36.801  15.321  -6.953  1.00 20.00     0.005 C 
ENDBRANCH   8   9
ENDBRANCH   3   8
TORSDOF 3
ENDMDL
MODEL 6
REMARK VINA RESULT:      -4.2     11.611     13.260
REMARK  3 active torsions:
REMARK  status: ('A' for Active; 'I' for Inactive)
REMARK    1  A    between atoms: C2_2  and  C7_7 
REMARK    2  A    between atoms: C3_3  and  C8_8 
REMARK    3  A    between atoms: C8_8  and  C9_9 
ROOT
HETATM    1  C1  UNL     1     -33.786  17.031  -5.604  1.00 20.00     0.095 C 
HETATM    2  C2  UNL     1     -34.093  15.640  -5.444  1.00 20.00     0.024 C 
HETATM    3  C3  UNL     1     -34.057  15.066  -4.215  1.00 20.00    -0.067 C 
HETATM    4  C4  UNL     1     -34.366  13.608  -3.955  1.00 20.00     0.044 C 
HETATM    5  N10 UNL     1     -33.540  18.156  -5.750  1.00 20.00    -0.192 NA
ENDROOT
BRANCH   2   6
HETATM    6  C7  UNL     1     -34.407  14.882  -6.720  1.00 20.00     0.046 C 
HETATM    7  C5  UNL     1     -35.879  14.976  -7.096  1.00 20.00     0.011 C 
ENDBRANCH   2   6
BRANCH   3   8
HETATM    8  C8  UNL     1     -33.660  15.821  -2.956  1.00 20.00     0.034 C 
BRANCH   8   9
HETATM    9  C9  UNL     1     -34.835  15.993  -1.991  1.00 20.00    -0.000 C 
HETATM   10  C6  UNL     1     -34.440  16.823  -0.780  1.00 20.00     0.005 C 
ENDBRANCH   8   9
ENDBRANCH   3   8
TORSDOF 3
ENDMDL
MODEL 7
REMARK VINA RESULT:      -4.1     11.731     12.839
REMARK  3 active torsions:
REMARK  status: ('A' for Active; 'I' for Inactive)
REMARK    1  A    between atoms: C2_2  and  C7_7 
REMARK    2  A    between atoms: C3_3  and  C8_8 
REMARK    3  A    between atoms: C8_8  and  C9_9 
ROOT
HETATM    1  C1  UNL     1     -36.650  14.915  -3.748  1.00 20.00     0.095 C 
HETATM    2  C2  UNL     1     -35.457  15.708  -3.765  1.00 20.00     0.024 C 
HETATM    3  C3  UNL     1     -34.471  15.446  -4.660  1.00 20.00    -0.067 C 
HETATM    4  C4  UNL     1     -33.180  16.230  -4.749  1.00 20.00     0.044 C 
HETATM    5  N10 UNL     1     -37.624  14.283  -3.722  1.00 20.00    -0.192 NA
ENDROOT
BRANCH   2   6
HETATM    6  C7  UNL     1     -35.370  16.795  -2.709  1.00 20.00     0.046 C 
HETATM    7  C5  UNL     1     -34.695  16.305  -1.436  1.00 20.00     0.011 C 
ENDBRANCH   2   6
BRANCH   3   8
HETATM    8  C8  UNL     1     -34.538  14.301  -5.658  1.00 20.00     0.034 C 
BRANCH   8   9
HETATM    9  C9  UNL     1     -34.687  14.797  -7.098  1.00 20.00    -0.000 C 
HETATM   10  C6  UNL     1     -36.150  14.942  -7.485  1.00 20.00     0.005 C 
ENDBRANCH   8   9
ENDBRANCH   3   8
TORSDOF 3
ENDMDL
MODEL 8
REMARK VINA RESULT:      -4.0     11.432     12.957
REMARK  3 active torsions:
REMARK  status: ('A' for Active; 'I' for Inactive)
REMARK    1  A    between atoms: C2_2  and  C7_7 
REMARK    2  A    between atoms: C3_3  and  C8_8 
REMARK    3  A    between atoms: C8_8  and  C9_9 
ROOT
HETATM    1  C1  UNL     1     -35.557  16.588  -5.006  1.00 20.00     0.095 C 
HETATM    2  C2  UNL     1     -34.864  15.339  -4.894  1.00 20.00     0.024 C 
HETATM    3  C3  UNL     1     -34.033  15.106  -3.848  1.00 20.00    -0.067 C 
HETATM    4  C4  UNL     1     -33.263  13.818  -3.650  1.00 20.00     0.044 C 
HETATM    5  N10 UNL     1     -36.126  17.595  -5.110  1.00 20.00    -0.192 NA
ENDROOT
BRANCH   2   6
HETATM    6  C7  UNL     1     -35.093  14.353  -6.025  1.00 20.00     0.046 C 
HETATM    7  C5  UNL     1     -34.574  14.878  -7.357  1.00 20.00     0.011 C 
ENDBRANCH   2   6
BRANCH   3   8
HETATM    8  C8  UNL     1     -33.751  16.136  -2.765  1.00 20.00     0.034 C 
BRANCH   8   9
HETATM    9  C9  UNL     1     -34.771  16.070  -1.625  1.00 20.00    -0.000 C 
HETATM   10  C6  UNL     1     -34.434  17.064  -0.524  1.00 20.00     0.005 C 
ENDBRANCH   8   9
ENDBRANCH   3   8
TORSDOF 3
ENDMDL
MODEL 9
REMARK VINA RESULT:      -4.0     11.547     12.323
REMARK  3 active torsions:
REMARK  status: ('A' for Active; 'I' for Inactive)
REMARK    1  A    between atoms: C2_2  and  C7_7 
REMARK    2  A    between atoms: C3_3  and  C8_8 
REMARK    3  A    between atoms: C8_8  and  C9_9 
ROOT
HETATM    1  C1  UNL     1     -33.270  14.933  -3.390  1.00 20.00     0.095 C 
HETATM    2  C2  UNL     1     -34.640  15.206  -3.072  1.00 20.00     0.024 C 
HETATM    3  C3  UNL     1     -35.637  14.717  -3.853  1.00 20.00    -0.067 C 
HETATM    4  C4  UNL     1     -37.108  14.955  -3.591  1.00 20.00     0.044 C 
HETATM    5  N10 UNL     1     -32.155  14.721  -3.635  1.00 20.00    -0.192 NA
ENDROOT
BRANCH   2   6
HETATM    6  C7  UNL     1     -34.874  16.090  -1.861  1.00 20.00     0.046 C 
HETATM    7  C5  UNL     1     -33.842  17.205  -1.757  1.00 20.00     0.011 C 
ENDBRANCH   2   6
BRANCH   3   8
HETATM    8  C8  UNL     1     -35.383  13.901  -5.110  1.00 20.00     0.034 C 
BRANCH   8   9
HETATM    9  C9  UNL     1     -35.659  14.702  -6.385  1.00 20.00    -0.000 C 
HETATM   10  C6  UNL     1     -34.366  15.081  -7.091  1.00 20.00     0.005 C 
ENDBRANCH   8   9
ENDBRANCH   3   8
TORSDOF 3
ENDMDL
