MODEL 1
REMARK VINA RESULT:      -4.9      0.000      0.000
REMARK  1 active torsions:
REMARK  status: ('A' for Active; 'I' for Inactive)
REMARK    1  A    between atoms: C10_10  and  O12_12 
ROOT
HETATM    1  C1  UNL     1     -33.894  16.779  -3.290  1.00 20.00     0.005 C 
HETATM    2  C2  UNL     1     -34.618  15.650  -2.543  1.00 20.00     0.005 C 
HETATM    3  C3  UNL     1     -35.199  16.388  -6.041  1.00 20.00     0.008 C 
HETATM    4  C4  UNL     1     -36.472  16.030  -5.283  1.00 20.00     0.033 C 
HETATM    5  C5  UNL     1     -32.753  14.743  -3.678  1.00 20.00     0.010 C 
HETATM    6  C6  UNL     1     -33.151  16.033  -4.408  1.00 20.00    -0.010 C 
HETATM    7  C7  UNL     1     -34.207  14.392  -3.327  1.00 20.00    -0.007 C 
HETATM    8  C8  UNL     1     -34.107  15.474  -5.488  1.00 20.00    -0.004 C 
HETATM    9  C9  UNL     1     -34.826  14.326  -4.743  1.00 20.00     0.023 C 
HETATM   10  C10 UNL     1     -36.319  14.547  -4.965  1.00 20.00     0.125 C 
ENDROOT
BRANCH  10  11
HETATM   11  O12 UNL     1     -37.097  14.148  -3.855  1.00 20.00    -0.390 OA
HETATM   12  C11 UNL     1     -38.301  14.902  -3.752  1.00 20.00     0.202 C 
ENDBRANCH  10  11
TORSDOF 1
ENDMDL
MODEL 2
REMARK VINA RESULT:      -4.7      1.132      2.006
REMARK  1 active torsions:
REMARK  status: ('A' for Active; 'I' for Inactive)
REMARK    1  A    between atoms: C10_10  and  O12_12 
ROOT
HETATM    1  C1  UNL     1     -33.313  16.309  -4.817  1.00 20.00     0.005 C 
HETATM    2  C2  UNL     1     -34.679  16.955  -4.550  1.00 20.00     0.005 C 
HETATM    3  C3  UNL     1     -34.193  13.369  -4.718  1.00 20.00     0.008 C 
HETATM    4  C4  UNL     1     -35.488  13.832  -5.378  1.00 20.00     0.033 C 
HETATM    5  C5  UNL     1     -33.691  16.372  -2.483  1.00 20.00     0.010 C 
HETATM    6  C6  UNL     1     -33.077  15.464  -3.556  1.00 20.00    -0.010 C 
HETATM    7  C7  UNL     1     -35.065  16.398  -3.169  1.00 20.00    -0.007 C 
HETATM    8  C8  UNL     1     -34.018  14.239  -3.476  1.00 20.00    -0.004 C 
HETATM    9  C9  UNL     1     -35.392  14.886  -3.191  1.00 20.00     0.023 C 
HETATM   10  C10 UNL     1     -36.357  14.300  -4.216  1.00 20.00     0.125 C 
ENDROOT
BRANCH  10  11
HETATM   11  O12 UNL     1     -37.348  15.223  -4.618  1.00 20.00    -0.390 OA
HETATM   12  C11 UNL     1     -38.586  14.996  -3.952  1.00 20.00     0.202 C 
ENDBRANCH  10  11
TORSDOF 1
ENDMDL
MODEL 3
REMARK VINA RESULT:      -4.7      1.849      3.651
REMARK  1 active torsions:
REMARK  status: ('A' for Active; 'I' for Inactive)
REMARK    1  A    between atoms: C10_10  and  O12_12 
ROOT
HETATM    1  C1  UNL     1     -36.552  14.832  -4.562  1.00 20.00     0.005 C 
HETATM    2  C2  UNL     1     -35.793  15.392  -5.773  1.00 20.00     0.005 C 
HETATM    3  C3  UNL     1     -34.643  15.805  -2.363  1.00 20.00     0.008 C 
HETATM    4  C4  UNL     1     -34.437  17.048  -3.221  1.00 20.00     0.033 C 
HETATM    5  C5  UNL     1     -34.858  13.302  -5.185  1.00 20.00     0.010 C 
HETATM    6  C6  UNL     1     -35.534  13.871  -3.930  1.00 20.00    -0.010 C 
HETATM    7  C7  UNL     1     -34.428  14.689  -5.686  1.00 20.00    -0.007 C 
HETATM    8  C8  UNL     1     -34.347  14.612  -3.269  1.00 20.00    -0.004 C 
HETATM    9  C9  UNL     1     -33.572  15.163  -4.488  1.00 20.00     0.023 C 
HETATM   10  C10 UNL     1     -33.351  16.647  -4.213  1.00 20.00     0.125 C 
ENDROOT
BRANCH  10  11
HETATM   11  O12 UNL     1     -33.377  17.427  -5.390  1.00 20.00    -0.390 OA
HETATM   12  C11 UNL     1     -33.701  18.787  -5.119  1.00 20.00     0.202 C 
ENDBRANCH  10  11
TORSDOF 1
ENDMDL
MODEL 4
REMARK VINA RESULT:      -4.7      0.999      1.424
REMARK  1 active torsions:
REMARK  status: ('A' for Active; 'I' for Inactive)
REMARK    1  A    between atoms: C10_10  and  O12_12 
ROOT
HETATM    1  C1  UNL     1     -34.780  17.548  -4.120  1.00 20.00     0.005 C 
HETATM    2  C2  UNL     1     -35.828  17.023  -3.130  1.00 20.00     0.005 C 
HETATM    3  C3  UNL     1     -34.475  15.010  -5.821  1.00 20.00     0.008 C 
HETATM    4  C4  UNL     1     -35.969  14.799  -5.605  1.00 20.00     0.033 C 
HETATM    5  C5  UNL     1     -33.681  16.371  -2.387  1.00 20.00     0.010 C 
HETATM    6  C6  UNL     1     -33.591  16.599  -3.902  1.00 20.00    -0.010 C 
HETATM    7  C7  UNL     1     -35.117  15.831  -2.467  1.00 20.00    -0.007 C 
HETATM    8  C8  UNL     1     -33.866  15.171  -4.430  1.00 20.00    -0.004 C 
HETATM    9  C9  UNL     1     -34.910  14.634  -3.424  1.00 20.00     0.023 C 
HETATM   10  C10 UNL     1     -36.060  14.083  -4.262  1.00 20.00     0.125 C 
ENDROOT
BRANCH  10  11
HETATM   11  O12 UNL     1     -37.316  14.256  -3.639  1.00 20.00    -0.390 OA
HETATM   12  C11 UNL     1     -38.284  14.792  -4.536  1.00 20.00     0.202 C 
ENDBRANCH  10  11
TORSDOF 1
ENDMDL
MODEL 5
REMARK VINA RESULT:      -4.6      1.485      2.115
REMARK  1 active torsions:
REMARK  status: ('A' for Active; 'I' for Inactive)
REMARK    1  A    between atoms: C10_10  and  O12_12 
ROOT
HETATM    1  C1  UNL     1     -34.574  15.609  -2.692  1.00 20.00     0.005 C 
HETATM    2  C2  UNL     1     -35.603  14.785  -3.479  1.00 20.00     0.005 C 
HETATM    3  C3  UNL     1     -33.643  17.440  -4.973  1.00 20.00     0.008 C 
HETATM    4  C4  UNL     1     -35.088  17.412  -5.460  1.00 20.00     0.033 C 
HETATM    5  C5  UNL     1     -33.457  13.850  -3.812  1.00 20.00     0.010 C 
HETATM    6  C6  UNL     1     -33.260  15.325  -3.435  1.00 20.00    -0.010 C 
HETATM    7  C7  UNL     1     -34.755  14.132  -4.583  1.00 20.00    -0.007 C 
HETATM    8  C8  UNL     1     -33.216  15.981  -4.836  1.00 20.00    -0.004 C 
HETATM    9  C9  UNL     1     -34.239  15.142  -5.635  1.00 20.00     0.023 C 
HETATM   10  C10 UNL     1     -35.180  16.143  -6.299  1.00 20.00     0.125 C 
ENDROOT
BRANCH  10  11
HETATM   11  O12 UNL     1     -36.502  15.657  -6.404  1.00 20.00    -0.390 OA
HETATM   12  C11 UNL     1     -36.726  14.991  -7.643  1.00 20.00     0.202 C 
ENDBRANCH  10  11
TORSDOF 1
ENDMDL
MODEL 6
REMARK VINA RESULT:      -4.6     11.716     12.957
REMARK  1 active torsions:
REMARK  status: ('A' for Active; 'I' for Inactive)
REMARK    1  A    between atoms: C10_10  and  O12_12 
ROOT
HETATM    1  C1  UNL     1     -43.099   6.540  -0.047  1.00 20.00     0.005 C 
HETATM    2  C2  UNL     1     -42.854   5.070   0.321  1.00 20.00     0.005 C 
HETATM    3  C3  UNL     1     -42.751   6.293  -3.088  1.00 20.00     0.008 C 
HETATM    4  C4  UNL     1     -43.417   4.927  -2.959  1.00 20.00     0.033 C 
HETATM    5  C5  UNL     1     -40.769   6.167   0.126  1.00 20.00     0.010 C 
HETATM    6  C6  UNL     1     -41.780   6.953  -0.719  1.00 20.00    -0.010 C 
HETATM    7  C7  UNL     1     -41.426   4.815  -0.190  1.00 20.00    -0.007 C 
HETATM    8  C8  UNL     1     -41.584   6.289  -2.103  1.00 20.00    -0.004 C 
HETATM    9  C9  UNL     1     -41.322   4.811  -1.733  1.00 20.00     0.023 C 
HETATM   10  C10 UNL     1     -42.277   3.985  -2.588  1.00 20.00     0.125 C 
ENDROOT
BRANCH  10  11
HETATM   11  O12 UNL     1     -42.729   2.821  -1.927  1.00 20.00    -0.390 OA
HETATM   12  C11 UNL     1     -42.975   1.755  -2.838  1.00 20.00     0.202 C 
ENDBRANCH  10  11
TORSDOF 1
ENDMDL
MODEL 7
REMARK VINA RESULT:      -4.5      1.630      2.839
REMARK  1 active torsions:
REMARK  status: ('A' for Active; 'I' for Inactive)
REMARK    1  A    between atoms: C10_10  and  O12_12 
ROOT
HETATM    1  C1  UNL     1     -32.917  15.340  -3.807  1.00 20.00     0.005 C 
HETATM    2  C2  UNL     1     -33.565  16.647  -4.283  1.00 20.00     0.005 C 
HETATM    3  C3  UNL     1     -34.793  13.375  -5.239  1.00 20.00     0.008 C 
HETATM    4  C4  UNL     1     -34.831  14.388  -6.378  1.00 20.00     0.033 C 
HETATM    5  C5  UNL     1     -34.740  15.856  -2.390  1.00 20.00     0.010 C 
HETATM    6  C6  UNL     1     -34.055  14.647  -3.042  1.00 20.00    -0.010 C 
HETATM    7  C7  UNL     1     -35.000  16.544  -3.738  1.00 20.00    -0.007 C 
HETATM    8  C8  UNL     1     -35.180  14.143  -3.977  1.00 20.00    -0.004 C 
HETATM    9  C9  UNL     1     -35.844  15.458  -4.445  1.00 20.00     0.023 C 
HETATM   10  C10 UNL     1     -35.916  15.377  -5.967  1.00 20.00     0.125 C 
ENDROOT
BRANCH  10  11
HETATM   11  O12 UNL     1     -35.762  16.638  -6.585  1.00 20.00    -0.390 OA
HETATM   12  C11 UNL     1     -34.934  16.565  -7.741  1.00 20.00     0.202 C 
ENDBRANCH  10  11
TORSDOF 1
ENDMDL
MODEL 8
REMARK VINA RESULT:      -4.5      1.971      3.295
REMARK  1 active torsions:
REMARK  status: ('A' for Active; 'I' for Inactive)
REMARK    1  A    between atoms: C10_10  and  O12_12 
ROOT
HETATM    1  C1  UNL     1     -34.290  15.331  -5.590  1.00 20.00     0.005 C 
HETATM    2  C2  UNL     1     -33.209  16.028  -4.752  1.00 20.00     0.005 C 
HETATM    3  C3  UNL     1     -36.694  15.913  -3.771  1.00 20.00     0.008 C 
HETATM    4  C4  UNL     1     -36.033  17.257  -3.485  1.00 20.00     0.033 C 
HETATM    5  C5  UNL     1     -33.538  13.843  -3.912  1.00 20.00     0.010 C 
HETATM    6  C6  UNL     1     -34.827  14.254  -4.636  1.00 20.00    -0.010 C 
HETATM    7  C7  UNL     1     -33.260  15.269  -3.415  1.00 20.00    -0.007 C 
HETATM    8  C8  UNL     1     -35.642  14.850  -3.464  1.00 20.00    -0.004 C 
HETATM    9  C9  UNL     1     -34.553  15.539  -2.610  1.00 20.00     0.023 C 
HETATM   10  C10 UNL     1     -35.047  16.960  -2.360  1.00 20.00     0.125 C 
ENDROOT
BRANCH  10  11
HETATM   11  O12 UNL     1     -33.993  17.898  -2.301  1.00 20.00    -0.390 OA
HETATM   12  C11 UNL     1     -33.507  18.067  -0.973  1.00 20.00     0.202 C 
ENDBRANCH  10  11
TORSDOF 1
ENDMDL
MODEL 9
REMARK VINA RESULT:      -4.5      1.163      2.902
REMARK  1 active torsions:
REMARK  status: ('A' for Active; 'I' for Inactive)
REMARK    1  A    between atoms: C10_10  and  O12_12 
ROOT
HETATM    1  C1  UNL     1     -34.556  14.800  -7.053  1.00 20.00     0.005 C 
HETATM    2  C2  UNL     1     -36.074  14.920  -6.863  1.00 20.00     0.005 C 
HETATM    3  C3  UNL     1     -33.786  14.325  -4.119  1.00 20.00     0.008 C 
HETATM    4  C4  UNL     1     -35.080  13.528  -4.006  1.00 20.00     0.033 C 
HETATM    5  C5  UNL     1     -35.080  17.021  -6.427  1.00 20.00     0.010 C 
HETATM    6  C6  UNL     1     -34.007  15.949  -6.193  1.00 20.00    -0.010 C 
HETATM    7  C7  UNL     1     -36.214  16.121  -5.912  1.00 20.00    -0.007 C 
HETATM    8  C8  UNL     1     -34.178  15.691  -4.677  1.00 20.00    -0.004 C 
HETATM    9  C9  UNL     1     -35.705  15.828  -4.481  1.00 20.00     0.023 C 
HETATM   10  C10 UNL     1     -36.148  14.579  -3.724  1.00 20.00     0.125 C 
ENDROOT
BRANCH  10  11
HETATM   11  O12 UNL     1     -37.442  14.151  -4.095  1.00 20.00    -0.390 OA
HETATM   12  C11 UNL     1     -38.457  14.967  -3.519  1.00 20.00     0.202 C 
ENDBRANCH  10  11
TORSDOF 1
ENDMDL
