MODEL 1
REMARK VINA RESULT:      -2.8      0.000      0.000
REMARK  0 active torsions:
REMARK  status: ('A' for Active; 'I' for Inactive)
ROOT
HETATM    1  C1  UNL     1     -33.269   6.112   3.376  1.00 20.00     0.096 C 
HETATM    2  C2  UNL     1     -34.009   6.059   4.478  1.00 20.00     0.096 C 
HETATM    3 CL3  UNL     1     -32.013   7.257   3.159  1.00 20.00    -0.096 Cl
HETATM    4 CL4  UNL     1     -35.265   4.915   4.694  1.00 20.00    -0.096 Cl
ENDROOT
TORSDOF 0
ENDMDL
MODEL 2
REMARK VINA RESULT:      -2.8      0.036      3.177
REMARK  0 active torsions:
REMARK  status: ('A' for Active; 'I' for Inactive)
ROOT
HETATM    1  C1  UNL     1     -34.048   6.064   4.461  1.00 20.00     0.096 C 
HETATM    2  C2  UNL     1     -33.277   6.088   3.378  1.00 20.00     0.096 C 
HETATM    3 CL3  UNL     1     -35.305   4.921   4.677  1.00 20.00    -0.096 Cl
HETATM    4 CL4  UNL     1     -32.021   7.232   3.163  1.00 20.00    -0.096 Cl
ENDROOT
TORSDOF 0
ENDMDL
MODEL 3
REMARK VINA RESULT:      -2.8      2.542      2.648
REMARK  0 active torsions:
REMARK  status: ('A' for Active; 'I' for Inactive)
ROOT
HETATM    1  C1  UNL     1     -33.985   6.260   5.811  1.00 20.00     0.096 C 
HETATM    2  C2  UNL     1     -34.693   5.185   6.144  1.00 20.00     0.096 C 
HETATM    3 CL3  UNL     1     -33.499   7.438   6.955  1.00 20.00    -0.096 Cl
HETATM    4 CL4  UNL     1     -35.180   4.008   4.999  1.00 20.00    -0.096 Cl
ENDROOT
TORSDOF 0
ENDMDL
MODEL 4
REMARK VINA RESULT:      -2.8      2.536      3.566
REMARK  0 active torsions:
REMARK  status: ('A' for Active; 'I' for Inactive)
ROOT
HETATM    1  C1  UNL     1     -34.695   5.184   6.137  1.00 20.00     0.096 C 
HETATM    2  C2  UNL     1     -33.988   6.259   5.803  1.00 20.00     0.096 C 
HETATM    3 CL3  UNL     1     -35.191   4.011   4.992  1.00 20.00    -0.096 Cl
HETATM    4 CL4  UNL     1     -33.493   7.433   6.948  1.00 20.00    -0.096 Cl
ENDROOT
TORSDOF 0
ENDMDL
MODEL 5
REMARK VINA RESULT:      -2.6      1.988      2.575
REMARK  0 active torsions:
REMARK  status: ('A' for Active; 'I' for Inactive)
ROOT
HETATM    1  C1  UNL     1     -34.301   5.805   5.180  1.00 20.00     0.096 C 
HETATM    2  C2  UNL     1     -33.816   6.143   3.989  1.00 20.00     0.096 C 
HETATM    3 CL3  UNL     1     -33.948   6.686   6.606  1.00 20.00    -0.096 Cl
HETATM    4 CL4  UNL     1     -34.168   5.262   2.564  1.00 20.00    -0.096 Cl
ENDROOT
TORSDOF 0
ENDMDL
MODEL 6
REMARK VINA RESULT:      -2.4      2.509      3.111
REMARK  0 active torsions:
REMARK  status: ('A' for Active; 'I' for Inactive)
ROOT
HETATM    1  C1  UNL     1     -31.949   8.224   1.830  1.00 20.00     0.096 C 
HETATM    2  C2  UNL     1     -32.554   7.503   2.769  1.00 20.00     0.096 C 
HETATM    3 CL3  UNL     1     -32.394   9.839   1.474  1.00 20.00    -0.096 Cl
HETATM    4 CL4  UNL     1     -32.110   5.888   3.124  1.00 20.00    -0.096 Cl
ENDROOT
TORSDOF 0
ENDMDL
MODEL 7
REMARK VINA RESULT:      -2.4      2.521      4.009
REMARK  0 active torsions:
REMARK  status: ('A' for Active; 'I' for Inactive)
ROOT
HETATM    1  C1  UNL     1     -32.552   7.543   2.750  1.00 20.00     0.096 C 
HETATM    2  C2  UNL     1     -31.953   8.234   1.785  1.00 20.00     0.096 C 
HETATM    3 CL3  UNL     1     -32.101   5.942   3.159  1.00 20.00    -0.096 Cl
HETATM    4 CL4  UNL     1     -32.405   9.834   1.376  1.00 20.00    -0.096 Cl
ENDROOT
TORSDOF 0
ENDMDL
MODEL 8
REMARK VINA RESULT:      -2.2      9.150      9.617
REMARK  0 active torsions:
REMARK  status: ('A' for Active; 'I' for Inactive)
ROOT
HETATM    1  C1  UNL     1     -40.744   4.681  -1.020  1.00 20.00     0.096 C 
HETATM    2  C2  UNL     1     -41.631   4.390  -1.967  1.00 20.00     0.096 C 
HETATM    3 CL3  UNL     1     -40.808   6.128  -0.106  1.00 20.00    -0.096 Cl
HETATM    4 CL4  UNL     1     -41.567   2.943  -2.881  1.00 20.00    -0.096 Cl
ENDROOT
TORSDOF 0
ENDMDL
MODEL 9
REMARK VINA RESULT:      -2.2      9.142      9.745
REMARK  0 active torsions:
REMARK  status: ('A' for Active; 'I' for Inactive)
ROOT
HETATM    1  C1  UNL     1     -41.602   4.357  -1.982  1.00 20.00     0.096 C 
HETATM    2  C2  UNL     1     -40.729   4.638  -1.019  1.00 20.00     0.096 C 
HETATM    3 CL3  UNL     1     -41.539   2.910  -2.895  1.00 20.00    -0.096 Cl
HETATM    4 CL4  UNL     1     -40.792   6.086  -0.107  1.00 20.00    -0.096 Cl
ENDROOT
TORSDOF 0
ENDMDL
