MODEL 1
REMARK VINA RESULT:      -4.7      0.000      0.000
REMARK  0 active torsions:
REMARK  status: ('A' for Active; 'I' for Inactive)
ROOT
HETATM    1  C1  UNL     1     -36.623  14.489  -4.130  1.00 20.00     0.086 C 
HETATM    2  C2  UNL     1     -34.053  16.116  -2.390  1.00 20.00    -0.025 C 
HETATM    3  C3  UNL     1     -34.989  16.728  -3.130  1.00 20.00    -0.023 C 
HETATM    4  C4  UNL     1     -33.302  16.111  -4.571  1.00 20.00     0.020 C 
HETATM    5  C5  UNL     1     -34.165  14.043  -3.743  1.00 20.00     0.050 C 
HETATM    6  C6  UNL     1     -33.261  15.230  -3.320  1.00 20.00     0.011 C 
HETATM    7  C7  UNL     1     -34.834  16.229  -4.554  1.00 20.00     0.046 C 
HETATM    8  C8  UNL     1     -35.260  14.736  -4.617  1.00 20.00     0.133 C 
HETATM    9  N9  UNL     1     -37.699  14.295  -3.745  1.00 20.00    -0.195 NA
HETATM   10 CL10 UNL     1     -35.203  14.133  -6.303  1.00 20.00    -0.102 Cl
ENDROOT
TORSDOF 0
ENDMDL
MODEL 2
REMARK VINA RESULT:      -4.7      1.605      1.876
REMARK  0 active torsions:
REMARK  status: ('A' for Active; 'I' for Inactive)
ROOT
HETATM    1  C1  UNL     1     -34.578  13.783  -4.817  1.00 20.00     0.086 C 
HETATM    2  C2  UNL     1     -34.648  16.017  -2.119  1.00 20.00    -0.025 C 
HETATM    3  C3  UNL     1     -35.713  15.661  -2.852  1.00 20.00    -0.023 C 
HETATM    4  C4  UNL     1     -34.696  17.403  -3.963  1.00 20.00     0.020 C 
HETATM    5  C5  UNL     1     -33.078  15.647  -4.000  1.00 20.00     0.050 C 
HETATM    6  C6  UNL     1     -33.682  16.712  -3.049  1.00 20.00     0.011 C 
HETATM    7  C7  UNL     1     -35.445  16.099  -4.279  1.00 20.00     0.046 C 
HETATM    8  C8  UNL     1     -34.305  15.224  -4.871  1.00 20.00     0.133 C 
HETATM    9  N9  UNL     1     -34.794  12.644  -4.773  1.00 20.00    -0.195 NA
HETATM   10 CL10 UNL     1     -34.030  15.627  -6.595  1.00 20.00    -0.102 Cl
ENDROOT
TORSDOF 0
ENDMDL
MODEL 3
REMARK VINA RESULT:      -4.5      1.837      2.700
REMARK  0 active torsions:
REMARK  status: ('A' for Active; 'I' for Inactive)
ROOT
HETATM    1  C1  UNL     1     -36.573  14.904  -3.629  1.00 20.00     0.086 C 
HETATM    2  C2  UNL     1     -34.363  15.380  -6.307  1.00 20.00    -0.025 C 
HETATM    3  C3  UNL     1     -34.415  14.283  -5.537  1.00 20.00    -0.023 C 
HETATM    4  C4  UNL     1     -33.052  15.790  -4.452  1.00 20.00     0.020 C 
HETATM    5  C5  UNL     1     -35.196  16.843  -4.488  1.00 20.00     0.050 C 
HETATM    6  C6  UNL     1     -33.987  16.534  -5.409  1.00 20.00     0.011 C 
HETATM    7  C7  UNL     1     -34.097  14.712  -4.118  1.00 20.00     0.046 C 
HETATM    8  C8  UNL     1     -35.269  15.577  -3.575  1.00 20.00     0.133 C 
HETATM    9  N9  UNL     1     -37.602  14.372  -3.673  1.00 20.00    -0.195 NA
HETATM   10 CL10 UNL     1     -34.990  16.013  -1.860  1.00 20.00    -0.102 Cl
ENDROOT
TORSDOF 0
ENDMDL
MODEL 4
REMARK VINA RESULT:      -4.5      2.076      2.827
REMARK  0 active torsions:
REMARK  status: ('A' for Active; 'I' for Inactive)
ROOT
HETATM    1  C1  UNL     1     -34.712  15.209  -6.559  1.00 20.00     0.086 C 
HETATM    2  C2  UNL     1     -33.255  13.793  -3.704  1.00 20.00    -0.025 C 
HETATM    3  C3  UNL     1     -34.491  13.527  -4.150  1.00 20.00    -0.023 C 
HETATM    4  C4  UNL     1     -34.649  15.417  -2.844  1.00 20.00     0.020 C 
HETATM    5  C5  UNL     1     -33.264  16.073  -4.676  1.00 20.00     0.050 C 
HETATM    6  C6  UNL     1     -33.215  15.262  -3.355  1.00 20.00     0.011 C 
HETATM    7  C7  UNL     1     -35.270  14.828  -4.120  1.00 20.00     0.046 C 
HETATM    8  C8  UNL     1     -34.704  15.783  -5.208  1.00 20.00     0.133 C 
HETATM    9  N9  UNL     1     -34.718  14.754  -7.626  1.00 20.00    -0.195 NA
HETATM   10 CL10 UNL     1     -35.668  17.291  -5.288  1.00 20.00    -0.102 Cl
ENDROOT
TORSDOF 0
ENDMDL
MODEL 5
REMARK VINA RESULT:      -4.5      2.146      2.878
REMARK  0 active torsions:
REMARK  status: ('A' for Active; 'I' for Inactive)
ROOT
HETATM    1  C1  UNL     1     -34.819  16.288  -1.948  1.00 20.00     0.086 C 
HETATM    2  C2  UNL     1     -33.451  13.675  -3.839  1.00 20.00    -0.025 C 
HETATM    3  C3  UNL     1     -32.860  14.859  -3.622  1.00 20.00    -0.023 C 
HETATM    4  C4  UNL     1     -34.248  15.133  -5.440  1.00 20.00     0.020 C 
HETATM    5  C5  UNL     1     -35.726  14.635  -3.631  1.00 20.00     0.050 C 
HETATM    6  C6  UNL     1     -34.727  13.948  -4.598  1.00 20.00     0.011 C 
HETATM    7  C7  UNL     1     -33.758  15.926  -4.218  1.00 20.00     0.046 C 
HETATM    8  C8  UNL     1     -35.059  16.024  -3.372  1.00 20.00     0.133 C 
HETATM    9  N9  UNL     1     -34.628  16.497  -0.824  1.00 20.00    -0.195 NA
HETATM   10 CL10 UNL     1     -36.103  17.351  -3.969  1.00 20.00    -0.102 Cl
ENDROOT
TORSDOF 0
ENDMDL
MODEL 6
REMARK VINA RESULT:      -4.4      2.576      3.669
REMARK  0 active torsions:
REMARK  status: ('A' for Active; 'I' for Inactive)
ROOT
HETATM    1  C1  UNL     1     -34.722  13.795  -4.876  1.00 20.00     0.086 C 
HETATM    2  C2  UNL     1     -36.521  15.189  -7.540  1.00 20.00    -0.025 C 
HETATM    3  C3  UNL     1     -35.432  14.417  -7.666  1.00 20.00    -0.023 C 
HETATM    4  C4  UNL     1     -34.684  16.573  -7.352  1.00 20.00     0.020 C 
HETATM    5  C5  UNL     1     -35.814  16.031  -5.319  1.00 20.00     0.050 C 
HETATM    6  C6  UNL     1     -36.101  16.430  -6.790  1.00 20.00     0.011 C 
HETATM    7  C7  UNL     1     -34.288  15.135  -6.978  1.00 20.00     0.046 C 
HETATM    8  C8  UNL     1     -34.540  15.136  -5.444  1.00 20.00     0.133 C 
HETATM    9  N9  UNL     1     -34.867  12.735  -4.427  1.00 20.00    -0.195 NA
HETATM   10 CL10 UNL     1     -33.157  15.874  -4.577  1.00 20.00    -0.102 Cl
ENDROOT
TORSDOF 0
ENDMDL
MODEL 7
REMARK VINA RESULT:      -4.4      2.170      2.893
REMARK  0 active torsions:
REMARK  status: ('A' for Active; 'I' for Inactive)
ROOT
HETATM    1  C1  UNL     1     -33.873  17.151  -5.488  1.00 20.00     0.086 C 
HETATM    2  C2  UNL     1     -34.837  15.822  -2.393  1.00 20.00    -0.025 C 
HETATM    3  C3  UNL     1     -33.583  15.838  -2.866  1.00 20.00    -0.023 C 
HETATM    4  C4  UNL     1     -34.592  13.953  -3.724  1.00 20.00     0.020 C 
HETATM    5  C5  UNL     1     -35.824  15.770  -4.666  1.00 20.00     0.050 C 
HETATM    6  C6  UNL     1     -35.659  14.982  -3.341  1.00 20.00     0.011 C 
HETATM    7  C7  UNL     1     -33.575  15.026  -4.147  1.00 20.00     0.046 C 
HETATM    8  C8  UNL     1     -34.371  15.793  -5.239  1.00 20.00     0.133 C 
HETATM    9  N9  UNL     1     -33.479  18.224  -5.683  1.00 20.00    -0.195 NA
HETATM   10 CL10 UNL     1     -34.292  14.925  -6.805  1.00 20.00    -0.102 Cl
ENDROOT
TORSDOF 0
ENDMDL
MODEL 8
REMARK VINA RESULT:      -4.4      0.999      1.256
REMARK  0 active torsions:
REMARK  status: ('A' for Active; 'I' for Inactive)
ROOT
HETATM    1  C1  UNL     1     -36.595  14.495  -3.981  1.00 20.00     0.086 C 
HETATM    2  C2  UNL     1     -34.838  17.509  -3.657  1.00 20.00    -0.025 C 
HETATM    3  C3  UNL     1     -35.493  17.114  -4.759  1.00 20.00    -0.023 C 
HETATM    4  C4  UNL     1     -33.393  16.174  -4.863  1.00 20.00     0.020 C 
HETATM    5  C5  UNL     1     -34.397  15.179  -2.937  1.00 20.00     0.050 C 
HETATM    6  C6  UNL     1     -33.740  16.503  -3.409  1.00 20.00     0.011 C 
HETATM    7  C7  UNL     1     -34.844  15.828  -5.231  1.00 20.00     0.046 C 
HETATM    8  C8  UNL     1     -35.160  14.697  -4.212  1.00 20.00     0.133 C 
HETATM    9  N9  UNL     1     -37.729  14.337  -3.798  1.00 20.00    -0.195 NA
HETATM   10 CL10 UNL     1     -34.510  13.129  -4.787  1.00 20.00    -0.102 Cl
ENDROOT
TORSDOF 0
ENDMDL
MODEL 9
REMARK VINA RESULT:      -4.3      1.730      2.531
REMARK  0 active torsions:
REMARK  status: ('A' for Active; 'I' for Inactive)
ROOT
HETATM    1  C1  UNL     1     -37.516  14.873  -4.116  1.00 20.00     0.086 C 
HETATM    2  C2  UNL     1     -34.552  13.247  -5.034  1.00 20.00    -0.025 C 
HETATM    3  C3  UNL     1     -34.828  13.708  -3.806  1.00 20.00    -0.023 C 
HETATM    4  C4  UNL     1     -33.950  15.474  -4.996  1.00 20.00     0.020 C 
HETATM    5  C5  UNL     1     -35.987  14.946  -6.127  1.00 20.00     0.050 C 
HETATM    6  C6  UNL     1     -34.531  14.438  -5.962  1.00 20.00     0.011 C 
HETATM    7  C7  UNL     1     -35.016  15.208  -3.920  1.00 20.00     0.046 C 
HETATM    8  C8  UNL     1     -36.325  15.497  -4.705  1.00 20.00     0.133 C 
HETATM    9  N9  UNL     1     -38.457  14.379  -3.651  1.00 20.00    -0.195 NA
HETATM   10 CL10 UNL     1     -36.650  17.258  -4.767  1.00 20.00    -0.102 Cl
ENDROOT
TORSDOF 0
ENDMDL
