MODEL 1
REMARK VINA RESULT:      -5.0      0.000      0.000
REMARK  0 active torsions:
REMARK  status: ('A' for Active; 'I' for Inactive)
ROOT
HETATM    1  C1  UNL     1     -34.029  15.875  -5.445  1.00 20.00     0.014 A 
HETATM    2  C2  UNL     1     -34.329  14.584  -5.636  1.00 20.00     0.075 A 
HETATM    3  C3  UNL     1     -34.061  16.471  -4.126  1.00 20.00    -0.035 A 
HETATM    4  C4  UNL     1     -34.392  15.709  -3.067  1.00 20.00     0.018 A 
HETATM    5  C5  UNL     1     -34.704  13.737  -4.471  1.00 20.00     0.245 A 
HETATM    6  C6  UNL     1     -33.727  17.934  -4.008  1.00 20.00     0.040 C 
HETATM    7  C7  UNL     1     -34.433  16.234  -1.659  1.00 20.00     0.057 C 
HETATM    8  C8  UNL     1     -34.121  18.531  -2.653  1.00 20.00     0.005 C 
HETATM    9  C9  UNL     1     -33.748  17.595  -1.508  1.00 20.00     0.006 C 
HETATM   10  N10 UNL     1     -34.705  14.377  -3.243  1.00 20.00    -0.327 N 
HETATM   11  O11 UNL     1     -34.986  12.551  -4.629  1.00 20.00    -0.268 OA
HETATM   12  H22 UNL     1     -34.951  13.832  -2.421  1.00 20.00     0.169 HD
ENDROOT
TORSDOF 0
ENDMDL
MODEL 2
REMARK VINA RESULT:      -5.0     11.788     13.036
REMARK  0 active torsions:
REMARK  status: ('A' for Active; 'I' for Inactive)
ROOT
HETATM    1  C1  UNL     1     -33.941   5.317   2.621  1.00 20.00     0.014 A 
HETATM    2  C2  UNL     1     -33.096   6.181   2.045  1.00 20.00     0.075 A 
HETATM    3  C3  UNL     1     -34.182   5.333   4.049  1.00 20.00    -0.035 A 
HETATM    4  C4  UNL     1     -33.548   6.242   4.813  1.00 20.00     0.018 A 
HETATM    5  C5  UNL     1     -32.385   7.184   2.885  1.00 20.00     0.245 A 
HETATM    6  C6  UNL     1     -35.133   4.312   4.612  1.00 20.00     0.040 C 
HETATM    7  C7  UNL     1     -33.749   6.348   6.300  1.00 20.00     0.057 C 
HETATM    8  C8  UNL     1     -35.051   4.193   6.137  1.00 20.00     0.005 C 
HETATM    9  C9  UNL     1     -34.970   5.568   6.795  1.00 20.00     0.006 C 
HETATM   10  N10 UNL     1     -32.673   7.140   4.239  1.00 20.00    -0.327 N 
HETATM   11  O11 UNL     1     -31.604   7.982   2.373  1.00 20.00    -0.268 OA
HETATM   12  H22 UNL     1     -32.212   7.812   4.847  1.00 20.00     0.169 HD
ENDROOT
TORSDOF 0
ENDMDL
MODEL 3
REMARK VINA RESULT:      -4.7      2.644      4.283
REMARK  0 active torsions:
REMARK  status: ('A' for Active; 'I' for Inactive)
ROOT
HETATM    1  C1  UNL     1     -33.633  16.651  -2.074  1.00 20.00     0.014 A 
HETATM    2  C2  UNL     1     -34.374  17.530  -1.389  1.00 20.00     0.075 A 
HETATM    3  C3  UNL     1     -34.241  15.649  -2.926  1.00 20.00    -0.035 A 
HETATM    4  C4  UNL     1     -35.582  15.607  -3.036  1.00 20.00     0.018 A 
HETATM    5  C5  UNL     1     -35.858  17.483  -1.500  1.00 20.00     0.245 A 
HETATM    6  C6  UNL     1     -33.330  14.690  -3.643  1.00 20.00     0.040 C 
HETATM    7  C7  UNL     1     -36.302  14.617  -3.910  1.00 20.00     0.057 C 
HETATM    8  C8  UNL     1     -34.072  13.483  -4.226  1.00 20.00     0.005 C 
HETATM    9  C9  UNL     1     -35.374  13.906  -4.898  1.00 20.00     0.006 C 
HETATM   10  N10 UNL     1     -36.363  16.503  -2.338  1.00 20.00    -0.327 N 
HETATM   11  O11 UNL     1     -36.554  18.280  -0.875  1.00 20.00    -0.268 OA
HETATM   12  H22 UNL     1     -37.372  16.440  -2.445  1.00 20.00     0.169 HD
ENDROOT
TORSDOF 0
ENDMDL
MODEL 4
REMARK VINA RESULT:      -4.7     12.396     13.807
REMARK  0 active torsions:
REMARK  status: ('A' for Active; 'I' for Inactive)
ROOT
HETATM    1  C1  UNL     1     -43.417   4.381  -3.416  1.00 20.00     0.014 A 
HETATM    2  C2  UNL     1     -43.076   3.137  -3.771  1.00 20.00     0.075 A 
HETATM    3  C3  UNL     1     -42.664   5.119  -2.423  1.00 20.00    -0.035 A 
HETATM    4  C4  UNL     1     -41.591   4.542  -1.851  1.00 20.00     0.018 A 
HETATM    5  C5  UNL     1     -41.895   2.490  -3.136  1.00 20.00     0.245 A 
HETATM    6  C6  UNL     1     -43.132   6.505  -2.072  1.00 20.00     0.040 C 
HETATM    7  C7  UNL     1     -40.736   5.235  -0.826  1.00 20.00     0.057 C 
HETATM    8  C8  UNL     1     -42.489   7.048  -0.792  1.00 20.00     0.005 C 
HETATM    9  C9  UNL     1     -40.995   6.742  -0.752  1.00 20.00     0.006 C 
HETATM   10  N10 UNL     1     -41.222   3.260  -2.203  1.00 20.00    -0.327 N 
HETATM   11  O11 UNL     1     -41.569   1.347  -3.448  1.00 20.00    -0.268 OA
HETATM   12  H22 UNL     1     -40.407   2.857  -1.749  1.00 20.00     0.169 HD
ENDROOT
TORSDOF 0
ENDMDL
MODEL 5
REMARK VINA RESULT:      -4.7      1.635      3.051
REMARK  0 active torsions:
REMARK  status: ('A' for Active; 'I' for Inactive)
ROOT
HETATM    1  C1  UNL     1     -33.782  15.706  -3.637  1.00 20.00     0.014 A 
HETATM    2  C2  UNL     1     -34.011  14.388  -3.585  1.00 20.00     0.075 A 
HETATM    3  C3  UNL     1     -33.972  16.460  -4.859  1.00 20.00    -0.035 A 
HETATM    4  C4  UNL     1     -34.396  15.822  -5.965  1.00 20.00     0.018 A 
HETATM    5  C5  UNL     1     -34.473  13.675  -4.808  1.00 20.00     0.245 A 
HETATM    6  C6  UNL     1     -33.671  17.934  -4.829  1.00 20.00     0.040 C 
HETATM    7  C7  UNL     1     -34.640  16.522  -7.274  1.00 20.00     0.057 C 
HETATM    8  C8  UNL     1     -33.572  18.553  -6.227  1.00 20.00     0.005 C 
HETATM    9  C9  UNL     1     -34.687  18.047  -7.136  1.00 20.00     0.006 C 
HETATM   10  N10 UNL     1     -34.637  14.465  -5.933  1.00 20.00    -0.327 N 
HETATM   11  O11 UNL     1     -34.685  12.465  -4.779  1.00 20.00    -0.268 OA
HETATM   12  H22 UNL     1     -34.956  14.016  -6.788  1.00 20.00     0.169 HD
ENDROOT
TORSDOF 0
ENDMDL
MODEL 6
REMARK VINA RESULT:      -4.6     11.857     13.318
REMARK  0 active torsions:
REMARK  status: ('A' for Active; 'I' for Inactive)
ROOT
HETATM    1  C1  UNL     1     -41.145   3.894  -1.807  1.00 20.00     0.014 A 
HETATM    2  C2  UNL     1     -41.747   3.107  -2.706  1.00 20.00     0.075 A 
HETATM    3  C3  UNL     1     -41.545   5.273  -1.619  1.00 20.00    -0.035 A 
HETATM    4  C4  UNL     1     -42.551   5.772  -2.361  1.00 20.00     0.018 A 
HETATM    5  C5  UNL     1     -42.855   3.655  -3.536  1.00 20.00     0.245 A 
HETATM    6  C6  UNL     1     -40.799   6.089  -0.599  1.00 20.00     0.040 C 
HETATM    7  C7  UNL     1     -43.050   7.184  -2.224  1.00 20.00     0.057 C 
HETATM    8  C8  UNL     1     -41.063   7.593  -0.725  1.00 20.00     0.005 C 
HETATM    9  C9  UNL     1     -42.544   7.876  -0.955  1.00 20.00     0.006 C 
HETATM   10  N10 UNL     1     -43.185   4.978  -3.294  1.00 20.00    -0.327 N 
HETATM   11  O11 UNL     1     -43.417   2.947  -4.369  1.00 20.00    -0.268 OA
HETATM   12  H22 UNL     1     -43.939   5.388  -3.837  1.00 20.00     0.169 HD
ENDROOT
TORSDOF 0
ENDMDL
MODEL 7
REMARK VINA RESULT:      -4.6      1.372      1.683
REMARK  0 active torsions:
REMARK  status: ('A' for Active; 'I' for Inactive)
ROOT
HETATM    1  C1  UNL     1     -33.233  15.277  -3.375  1.00 20.00     0.014 A 
HETATM    2  C2  UNL     1     -33.535  14.046  -3.806  1.00 20.00     0.075 A 
HETATM    3  C3  UNL     1     -34.265  16.250  -3.083  1.00 20.00    -0.035 A 
HETATM    4  C4  UNL     1     -35.557  15.907  -3.242  1.00 20.00     0.018 A 
HETATM    5  C5  UNL     1     -34.961  13.662  -3.992  1.00 20.00     0.245 A 
HETATM    6  C6  UNL     1     -33.832  17.616  -2.621  1.00 20.00     0.040 C 
HETATM    7  C7  UNL     1     -36.697  16.842  -2.946  1.00 20.00     0.057 C 
HETATM    8  C8  UNL     1     -34.961  18.651  -2.675  1.00 20.00     0.005 C 
HETATM    9  C9  UNL     1     -36.268  18.072  -2.142  1.00 20.00     0.006 C 
HETATM   10  N10 UNL     1     -35.888  14.644  -3.686  1.00 20.00    -0.327 N 
HETATM   11  O11 UNL     1     -35.256  12.537  -4.390  1.00 20.00    -0.268 OA
HETATM   12  H22 UNL     1     -36.874  14.420  -3.795  1.00 20.00     0.169 HD
ENDROOT
TORSDOF 0
ENDMDL
MODEL 8
REMARK VINA RESULT:      -4.5      1.413      2.279
REMARK  0 active torsions:
REMARK  status: ('A' for Active; 'I' for Inactive)
ROOT
HETATM    1  C1  UNL     1     -34.802  14.481  -3.439  1.00 20.00     0.014 A 
HETATM    2  C2  UNL     1     -34.757  14.104  -4.722  1.00 20.00     0.075 A 
HETATM    3  C3  UNL     1     -34.453  15.827  -3.032  1.00 20.00    -0.035 A 
HETATM    4  C4  UNL     1     -34.082  16.720  -3.968  1.00 20.00     0.018 A 
HETATM    5  C5  UNL     1     -34.340  15.086  -5.761  1.00 20.00     0.245 A 
HETATM    6  C6  UNL     1     -34.514  16.155  -1.565  1.00 20.00     0.040 C 
HETATM    7  C7  UNL     1     -33.721  18.144  -3.645  1.00 20.00     0.057 C 
HETATM    8  C8  UNL     1     -33.807  17.469  -1.216  1.00 20.00     0.005 C 
HETATM    9  C9  UNL     1     -34.136  18.560  -2.231  1.00 20.00     0.006 C 
HETATM   10  N10 UNL     1     -34.029  16.352  -5.296  1.00 20.00    -0.327 N 
HETATM   11  O11 UNL     1     -34.290  14.756  -6.944  1.00 20.00    -0.268 OA
HETATM   12  H22 UNL     1     -33.743  17.053  -5.974  1.00 20.00     0.169 HD
ENDROOT
TORSDOF 0
ENDMDL
MODEL 9
REMARK VINA RESULT:      -4.5      1.875      1.875
REMARK  0 active torsions:
REMARK  status: ('A' for Active; 'I' for Inactive)
ROOT
HETATM    1  C1  UNL     1     -35.630  16.526  -4.995  1.00 20.00     0.014 A 
HETATM    2  C2  UNL     1     -36.617  15.624  -5.059  1.00 20.00     0.075 A 
HETATM    3  C3  UNL     1     -35.027  16.900  -3.732  1.00 20.00    -0.035 A 
HETATM    4  C4  UNL     1     -35.465  16.321  -2.598  1.00 20.00     0.018 A 
HETATM    5  C5  UNL     1     -37.111  14.986  -3.808  1.00 20.00     0.245 A 
HETATM    6  C6  UNL     1     -33.937  17.937  -3.754  1.00 20.00     0.040 C 
HETATM    7  C7  UNL     1     -34.888  16.631  -1.244  1.00 20.00     0.057 C 
HETATM    8  C8  UNL     1     -33.619  18.500  -2.365  1.00 20.00     0.005 C 
HETATM    9  C9  UNL     1     -33.561  17.391  -1.319  1.00 20.00     0.006 C 
HETATM   10  N10 UNL     1     -36.481  15.390  -2.643  1.00 20.00    -0.327 N 
HETATM   11  O11 UNL     1     -38.018  14.158  -3.848  1.00 20.00    -0.268 OA
HETATM   12  H22 UNL     1     -36.786  14.975  -1.767  1.00 20.00     0.169 HD
ENDROOT
TORSDOF 0
ENDMDL
