MODEL 1
REMARK VINA RESULT:      -3.9      0.000      0.000
REMARK  4 active torsions:
REMARK  status: ('A' for Active; 'I' for Inactive)
REMARK    1  A    between atoms: C1_1  and  O10_10 
REMARK    2  A    between atoms: C1_1  and  O11_11 
REMARK    3  A    between atoms: C7_7  and  O10_10 
REMARK    4  A    between atoms: C8_8  and  O11_11 
ROOT
HETATM    1  C1  UNL     1     -33.600  16.216  -4.052  1.00 20.00     0.407 C 
HETATM    2  O9  UNL     1     -32.737  16.302  -4.916  1.00 20.00    -0.229 OA
ENDROOT
BRANCH   1   3
HETATM    3  O10 UNL     1     -33.404  16.339  -2.709  1.00 20.00    -0.293 OA
BRANCH   3   4
HETATM    4  C7  UNL     1     -34.264  17.268  -2.042  1.00 20.00     0.126 C 
HETATM    5  C2  UNL     1     -34.642  16.710  -0.679  1.00 20.00     0.040 C 
HETATM    6  C3  UNL     1     -33.557  18.611  -1.928  1.00 20.00     0.040 C 
ENDBRANCH   3   4
ENDBRANCH   1   3
BRANCH   1   7
HETATM    7  O11 UNL     1     -34.926  15.984  -4.270  1.00 20.00    -0.288 OA
BRANCH   7   8
HETATM    8  C8  UNL     1     -35.285  14.623  -4.507  1.00 20.00     0.062 C 
HETATM    9  C4  UNL     1     -34.345  13.724  -3.704  1.00 20.00     0.046 C 
HETATM   10  C5  UNL     1     -36.729  14.440  -4.045  1.00 20.00     0.046 C 
HETATM   11  C6  UNL     1     -35.161  14.341  -6.004  1.00 20.00     0.046 C 
ENDBRANCH   7   8
ENDBRANCH   1   7
TORSDOF 4
ENDMDL
MODEL 2
REMARK VINA RESULT:      -3.9      1.932      4.402
REMARK  4 active torsions:
REMARK  status: ('A' for Active; 'I' for Inactive)
REMARK    1  A    between atoms: C1_1  and  O10_10 
REMARK    2  A    between atoms: C1_1  and  O11_11 
REMARK    3  A    between atoms: C7_7  and  O10_10 
REMARK    4  A    between atoms: C8_8  and  O11_11 
ROOT
HETATM    1  C1  UNL     1     -35.522  14.015  -4.438  1.00 20.00     0.407 C 
HETATM    2  O9  UNL     1     -35.032  12.894  -4.445  1.00 20.00    -0.229 OA
ENDROOT
BRANCH   1   3
HETATM    3  O10 UNL     1     -36.001  14.686  -5.523  1.00 20.00    -0.293 OA
BRANCH   3   4
HETATM    4  C7  UNL     1     -35.390  14.355  -6.774  1.00 20.00     0.126 C 
HETATM    5  C2  UNL     1     -36.388  14.593  -7.897  1.00 20.00     0.040 C 
HETATM    6  C3  UNL     1     -34.128  15.186  -6.952  1.00 20.00     0.040 C 
ENDBRANCH   3   4
ENDBRANCH   1   3
BRANCH   1   7
HETATM    7  O11 UNL     1     -35.685  14.807  -3.341  1.00 20.00    -0.288 OA
BRANCH   7   8
HETATM    8  C8  UNL     1     -34.652  15.766  -3.110  1.00 20.00     0.062 C 
HETATM    9  C4  UNL     1     -34.935  17.001  -3.967  1.00 20.00     0.046 C 
HETATM   10  C5  UNL     1     -34.680  16.125  -1.627  1.00 20.00     0.046 C 
HETATM   11  C6  UNL     1     -33.312  15.138  -3.486  1.00 20.00     0.046 C 
ENDBRANCH   7   8
ENDBRANCH   1   7
TORSDOF 4
ENDMDL
MODEL 3
REMARK VINA RESULT:      -3.8      1.933      4.398
REMARK  4 active torsions:
REMARK  status: ('A' for Active; 'I' for Inactive)
REMARK    1  A    between atoms: C1_1  and  O10_10 
REMARK    2  A    between atoms: C1_1  and  O11_11 
REMARK    3  A    between atoms: C7_7  and  O10_10 
REMARK    4  A    between atoms: C8_8  and  O11_11 
ROOT
HETATM    1  C1  UNL     1     -35.511  14.013  -4.451  1.00 20.00     0.407 C 
HETATM    2  O9  UNL     1     -35.016  12.894  -4.484  1.00 20.00    -0.229 OA
ENDROOT
BRANCH   1   3
HETATM    3  O10 UNL     1     -35.997  14.705  -5.519  1.00 20.00    -0.293 OA
BRANCH   3   4
HETATM    4  C7  UNL     1     -35.422  14.369  -6.786  1.00 20.00     0.126 C 
HETATM    5  C2  UNL     1     -36.445  14.622  -7.883  1.00 20.00     0.040 C 
HETATM    6  C3  UNL     1     -34.156  15.186  -6.994  1.00 20.00     0.040 C 
ENDBRANCH   3   4
ENDBRANCH   1   3
BRANCH   1   7
HETATM    7  O11 UNL     1     -35.674  14.781  -3.337  1.00 20.00    -0.288 OA
BRANCH   7   8
HETATM    8  C8  UNL     1     -34.662  15.762  -3.107  1.00 20.00     0.062 C 
HETATM    9  C4  UNL     1     -34.679  16.139  -1.625  1.00 20.00     0.046 C 
HETATM   10  C5  UNL     1     -33.322  15.139  -3.487  1.00 20.00     0.046 C 
HETATM   11  C6  UNL     1     -34.957  16.979  -3.982  1.00 20.00     0.046 C 
ENDBRANCH   7   8
ENDBRANCH   1   7
TORSDOF 4
ENDMDL
MODEL 4
REMARK VINA RESULT:      -3.8      1.798      4.436
REMARK  4 active torsions:
REMARK  status: ('A' for Active; 'I' for Inactive)
REMARK    1  A    between atoms: C1_1  and  O10_10 
REMARK    2  A    between atoms: C1_1  and  O11_11 
REMARK    3  A    between atoms: C7_7  and  O10_10 
REMARK    4  A    between atoms: C8_8  and  O11_11 
ROOT
HETATM    1  C1  UNL     1     -34.868  14.010  -4.790  1.00 20.00     0.407 C 
HETATM    2  O9  UNL     1     -34.976  12.894  -4.302  1.00 20.00    -0.229 OA
ENDROOT
BRANCH   1   3
HETATM    3  O10 UNL     1     -34.458  14.293  -6.059  1.00 20.00    -0.293 OA
BRANCH   3   4
HETATM    4  C7  UNL     1     -35.312  15.166  -6.804  1.00 20.00     0.126 C 
HETATM    5  C2  UNL     1     -34.492  16.325  -7.349  1.00 20.00     0.040 C 
HETATM    6  C3  UNL     1     -35.985  14.377  -7.918  1.00 20.00     0.040 C 
ENDBRANCH   3   4
ENDBRANCH   1   3
BRANCH   1   7
HETATM    7  O11 UNL     1     -35.141  15.188  -4.159  1.00 20.00    -0.288 OA
BRANCH   7   8
HETATM    8  C8  UNL     1     -34.071  15.744  -3.396  1.00 20.00     0.062 C 
HETATM    9  C4  UNL     1     -32.864  14.812  -3.500  1.00 20.00     0.046 C 
HETATM   10  C5  UNL     1     -33.745  17.113  -3.988  1.00 20.00     0.046 C 
HETATM   11  C6  UNL     1     -34.528  15.882  -1.945  1.00 20.00     0.046 C 
ENDBRANCH   7   8
ENDBRANCH   1   7
TORSDOF 4
ENDMDL
MODEL 5
REMARK VINA RESULT:      -3.7     11.370     12.550
REMARK  4 active torsions:
REMARK  status: ('A' for Active; 'I' for Inactive)
REMARK    1  A    between atoms: C1_1  and  O10_10 
REMARK    2  A    between atoms: C1_1  and  O11_11 
REMARK    3  A    between atoms: C7_7  and  O10_10 
REMARK    4  A    between atoms: C8_8  and  O11_11 
ROOT
HETATM    1  C1  UNL     1     -33.532   5.789   3.090  1.00 20.00     0.407 C 
HETATM    2  O9  UNL     1     -33.894   5.111   2.137  1.00 20.00    -0.229 OA
ENDROOT
BRANCH   1   3
HETATM    3  O10 UNL     1     -33.279   7.128   3.069  1.00 20.00    -0.293 OA
BRANCH   3   4
HETATM    4  C7  UNL     1     -31.961   7.501   2.655  1.00 20.00     0.126 C 
HETATM    5  C2  UNL     1     -32.056   8.616   1.625  1.00 20.00     0.040 C 
HETATM    6  C3  UNL     1     -31.154   7.924   3.874  1.00 20.00     0.040 C 
ENDBRANCH   3   4
ENDBRANCH   1   3
BRANCH   1   7
HETATM    7  O11 UNL     1     -33.316   5.335   4.357  1.00 20.00    -0.288 OA
BRANCH   7   8
HETATM    8  C8  UNL     1     -34.472   5.250   5.190  1.00 20.00     0.062 C 
HETATM    9  C4  UNL     1     -34.525   3.851   5.806  1.00 20.00     0.046 C 
HETATM   10  C5  UNL     1     -34.334   6.311   6.279  1.00 20.00     0.046 C 
HETATM   11  C6  UNL     1     -35.709   5.515   4.334  1.00 20.00     0.046 C 
ENDBRANCH   7   8
ENDBRANCH   1   7
TORSDOF 4
ENDMDL
MODEL 6
REMARK VINA RESULT:      -3.7      1.852      3.036
REMARK  4 active torsions:
REMARK  status: ('A' for Active; 'I' for Inactive)
REMARK    1  A    between atoms: C1_1  and  O10_10 
REMARK    2  A    between atoms: C1_1  and  O11_11 
REMARK    3  A    between atoms: C7_7  and  O10_10 
REMARK    4  A    between atoms: C8_8  and  O11_11 
ROOT
HETATM    1  C1  UNL     1     -36.411  14.802  -3.957  1.00 20.00     0.407 C 
HETATM    2  O9  UNL     1     -37.423  14.117  -3.898  1.00 20.00    -0.229 OA
ENDROOT
BRANCH   1   3
HETATM    3  O10 UNL     1     -35.314  14.681  -3.158  1.00 20.00    -0.293 OA
BRANCH   3   4
HETATM    4  C7  UNL     1     -34.551  15.877  -2.970  1.00 20.00     0.126 C 
HETATM    5  C2  UNL     1     -34.628  16.296  -1.510  1.00 20.00     0.040 C 
HETATM    6  C3  UNL     1     -33.116  15.631  -3.413  1.00 20.00     0.040 C 
ENDBRANCH   3   4
ENDBRANCH   1   3
BRANCH   1   7
HETATM    7  O11 UNL     1     -36.186  15.819  -4.837  1.00 20.00    -0.288 OA
BRANCH   7   8
HETATM    8  C8  UNL     1     -35.933  15.427  -6.186  1.00 20.00     0.062 C 
HETATM    9  C4  UNL     1     -37.270  15.315  -6.919  1.00 20.00     0.046 C 
HETATM   10  C5  UNL     1     -35.061  16.505  -6.824  1.00 20.00     0.046 C 
HETATM   11  C6  UNL     1     -35.204  14.084  -6.174  1.00 20.00     0.046 C 
ENDBRANCH   7   8
ENDBRANCH   1   7
TORSDOF 4
ENDMDL
MODEL 7
REMARK VINA RESULT:      -3.7      1.844      2.720
REMARK  4 active torsions:
REMARK  status: ('A' for Active; 'I' for Inactive)
REMARK    1  A    between atoms: C1_1  and  O10_10 
REMARK    2  A    between atoms: C1_1  and  O11_11 
REMARK    3  A    between atoms: C7_7  and  O10_10 
REMARK    4  A    between atoms: C8_8  and  O11_11 
ROOT
HETATM    1  C1  UNL     1     -36.397  14.820  -3.900  1.00 20.00     0.407 C 
HETATM    2  O9  UNL     1     -37.433  14.176  -3.806  1.00 20.00    -0.229 OA
ENDROOT
BRANCH   1   3
HETATM    3  O10 UNL     1     -35.320  14.730  -3.069  1.00 20.00    -0.293 OA
BRANCH   3   4
HETATM    4  C7  UNL     1     -34.596  15.946  -2.862  1.00 20.00     0.126 C 
HETATM    5  C2  UNL     1     -34.706  16.352  -1.400  1.00 20.00     0.040 C 
HETATM    6  C3  UNL     1     -33.149  15.746  -3.287  1.00 20.00     0.040 C 
ENDBRANCH   3   4
ENDBRANCH   1   3
BRANCH   1   7
HETATM    7  O11 UNL     1     -36.119  15.751  -4.856  1.00 20.00    -0.288 OA
BRANCH   7   8
HETATM    8  C8  UNL     1     -35.733  15.235  -6.130  1.00 20.00     0.062 C 
HETATM    9  C4  UNL     1     -35.115  13.851  -5.926  1.00 20.00     0.046 C 
HETATM   10  C5  UNL     1     -36.991  15.140  -6.990  1.00 20.00     0.046 C 
HETATM   11  C6  UNL     1     -34.724  16.195  -6.758  1.00 20.00     0.046 C 
ENDBRANCH   7   8
ENDBRANCH   1   7
TORSDOF 4
ENDMDL
MODEL 8
REMARK VINA RESULT:      -3.6      1.062      1.967
REMARK  4 active torsions:
REMARK  status: ('A' for Active; 'I' for Inactive)
REMARK    1  A    between atoms: C1_1  and  O10_10 
REMARK    2  A    between atoms: C1_1  and  O11_11 
REMARK    3  A    between atoms: C7_7  and  O10_10 
REMARK    4  A    between atoms: C8_8  and  O11_11 
ROOT
HETATM    1  C1  UNL     1     -33.232  15.716  -4.066  1.00 20.00     0.407 C 
HETATM    2  O9  UNL     1     -32.398  14.953  -3.599  1.00 20.00    -0.229 OA
ENDROOT
BRANCH   1   3
HETATM    3  O10 UNL     1     -33.704  16.847  -3.470  1.00 20.00    -0.293 OA
BRANCH   3   4
HETATM    4  C7  UNL     1     -33.627  16.872  -2.042  1.00 20.00     0.126 C 
HETATM    5  C2  UNL     1     -33.461  18.309  -1.574  1.00 20.00     0.040 C 
HETATM    6  C3  UNL     1     -34.878  16.228  -1.461  1.00 20.00     0.040 C 
ENDBRANCH   3   4
ENDBRANCH   1   3
BRANCH   1   7
HETATM    7  O11 UNL     1     -33.848  15.584  -5.275  1.00 20.00    -0.288 OA
BRANCH   7   8
HETATM    8  C8  UNL     1     -35.023  14.772  -5.286  1.00 20.00     0.062 C 
HETATM    9  C4  UNL     1     -36.217  15.640  -4.889  1.00 20.00     0.046 C 
HETATM   10  C5  UNL     1     -35.198  14.234  -6.704  1.00 20.00     0.046 C 
HETATM   11  C6  UNL     1     -34.830  13.624  -4.296  1.00 20.00     0.046 C 
ENDBRANCH   7   8
ENDBRANCH   1   7
TORSDOF 4
ENDMDL
MODEL 9
REMARK VINA RESULT:      -3.6      1.678      2.273
REMARK  4 active torsions:
REMARK  status: ('A' for Active; 'I' for Inactive)
REMARK    1  A    between atoms: C1_1  and  O10_10 
REMARK    2  A    between atoms: C1_1  and  O11_11 
REMARK    3  A    between atoms: C7_7  and  O10_10 
REMARK    4  A    between atoms: C8_8  and  O11_11 
ROOT
HETATM    1  C1  UNL     1     -35.303  16.197  -2.362  1.00 20.00     0.407 C 
HETATM    2  O9  UNL     1     -35.937  17.103  -2.886  1.00 20.00    -0.229 OA
ENDROOT
BRANCH   1   3
HETATM    3  O10 UNL     1     -34.671  16.256  -1.156  1.00 20.00    -0.293 OA
BRANCH   3   4
HETATM    4  C7  UNL     1     -34.635  17.547  -0.539  1.00 20.00     0.126 C 
HETATM    5  C2  UNL     1     -35.164  17.438   0.882  1.00 20.00     0.040 C 
HETATM    6  C3  UNL     1     -33.210  18.079  -0.574  1.00 20.00     0.040 C 
ENDBRANCH   3   4
ENDBRANCH   1   3
BRANCH   1   7
HETATM    7  O11 UNL     1     -35.109  14.952  -2.883  1.00 20.00    -0.288 OA
BRANCH   7   8
HETATM    8  C8  UNL     1     -34.212  14.877  -3.991  1.00 20.00     0.062 C 
HETATM    9  C4  UNL     1     -33.316  16.116  -3.975  1.00 20.00     0.046 C 
HETATM   10  C5  UNL     1     -33.378  13.609  -3.823  1.00 20.00     0.046 C 
HETATM   11  C6  UNL     1     -35.032  14.815  -5.278  1.00 20.00     0.046 C 
ENDBRANCH   7   8
ENDBRANCH   1   7
TORSDOF 4
ENDMDL
