MODEL 1
REMARK VINA RESULT:      -4.6      0.000      0.000
REMARK  1 active torsions:
REMARK  status: ('A' for Active; 'I' for Inactive)
REMARK    1  A    between atoms: C1_1  and  C3_3 
ROOT
HETATM    1  C2  UNL     1     -33.266  16.163  -5.006  1.00 20.00     0.019 C 
HETATM    2  C3  UNL     1     -35.248  15.535  -4.342  1.00 20.00     0.070 C 
HETATM    3  C4  UNL     1     -34.624  15.935  -5.723  1.00 20.00    -0.036 C 
HETATM    4  C5  UNL     1     -33.805  15.446  -3.739  1.00 20.00    -0.036 C 
HETATM    5  C7  UNL     1     -35.220  17.224  -6.293  1.00 20.00     0.015 C 
HETATM    6  C8  UNL     1     -34.565  14.851  -6.800  1.00 20.00     0.015 C 
HETATM    7  C9  UNL     1     -33.640  16.279  -2.466  1.00 20.00     0.015 C 
HETATM    8  C10 UNL     1     -33.220  14.047  -3.541  1.00 20.00     0.015 C 
ENDROOT
BRANCH   2   9
HETATM    9  C1  UNL     1     -36.168  14.312  -4.264  1.00 20.00     0.128 C 
HETATM   10  C6  UNL     1     -37.634  14.580  -4.059  1.00 20.00     0.091 C 
HETATM   11  O11 UNL     1     -35.729  13.167  -4.368  1.00 20.00    -0.298 OA
ENDBRANCH   2   9
TORSDOF 1
ENDMDL
MODEL 2
REMARK VINA RESULT:      -4.4      1.862      3.310
REMARK  1 active torsions:
REMARK  status: ('A' for Active; 'I' for Inactive)
REMARK    1  A    between atoms: C1_1  and  C3_3 
ROOT
HETATM    1  C2  UNL     1     -36.163  17.167  -2.639  1.00 20.00     0.019 C 
HETATM    2  C3  UNL     1     -34.710  15.558  -2.891  1.00 20.00     0.070 C 
HETATM    3  C4  UNL     1     -35.995  16.013  -3.664  1.00 20.00    -0.036 C 
HETATM    4  C5  UNL     1     -34.727  16.913  -2.105  1.00 20.00    -0.036 C 
HETATM    5  C7  UNL     1     -37.126  14.985  -3.594  1.00 20.00     0.015 C 
HETATM    6  C8  UNL     1     -35.805  16.503  -5.101  1.00 20.00     0.015 C 
HETATM    7  C9  UNL     1     -34.680  16.722  -0.588  1.00 20.00     0.015 C 
HETATM    8  C10 UNL     1     -33.723  17.982  -2.540  1.00 20.00     0.015 C 
ENDROOT
BRANCH   2   9
HETATM    9  C1  UNL     1     -33.458  15.170  -3.685  1.00 20.00     0.128 C 
HETATM   10  C6  UNL     1     -33.085  13.713  -3.691  1.00 20.00     0.091 C 
HETATM   11  O11 UNL     1     -32.793  16.009  -4.291  1.00 20.00    -0.298 OA
ENDBRANCH   2   9
TORSDOF 1
ENDMDL
MODEL 3
REMARK VINA RESULT:      -4.4      1.395      2.644
REMARK  1 active torsions:
REMARK  status: ('A' for Active; 'I' for Inactive)
REMARK    1  A    between atoms: C1_1  and  C3_3 
ROOT
HETATM    1  C2  UNL     1     -36.100  16.622  -3.757  1.00 20.00     0.019 C 
HETATM    2  C3  UNL     1     -35.368  14.594  -3.419  1.00 20.00     0.070 C 
HETATM    3  C4  UNL     1     -36.474  15.228  -4.329  1.00 20.00    -0.036 C 
HETATM    4  C5  UNL     1     -34.806  16.029  -3.136  1.00 20.00    -0.036 C 
HETATM    5  C7  UNL     1     -37.887  14.786  -3.943  1.00 20.00     0.015 C 
HETATM    6  C8  UNL     1     -36.275  15.123  -5.842  1.00 20.00     0.015 C 
HETATM    7  C9  UNL     1     -34.669  16.330  -1.642  1.00 20.00     0.015 C 
HETATM    8  C10 UNL     1     -33.535  16.437  -3.882  1.00 20.00     0.015 C 
ENDROOT
BRANCH   2   9
HETATM    9  C1  UNL     1     -34.436  13.529  -4.008  1.00 20.00     0.128 C 
HETATM   10  C6  UNL     1     -32.991  13.591  -3.595  1.00 20.00     0.091 C 
HETATM   11  O11 UNL     1     -34.851  12.663  -4.778  1.00 20.00    -0.298 OA
ENDBRANCH   2   9
TORSDOF 1
ENDMDL
MODEL 4
REMARK VINA RESULT:      -4.3      1.682      3.123
REMARK  1 active torsions:
REMARK  status: ('A' for Active; 'I' for Inactive)
REMARK    1  A    between atoms: C1_1  and  C3_3 
ROOT
HETATM    1  C2  UNL     1     -33.335  15.946  -2.976  1.00 20.00     0.019 C 
HETATM    2  C3  UNL     1     -35.465  15.487  -3.090  1.00 20.00     0.070 C 
HETATM    3  C4  UNL     1     -34.616  16.608  -2.400  1.00 20.00    -0.036 C 
HETATM    4  C5  UNL     1     -34.203  15.066  -3.916  1.00 20.00    -0.036 C 
HETATM    5  C7  UNL     1     -34.681  16.547  -0.872  1.00 20.00     0.015 C 
HETATM    6  C8  UNL     1     -34.828  18.041  -2.888  1.00 20.00     0.015 C 
HETATM    7  C9  UNL     1     -33.884  13.574  -3.797  1.00 20.00     0.015 C 
HETATM    8  C10 UNL     1     -34.149  15.508  -5.379  1.00 20.00     0.015 C 
ENDROOT
BRANCH   2   9
HETATM    9  C1  UNL     1     -36.750  15.872  -3.832  1.00 20.00     0.128 C 
HETATM   10  C6  UNL     1     -37.918  14.935  -3.695  1.00 20.00     0.091 C 
HETATM   11  O11 UNL     1     -36.822  16.900  -4.504  1.00 20.00    -0.298 OA
ENDBRANCH   2   9
TORSDOF 1
ENDMDL
MODEL 5
REMARK VINA RESULT:      -4.3      1.366      1.917
REMARK  1 active torsions:
REMARK  status: ('A' for Active; 'I' for Inactive)
REMARK    1  A    between atoms: C1_1  and  C3_3 
ROOT
HETATM    1  C2  UNL     1     -33.523  15.505  -4.294  1.00 20.00     0.019 C 
HETATM    2  C3  UNL     1     -35.678  15.797  -4.474  1.00 20.00     0.070 C 
HETATM    3  C4  UNL     1     -34.662  14.734  -5.014  1.00 20.00    -0.036 C 
HETATM    4  C5  UNL     1     -34.572  16.332  -3.502  1.00 20.00    -0.036 C 
HETATM    5  C7  UNL     1     -34.528  14.761  -6.538  1.00 20.00     0.015 C 
HETATM    6  C8  UNL     1     -34.828  13.297  -4.516  1.00 20.00     0.015 C 
HETATM    7  C9  UNL     1     -34.355  17.842  -3.621  1.00 20.00     0.015 C 
HETATM    8  C10 UNL     1     -34.680  15.922  -2.032  1.00 20.00     0.015 C 
ENDROOT
BRANCH   2   9
HETATM    9  C1  UNL     1     -37.017  15.325  -3.895  1.00 20.00     0.128 C 
HETATM   10  C6  UNL     1     -38.014  16.393  -3.536  1.00 20.00     0.091 C 
HETATM   11  O11 UNL     1     -37.266  14.130  -3.737  1.00 20.00    -0.298 OA
ENDBRANCH   2   9
TORSDOF 1
ENDMDL
MODEL 6
REMARK VINA RESULT:      -4.3      1.286      3.185
REMARK  1 active torsions:
REMARK  status: ('A' for Active; 'I' for Inactive)
REMARK    1  A    between atoms: C1_1  and  C3_3 
ROOT
HETATM    1  C2  UNL     1     -36.394  16.274  -5.578  1.00 20.00     0.019 C 
HETATM    2  C3  UNL     1     -34.824  15.177  -4.532  1.00 20.00     0.070 C 
HETATM    3  C4  UNL     1     -36.278  15.633  -4.169  1.00 20.00    -0.036 C 
HETATM    4  C5  UNL     1     -35.109  15.530  -6.032  1.00 20.00    -0.036 C 
HETATM    5  C7  UNL     1     -36.314  16.665  -3.041  1.00 20.00     0.015 C 
HETATM    6  C8  UNL     1     -37.310  14.531  -3.920  1.00 20.00     0.015 C 
HETATM    7  C9  UNL     1     -34.058  16.466  -6.633  1.00 20.00     0.015 C 
HETATM    8  C10 UNL     1     -35.388  14.362  -6.979  1.00 20.00     0.015 C 
ENDROOT
BRANCH   2   9
HETATM    9  C1  UNL     1     -34.372  13.758  -4.170  1.00 20.00     0.128 C 
HETATM   10  C6  UNL     1     -33.008  13.618  -3.552  1.00 20.00     0.091 C 
HETATM   11  O11 UNL     1     -35.092  12.781  -4.373  1.00 20.00    -0.298 OA
ENDBRANCH   2   9
TORSDOF 1
ENDMDL
MODEL 7
REMARK VINA RESULT:      -4.3      1.954      3.699
REMARK  1 active torsions:
REMARK  status: ('A' for Active; 'I' for Inactive)
REMARK    1  A    between atoms: C1_1  and  C3_3 
ROOT
HETATM    1  C2  UNL     1     -35.287  14.838  -5.026  1.00 20.00     0.019 C 
HETATM    2  C3  UNL     1     -35.020  15.550  -2.980  1.00 20.00     0.070 C 
HETATM    3  C4  UNL     1     -34.056  15.025  -4.098  1.00 20.00    -0.036 C 
HETATM    4  C5  UNL     1     -36.161  15.668  -4.047  1.00 20.00    -0.036 C 
HETATM    5  C7  UNL     1     -33.382  13.702  -3.729  1.00 20.00     0.015 C 
HETATM    6  C8  UNL     1     -33.028  16.014  -4.651  1.00 20.00     0.015 C 
HETATM    7  C9  UNL     1     -37.442  14.942  -3.630  1.00 20.00     0.015 C 
HETATM    8  C10 UNL     1     -36.486  17.069  -4.566  1.00 20.00     0.015 C 
ENDROOT
BRANCH   2   9
HETATM    9  C1  UNL     1     -34.622  16.790  -2.171  1.00 20.00     0.128 C 
HETATM   10  C6  UNL     1     -34.673  16.665  -0.673  1.00 20.00     0.091 C 
HETATM   11  O11 UNL     1     -34.274  17.834  -2.721  1.00 20.00    -0.298 OA
ENDBRANCH   2   9
TORSDOF 1
ENDMDL
MODEL 8
REMARK VINA RESULT:      -4.2      1.649      2.726
REMARK  1 active torsions:
REMARK  status: ('A' for Active; 'I' for Inactive)
REMARK    1  A    between atoms: C1_1  and  C3_3 
ROOT
HETATM    1  C2  UNL     1     -34.302  15.237  -5.601  1.00 20.00     0.019 C 
HETATM    2  C3  UNL     1     -34.330  16.037  -3.571  1.00 20.00     0.070 C 
HETATM    3  C4  UNL     1     -34.523  16.651  -5.000  1.00 20.00    -0.036 C 
HETATM    4  C5  UNL     1     -34.454  14.604  -4.191  1.00 20.00    -0.036 C 
HETATM    5  C7  UNL     1     -33.417  17.638  -5.377  1.00 20.00     0.015 C 
HETATM    6  C8  UNL     1     -35.898  17.237  -5.325  1.00 20.00     0.015 C 
HETATM    7  C9  UNL     1     -33.285  13.691  -3.817  1.00 20.00     0.015 C 
HETATM    8  C10 UNL     1     -35.785  13.875  -3.996  1.00 20.00     0.015 C 
ENDROOT
BRANCH   2   9
HETATM    9  C1  UNL     1     -35.284  16.450  -2.445  1.00 20.00     0.128 C 
HETATM   10  C6  UNL     1     -34.702  16.530  -1.060  1.00 20.00     0.091 C 
HETATM   11  O11 UNL     1     -36.467  16.707  -2.664  1.00 20.00    -0.298 OA
ENDBRANCH   2   9
TORSDOF 1
ENDMDL
MODEL 9
REMARK VINA RESULT:      -4.1      1.379      3.343
REMARK  1 active torsions:
REMARK  status: ('A' for Active; 'I' for Inactive)
REMARK    1  A    between atoms: C1_1  and  C3_3 
ROOT
HETATM    1  C2  UNL     1     -36.230  16.829  -4.011  1.00 20.00     0.019 C 
HETATM    2  C3  UNL     1     -34.995  15.129  -4.601  1.00 20.00     0.070 C 
HETATM    3  C4  UNL     1     -34.828  16.313  -3.588  1.00 20.00    -0.036 C 
HETATM    4  C5  UNL     1     -36.514  15.487  -4.739  1.00 20.00    -0.036 C 
HETATM    5  C7  UNL     1     -33.699  17.271  -3.974  1.00 20.00     0.015 C 
HETATM    6  C8  UNL     1     -34.740  15.951  -2.104  1.00 20.00     0.015 C 
HETATM    7  C9  UNL     1     -36.951  15.678  -6.192  1.00 20.00     0.015 C 
HETATM    8  C10 UNL     1     -37.509  14.595  -3.995  1.00 20.00     0.015 C 
ENDROOT
BRANCH   2   9
HETATM    9  C1  UNL     1     -34.597  13.714  -4.169  1.00 20.00     0.128 C 
HETATM   10  C6  UNL     1     -33.178  13.521  -3.708  1.00 20.00     0.091 C 
HETATM   11  O11 UNL     1     -35.399  12.782  -4.195  1.00 20.00    -0.298 OA
ENDBRANCH   2   9
TORSDOF 1
ENDMDL
