MODEL 1
REMARK VINA RESULT:      -5.1      0.000      0.000
REMARK  5 active torsions:
REMARK  status: ('A' for Active; 'I' for Inactive)
REMARK    1  A    between atoms: C2_2  and  C4_4 
REMARK    2  A    between atoms: C4_4  and  C6_6 
REMARK    3  A    between atoms: C5_5  and  C6_6 
REMARK    4  A    between atoms: C5_5  and  C7_7 
REMARK    5  A    between atoms: C6_6  and  O8_8 
ROOT
HETATM    1  C6  UNL     1     -32.994   6.456   3.584  1.00 20.00     0.130 C 
ENDROOT
BRANCH   1   2
HETATM    2  C4  UNL     1     -34.270   5.670   3.920  1.00 20.00     0.065 C 
BRANCH   2   3
HETATM    3  C2  UNL     1     -34.430   5.396   5.400  1.00 20.00    -0.091 C 
HETATM    4  C1  UNL     1     -34.962   4.247   5.848  1.00 20.00     0.014 C 
HETATM    5  C3  UNL     1     -34.005   6.481   6.347  1.00 20.00     0.042 C 
ENDBRANCH   2   3
ENDBRANCH   1   2
BRANCH   1   6
HETATM    6  C5  UNL     1     -33.277   7.502   2.497  1.00 20.00     0.149 C 
BRANCH   6   7
HETATM    7  C7  UNL     1     -32.093   8.407   2.219  1.00 20.00     0.390 C 
HETATM    8  F9  UNL     1     -32.470   9.697   2.083  1.00 20.00    -0.171 F 
HETATM    9  F10 UNL     1     -31.205   8.348   3.237  1.00 20.00    -0.171 F 
HETATM   10  F11 UNL     1     -31.448   8.039   1.093  1.00 20.00    -0.171 F 
ENDBRANCH   6   7
ENDBRANCH   1   6
BRANCH   1  11
HETATM   11  O8  UNL     1     -32.013   5.532   3.112  1.00 20.00    -0.395 OA
HETATM   12  H22 UNL     1     -31.968   4.820   3.769  1.00 20.00     0.210 HD
ENDBRANCH   1  11
TORSDOF 5
ENDMDL
MODEL 2
REMARK VINA RESULT:      -5.0      1.343      1.652
REMARK  5 active torsions:
REMARK  status: ('A' for Active; 'I' for Inactive)
REMARK    1  A    between atoms: C2_2  and  C4_4 
REMARK    2  A    between atoms: C4_4  and  C6_6 
REMARK    3  A    between atoms: C5_5  and  C6_6 
REMARK    4  A    between atoms: C5_5  and  C7_7 
REMARK    5  A    between atoms: C6_6  and  O8_8 
ROOT
HETATM    1  C6  UNL     1     -34.003   5.544   3.376  1.00 20.00     0.130 C 
ENDROOT
BRANCH   1   2
HETATM    2  C4  UNL     1     -35.197   5.491   4.340  1.00 20.00     0.065 C 
BRANCH   2   3
HETATM    3  C2  UNL     1     -34.793   5.243   5.778  1.00 20.00    -0.091 C 
HETATM    4  C1  UNL     1     -35.056   4.077   6.390  1.00 20.00     0.014 C 
HETATM    5  C3  UNL     1     -34.121   6.372   6.504  1.00 20.00     0.042 C 
ENDBRANCH   2   3
ENDBRANCH   1   2
BRANCH   1   6
HETATM    6  C5  UNL     1     -33.501   6.987   3.221  1.00 20.00     0.149 C 
BRANCH   6   7
HETATM    7  C7  UNL     1     -31.991   7.085   3.131  1.00 20.00     0.390 C 
HETATM    8  F9  UNL     1     -31.477   7.830   4.133  1.00 20.00    -0.171 F 
HETATM    9  F10 UNL     1     -31.433   5.857   3.209  1.00 20.00    -0.171 F 
HETATM   10  F11 UNL     1     -31.604   7.635   1.960  1.00 20.00    -0.171 F 
ENDBRANCH   6   7
ENDBRANCH   1   6
BRANCH   1  11
HETATM   11  O8  UNL     1     -34.432   5.050   2.108  1.00 20.00    -0.395 OA
HETATM   12  H22 UNL     1     -33.854   4.301   1.895  1.00 20.00     0.210 HD
ENDBRANCH   1  11
TORSDOF 5
ENDMDL
MODEL 3
REMARK VINA RESULT:      -4.9      1.749      2.230
REMARK  5 active torsions:
REMARK  status: ('A' for Active; 'I' for Inactive)
REMARK    1  A    between atoms: C2_2  and  C4_4 
REMARK    2  A    between atoms: C4_4  and  C6_6 
REMARK    3  A    between atoms: C5_5  and  C6_6 
REMARK    4  A    between atoms: C5_5  and  C7_7 
REMARK    5  A    between atoms: C6_6  and  O8_8 
ROOT
HETATM    1  C6  UNL     1     -32.243   7.719   3.048  1.00 20.00     0.130 C 
ENDROOT
BRANCH   1   2
HETATM    2  C4  UNL     1     -32.678   6.247   3.089  1.00 20.00     0.065 C 
BRANCH   2   3
HETATM    3  C2  UNL     1     -33.888   6.005   3.966  1.00 20.00    -0.091 C 
HETATM    4  C1  UNL     1     -35.023   5.488   3.470  1.00 20.00     0.014 C 
HETATM    5  C3  UNL     1     -33.778   6.408   5.409  1.00 20.00     0.042 C 
ENDBRANCH   2   3
ENDBRANCH   1   2
BRANCH   1   6
HETATM    6  C5  UNL     1     -31.846   8.123   1.622  1.00 20.00     0.149 C 
BRANCH   6   7
HETATM    7  C7  UNL     1     -32.529   9.391   1.150  1.00 20.00     0.390 C 
HETATM    8  F9  UNL     1     -31.668  10.429   1.084  1.00 20.00    -0.171 F 
HETATM    9  F10 UNL     1     -33.049   9.215  -0.085  1.00 20.00    -0.171 F 
HETATM   10  F11 UNL     1     -33.541   9.739   1.973  1.00 20.00    -0.171 F 
ENDBRANCH   6   7
ENDBRANCH   1   6
BRANCH   1  11
HETATM   11  O8  UNL     1     -31.122   7.875   3.918  1.00 20.00    -0.395 OA
HETATM   12  H22 UNL     1     -31.181   8.771   4.283  1.00 20.00     0.210 HD
ENDBRANCH   1  11
TORSDOF 5
ENDMDL
MODEL 4
REMARK VINA RESULT:      -4.9      3.663      5.005
REMARK  5 active torsions:
REMARK  status: ('A' for Active; 'I' for Inactive)
REMARK    1  A    between atoms: C2_2  and  C4_4 
REMARK    2  A    between atoms: C4_4  and  C6_6 
REMARK    3  A    between atoms: C5_5  and  C6_6 
REMARK    4  A    between atoms: C5_5  and  C7_7 
REMARK    5  A    between atoms: C6_6  and  O8_8 
ROOT
HETATM    1  C6  UNL     1     -33.411   6.397   5.703  1.00 20.00     0.130 C 
ENDROOT
BRANCH   1   2
HETATM    2  C4  UNL     1     -33.733   7.046   4.349  1.00 20.00     0.065 C 
BRANCH   2   3
HETATM    3  C2  UNL     1     -32.696   6.754   3.285  1.00 20.00    -0.091 C 
HETATM    4  C1  UNL     1     -32.262   5.505   3.052  1.00 20.00     0.014 C 
HETATM    5  C3  UNL     1     -32.141   7.927   2.529  1.00 20.00     0.042 C 
ENDBRANCH   2   3
ENDBRANCH   1   2
BRANCH   1   6
HETATM    6  C5  UNL     1     -34.670   5.756   6.304  1.00 20.00     0.149 C 
BRANCH   6   7
HETATM    7  C7  UNL     1     -34.888   4.328   5.845  1.00 20.00     0.390 C 
HETATM    8  F9  UNL     1     -33.746   3.609   5.887  1.00 20.00    -0.171 F 
HETATM    9  F10 UNL     1     -35.788   3.709   6.642  1.00 20.00    -0.171 F 
HETATM   10  F11 UNL     1     -35.364   4.284   4.583  1.00 20.00    -0.171 F 
ENDBRANCH   6   7
ENDBRANCH   1   6
BRANCH   1  11
HETATM   11  O8  UNL     1     -32.927   7.413   6.580  1.00 20.00    -0.395 OA
HETATM   12  H22 UNL     1     -33.705   7.903   6.888  1.00 20.00     0.210 HD
ENDBRANCH   1  11
TORSDOF 5
ENDMDL
MODEL 5
REMARK VINA RESULT:      -4.9      3.356      4.857
REMARK  5 active torsions:
REMARK  status: ('A' for Active; 'I' for Inactive)
REMARK    1  A    between atoms: C2_2  and  C4_4 
REMARK    2  A    between atoms: C4_4  and  C6_6 
REMARK    3  A    between atoms: C5_5  and  C6_6 
REMARK    4  A    between atoms: C5_5  and  C7_7 
REMARK    5  A    between atoms: C6_6  and  O8_8 
ROOT
HETATM    1  C6  UNL     1     -34.282   5.991   3.865  1.00 20.00     0.130 C 
ENDROOT
BRANCH   1   2
HETATM    2  C4  UNL     1     -33.124   6.014   2.857  1.00 20.00     0.065 C 
BRANCH   2   3
HETATM    3  C2  UNL     1     -32.241   7.236   2.989  1.00 20.00    -0.091 C 
HETATM    4  C1  UNL     1     -31.559   7.491   4.117  1.00 20.00     0.014 C 
HETATM    5  C3  UNL     1     -32.192   8.175   1.818  1.00 20.00     0.042 C 
ENDBRANCH   2   3
ENDBRANCH   1   2
BRANCH   1   6
HETATM    6  C5  UNL     1     -34.142   4.796   4.818  1.00 20.00     0.149 C 
BRANCH   6   7
HETATM    7  C7  UNL     1     -34.475   5.139   6.257  1.00 20.00     0.390 C 
HETATM    8  F9  UNL     1     -35.732   4.769   6.581  1.00 20.00    -0.171 F 
HETATM    9  F10 UNL     1     -33.633   4.502   7.101  1.00 20.00    -0.171 F 
HETATM   10  F11 UNL     1     -34.356   6.464   6.486  1.00 20.00    -0.171 F 
ENDBRANCH   6   7
ENDBRANCH   1   6
BRANCH   1  11
HETATM   11  O8  UNL     1     -35.505   5.880   3.137  1.00 20.00    -0.395 OA
HETATM   12  H22 UNL     1     -35.978   5.120   3.509  1.00 20.00     0.210 HD
ENDBRANCH   1  11
TORSDOF 5
ENDMDL
MODEL 6
REMARK VINA RESULT:      -4.8      3.469      4.908
REMARK  5 active torsions:
REMARK  status: ('A' for Active; 'I' for Inactive)
REMARK    1  A    between atoms: C2_2  and  C4_4 
REMARK    2  A    between atoms: C4_4  and  C6_6 
REMARK    3  A    between atoms: C5_5  and  C6_6 
REMARK    4  A    between atoms: C5_5  and  C7_7 
REMARK    5  A    between atoms: C6_6  and  O8_8 
ROOT
HETATM    1  C6  UNL     1     -33.740   5.972   3.408  1.00 20.00     0.130 C 
ENDROOT
BRANCH   1   2
HETATM    2  C4  UNL     1     -32.271   6.125   2.989  1.00 20.00     0.065 C 
BRANCH   2   3
HETATM    3  C2  UNL     1     -31.783   7.557   3.034  1.00 20.00    -0.091 C 
HETATM    4  C1  UNL     1     -31.166   8.055   4.118  1.00 20.00     0.014 C 
HETATM    5  C3  UNL     1     -32.056   8.411   1.830  1.00 20.00     0.042 C 
ENDBRANCH   2   3
ENDBRANCH   1   2
BRANCH   1   6
HETATM    6  C5  UNL     1     -33.837   5.514   4.871  1.00 20.00     0.149 C 
BRANCH   6   7
HETATM    7  C7  UNL     1     -35.128   4.782   5.181  1.00 20.00     0.390 C 
HETATM    8  F9  UNL     1     -34.994   3.447   5.038  1.00 20.00    -0.171 F 
HETATM    9  F10 UNL     1     -35.509   5.019   6.456  1.00 20.00    -0.171 F 
HETATM   10  F11 UNL     1     -36.130   5.191   4.374  1.00 20.00    -0.171 F 
ENDBRANCH   6   7
ENDBRANCH   1   6
BRANCH   1  11
HETATM   11  O8  UNL     1     -34.345   4.995   2.561  1.00 20.00    -0.395 OA
HETATM   12  H22 UNL     1     -34.063   5.203   1.658  1.00 20.00     0.210 HD
ENDBRANCH   1  11
TORSDOF 5
ENDMDL
MODEL 7
REMARK VINA RESULT:      -4.8      2.916      4.705
REMARK  5 active torsions:
REMARK  status: ('A' for Active; 'I' for Inactive)
REMARK    1  A    between atoms: C2_2  and  C4_4 
REMARK    2  A    between atoms: C4_4  and  C6_6 
REMARK    3  A    between atoms: C5_5  and  C6_6 
REMARK    4  A    between atoms: C5_5  and  C7_7 
REMARK    5  A    between atoms: C6_6  and  O8_8 
ROOT
HETATM    1  C6  UNL     1     -32.695   6.561   2.912  1.00 20.00     0.130 C 
ENDROOT
BRANCH   1   2
HETATM    2  C4  UNL     1     -31.965   7.908   3.022  1.00 20.00     0.065 C 
BRANCH   2   3
HETATM    3  C2  UNL     1     -32.128   8.778   1.793  1.00 20.00    -0.091 C 
HETATM    4  C1  UNL     1     -31.658   8.396   0.595  1.00 20.00     0.014 C 
HETATM    5  C3  UNL     1     -32.803  10.106   1.980  1.00 20.00     0.042 C 
ENDBRANCH   2   3
ENDBRANCH   1   2
BRANCH   1   6
HETATM    6  C5  UNL     1     -33.898   6.522   3.864  1.00 20.00     0.149 C 
BRANCH   6   7
HETATM    7  C7  UNL     1     -34.858   5.388   3.565  1.00 20.00     0.390 C 
HETATM    8  F9  UNL     1     -36.136   5.818   3.502  1.00 20.00    -0.171 F 
HETATM    9  F10 UNL     1     -34.561   4.822   2.374  1.00 20.00    -0.171 F 
HETATM   10  F11 UNL     1     -34.787   4.423   4.505  1.00 20.00    -0.171 F 
ENDBRANCH   6   7
ENDBRANCH   1   6
BRANCH   1  11
HETATM   11  O8  UNL     1     -31.775   5.527   3.261  1.00 20.00    -0.395 OA
HETATM   12  H22 UNL     1     -32.267   4.897   3.810  1.00 20.00     0.210 HD
ENDBRANCH   1  11
TORSDOF 5
ENDMDL
MODEL 8
REMARK VINA RESULT:      -4.6     11.261     11.945
REMARK  5 active torsions:
REMARK  status: ('A' for Active; 'I' for Inactive)
REMARK    1  A    between atoms: C2_2  and  C4_4 
REMARK    2  A    between atoms: C4_4  and  C6_6 
REMARK    3  A    between atoms: C5_5  and  C6_6 
REMARK    4  A    between atoms: C5_5  and  C7_7 
REMARK    5  A    between atoms: C6_6  and  O8_8 
ROOT
HETATM    1  C6  UNL     1     -33.818  14.119  -4.303  1.00 20.00     0.130 C 
ENDROOT
BRANCH   1   2
HETATM    2  C4  UNL     1     -34.618  14.612  -3.089  1.00 20.00     0.065 C 
BRANCH   2   3
HETATM    3  C2  UNL     1     -34.282  16.033  -2.689  1.00 20.00    -0.091 C 
HETATM    4  C1  UNL     1     -33.697  16.884  -3.546  1.00 20.00     0.014 C 
HETATM    5  C3  UNL     1     -34.594  16.438  -1.277  1.00 20.00     0.042 C 
ENDBRANCH   2   3
ENDBRANCH   1   2
BRANCH   1   6
HETATM    6  C5  UNL     1     -34.762  13.571  -5.383  1.00 20.00     0.149 C 
BRANCH   6   7
HETATM    7  C7  UNL     1     -35.021  14.559  -6.504  1.00 20.00     0.390 C 
HETATM    8  F9  UNL     1     -35.484  13.945  -7.614  1.00 20.00    -0.171 F 
HETATM    9  F10 UNL     1     -35.945  15.469  -6.126  1.00 20.00    -0.171 F 
HETATM   10  F11 UNL     1     -33.898  15.231  -6.835  1.00 20.00    -0.171 F 
ENDBRANCH   6   7
ENDBRANCH   1   6
BRANCH   1  11
HETATM   11  O8  UNL     1     -32.939  13.083  -3.867  1.00 20.00    -0.395 OA
HETATM   12  H22 UNL     1     -32.775  13.241  -2.925  1.00 20.00     0.210 HD
ENDBRANCH   1  11
TORSDOF 5
ENDMDL
MODEL 9
REMARK VINA RESULT:      -4.6     11.106     12.007
REMARK  5 active torsions:
REMARK  status: ('A' for Active; 'I' for Inactive)
REMARK    1  A    between atoms: C2_2  and  C4_4 
REMARK    2  A    between atoms: C4_4  and  C6_6 
REMARK    3  A    between atoms: C5_5  and  C6_6 
REMARK    4  A    between atoms: C5_5  and  C7_7 
REMARK    5  A    between atoms: C6_6  and  O8_8 
ROOT
HETATM    1  C6  UNL     1     -33.226  15.236  -3.810  1.00 20.00     0.130 C 
ENDROOT
BRANCH   1   2
HETATM    2  C4  UNL     1     -33.823  15.735  -5.134  1.00 20.00     0.065 C 
BRANCH   2   3
HETATM    3  C2  UNL     1     -34.490  14.639  -5.939  1.00 20.00    -0.091 C 
HETATM    4  C1  UNL     1     -34.788  14.804  -7.237  1.00 20.00     0.014 C 
HETATM    5  C3  UNL     1     -34.842  13.374  -5.212  1.00 20.00     0.042 C 
ENDBRANCH   2   3
ENDBRANCH   1   2
BRANCH   1   6
HETATM    6  C5  UNL     1     -33.461  16.264  -2.694  1.00 20.00     0.149 C 
BRANCH   6   7
HETATM    7  C7  UNL     1     -34.840  16.162  -2.072  1.00 20.00     0.390 C 
HETATM    8  F9  UNL     1     -35.477  15.033  -2.451  1.00 20.00    -0.171 F 
HETATM    9  F10 UNL     1     -34.748  16.144  -0.723  1.00 20.00    -0.171 F 
HETATM   10  F11 UNL     1     -35.613  17.214  -2.415  1.00 20.00    -0.171 F 
ENDBRANCH   6   7
ENDBRANCH   1   6
BRANCH   1  11
HETATM   11  O8  UNL     1     -31.824  15.047  -3.997  1.00 20.00    -0.395 OA
HETATM   12  H22 UNL     1     -31.432  15.004  -3.112  1.00 20.00     0.210 HD
ENDBRANCH   1  11
TORSDOF 5
ENDMDL
