MODEL 1
REMARK VINA RESULT:      -4.6      0.000      0.000
REMARK  4 active torsions:
REMARK  status: ('A' for Active; 'I' for Inactive)
REMARK    1  A    between atoms: C6_6  and  C7_7 
REMARK    2  A    between atoms: C7_7  and  C9_9 
REMARK    3  A    between atoms: C8_8  and  C9_9 
REMARK    4  A    between atoms: C8_8  and  C10_10 
ROOT
HETATM    1  C1  UNL     1     -34.810  13.745  -5.183  1.00 20.00     0.068 C 
HETATM    2  C4  UNL     1     -34.564  14.822  -7.390  1.00 20.00     0.031 C 
HETATM    3  C5  UNL     1     -36.207  15.672  -5.712  1.00 20.00     0.031 C 
HETATM    4  C10 UNL     1     -34.806  15.046  -5.890  1.00 20.00     0.042 C 
HETATM    5  N11 UNL     1     -34.824  12.725  -4.629  1.00 20.00    -0.196 NA
ENDROOT
BRANCH   4   6
HETATM    6  C8  UNL     1     -33.760  16.017  -5.269  1.00 20.00     0.028 C 
BRANCH   6   7
HETATM    7  C9  UNL     1     -34.185  16.902  -4.068  1.00 20.00    -0.017 C 
HETATM    8  C3  UNL     1     -33.688  18.347  -4.182  1.00 20.00     0.010 C 
BRANCH   7   9
HETATM    9  C7  UNL     1     -33.669  16.318  -2.730  1.00 20.00     0.004 C 
BRANCH   9  10
HETATM   10  C6  UNL     1     -34.757  16.133  -1.669  1.00 20.00    -0.004 C 
HETATM   11  C2  UNL     1     -34.527  17.045  -0.473  1.00 20.00     0.005 C 
ENDBRANCH   9  10
ENDBRANCH   7   9
ENDBRANCH   6   7
ENDBRANCH   4   6
TORSDOF 4
ENDMDL
MODEL 2
REMARK VINA RESULT:      -4.4      1.539      2.147
REMARK  4 active torsions:
REMARK  status: ('A' for Active; 'I' for Inactive)
REMARK    1  A    between atoms: C6_6  and  C7_7 
REMARK    2  A    between atoms: C7_7  and  C9_9 
REMARK    3  A    between atoms: C8_8  and  C9_9 
REMARK    4  A    between atoms: C8_8  and  C10_10 
ROOT
HETATM    1  C1  UNL     1     -36.407  14.428  -3.993  1.00 20.00     0.068 C 
HETATM    2  C4  UNL     1     -34.451  13.100  -4.701  1.00 20.00     0.031 C 
HETATM    3  C5  UNL     1     -34.874  15.378  -5.634  1.00 20.00     0.031 C 
HETATM    4  C10 UNL     1     -34.975  14.504  -4.364  1.00 20.00     0.042 C 
HETATM    5  N11 UNL     1     -37.532  14.372  -3.711  1.00 20.00    -0.196 NA
ENDROOT
BRANCH   4   6
HETATM    6  C8  UNL     1     -34.141  15.184  -3.241  1.00 20.00     0.028 C 
BRANCH   6   7
HETATM    7  C9  UNL     1     -34.678  16.490  -2.599  1.00 20.00    -0.017 C 
HETATM    8  C3  UNL     1     -33.828  17.719  -2.935  1.00 20.00     0.010 C 
BRANCH   7   9
HETATM    9  C7  UNL     1     -34.760  16.366  -1.057  1.00 20.00     0.004 C 
BRANCH   9  10
HETATM   10  C6  UNL     1     -34.163  17.556  -0.302  1.00 20.00    -0.004 C 
HETATM   11  C2  UNL     1     -34.917  17.827   0.991  1.00 20.00     0.005 C 
ENDBRANCH   9  10
ENDBRANCH   7   9
ENDBRANCH   6   7
ENDBRANCH   4   6
TORSDOF 4
ENDMDL
MODEL 3
REMARK VINA RESULT:      -4.4      1.873      2.309
REMARK  4 active torsions:
REMARK  status: ('A' for Active; 'I' for Inactive)
REMARK    1  A    between atoms: C6_6  and  C7_7 
REMARK    2  A    between atoms: C7_7  and  C9_9 
REMARK    3  A    between atoms: C8_8  and  C9_9 
REMARK    4  A    between atoms: C8_8  and  C10_10 
ROOT
HETATM    1  C1  UNL     1     -37.472  14.713  -4.122  1.00 20.00     0.068 C 
HETATM    2  C4  UNL     1     -35.731  14.621  -5.868  1.00 20.00     0.031 C 
HETATM    3  C5  UNL     1     -36.278  16.759  -4.698  1.00 20.00     0.031 C 
HETATM    4  C10 UNL     1     -36.143  15.230  -4.520  1.00 20.00     0.042 C 
HETATM    5  N11 UNL     1     -38.519  14.316  -3.813  1.00 20.00    -0.196 NA
ENDROOT
BRANCH   4   6
HETATM    6  C8  UNL     1     -35.084  14.964  -3.411  1.00 20.00     0.028 C 
BRANCH   6   7
HETATM    7  C9  UNL     1     -33.765  15.781  -3.428  1.00 20.00    -0.017 C 
HETATM    8  C3  UNL     1     -32.515  14.902  -3.546  1.00 20.00     0.010 C 
BRANCH   7   9
HETATM    9  C7  UNL     1     -33.626  16.649  -2.153  1.00 20.00     0.004 C 
BRANCH   9  10
HETATM   10  C6  UNL     1     -34.747  16.442  -1.130  1.00 20.00    -0.004 C 
HETATM   11  C2  UNL     1     -34.604  17.392   0.049  1.00 20.00     0.005 C 
ENDBRANCH   9  10
ENDBRANCH   7   9
ENDBRANCH   6   7
ENDBRANCH   4   6
TORSDOF 4
ENDMDL
MODEL 4
REMARK VINA RESULT:      -4.3      1.342      3.988
REMARK  4 active torsions:
REMARK  status: ('A' for Active; 'I' for Inactive)
REMARK    1  A    between atoms: C6_6  and  C7_7 
REMARK    2  A    between atoms: C7_7  and  C9_9 
REMARK    3  A    between atoms: C8_8  and  C9_9 
REMARK    4  A    between atoms: C8_8  and  C10_10 
ROOT
HETATM    1  C1  UNL     1     -34.774  13.916  -3.983  1.00 20.00     0.068 C 
HETATM    2  C4  UNL     1     -34.808  15.614  -2.194  1.00 20.00     0.031 C 
HETATM    3  C5  UNL     1     -32.798  15.303  -3.643  1.00 20.00     0.031 C 
HETATM    4  C10 UNL     1     -34.342  15.285  -3.620  1.00 20.00     0.042 C 
HETATM    5  N11 UNL     1     -35.103  12.839  -4.267  1.00 20.00    -0.196 NA
ENDROOT
BRANCH   4   6
HETATM    6  C8  UNL     1     -34.854  16.327  -4.656  1.00 20.00     0.028 C 
BRANCH   6   7
HETATM    7  C9  UNL     1     -33.882  16.822  -5.758  1.00 20.00    -0.017 C 
HETATM    8  C3  UNL     1     -33.637  18.334  -5.709  1.00 20.00     0.010 C 
BRANCH   7   9
HETATM    9  C7  UNL     1     -34.405  16.464  -7.171  1.00 20.00     0.004 C 
BRANCH   9  10
HETATM   10  C6  UNL     1     -34.428  14.962  -7.467  1.00 20.00    -0.004 C 
HETATM   11  C2  UNL     1     -35.835  14.481  -7.787  1.00 20.00     0.005 C 
ENDBRANCH   9  10
ENDBRANCH   7   9
ENDBRANCH   6   7
ENDBRANCH   4   6
TORSDOF 4
ENDMDL
MODEL 5
REMARK VINA RESULT:      -4.3      1.342      2.407
REMARK  4 active torsions:
REMARK  status: ('A' for Active; 'I' for Inactive)
REMARK    1  A    between atoms: C6_6  and  C7_7 
REMARK    2  A    between atoms: C7_7  and  C9_9 
REMARK    3  A    between atoms: C8_8  and  C9_9 
REMARK    4  A    between atoms: C8_8  and  C10_10 
ROOT
HETATM    1  C1  UNL     1     -34.784  13.648  -5.301  1.00 20.00     0.068 C 
HETATM    2  C4  UNL     1     -33.989  15.841  -6.107  1.00 20.00     0.031 C 
HETATM    3  C5  UNL     1     -35.544  14.447  -7.476  1.00 20.00     0.031 C 
HETATM    4  C10 UNL     1     -35.178  14.872  -6.037  1.00 20.00     0.042 C 
HETATM    5  N11 UNL     1     -34.474  12.683  -4.734  1.00 20.00    -0.196 NA
ENDROOT
BRANCH   4   6
HETATM    6  C8  UNL     1     -36.432  15.532  -5.393  1.00 20.00     0.028 C 
BRANCH   6   7
HETATM    7  C9  UNL     1     -36.753  15.230  -3.906  1.00 20.00    -0.017 C 
HETATM    8  C3  UNL     1     -38.257  15.154  -3.620  1.00 20.00     0.010 C 
BRANCH   7   9
HETATM    9  C7  UNL     1     -36.137  16.299  -2.970  1.00 20.00     0.004 C 
BRANCH   9  10
HETATM   10  C6  UNL     1     -34.833  15.863  -2.297  1.00 20.00    -0.004 C 
HETATM   11  C2  UNL     1     -34.618  16.590  -0.978  1.00 20.00     0.005 C 
ENDBRANCH   9  10
ENDBRANCH   7   9
ENDBRANCH   6   7
ENDBRANCH   4   6
TORSDOF 4
ENDMDL
MODEL 6
REMARK VINA RESULT:      -4.2      1.335      2.812
REMARK  4 active torsions:
REMARK  status: ('A' for Active; 'I' for Inactive)
REMARK    1  A    between atoms: C6_6  and  C7_7 
REMARK    2  A    between atoms: C7_7  and  C9_9 
REMARK    3  A    between atoms: C8_8  and  C9_9 
REMARK    4  A    between atoms: C8_8  and  C10_10 
ROOT
HETATM    1  C1  UNL     1     -34.557  13.674  -4.393  1.00 20.00     0.068 C 
HETATM    2  C4  UNL     1     -32.693  15.079  -3.592  1.00 20.00     0.031 C 
HETATM    3  C5  UNL     1     -34.356  15.953  -5.237  1.00 20.00     0.031 C 
HETATM    4  C10 UNL     1     -34.174  15.049  -3.998  1.00 20.00     0.042 C 
HETATM    5  N11 UNL     1     -34.857  12.599  -4.713  1.00 20.00    -0.196 NA
ENDROOT
BRANCH   4   6
HETATM    6  C8  UNL     1     -35.099  15.585  -2.867  1.00 20.00     0.028 C 
BRANCH   6   7
HETATM    7  C9  UNL     1     -34.696  16.887  -2.127  1.00 20.00    -0.017 C 
HETATM    8  C3  UNL     1     -34.619  16.715  -0.606  1.00 20.00     0.010 C 
BRANCH   7   9
HETATM    9  C7  UNL     1     -35.687  18.037  -2.434  1.00 20.00     0.004 C 
BRANCH   9  10
HETATM   10  C6  UNL     1     -35.133  19.103  -3.383  1.00 20.00    -0.004 C 
HETATM   11  C2  UNL     1     -33.614  19.165  -3.322  1.00 20.00     0.005 C 
ENDBRANCH   9  10
ENDBRANCH   7   9
ENDBRANCH   6   7
ENDBRANCH   4   6
TORSDOF 4
ENDMDL
MODEL 7
REMARK VINA RESULT:      -4.2      1.425      2.885
REMARK  4 active torsions:
REMARK  status: ('A' for Active; 'I' for Inactive)
REMARK    1  A    between atoms: C6_6  and  C7_7 
REMARK    2  A    between atoms: C7_7  and  C9_9 
REMARK    3  A    between atoms: C8_8  and  C9_9 
REMARK    4  A    between atoms: C8_8  and  C10_10 
ROOT
HETATM    1  C1  UNL     1     -35.715  13.871  -4.302  1.00 20.00     0.068 C 
HETATM    2  C4  UNL     1     -36.678  15.541  -5.843  1.00 20.00     0.031 C 
HETATM    3  C5  UNL     1     -38.000  14.635  -3.927  1.00 20.00     0.031 C 
HETATM    4  C10 UNL     1     -36.588  15.064  -4.386  1.00 20.00     0.042 C 
HETATM    5  N11 UNL     1     -35.038  12.929  -4.235  1.00 20.00    -0.196 NA
ENDROOT
BRANCH   4   6
HETATM    6  C8  UNL     1     -36.091  16.190  -3.433  1.00 20.00     0.028 C 
BRANCH   6   7
HETATM    7  C9  UNL     1     -34.673  16.073  -2.816  1.00 20.00    -0.017 C 
HETATM    8  C3  UNL     1     -34.652  16.326  -1.305  1.00 20.00     0.010 C 
BRANCH   7   9
HETATM    9  C7  UNL     1     -33.686  17.060  -3.485  1.00 20.00     0.004 C 
BRANCH   9  10
HETATM   10  C6  UNL     1     -33.301  16.685  -4.919  1.00 20.00    -0.004 C 
HETATM   11  C2  UNL     1     -33.685  17.782  -5.901  1.00 20.00     0.005 C 
ENDBRANCH   9  10
ENDBRANCH   7   9
ENDBRANCH   6   7
ENDBRANCH   4   6
TORSDOF 4
ENDMDL
MODEL 8
REMARK VINA RESULT:      -4.1      2.047      4.113
REMARK  4 active torsions:
REMARK  status: ('A' for Active; 'I' for Inactive)
REMARK    1  A    between atoms: C6_6  and  C7_7 
REMARK    2  A    between atoms: C7_7  and  C9_9 
REMARK    3  A    between atoms: C8_8  and  C9_9 
REMARK    4  A    between atoms: C8_8  and  C10_10 
ROOT
HETATM    1  C1  UNL     1     -34.483  16.081  -2.025  1.00 20.00     0.068 C 
HETATM    2  C4  UNL     1     -32.880  15.172  -3.666  1.00 20.00     0.031 C 
HETATM    3  C5  UNL     1     -35.243  14.368  -3.585  1.00 20.00     0.031 C 
HETATM    4  C10 UNL     1     -34.333  15.605  -3.419  1.00 20.00     0.042 C 
HETATM    5  N11 UNL     1     -34.607  16.445  -0.929  1.00 20.00    -0.196 NA
ENDROOT
BRANCH   4   6
HETATM    6  C8  UNL     1     -34.799  16.688  -4.434  1.00 20.00     0.028 C 
BRANCH   6   7
HETATM    7  C9  UNL     1     -33.847  17.083  -5.593  1.00 20.00    -0.017 C 
HETATM    8  C3  UNL     1     -33.614  18.595  -5.691  1.00 20.00     0.010 C 
BRANCH   7   9
HETATM    9  C7  UNL     1     -34.387  16.589  -6.958  1.00 20.00     0.004 C 
BRANCH   9  10
HETATM   10  C6  UNL     1     -34.304  15.072  -7.151  1.00 20.00    -0.004 C 
HETATM   11  C2  UNL     1     -35.682  14.465  -7.366  1.00 20.00     0.005 C 
ENDBRANCH   9  10
ENDBRANCH   7   9
ENDBRANCH   6   7
ENDBRANCH   4   6
TORSDOF 4
ENDMDL
MODEL 9
REMARK VINA RESULT:      -4.1      1.502      2.167
REMARK  4 active torsions:
REMARK  status: ('A' for Active; 'I' for Inactive)
REMARK    1  A    between atoms: C6_6  and  C7_7 
REMARK    2  A    between atoms: C7_7  and  C9_9 
REMARK    3  A    between atoms: C8_8  and  C9_9 
REMARK    4  A    between atoms: C8_8  and  C10_10 
ROOT
HETATM    1  C1  UNL     1     -34.413  14.812  -5.776  1.00 20.00     0.068 C 
HETATM    2  C4  UNL     1     -35.848  14.773  -3.769  1.00 20.00     0.031 C 
HETATM    3  C5  UNL     1     -33.809  13.340  -3.929  1.00 20.00     0.031 C 
HETATM    4  C10 UNL     1     -34.408  14.715  -4.299  1.00 20.00     0.042 C 
HETATM    5  N11 UNL     1     -34.415  14.877  -6.936  1.00 20.00    -0.196 NA
ENDROOT
BRANCH   4   6
HETATM    6  C8  UNL     1     -33.510  15.819  -3.669  1.00 20.00     0.028 C 
BRANCH   6   7
HETATM    7  C9  UNL     1     -34.155  17.176  -3.283  1.00 20.00    -0.017 C 
HETATM    8  C3  UNL     1     -33.669  18.341  -4.152  1.00 20.00     0.010 C 
BRANCH   7   9
HETATM    9  C7  UNL     1     -33.878  17.529  -1.802  1.00 20.00     0.004 C 
BRANCH   9  10
HETATM   10  C6  UNL     1     -34.606  16.631  -0.798  1.00 20.00    -0.004 C 
HETATM   11  C2  UNL     1     -34.928  17.381   0.486  1.00 20.00     0.005 C 
ENDBRANCH   9  10
ENDBRANCH   7   9
ENDBRANCH   6   7
ENDBRANCH   4   6
TORSDOF 4
ENDMDL
