MODEL 1
REMARK VINA RESULT:      -4.0      0.000      0.000
REMARK  3 active torsions:
REMARK  status: ('A' for Active; 'I' for Inactive)
REMARK    1  A    between atoms: C3_3  and  C8_8 
REMARK    2  A    between atoms: C8_8  and  C9_9 
REMARK    3  A    between atoms: C9_9  and  O11_11 
ROOT
HETATM    1  C1  UNL     1     -34.789  17.007  -0.418  1.00 20.00     0.088 C 
HETATM    2  C2  UNL     1     -34.347  16.229  -1.523  1.00 20.00     0.096 C 
HETATM    3  C3  UNL     1     -34.004  16.740  -2.721  1.00 20.00    -0.071 C 
HETATM    4  C4  UNL     1     -34.005  18.211  -3.042  1.00 20.00     0.044 C 
HETATM    5  N10 UNL     1     -35.150  17.635   0.487  1.00 20.00    -0.192 NA
ENDROOT
BRANCH   3   6
HETATM    6  C8  UNL     1     -33.535  15.813  -3.833  1.00 20.00     0.071 C 
BRANCH   6   7
HETATM    7  C9  UNL     1     -34.637  14.996  -4.548  1.00 20.00     0.056 C 
HETATM    8  C5  UNL     1     -34.384  15.015  -6.060  1.00 20.00     0.046 C 
HETATM    9  C6  UNL     1     -34.720  13.550  -4.053  1.00 20.00     0.046 C 
BRANCH   7  10
HETATM   10  O11 UNL     1     -35.898  15.631  -4.323  1.00 20.00    -0.385 OA
HETATM   11  C7  UNL     1     -36.883  14.692  -3.924  1.00 20.00     0.202 C 
ENDBRANCH   7  10
ENDBRANCH   6   7
ENDBRANCH   3   6
TORSDOF 3
ENDMDL
MODEL 2
REMARK VINA RESULT:      -3.9      2.659      4.294
REMARK  3 active torsions:
REMARK  status: ('A' for Active; 'I' for Inactive)
REMARK    1  A    between atoms: C3_3  and  C8_8 
REMARK    2  A    between atoms: C8_8  and  C9_9 
REMARK    3  A    between atoms: C9_9  and  O11_11 
ROOT
HETATM    1  C1  UNL     1     -34.529  13.499  -4.165  1.00 20.00     0.088 C 
HETATM    2  C2  UNL     1     -34.241  14.455  -3.153  1.00 20.00     0.096 C 
HETATM    3  C3  UNL     1     -33.803  15.705  -3.394  1.00 20.00    -0.071 C 
HETATM    4  C4  UNL     1     -33.594  16.275  -4.773  1.00 20.00     0.044 C 
HETATM    5  N10 UNL     1     -34.766  12.714  -4.984  1.00 20.00    -0.192 NA
ENDROOT
BRANCH   3   6
HETATM    6  C8  UNL     1     -33.533  16.651  -2.232  1.00 20.00     0.071 C 
BRANCH   6   7
HETATM    7  C9  UNL     1     -34.760  17.406  -1.670  1.00 20.00     0.056 C 
HETATM    8  C5  UNL     1     -34.882  17.129  -0.166  1.00 20.00     0.046 C 
HETATM    9  C6  UNL     1     -34.694  18.914  -1.918  1.00 20.00     0.046 C 
BRANCH   7  10
HETATM   10  O11 UNL     1     -35.940  16.889  -2.290  1.00 20.00    -0.385 OA
HETATM   11  C7  UNL     1     -36.791  17.936  -2.730  1.00 20.00     0.202 C 
ENDBRANCH   7  10
ENDBRANCH   6   7
ENDBRANCH   3   6
TORSDOF 3
ENDMDL
MODEL 3
REMARK VINA RESULT:      -3.9      2.722      4.492
REMARK  3 active torsions:
REMARK  status: ('A' for Active; 'I' for Inactive)
REMARK    1  A    between atoms: C3_3  and  C8_8 
REMARK    2  A    between atoms: C8_8  and  C9_9 
REMARK    3  A    between atoms: C9_9  and  O11_11 
ROOT
HETATM    1  C1  UNL     1     -34.487  13.531  -4.115  1.00 20.00     0.088 C 
HETATM    2  C2  UNL     1     -34.244  14.483  -3.086  1.00 20.00     0.096 C 
HETATM    3  C3  UNL     1     -35.117  15.438  -2.717  1.00 20.00    -0.071 C 
HETATM    4  C4  UNL     1     -36.488  15.607  -3.318  1.00 20.00     0.044 C 
HETATM    5  N10 UNL     1     -34.677  12.753  -4.952  1.00 20.00    -0.192 NA
ENDROOT
BRANCH   3   6
HETATM    6  C8  UNL     1     -34.757  16.401  -1.594  1.00 20.00     0.071 C 
BRANCH   6   7
HETATM    7  C9  UNL     1     -34.211  17.781  -2.030  1.00 20.00     0.056 C 
HETATM    8  C5  UNL     1     -35.381  18.758  -2.202  1.00 20.00     0.046 C 
HETATM    9  C6  UNL     1     -33.194  18.356  -1.042  1.00 20.00     0.046 C 
BRANCH   7  10
HETATM   10  O11 UNL     1     -33.584  17.644  -3.307  1.00 20.00    -0.385 OA
HETATM   11  C7  UNL     1     -33.920  18.724  -4.164  1.00 20.00     0.202 C 
ENDBRANCH   7  10
ENDBRANCH   6   7
ENDBRANCH   3   6
TORSDOF 3
ENDMDL
MODEL 4
REMARK VINA RESULT:      -3.9      2.853      4.302
REMARK  3 active torsions:
REMARK  status: ('A' for Active; 'I' for Inactive)
REMARK    1  A    between atoms: C3_3  and  C8_8 
REMARK    2  A    between atoms: C8_8  and  C9_9 
REMARK    3  A    between atoms: C9_9  and  O11_11 
ROOT
HETATM    1  C1  UNL     1     -34.641  13.564  -4.036  1.00 20.00     0.088 C 
HETATM    2  C2  UNL     1     -34.504  14.561  -3.032  1.00 20.00     0.096 C 
HETATM    3  C3  UNL     1     -33.809  15.703  -3.189  1.00 20.00    -0.071 C 
HETATM    4  C4  UNL     1     -33.112  16.099  -4.464  1.00 20.00     0.044 C 
HETATM    5  N10 UNL     1     -34.758  12.746  -4.849  1.00 20.00    -0.192 NA
ENDROOT
BRANCH   3   6
HETATM    6  C8  UNL     1     -33.735  16.708  -2.048  1.00 20.00     0.071 C 
BRANCH   6   7
HETATM    7  C9  UNL     1     -34.674  17.932  -2.157  1.00 20.00     0.056 C 
HETATM    8  C5  UNL     1     -33.891  19.123  -2.727  1.00 20.00     0.046 C 
HETATM    9  C6  UNL     1     -35.907  17.660  -3.020  1.00 20.00     0.046 C 
BRANCH   7  10
HETATM   10  O11 UNL     1     -35.103  18.300  -0.844  1.00 20.00    -0.385 OA
HETATM   11  C7  UNL     1     -34.885  17.248   0.082  1.00 20.00     0.202 C 
ENDBRANCH   7  10
ENDBRANCH   6   7
ENDBRANCH   3   6
TORSDOF 3
ENDMDL
MODEL 5
REMARK VINA RESULT:      -3.9      2.793      4.468
REMARK  3 active torsions:
REMARK  status: ('A' for Active; 'I' for Inactive)
REMARK    1  A    between atoms: C3_3  and  C8_8 
REMARK    2  A    between atoms: C8_8  and  C9_9 
REMARK    3  A    between atoms: C9_9  and  O11_11 
ROOT
HETATM    1  C1  UNL     1     -34.531  13.482  -4.161  1.00 20.00     0.088 C 
HETATM    2  C2  UNL     1     -34.241  14.427  -3.139  1.00 20.00     0.096 C 
HETATM    3  C3  UNL     1     -35.092  15.387  -2.732  1.00 20.00    -0.071 C 
HETATM    4  C4  UNL     1     -36.484  15.569  -3.278  1.00 20.00     0.044 C 
HETATM    5  N10 UNL     1     -34.760  12.709  -4.994  1.00 20.00    -0.192 NA
ENDROOT
BRANCH   3   6
HETATM    6  C8  UNL     1     -34.681  16.342  -1.620  1.00 20.00     0.071 C 
BRANCH   6   7
HETATM    7  C9  UNL     1     -34.348  17.789  -2.054  1.00 20.00     0.056 C 
HETATM    8  C5  UNL     1     -33.301  18.378  -1.099  1.00 20.00     0.046 C 
HETATM    9  C6  UNL     1     -33.843  17.875  -3.496  1.00 20.00     0.046 C 
BRANCH   7  10
HETATM   10  O11 UNL     1     -35.527  18.588  -1.931  1.00 20.00    -0.385 OA
HETATM   11  C7  UNL     1     -36.170  18.367  -0.686  1.00 20.00     0.202 C 
ENDBRANCH   7  10
ENDBRANCH   6   7
ENDBRANCH   3   6
TORSDOF 3
ENDMDL
MODEL 6
REMARK VINA RESULT:      -3.9      0.817      1.587
REMARK  3 active torsions:
REMARK  status: ('A' for Active; 'I' for Inactive)
REMARK    1  A    between atoms: C3_3  and  C8_8 
REMARK    2  A    between atoms: C8_8  and  C9_9 
REMARK    3  A    between atoms: C9_9  and  O11_11 
ROOT
HETATM    1  C1  UNL     1     -34.834  17.697  -0.080  1.00 20.00     0.088 C 
HETATM    2  C2  UNL     1     -34.524  16.584  -0.908  1.00 20.00     0.096 C 
HETATM    3  C3  UNL     1     -34.192  16.677  -2.209  1.00 20.00    -0.071 C 
HETATM    4  C4  UNL     1     -34.069  17.978  -2.958  1.00 20.00     0.044 C 
HETATM    5  N10 UNL     1     -35.089  18.600   0.602  1.00 20.00    -0.192 NA
ENDROOT
BRANCH   3   6
HETATM    6  C8  UNL     1     -33.869  15.418  -3.000  1.00 20.00     0.071 C 
BRANCH   6   7
HETATM    7  C9  UNL     1     -34.993  14.885  -3.920  1.00 20.00     0.056 C 
HETATM    8  C5  UNL     1     -34.839  13.367  -4.083  1.00 20.00     0.046 C 
HETATM    9  C6  UNL     1     -36.393  15.213  -3.398  1.00 20.00     0.046 C 
BRANCH   7  10
HETATM   10  O11 UNL     1     -34.838  15.466  -5.217  1.00 20.00    -0.385 OA
HETATM   11  C7  UNL     1     -34.990  14.493  -6.238  1.00 20.00     0.202 C 
ENDBRANCH   7  10
ENDBRANCH   6   7
ENDBRANCH   3   6
TORSDOF 3
ENDMDL
MODEL 7
REMARK VINA RESULT:      -3.8      0.987      1.660
REMARK  3 active torsions:
REMARK  status: ('A' for Active; 'I' for Inactive)
REMARK    1  A    between atoms: C3_3  and  C8_8 
REMARK    2  A    between atoms: C8_8  and  C9_9 
REMARK    3  A    between atoms: C9_9  and  O11_11 
ROOT
HETATM    1  C1  UNL     1     -34.844  17.059  -0.491  1.00 20.00     0.088 C 
HETATM    2  C2  UNL     1     -34.373  16.246  -1.558  1.00 20.00     0.096 C 
HETATM    3  C3  UNL     1     -33.905  16.725  -2.726  1.00 20.00    -0.071 C 
HETATM    4  C4  UNL     1     -33.781  18.191  -3.048  1.00 20.00     0.044 C 
HETATM    5  N10 UNL     1     -35.229  17.716   0.384  1.00 20.00    -0.192 NA
ENDROOT
BRANCH   3   6
HETATM    6  C8  UNL     1     -33.418  15.762  -3.798  1.00 20.00     0.071 C 
BRANCH   6   7
HETATM    7  C9  UNL     1     -34.385  15.510  -4.978  1.00 20.00     0.056 C 
HETATM    8  C5  UNL     1     -35.824  15.787  -4.523  1.00 20.00     0.046 C 
HETATM    9  C6  UNL     1     -34.057  16.361  -6.207  1.00 20.00     0.046 C 
BRANCH   7  10
HETATM   10  O11 UNL     1     -34.317  14.130  -5.342  1.00 20.00    -0.385 OA
HETATM   11  C7  UNL     1     -34.939  13.309  -4.367  1.00 20.00     0.202 C 
ENDBRANCH   7  10
ENDBRANCH   6   7
ENDBRANCH   3   6
TORSDOF 3
ENDMDL
MODEL 8
REMARK VINA RESULT:      -3.8      2.878      4.695
REMARK  3 active torsions:
REMARK  status: ('A' for Active; 'I' for Inactive)
REMARK    1  A    between atoms: C3_3  and  C8_8 
REMARK    2  A    between atoms: C8_8  and  C9_9 
REMARK    3  A    between atoms: C9_9  and  O11_11 
ROOT
HETATM    1  C1  UNL     1     -34.770  14.848  -6.838  1.00 20.00     0.088 C 
HETATM    2  C2  UNL     1     -34.253  15.385  -5.627  1.00 20.00     0.096 C 
HETATM    3  C3  UNL     1     -34.370  14.791  -4.425  1.00 20.00    -0.071 C 
HETATM    4  C4  UNL     1     -35.033  13.457  -4.203  1.00 20.00     0.044 C 
HETATM    5  N10 UNL     1     -35.189  14.417  -7.830  1.00 20.00    -0.192 NA
ENDROOT
BRANCH   3   6
HETATM    6  C8  UNL     1     -33.770  15.452  -3.192  1.00 20.00     0.071 C 
BRANCH   6   7
HETATM    7  C9  UNL     1     -34.586  16.612  -2.576  1.00 20.00     0.056 C 
HETATM    8  C5  UNL     1     -34.574  16.486  -1.048  1.00 20.00     0.046 C 
HETATM    9  C6  UNL     1     -34.063  17.990  -2.989  1.00 20.00     0.046 C 
BRANCH   7  10
HETATM   10  O11 UNL     1     -35.946  16.491  -2.999  1.00 20.00    -0.385 OA
HETATM   11  C7  UNL     1     -36.426  17.710  -3.543  1.00 20.00     0.202 C 
ENDBRANCH   7  10
ENDBRANCH   6   7
ENDBRANCH   3   6
TORSDOF 3
ENDMDL
MODEL 9
REMARK VINA RESULT:      -3.8      1.527      2.538
REMARK  3 active torsions:
REMARK  status: ('A' for Active; 'I' for Inactive)
REMARK    1  A    between atoms: C3_3  and  C8_8 
REMARK    2  A    between atoms: C8_8  and  C9_9 
REMARK    3  A    between atoms: C9_9  and  O11_11 
ROOT
HETATM    1  C1  UNL     1     -34.723  16.251  -1.588  1.00 20.00     0.088 C 
HETATM    2  C2  UNL     1     -35.210  15.522  -2.708  1.00 20.00     0.096 C 
HETATM    3  C3  UNL     1     -34.426  14.992  -3.665  1.00 20.00    -0.071 C 
HETATM    4  C4  UNL     1     -32.922  15.068  -3.662  1.00 20.00     0.044 C 
HETATM    5  N10 UNL     1     -34.334  16.846  -0.672  1.00 20.00    -0.192 NA
ENDROOT
BRANCH   3   6
HETATM    6  C8  UNL     1     -35.054  14.222  -4.818  1.00 20.00     0.071 C 
BRANCH   6   7
HETATM    7  C9  UNL     1     -35.674  15.075  -5.949  1.00 20.00     0.056 C 
HETATM    8  C5  UNL     1     -35.364  14.425  -7.304  1.00 20.00     0.046 C 
HETATM    9  C6  UNL     1     -37.186  15.258  -5.794  1.00 20.00     0.046 C 
BRANCH   7  10
HETATM   10  O11 UNL     1     -35.052  16.362  -5.947  1.00 20.00    -0.385 OA
HETATM   11  C7  UNL     1     -34.513  16.675  -7.221  1.00 20.00     0.202 C 
ENDBRANCH   7  10
ENDBRANCH   6   7
ENDBRANCH   3   6
TORSDOF 3
ENDMDL
