MODEL 1
REMARK VINA RESULT:      -4.7      0.000      0.000
REMARK  4 active torsions:
REMARK  status: ('A' for Active; 'I' for Inactive)
REMARK    1  A    between atoms: C6_6  and  C7_7 
REMARK    2  A    between atoms: C7_7  and  C9_9 
REMARK    3  A    between atoms: C8_8  and  C9_9 
REMARK    4  A    between atoms: C8_8  and  C10_10 
ROOT
HETATM    1  C1  UNL     1     -34.671  13.648  -4.263  1.00 20.00     0.068 C 
HETATM    2  C4  UNL     1     -32.545  14.707  -3.592  1.00 20.00     0.031 C 
HETATM    3  C5  UNL     1     -33.982  15.706  -5.374  1.00 20.00     0.031 C 
HETATM    4  C10 UNL     1     -33.998  14.946  -4.029  1.00 20.00     0.042 C 
HETATM    5  N11 UNL     1     -35.197  12.632  -4.458  1.00 20.00    -0.196 NA
ENDROOT
BRANCH   4   6
HETATM    6  C8  UNL     1     -34.784  15.804  -2.996  1.00 20.00     0.028 C 
BRANCH   6   7
HETATM    7  C9  UNL     1     -33.989  16.647  -1.965  1.00 20.00    -0.017 C 
HETATM    8  C3  UNL     1     -33.777  18.097  -2.410  1.00 20.00     0.010 C 
BRANCH   7   9
HETATM    9  C7  UNL     1     -34.700  16.662  -0.589  1.00 20.00     0.004 C 
BRANCH   9  10
HETATM   10  C6  UNL     1     -34.279  17.823   0.318  1.00 20.00    -0.004 C 
HETATM   11  C2  UNL     1     -35.126  17.872   1.582  1.00 20.00     0.005 C 
ENDBRANCH   9  10
ENDBRANCH   7   9
ENDBRANCH   6   7
ENDBRANCH   4   6
TORSDOF 4
ENDMDL
MODEL 2
REMARK VINA RESULT:      -4.6      1.496      2.383
REMARK  4 active torsions:
REMARK  status: ('A' for Active; 'I' for Inactive)
REMARK    1  A    between atoms: C6_6  and  C7_7 
REMARK    2  A    between atoms: C7_7  and  C9_9 
REMARK    3  A    between atoms: C8_8  and  C9_9 
REMARK    4  A    between atoms: C8_8  and  C10_10 
ROOT
HETATM    1  C1  UNL     1     -35.038  13.764  -5.112  1.00 20.00     0.068 C 
HETATM    2  C4  UNL     1     -34.241  15.232  -6.929  1.00 20.00     0.031 C 
HETATM    3  C5  UNL     1     -36.675  15.017  -6.413  1.00 20.00     0.031 C 
HETATM    4  C10 UNL     1     -35.261  15.060  -5.793  1.00 20.00     0.042 C 
HETATM    5  N11 UNL     1     -34.872  12.745  -4.583  1.00 20.00    -0.196 NA
ENDROOT
BRANCH   4   6
HETATM    6  C8  UNL     1     -35.210  16.240  -4.780  1.00 20.00     0.028 C 
BRANCH   6   7
HETATM    7  C9  UNL     1     -33.832  16.714  -4.252  1.00 20.00    -0.017 C 
HETATM    8  C3  UNL     1     -33.705  18.240  -4.185  1.00 20.00     0.010 C 
BRANCH   7   9
HETATM    9  C7  UNL     1     -33.547  16.143  -2.840  1.00 20.00     0.004 C 
BRANCH   9  10
HETATM   10  C6  UNL     1     -34.787  16.037  -1.948  1.00 20.00    -0.004 C 
HETATM   11  C2  UNL     1     -34.595  16.795  -0.642  1.00 20.00     0.005 C 
ENDBRANCH   9  10
ENDBRANCH   7   9
ENDBRANCH   6   7
ENDBRANCH   4   6
TORSDOF 4
ENDMDL
MODEL 3
REMARK VINA RESULT:      -4.4      1.745      2.080
REMARK  4 active torsions:
REMARK  status: ('A' for Active; 'I' for Inactive)
REMARK    1  A    between atoms: C6_6  and  C7_7 
REMARK    2  A    between atoms: C7_7  and  C9_9 
REMARK    3  A    between atoms: C8_8  and  C9_9 
REMARK    4  A    between atoms: C8_8  and  C10_10 
ROOT
HETATM    1  C1  UNL     1     -37.189  14.600  -3.981  1.00 20.00     0.068 C 
HETATM    2  C4  UNL     1     -34.830  13.901  -3.785  1.00 20.00     0.031 C 
HETATM    3  C5  UNL     1     -35.643  15.169  -5.778  1.00 20.00     0.031 C 
HETATM    4  C10 UNL     1     -35.790  15.007  -4.249  1.00 20.00     0.042 C 
HETATM    5  N11 UNL     1     -38.286  14.279  -3.782  1.00 20.00    -0.196 NA
ENDROOT
BRANCH   4   6
HETATM    6  C8  UNL     1     -35.469  16.375  -3.582  1.00 20.00     0.028 C 
BRANCH   6   7
HETATM    7  C9  UNL     1     -33.986  16.805  -3.433  1.00 20.00    -0.017 C 
HETATM    8  C3  UNL     1     -33.666  18.119  -4.153  1.00 20.00     0.010 C 
BRANCH   7   9
HETATM    9  C7  UNL     1     -33.597  16.962  -1.942  1.00 20.00     0.004 C 
BRANCH   9  10
HETATM   10  C6  UNL     1     -34.685  16.513  -0.962  1.00 20.00    -0.004 C 
HETATM   11  C2  UNL     1     -34.790  17.465   0.222  1.00 20.00     0.005 C 
ENDBRANCH   9  10
ENDBRANCH   7   9
ENDBRANCH   6   7
ENDBRANCH   4   6
TORSDOF 4
ENDMDL
MODEL 4
REMARK VINA RESULT:      -4.4      1.243      1.798
REMARK  4 active torsions:
REMARK  status: ('A' for Active; 'I' for Inactive)
REMARK    1  A    between atoms: C6_6  and  C7_7 
REMARK    2  A    between atoms: C7_7  and  C9_9 
REMARK    3  A    between atoms: C8_8  and  C9_9 
REMARK    4  A    between atoms: C8_8  and  C10_10 
ROOT
HETATM    1  C1  UNL     1     -34.150  15.301  -5.441  1.00 20.00     0.068 C 
HETATM    2  C4  UNL     1     -35.026  13.307  -4.281  1.00 20.00     0.031 C 
HETATM    3  C5  UNL     1     -32.844  14.329  -3.626  1.00 20.00     0.031 C 
HETATM    4  C10 UNL     1     -34.274  14.636  -4.123  1.00 20.00     0.042 C 
HETATM    5  N11 UNL     1     -34.042  15.819  -6.473  1.00 20.00    -0.196 NA
ENDROOT
BRANCH   4   6
HETATM    6  C8  UNL     1     -34.957  15.573  -3.086  1.00 20.00     0.028 C 
BRANCH   6   7
HETATM    7  C9  UNL     1     -34.066  16.454  -2.173  1.00 20.00    -0.017 C 
HETATM    8  C3  UNL     1     -33.842  17.864  -2.731  1.00 20.00     0.010 C 
BRANCH   7   9
HETATM    9  C7  UNL     1     -34.675  16.587  -0.755  1.00 20.00     0.004 C 
BRANCH   9  10
HETATM   10  C6  UNL     1     -34.106  17.749   0.063  1.00 20.00    -0.004 C 
HETATM   11  C2  UNL     1     -34.913  17.978   1.334  1.00 20.00     0.005 C 
ENDBRANCH   9  10
ENDBRANCH   7   9
ENDBRANCH   6   7
ENDBRANCH   4   6
TORSDOF 4
ENDMDL
MODEL 5
REMARK VINA RESULT:      -4.3      2.087      3.235
REMARK  4 active torsions:
REMARK  status: ('A' for Active; 'I' for Inactive)
REMARK    1  A    between atoms: C6_6  and  C7_7 
REMARK    2  A    between atoms: C7_7  and  C9_9 
REMARK    3  A    between atoms: C8_8  and  C9_9 
REMARK    4  A    between atoms: C8_8  and  C10_10 
ROOT
HETATM    1  C1  UNL     1     -37.199  14.840  -4.442  1.00 20.00     0.068 C 
HETATM    2  C4  UNL     1     -36.701  15.195  -6.834  1.00 20.00     0.031 C 
HETATM    3  C5  UNL     1     -36.543  17.067  -5.188  1.00 20.00     0.031 C 
HETATM    4  C10 UNL     1     -36.313  15.553  -5.392  1.00 20.00     0.042 C 
HETATM    5  N11 UNL     1     -37.898  14.292  -3.697  1.00 20.00    -0.196 NA
ENDROOT
BRANCH   4   6
HETATM    6  C8  UNL     1     -34.816  15.246  -5.098  1.00 20.00     0.028 C 
BRANCH   6   7
HETATM    7  C9  UNL     1     -34.419  14.751  -3.683  1.00 20.00    -0.017 C 
HETATM    8  C3  UNL     1     -33.369  13.634  -3.710  1.00 20.00     0.010 C 
BRANCH   7   9
HETATM    9  C7  UNL     1     -33.867  15.912  -2.818  1.00 20.00     0.004 C 
BRANCH   9  10
HETATM   10  C6  UNL     1     -34.721  16.234  -1.588  1.00 20.00    -0.004 C 
HETATM   11  C2  UNL     1     -34.073  17.314  -0.733  1.00 20.00     0.005 C 
ENDBRANCH   9  10
ENDBRANCH   7   9
ENDBRANCH   6   7
ENDBRANCH   4   6
TORSDOF 4
ENDMDL
MODEL 6
REMARK VINA RESULT:      -4.2      2.083      4.845
REMARK  4 active torsions:
REMARK  status: ('A' for Active; 'I' for Inactive)
REMARK    1  A    between atoms: C6_6  and  C7_7 
REMARK    2  A    between atoms: C7_7  and  C9_9 
REMARK    3  A    between atoms: C8_8  and  C9_9 
REMARK    4  A    between atoms: C8_8  and  C10_10 
ROOT
HETATM    1  C1  UNL     1     -34.234  14.415  -3.350  1.00 20.00     0.068 C 
HETATM    2  C4  UNL     1     -34.544  16.171  -1.644  1.00 20.00     0.031 C 
HETATM    3  C5  UNL     1     -33.658  16.716  -3.914  1.00 20.00     0.031 C 
HETATM    4  C10 UNL     1     -34.648  15.821  -3.135  1.00 20.00     0.042 C 
HETATM    5  N11 UNL     1     -33.901  13.317  -3.522  1.00 20.00    -0.196 NA
ENDROOT
BRANCH   4   6
HETATM    6  C8  UNL     1     -36.076  16.075  -3.697  1.00 20.00     0.028 C 
BRANCH   6   7
HETATM    7  C9  UNL     1     -36.757  14.966  -4.540  1.00 20.00    -0.017 C 
HETATM    8  C3  UNL     1     -38.248  14.802  -4.228  1.00 20.00     0.010 C 
BRANCH   7   9
HETATM    9  C7  UNL     1     -36.608  15.246  -6.057  1.00 20.00     0.004 C 
BRANCH   9  10
HETATM   10  C6  UNL     1     -35.573  14.360  -6.757  1.00 20.00    -0.004 C 
HETATM   11  C2  UNL     1     -34.383  15.177  -7.241  1.00 20.00     0.005 C 
ENDBRANCH   9  10
ENDBRANCH   7   9
ENDBRANCH   6   7
ENDBRANCH   4   6
TORSDOF 4
ENDMDL
MODEL 7
REMARK VINA RESULT:      -4.2      1.515      2.789
REMARK  4 active torsions:
REMARK  status: ('A' for Active; 'I' for Inactive)
REMARK    1  A    between atoms: C6_6  and  C7_7 
REMARK    2  A    between atoms: C7_7  and  C9_9 
REMARK    3  A    between atoms: C8_8  and  C9_9 
REMARK    4  A    between atoms: C8_8  and  C10_10 
ROOT
HETATM    1  C1  UNL     1     -36.179  14.447  -3.903  1.00 20.00     0.068 C 
HETATM    2  C4  UNL     1     -34.018  13.292  -4.195  1.00 20.00     0.031 C 
HETATM    3  C5  UNL     1     -34.559  15.366  -5.475  1.00 20.00     0.031 C 
HETATM    4  C10 UNL     1     -34.728  14.652  -4.116  1.00 20.00     0.042 C 
HETATM    5  N11 UNL     1     -37.318  14.290  -3.745  1.00 20.00    -0.196 NA
ENDROOT
BRANCH   4   6
HETATM    6  C8  UNL     1     -34.122  15.562  -3.010  1.00 20.00     0.028 C 
BRANCH   6   7
HETATM    7  C9  UNL     1     -35.069  16.490  -2.205  1.00 20.00    -0.017 C 
HETATM    8  C3  UNL     1     -34.661  16.634  -0.735  1.00 20.00     0.010 C 
BRANCH   7   9
HETATM    9  C7  UNL     1     -35.130  17.906  -2.830  1.00 20.00     0.004 C 
BRANCH   9  10
HETATM   10  C6  UNL     1     -33.759  18.496  -3.175  1.00 20.00    -0.004 C 
HETATM   11  C2  UNL     1     -33.659  18.832  -4.657  1.00 20.00     0.005 C 
ENDBRANCH   9  10
ENDBRANCH   7   9
ENDBRANCH   6   7
ENDBRANCH   4   6
TORSDOF 4
ENDMDL
MODEL 8
REMARK VINA RESULT:      -4.1      1.952      4.930
REMARK  4 active torsions:
REMARK  status: ('A' for Active; 'I' for Inactive)
REMARK    1  A    between atoms: C6_6  and  C7_7 
REMARK    2  A    between atoms: C7_7  and  C9_9 
REMARK    3  A    between atoms: C8_8  and  C9_9 
REMARK    4  A    between atoms: C8_8  and  C10_10 
ROOT
HETATM    1  C1  UNL     1     -34.297  14.275  -3.516  1.00 20.00     0.068 C 
HETATM    2  C4  UNL     1     -36.086  15.975  -3.565  1.00 20.00     0.031 C 
HETATM    3  C5  UNL     1     -34.041  16.289  -2.167  1.00 20.00     0.031 C 
HETATM    4  C10 UNL     1     -34.571  15.730  -3.506  1.00 20.00     0.042 C 
HETATM    5  N11 UNL     1     -34.081  13.135  -3.514  1.00 20.00    -0.196 NA
ENDROOT
BRANCH   4   6
HETATM    6  C8  UNL     1     -33.819  16.449  -4.663  1.00 20.00     0.028 C 
BRANCH   6   7
HETATM    7  C9  UNL     1     -34.546  16.644  -6.019  1.00 20.00    -0.017 C 
HETATM    8  C3  UNL     1     -34.192  17.969  -6.705  1.00 20.00     0.010 C 
BRANCH   7   9
HETATM    9  C7  UNL     1     -34.220  15.490  -7.000  1.00 20.00     0.004 C 
BRANCH   9  10
HETATM   10  C6  UNL     1     -35.327  14.437  -7.114  1.00 20.00    -0.004 C 
HETATM   11  C2  UNL     1     -36.698  15.087  -7.232  1.00 20.00     0.005 C 
ENDBRANCH   9  10
ENDBRANCH   7   9
ENDBRANCH   6   7
ENDBRANCH   4   6
TORSDOF 4
ENDMDL
MODEL 9
REMARK VINA RESULT:      -4.1      2.038      2.932
REMARK  4 active torsions:
REMARK  status: ('A' for Active; 'I' for Inactive)
REMARK    1  A    between atoms: C6_6  and  C7_7 
REMARK    2  A    between atoms: C7_7  and  C9_9 
REMARK    3  A    between atoms: C8_8  and  C9_9 
REMARK    4  A    between atoms: C8_8  and  C10_10 
ROOT
HETATM    1  C1  UNL     1     -33.624  15.836  -4.775  1.00 20.00     0.068 C 
HETATM    2  C4  UNL     1     -34.924  13.941  -5.676  1.00 20.00     0.031 C 
HETATM    3  C5  UNL     1     -33.352  13.636  -3.760  1.00 20.00     0.031 C 
HETATM    4  C10 UNL     1     -34.364  14.606  -4.410  1.00 20.00     0.042 C 
HETATM    5  N11 UNL     1     -33.035  16.794  -5.059  1.00 20.00    -0.196 NA
ENDROOT
BRANCH   4   6
HETATM    6  C8  UNL     1     -35.479  14.912  -3.369  1.00 20.00     0.028 C 
BRANCH   6   7
HETATM    7  C9  UNL     1     -36.200  16.284  -3.428  1.00 20.00    -0.017 C 
HETATM    8  C3  UNL     1     -37.724  16.158  -3.515  1.00 20.00     0.010 C 
BRANCH   7   9
HETATM    9  C7  UNL     1     -35.856  17.150  -2.191  1.00 20.00     0.004 C 
BRANCH   9  10
HETATM   10  C6  UNL     1     -34.796  16.534  -1.272  1.00 20.00    -0.004 C 
HETATM   11  C2  UNL     1     -33.579  17.440  -1.147  1.00 20.00     0.005 C 
ENDBRANCH   9  10
ENDBRANCH   7   9
ENDBRANCH   6   7
ENDBRANCH   4   6
TORSDOF 4
ENDMDL
