MODEL 1
REMARK VINA RESULT:      -4.7      0.000      0.000
REMARK  3 active torsions:
REMARK  status: ('A' for Active; 'I' for Inactive)
REMARK    1  A    between atoms: C7_7  and  C9_9 
REMARK    2  A    between atoms: C8_8  and  C9_9 
REMARK    3  A    between atoms: C9_9  and  O11_11 
ROOT
HETATM    1  C1  UNL     1     -35.501   4.917   4.452  1.00 20.00     0.027 C 
HETATM    2  C2  UNL     1     -34.345   5.397   3.582  1.00 20.00     0.011 C 
HETATM    3  C5  UNL     1     -35.072   4.815   5.910  1.00 20.00     0.167 C 
HETATM    4  C6  UNL     1     -33.391   6.466   5.643  1.00 20.00     0.174 C 
HETATM    5  C8  UNL     1     -33.723   6.671   4.163  1.00 20.00     0.039 C 
HETATM    6  O10 UNL     1     -34.553   6.062   6.371  1.00 20.00    -0.391 OA
ENDROOT
BRANCH   5   7
HETATM    7  C9  UNL     1     -32.487   7.091   3.374  1.00 20.00     0.128 C 
BRANCH   7   8
HETATM    8  C7  UNL     1     -32.853   7.912   2.149  1.00 20.00     0.015 A 
HETATM    9  C3  UNL     1     -32.526   9.379   2.094  1.00 20.00     0.007 A 
HETATM   10  C4  UNL     1     -31.778   8.410   1.223  1.00 20.00     0.007 A 
ENDBRANCH   7   8
BRANCH   7  11
HETATM   11  O11 UNL     1     -31.777   5.927   2.967  1.00 20.00    -0.395 OA
HETATM   12  H27 UNL     1     -31.057   5.802   3.604  1.00 20.00     0.210 HD
ENDBRANCH   7  11
ENDBRANCH   5   7
TORSDOF 3
ENDMDL
MODEL 2
REMARK VINA RESULT:      -4.7     11.012     11.836
REMARK  3 active torsions:
REMARK  status: ('A' for Active; 'I' for Inactive)
REMARK    1  A    between atoms: C7_7  and  C9_9 
REMARK    2  A    between atoms: C8_8  and  C9_9 
REMARK    3  A    between atoms: C9_9  and  O11_11 
ROOT
HETATM    1  C1  UNL     1     -33.725  14.050  -4.079  1.00 20.00     0.027 C 
HETATM    2  C2  UNL     1     -33.896  15.153  -3.039  1.00 20.00     0.011 C 
HETATM    3  C5  UNL     1     -35.013  13.251  -4.233  1.00 20.00     0.167 C 
HETATM    4  C6  UNL     1     -36.357  15.075  -3.534  1.00 20.00     0.174 C 
HETATM    5  C8  UNL     1     -35.144  15.990  -3.341  1.00 20.00     0.039 C 
HETATM    6  O10 UNL     1     -36.104  14.111  -4.558  1.00 20.00    -0.391 OA
ENDROOT
BRANCH   5   7
HETATM    7  C9  UNL     1     -35.399  17.016  -2.241  1.00 20.00     0.128 C 
BRANCH   7   8
HETATM    8  C7  UNL     1     -34.596  16.708  -0.988  1.00 20.00     0.015 A 
HETATM    9  C3  UNL     1     -33.722  17.764  -0.369  1.00 20.00     0.007 A 
HETATM   10  C4  UNL     1     -34.981  17.328   0.328  1.00 20.00     0.007 A 
ENDBRANCH   7   8
BRANCH   7  11
HETATM   11  O11 UNL     1     -36.786  17.024  -1.923  1.00 20.00    -0.395 OA
HETATM   12  H27 UNL     1     -37.241  16.570  -2.649  1.00 20.00     0.210 HD
ENDBRANCH   7  11
ENDBRANCH   5   7
TORSDOF 3
ENDMDL
MODEL 3
REMARK VINA RESULT:      -4.5     11.324     12.350
REMARK  3 active torsions:
REMARK  status: ('A' for Active; 'I' for Inactive)
REMARK    1  A    between atoms: C7_7  and  C9_9 
REMARK    2  A    between atoms: C8_8  and  C9_9 
REMARK    3  A    between atoms: C9_9  and  O11_11 
ROOT
HETATM    1  C1  UNL     1     -34.856  13.392  -5.067  1.00 20.00     0.027 C 
HETATM    2  C2  UNL     1     -35.343  14.219  -3.881  1.00 20.00     0.011 C 
HETATM    3  C5  UNL     1     -34.909  14.209  -6.351  1.00 20.00     0.167 C 
HETATM    4  C6  UNL     1     -34.681  16.260  -5.185  1.00 20.00     0.174 C 
HETATM    5  C8  UNL     1     -34.610  15.563  -3.823  1.00 20.00     0.039 C 
HETATM    6  O10 UNL     1     -34.160  15.416  -6.213  1.00 20.00    -0.391 OA
ENDROOT
BRANCH   5   7
HETATM    7  C9  UNL     1     -35.175  16.452  -2.720  1.00 20.00     0.128 C 
BRANCH   7   8
HETATM    8  C7  UNL     1     -34.304  16.426  -1.475  1.00 20.00     0.015 A 
HETATM    9  C3  UNL     1     -33.691  17.696  -0.953  1.00 20.00     0.007 A 
HETATM   10  C4  UNL     1     -34.801  17.030  -0.191  1.00 20.00     0.007 A 
ENDBRANCH   7   8
BRANCH   7  11
HETATM   11  O11 UNL     1     -36.485  16.005  -2.388  1.00 20.00    -0.395 OA
HETATM   12  H27 UNL     1     -36.492  15.849  -1.430  1.00 20.00     0.210 HD
ENDBRANCH   7  11
ENDBRANCH   5   7
TORSDOF 3
ENDMDL
MODEL 4
REMARK VINA RESULT:      -4.4     11.053     12.131
REMARK  3 active torsions:
REMARK  status: ('A' for Active; 'I' for Inactive)
REMARK    1  A    between atoms: C7_7  and  C9_9 
REMARK    2  A    between atoms: C8_8  and  C9_9 
REMARK    3  A    between atoms: C9_9  and  O11_11 
ROOT
HETATM    1  C1  UNL     1     -33.641  18.914  -1.599  1.00 20.00     0.027 C 
HETATM    2  C2  UNL     1     -33.719  18.114  -2.895  1.00 20.00     0.011 C 
HETATM    3  C5  UNL     1     -34.653  18.397  -0.585  1.00 20.00     0.167 C 
HETATM    4  C6  UNL     1     -34.657  16.224  -1.534  1.00 20.00     0.174 C 
HETATM    5  C8  UNL     1     -33.637  16.611  -2.608  1.00 20.00     0.039 C 
HETATM    6  O10 UNL     1     -34.464  17.001  -0.351  1.00 20.00    -0.391 OA
ENDROOT
BRANCH   5   7
HETATM    7  C9  UNL     1     -33.841  15.795  -3.881  1.00 20.00     0.128 C 
BRANCH   7   8
HETATM    8  C7  UNL     1     -34.267  14.369  -3.573  1.00 20.00     0.015 A 
HETATM    9  C3  UNL     1     -35.523  13.807  -4.181  1.00 20.00     0.007 A 
HETATM   10  C4  UNL     1     -34.180  13.308  -4.635  1.00 20.00     0.007 A 
ENDBRANCH   7   8
BRANCH   7  11
HETATM   11  O11 UNL     1     -32.625  15.774  -4.621  1.00 20.00    -0.395 OA
HETATM   12  H27 UNL     1     -32.837  15.414  -5.496  1.00 20.00     0.210 HD
ENDBRANCH   7  11
ENDBRANCH   5   7
TORSDOF 3
ENDMDL
MODEL 5
REMARK VINA RESULT:      -4.4     11.162     12.141
REMARK  3 active torsions:
REMARK  status: ('A' for Active; 'I' for Inactive)
REMARK    1  A    between atoms: C7_7  and  C9_9 
REMARK    2  A    between atoms: C8_8  and  C9_9 
REMARK    3  A    between atoms: C9_9  and  O11_11 
ROOT
HETATM    1  C1  UNL     1     -34.073  16.758  -1.570  1.00 20.00     0.027 C 
HETATM    2  C2  UNL     1     -33.726  15.803  -2.708  1.00 20.00     0.011 C 
HETATM    3  C5  UNL     1     -35.260  17.635  -1.945  1.00 20.00     0.167 C 
HETATM    4  C6  UNL     1     -36.111  16.023  -3.460  1.00 20.00     0.174 C 
HETATM    5  C8  UNL     1     -34.972  15.041  -3.171  1.00 20.00     0.039 C 
HETATM    6  O10 UNL     1     -36.382  16.834  -2.316  1.00 20.00    -0.391 OA
ENDROOT
BRANCH   5   7
HETATM    7  C9  UNL     1     -34.667  14.177  -4.391  1.00 20.00     0.128 C 
BRANCH   7   8
HETATM    8  C7  UNL     1     -35.251  14.771  -5.662  1.00 20.00     0.015 A 
HETATM    9  C3  UNL     1     -34.343  15.328  -6.724  1.00 20.00     0.007 A 
HETATM   10  C4  UNL     1     -35.096  14.051  -6.973  1.00 20.00     0.007 A 
ENDBRANCH   7   8
BRANCH   7  11
HETATM   11  O11 UNL     1     -35.208  12.876  -4.187  1.00 20.00    -0.395 OA
HETATM   12  H27 UNL     1     -34.651  12.444  -3.521  1.00 20.00     0.210 HD
ENDBRANCH   7  11
ENDBRANCH   5   7
TORSDOF 3
ENDMDL
MODEL 6
REMARK VINA RESULT:      -4.3     10.880     12.121
REMARK  3 active torsions:
REMARK  status: ('A' for Active; 'I' for Inactive)
REMARK    1  A    between atoms: C7_7  and  C9_9 
REMARK    2  A    between atoms: C8_8  and  C9_9 
REMARK    3  A    between atoms: C9_9  and  O11_11 
ROOT
HETATM    1  C1  UNL     1     -35.791  14.730  -6.000  1.00 20.00     0.027 C 
HETATM    2  C2  UNL     1     -35.754  15.928  -5.056  1.00 20.00     0.011 C 
HETATM    3  C5  UNL     1     -34.762  13.686  -5.587  1.00 20.00     0.167 C 
HETATM    4  C6  UNL     1     -34.808  14.380  -3.321  1.00 20.00     0.174 C 
HETATM    5  C8  UNL     1     -35.849  15.468  -3.597  1.00 20.00     0.039 C 
HETATM    6  O10 UNL     1     -34.963  13.289  -4.231  1.00 20.00    -0.391 OA
ENDROOT
BRANCH   5   7
HETATM    7  C9  UNL     1     -35.685  16.643  -2.638  1.00 20.00     0.128 C 
BRANCH   7   8
HETATM    8  C7  UNL     1     -34.691  16.332  -1.532  1.00 20.00     0.015 A 
HETATM    9  C3  UNL     1     -33.633  17.335  -1.161  1.00 20.00     0.007 A 
HETATM   10  C4  UNL     1     -34.770  17.059  -0.218  1.00 20.00     0.007 A 
ENDBRANCH   7   8
BRANCH   7  11
HETATM   11  O11 UNL     1     -36.949  16.953  -2.063  1.00 20.00    -0.395 OA
HETATM   12  H27 UNL     1     -36.964  16.542  -1.184  1.00 20.00     0.210 HD
ENDBRANCH   7  11
ENDBRANCH   5   7
TORSDOF 3
ENDMDL
MODEL 7
REMARK VINA RESULT:      -4.3     11.314     12.222
REMARK  3 active torsions:
REMARK  status: ('A' for Active; 'I' for Inactive)
REMARK    1  A    between atoms: C7_7  and  C9_9 
REMARK    2  A    between atoms: C8_8  and  C9_9 
REMARK    3  A    between atoms: C9_9  and  O11_11 
ROOT
HETATM    1  C1  UNL     1     -34.740  17.292  -0.078  1.00 20.00     0.027 C 
HETATM    2  C2  UNL     1     -34.616  16.326  -1.253  1.00 20.00     0.011 C 
HETATM    3  C5  UNL     1     -33.755  18.445  -0.223  1.00 20.00     0.167 C 
HETATM    4  C6  UNL     1     -33.706  18.250  -2.585  1.00 20.00     0.174 C 
HETATM    5  C8  UNL     1     -34.696  17.082  -2.584  1.00 20.00     0.039 C 
HETATM    6  O10 UNL     1     -33.940  19.113  -1.471  1.00 20.00    -0.391 OA
ENDROOT
BRANCH   5   7
HETATM    7  C9  UNL     1     -34.447  16.147  -3.763  1.00 20.00     0.128 C 
BRANCH   7   8
HETATM    8  C7  UNL     1     -34.533  14.687  -3.352  1.00 20.00     0.015 A 
HETATM    9  C3  UNL     1     -35.365  13.722  -4.151  1.00 20.00     0.007 A 
HETATM   10  C4  UNL     1     -33.866  13.626  -4.184  1.00 20.00     0.007 A 
ENDBRANCH   7   8
BRANCH   7  11
HETATM   11  O11 UNL     1     -33.156  16.410  -4.302  1.00 20.00    -0.395 OA
HETATM   12  H27 UNL     1     -33.058  15.842  -5.082  1.00 20.00     0.210 HD
ENDBRANCH   7  11
ENDBRANCH   5   7
TORSDOF 3
ENDMDL
MODEL 8
REMARK VINA RESULT:      -4.3     10.833     12.184
REMARK  3 active torsions:
REMARK  status: ('A' for Active; 'I' for Inactive)
REMARK    1  A    between atoms: C7_7  and  C9_9 
REMARK    2  A    between atoms: C8_8  and  C9_9 
REMARK    3  A    between atoms: C9_9  and  O11_11 
ROOT
HETATM    1  C1  UNL     1     -34.203  18.088  -0.400  1.00 20.00     0.027 C 
HETATM    2  C2  UNL     1     -34.577  16.661  -0.786  1.00 20.00     0.011 C 
HETATM    3  C5  UNL     1     -33.255  18.693  -1.427  1.00 20.00     0.167 C 
HETATM    4  C6  UNL     1     -34.067  17.295  -3.161  1.00 20.00     0.174 C 
HETATM    5  C8  UNL     1     -35.073  16.605  -2.235  1.00 20.00     0.039 C 
HETATM    6  O10 UNL     1     -33.825  18.637  -2.735  1.00 20.00    -0.391 OA
ENDROOT
BRANCH   5   7
HETATM    7  C9  UNL     1     -35.330  15.167  -2.674  1.00 20.00     0.128 C 
BRANCH   7   8
HETATM    8  C7  UNL     1     -34.487  14.788  -3.881  1.00 20.00     0.015 A 
HETATM    9  C3  UNL     1     -33.453  13.702  -3.770  1.00 20.00     0.007 A 
HETATM   10  C4  UNL     1     -34.703  13.469  -4.570  1.00 20.00     0.007 A 
ENDBRANCH   7   8
BRANCH   7  11
HETATM   11  O11 UNL     1     -36.708  15.018  -2.997  1.00 20.00    -0.395 OA
HETATM   12  H27 UNL     1     -37.199  15.610  -2.405  1.00 20.00     0.210 HD
ENDBRANCH   7  11
ENDBRANCH   5   7
TORSDOF 3
ENDMDL
MODEL 9
REMARK VINA RESULT:      -4.1     10.992     12.267
REMARK  3 active torsions:
REMARK  status: ('A' for Active; 'I' for Inactive)
REMARK    1  A    between atoms: C7_7  and  C9_9 
REMARK    2  A    between atoms: C8_8  and  C9_9 
REMARK    3  A    between atoms: C9_9  and  O11_11 
ROOT
HETATM    1  C1  UNL     1     -34.525  14.110  -3.824  1.00 20.00     0.027 C 
HETATM    2  C2  UNL     1     -34.893  15.046  -2.677  1.00 20.00     0.011 C 
HETATM    3  C5  UNL     1     -34.274  14.898  -5.103  1.00 20.00     0.167 C 
HETATM    4  C6  UNL     1     -33.654  16.850  -3.908  1.00 20.00     0.174 C 
HETATM    5  C8  UNL     1     -33.865  16.175  -2.550  1.00 20.00     0.039 C 
HETATM    6  O10 UNL     1     -33.269  15.891  -4.895  1.00 20.00    -0.391 OA
ENDROOT
BRANCH   5   7
HETATM    7  C9  UNL     1     -34.287  17.188  -1.491  1.00 20.00     0.128 C 
BRANCH   7   8
HETATM    8  C7  UNL     1     -33.088  17.785  -0.772  1.00 20.00     0.015 A 
HETATM    9  C3  UNL     1     -32.820  19.263  -0.846  1.00 20.00     0.007 A 
HETATM   10  C4  UNL     1     -33.288  18.648   0.443  1.00 20.00     0.007 A 
ENDBRANCH   7   8
BRANCH   7  11
HETATM   11  O11 UNL     1     -35.133  16.546  -0.543  1.00 20.00    -0.395 OA
HETATM   12  H27 UNL     1     -36.046  16.735  -0.811  1.00 20.00     0.210 HD
ENDBRANCH   7  11
ENDBRANCH   5   7
TORSDOF 3
ENDMDL
