MODEL 1
REMARK VINA RESULT:      -5.0      0.000      0.000
REMARK  0 active torsions:
REMARK  status: ('A' for Active; 'I' for Inactive)
ROOT
HETATM    1  C1  UNL     1     -32.335   7.645   2.467  1.00 20.00     0.065 C 
HETATM    2  C2  UNL     1     -34.736   4.641   5.816  1.00 20.00     0.032 C 
HETATM    3  C3  UNL     1     -35.392   4.835   4.462  1.00 20.00     0.037 C 
HETATM    4  C4  UNL     1     -33.534   5.499   2.820  1.00 20.00     0.056 C 
HETATM    5  C5  UNL     1     -34.290   6.048   6.178  1.00 20.00     0.273 C 
HETATM    6  C6  UNL     1     -32.422   6.481   4.660  1.00 20.00     0.292 C 
HETATM    7  C7  UNL     1     -32.307   6.339   3.148  1.00 20.00     0.123 C 
HETATM    8  C8  UNL     1     -34.593   5.966   3.821  1.00 20.00     0.224 C 
HETATM    9  N9  UNL     1     -32.358   8.673   1.930  1.00 20.00    -0.197 NA
HETATM   10  N10 UNL     1     -33.862   6.655   4.911  1.00 20.00     0.094 N 
ENDROOT
TORSDOF 0
ENDMDL
MODEL 2
REMARK VINA RESULT:      -4.3     11.543     12.421
REMARK  0 active torsions:
REMARK  status: ('A' for Active; 'I' for Inactive)
ROOT
HETATM    1  C1  UNL     1     -34.466  13.797  -4.739  1.00 20.00     0.065 C 
HETATM    2  C2  UNL     1     -35.082  18.035  -1.971  1.00 20.00     0.032 C 
HETATM    3  C3  UNL     1     -34.251  16.922  -1.361  1.00 20.00     0.037 C 
HETATM    4  C4  UNL     1     -33.365  15.500  -3.307  1.00 20.00     0.056 C 
HETATM    5  C5  UNL     1     -36.264  17.287  -2.563  1.00 20.00     0.273 C 
HETATM    6  C6  UNL     1     -35.314  16.119  -4.491  1.00 20.00     0.292 C 
HETATM    7  C7  UNL     1     -34.093  15.217  -4.613  1.00 20.00     0.123 C 
HETATM    8  C8  UNL     1     -34.484  15.734  -2.290  1.00 20.00     0.224 C 
HETATM    9  N9  UNL     1     -34.759  12.680  -4.839  1.00 20.00    -0.197 NA
HETATM   10  N10 UNL     1     -35.707  16.029  -3.075  1.00 20.00     0.094 N 
ENDROOT
TORSDOF 0
ENDMDL
MODEL 3
REMARK VINA RESULT:      -4.3     11.090     13.111
REMARK  0 active torsions:
REMARK  status: ('A' for Active; 'I' for Inactive)
ROOT
HETATM    1  C1  UNL     1     -34.465  13.664  -3.929  1.00 20.00     0.065 C 
HETATM    2  C2  UNL     1     -33.832  18.721  -3.757  1.00 20.00     0.032 C 
HETATM    3  C3  UNL     1     -35.154  18.169  -3.257  1.00 20.00     0.037 C 
HETATM    4  C4  UNL     1     -34.735  15.729  -2.577  1.00 20.00     0.056 C 
HETATM    5  C5  UNL     1     -33.596  17.928  -5.030  1.00 20.00     0.273 C 
HETATM    6  C6  UNL     1     -33.047  15.682  -4.231  1.00 20.00     0.292 C 
HETATM    7  C7  UNL     1     -33.765  14.767  -3.247  1.00 20.00     0.123 C 
HETATM    8  C8  UNL     1     -35.131  16.705  -3.687  1.00 20.00     0.224 C 
HETATM    9  N9  UNL     1     -35.016  12.796  -4.465  1.00 20.00    -0.197 NA
HETATM   10  N10 UNL     1     -34.098  16.578  -4.743  1.00 20.00     0.094 N 
ENDROOT
TORSDOF 0
ENDMDL
MODEL 4
REMARK VINA RESULT:      -4.3     11.159     12.277
REMARK  0 active torsions:
REMARK  status: ('A' for Active; 'I' for Inactive)
ROOT
HETATM    1  C1  UNL     1     -37.761  14.726  -4.277  1.00 20.00     0.065 C 
HETATM    2  C2  UNL     1     -32.723  15.223  -3.669  1.00 20.00     0.032 C 
HETATM    3  C3  UNL     1     -33.278  13.813  -3.742  1.00 20.00     0.037 C 
HETATM    4  C4  UNL     1     -35.513  13.955  -4.997  1.00 20.00     0.056 C 
HETATM    5  C5  UNL     1     -33.713  15.927  -2.757  1.00 20.00     0.273 C 
HETATM    6  C6  UNL     1     -35.726  16.143  -4.129  1.00 20.00     0.292 C 
HETATM    7  C7  UNL     1     -36.502  15.111  -4.938  1.00 20.00     0.123 C 
HETATM    8  C8  UNL     1     -34.788  14.004  -3.650  1.00 20.00     0.224 C 
HETATM    9  N9  UNL     1     -38.752  14.422  -3.758  1.00 20.00    -0.197 NA
HETATM   10  N10 UNL     1     -35.023  15.361  -3.099  1.00 20.00     0.094 N 
ENDROOT
TORSDOF 0
ENDMDL
MODEL 5
REMARK VINA RESULT:      -4.2     11.585     12.607
REMARK  0 active torsions:
REMARK  status: ('A' for Active; 'I' for Inactive)
ROOT
HETATM    1  C1  UNL     1     -34.671  14.552  -5.671  1.00 20.00     0.065 C 
HETATM    2  C2  UNL     1     -33.638  17.299  -1.501  1.00 20.00     0.032 C 
HETATM    3  C3  UNL     1     -34.790  16.316  -1.418  1.00 20.00     0.037 C 
HETATM    4  C4  UNL     1     -34.373  14.522  -3.206  1.00 20.00     0.056 C 
HETATM    5  C5  UNL     1     -33.849  17.950  -2.857  1.00 20.00     0.273 C 
HETATM    6  C6  UNL     1     -33.259  16.193  -4.452  1.00 20.00     0.292 C 
HETATM    7  C7  UNL     1     -33.719  14.745  -4.563  1.00 20.00     0.123 C 
HETATM    8  C8  UNL     1     -35.005  15.873  -2.862  1.00 20.00     0.224 C 
HETATM    9  N9  UNL     1     -35.419  14.399  -6.543  1.00 20.00    -0.197 NA
HETATM   10  N10 UNL     1     -34.343  16.877  -3.728  1.00 20.00     0.094 N 
ENDROOT
TORSDOF 0
ENDMDL
MODEL 6
REMARK VINA RESULT:      -4.2     11.659     13.213
REMARK  0 active torsions:
REMARK  status: ('A' for Active; 'I' for Inactive)
ROOT
HETATM    1  C1  UNL     1     -34.110  15.990  -2.285  1.00 20.00     0.065 C 
HETATM    2  C2  UNL     1     -34.394  14.957  -7.271  1.00 20.00     0.032 C 
HETATM    3  C3  UNL     1     -34.492  16.413  -6.856  1.00 20.00     0.037 C 
HETATM    4  C4  UNL     1     -33.352  16.616  -4.565  1.00 20.00     0.056 C 
HETATM    5  C5  UNL     1     -35.283  14.258  -6.256  1.00 20.00     0.273 C 
HETATM    6  C6  UNL     1     -34.005  14.379  -4.174  1.00 20.00     0.292 C 
HETATM    7  C7  UNL     1     -33.348  15.559  -3.470  1.00 20.00     0.123 C 
HETATM    8  C8  UNL     1     -34.646  16.357  -5.339  1.00 20.00     0.224 C 
HETATM    9  N9  UNL     1     -34.709  16.329  -1.353  1.00 20.00    -0.197 NA
HETATM   10  N10 UNL     1     -35.070  14.979  -4.995  1.00 20.00     0.094 N 
ENDROOT
TORSDOF 0
ENDMDL
MODEL 7
REMARK VINA RESULT:      -4.1     11.358     12.275
REMARK  0 active torsions:
REMARK  status: ('A' for Active; 'I' for Inactive)
ROOT
HETATM    1  C1  UNL     1     -34.347  16.649  -1.500  1.00 20.00     0.065 C 
HETATM    2  C2  UNL     1     -34.914  14.062  -5.857  1.00 20.00     0.032 C 
HETATM    3  C3  UNL     1     -36.103  14.868  -5.368  1.00 20.00     0.037 C 
HETATM    4  C4  UNL     1     -35.177  16.711  -3.839  1.00 20.00     0.056 C 
HETATM    5  C5  UNL     1     -34.417  13.392  -4.587  1.00 20.00     0.273 C 
HETATM    6  C6  UNL     1     -33.418  15.223  -3.310  1.00 20.00     0.292 C 
HETATM    7  C7  UNL     1     -33.968  16.590  -2.922  1.00 20.00     0.123 C 
HETATM    8  C8  UNL     1     -35.713  15.282  -3.952  1.00 20.00     0.224 C 
HETATM    9  N9  UNL     1     -34.645  16.696  -0.380  1.00 20.00    -0.197 NA
HETATM   10  N10 UNL     1     -34.610  14.387  -3.525  1.00 20.00     0.094 N 
ENDROOT
TORSDOF 0
ENDMDL
MODEL 8
REMARK VINA RESULT:      -4.1      9.730     10.630
REMARK  0 active torsions:
REMARK  status: ('A' for Active; 'I' for Inactive)
ROOT
HETATM    1  C1  UNL     1     -42.620   8.091  -3.737  1.00 20.00     0.065 C 
HETATM    2  C2  UNL     1     -41.598   4.763  -0.011  1.00 20.00     0.032 C 
HETATM    3  C3  UNL     1     -40.834   6.074  -0.001  1.00 20.00     0.037 C 
HETATM    4  C4  UNL     1     -42.251   7.774  -1.302  1.00 20.00     0.056 C 
HETATM    5  C5  UNL     1     -41.558   4.362  -1.476  1.00 20.00     0.273 C 
HETATM    6  C6  UNL     1     -43.070   5.949  -2.561  1.00 20.00     0.292 C 
HETATM    7  C7  UNL     1     -43.135   7.470  -2.504  1.00 20.00     0.123 C 
HETATM    8  C8  UNL     1     -41.159   6.703  -1.352  1.00 20.00     0.224 C 
HETATM    9  N9  UNL     1     -42.216   8.580  -4.707  1.00 20.00    -0.197 NA
HETATM   10  N10 UNL     1     -41.675   5.620  -2.224  1.00 20.00     0.094 N 
ENDROOT
TORSDOF 0
ENDMDL
MODEL 9
REMARK VINA RESULT:      -4.1     11.386     12.888
REMARK  0 active torsions:
REMARK  status: ('A' for Active; 'I' for Inactive)
ROOT
HETATM    1  C1  UNL     1     -34.063  18.234  -3.658  1.00 20.00     0.065 C 
HETATM    2  C2  UNL     1     -34.658  13.259  -4.608  1.00 20.00     0.032 C 
HETATM    3  C3  UNL     1     -33.446  13.671  -3.793  1.00 20.00     0.037 C 
HETATM    4  C4  UNL     1     -34.002  15.936  -2.720  1.00 20.00     0.056 C 
HETATM    5  C5  UNL     1     -34.684  14.295  -5.719  1.00 20.00     0.273 C 
HETATM    6  C6  UNL     1     -35.386  16.349  -4.591  1.00 20.00     0.292 C 
HETATM    7  C7  UNL     1     -34.856  17.034  -3.338  1.00 20.00     0.123 C 
HETATM    8  C8  UNL     1     -33.414  15.191  -3.920  1.00 20.00     0.224 C 
HETATM    9  N9  UNL     1     -33.439  19.178  -3.910  1.00 20.00    -0.197 NA
HETATM   10  N10 UNL     1     -34.255  15.549  -5.087  1.00 20.00     0.094 N 
ENDROOT
TORSDOF 0
ENDMDL
