MODEL 1
REMARK VINA RESULT:      -4.1      0.000      0.000
REMARK  0 active torsions:
REMARK  status: ('A' for Active; 'I' for Inactive)
ROOT
HETATM    1  C1  UNL     1     -34.833  13.886  -4.231  1.00 20.00     0.065 C 
HETATM    2  C2  UNL     1     -34.728  17.104  -0.460  1.00 20.00     0.032 C 
HETATM    3  C3  UNL     1     -35.856  17.558  -1.368  1.00 20.00     0.037 C 
HETATM    4  C4  UNL     1     -35.900  15.962  -3.378  1.00 20.00     0.056 C 
HETATM    5  C5  UNL     1     -33.490  17.381  -1.294  1.00 20.00     0.273 C 
HETATM    6  C6  UNL     1     -33.584  15.676  -3.041  1.00 20.00     0.292 C 
HETATM    7  C7  UNL     1     -34.682  15.330  -4.035  1.00 20.00     0.123 C 
HETATM    8  C8  UNL     1     -35.346  17.253  -2.773  1.00 20.00     0.224 C 
HETATM    9  N9  UNL     1     -34.951  12.743  -4.386  1.00 20.00    -0.197 NA
HETATM   10  N10 UNL     1     -33.878  17.069  -2.676  1.00 20.00     0.094 N 
ENDROOT
TORSDOF 0
ENDMDL
MODEL 2
REMARK VINA RESULT:      -4.1      1.891      4.066
REMARK  0 active torsions:
REMARK  status: ('A' for Active; 'I' for Inactive)
ROOT
HETATM    1  C1  UNL     1     -34.330  16.478  -1.493  1.00 20.00     0.065 C 
HETATM    2  C2  UNL     1     -35.475  15.814  -6.271  1.00 20.00     0.032 C 
HETATM    3  C3  UNL     1     -35.105  14.444  -5.733  1.00 20.00     0.037 C 
HETATM    4  C4  UNL     1     -34.431  14.751  -3.276  1.00 20.00     0.056 C 
HETATM    5  C5  UNL     1     -34.149  16.556  -6.247  1.00 20.00     0.273 C 
HETATM    6  C6  UNL     1     -33.746  16.927  -3.867  1.00 20.00     0.292 C 
HETATM    7  C7  UNL     1     -33.693  15.951  -2.702  1.00 20.00     0.123 C 
HETATM    8  C8  UNL     1     -33.985  14.726  -4.738  1.00 20.00     0.224 C 
HETATM    9  N9  UNL     1     -34.834  16.896  -0.535  1.00 20.00    -0.197 NA
HETATM   10  N10 UNL     1     -33.465  16.083  -5.037  1.00 20.00     0.094 N 
ENDROOT
TORSDOF 0
ENDMDL
MODEL 3
REMARK VINA RESULT:      -4.1      1.487      4.172
REMARK  0 active torsions:
REMARK  status: ('A' for Active; 'I' for Inactive)
ROOT
HETATM    1  C1  UNL     1     -34.792  16.983  -0.869  1.00 20.00     0.065 C 
HETATM    2  C2  UNL     1     -35.266  13.352  -4.211  1.00 20.00     0.032 C 
HETATM    3  C3  UNL     1     -33.858  13.894  -4.377  1.00 20.00     0.037 C 
HETATM    4  C4  UNL     1     -33.592  15.831  -2.714  1.00 20.00     0.056 C 
HETATM    5  C5  UNL     1     -36.130  14.501  -4.701  1.00 20.00     0.273 C 
HETATM    6  C6  UNL     1     -35.913  16.173  -2.934  1.00 20.00     0.292 C 
HETATM    7  C7  UNL     1     -34.680  16.818  -2.320  1.00 20.00     0.123 C 
HETATM    8  C8  UNL     1     -34.004  15.390  -4.119  1.00 20.00     0.224 C 
HETATM    9  N9  UNL     1     -34.882  17.115   0.280  1.00 20.00    -0.197 NA
HETATM   10  N10 UNL     1     -35.444  15.719  -4.251  1.00 20.00     0.094 N 
ENDROOT
TORSDOF 0
ENDMDL
MODEL 4
REMARK VINA RESULT:      -4.1      1.323      2.271
REMARK  0 active torsions:
REMARK  status: ('A' for Active; 'I' for Inactive)
ROOT
HETATM    1  C1  UNL     1     -34.601  13.620  -4.071  1.00 20.00     0.065 C 
HETATM    2  C2  UNL     1     -35.318  18.526  -4.101  1.00 20.00     0.032 C 
HETATM    3  C3  UNL     1     -33.843  18.319  -3.811  1.00 20.00     0.037 C 
HETATM    4  C4  UNL     1     -33.438  15.787  -3.711  1.00 20.00     0.056 C 
HETATM    5  C5  UNL     1     -35.987  18.003  -2.842  1.00 20.00     0.273 C 
HETATM    6  C6  UNL     1     -35.674  15.586  -2.991  1.00 20.00     0.292 C 
HETATM    7  C7  UNL     1     -34.412  14.754  -3.163  1.00 20.00     0.123 C 
HETATM    8  C8  UNL     1     -33.808  17.061  -2.950  1.00 20.00     0.224 C 
HETATM    9  N9  UNL     1     -34.751  12.722  -4.789  1.00 20.00    -0.197 NA
HETATM   10  N10 UNL     1     -35.179  16.849  -2.427  1.00 20.00     0.094 N 
ENDROOT
TORSDOF 0
ENDMDL
MODEL 5
REMARK VINA RESULT:      -4.0      2.488      3.682
REMARK  0 active torsions:
REMARK  status: ('A' for Active; 'I' for Inactive)
ROOT
HETATM    1  C1  UNL     1     -37.621  14.659  -3.765  1.00 20.00     0.065 C 
HETATM    2  C2  UNL     1     -33.540  16.949  -5.402  1.00 20.00     0.032 C 
HETATM    3  C3  UNL     1     -33.984  16.029  -6.525  1.00 20.00     0.037 C 
HETATM    4  C4  UNL     1     -36.056  14.764  -5.692  1.00 20.00     0.056 C 
HETATM    5  C5  UNL     1     -33.084  15.976  -4.329  1.00 20.00     0.273 C 
HETATM    6  C6  UNL     1     -35.171  14.999  -3.520  1.00 20.00     0.292 C 
HETATM    7  C7  UNL     1     -36.294  14.293  -4.265  1.00 20.00     0.123 C 
HETATM    8  C8  UNL     1     -34.532  14.802  -5.804  1.00 20.00     0.224 C 
HETATM    9  N9  UNL     1     -38.672  14.949  -3.369  1.00 20.00    -0.197 NA
HETATM   10  N10 UNL     1     -34.015  14.843  -4.414  1.00 20.00     0.094 N 
ENDROOT
TORSDOF 0
ENDMDL
MODEL 6
REMARK VINA RESULT:      -4.0      1.780      4.185
REMARK  0 active torsions:
REMARK  status: ('A' for Active; 'I' for Inactive)
ROOT
HETATM    1  C1  UNL     1     -35.559  17.716  -2.362  1.00 20.00     0.065 C 
HETATM    2  C2  UNL     1     -34.605  13.376  -4.561  1.00 20.00     0.032 C 
HETATM    3  C3  UNL     1     -33.373  13.710  -3.742  1.00 20.00     0.037 C 
HETATM    4  C4  UNL     1     -33.792  15.991  -2.642  1.00 20.00     0.056 C 
HETATM    5  C5  UNL     1     -34.578  14.427  -5.657  1.00 20.00     0.273 C 
HETATM    6  C6  UNL     1     -35.171  16.487  -4.488  1.00 20.00     0.292 C 
HETATM    7  C7  UNL     1     -34.554  17.151  -3.265  1.00 20.00     0.123 C 
HETATM    8  C8  UNL     1     -33.255  15.227  -3.852  1.00 20.00     0.224 C 
HETATM    9  N9  UNL     1     -36.355  18.163  -1.647  1.00 20.00    -0.197 NA
HETATM   10  N10 UNL     1     -34.083  15.647  -5.009  1.00 20.00     0.094 N 
ENDROOT
TORSDOF 0
ENDMDL
MODEL 7
REMARK VINA RESULT:      -4.0      1.401      2.221
REMARK  0 active torsions:
REMARK  status: ('A' for Active; 'I' for Inactive)
ROOT
HETATM    1  C1  UNL     1     -34.363  13.675  -4.228  1.00 20.00     0.065 C 
HETATM    2  C2  UNL     1     -35.434  18.502  -3.864  1.00 20.00     0.032 C 
HETATM    3  C3  UNL     1     -34.314  18.396  -4.883  1.00 20.00     0.037 C 
HETATM    4  C4  UNL     1     -33.674  15.916  -5.049  1.00 20.00     0.056 C 
HETATM    5  C5  UNL     1     -34.747  18.117  -2.565  1.00 20.00     0.273 C 
HETATM    6  C6  UNL     1     -34.374  15.715  -2.808  1.00 20.00     0.292 C 
HETATM    7  C7  UNL     1     -33.670  14.922  -3.898  1.00 20.00     0.123 C 
HETATM    8  C8  UNL     1     -33.442  17.261  -4.358  1.00 20.00     0.224 C 
HETATM    9  N9  UNL     1     -34.912  12.687  -4.489  1.00 20.00    -0.197 NA
HETATM   10  N10 UNL     1     -33.795  17.060  -2.931  1.00 20.00     0.094 N 
ENDROOT
TORSDOF 0
ENDMDL
MODEL 8
REMARK VINA RESULT:      -3.9      1.484      4.159
REMARK  0 active torsions:
REMARK  status: ('A' for Active; 'I' for Inactive)
ROOT
HETATM    1  C1  UNL     1     -34.179  16.671  -1.811  1.00 20.00     0.065 C 
HETATM    2  C2  UNL     1     -35.096  14.551  -6.198  1.00 20.00     0.032 C 
HETATM    3  C3  UNL     1     -36.444  14.982  -5.650  1.00 20.00     0.037 C 
HETATM    4  C4  UNL     1     -36.026  16.020  -3.340  1.00 20.00     0.056 C 
HETATM    5  C5  UNL     1     -34.691  13.430  -5.257  1.00 20.00     0.273 C 
HETATM    6  C6  UNL     1     -34.155  14.595  -3.178  1.00 20.00     0.292 C 
HETATM    7  C7  UNL     1     -34.977  15.562  -2.338  1.00 20.00     0.123 C 
HETATM    8  C8  UNL     1     -36.323  14.755  -4.147  1.00 20.00     0.224 C 
HETATM    9  N9  UNL     1     -33.547  17.549  -1.393  1.00 20.00    -0.197 NA
HETATM   10  N10 UNL     1     -35.170  13.846  -3.933  1.00 20.00     0.094 N 
ENDROOT
TORSDOF 0
ENDMDL
MODEL 9
REMARK VINA RESULT:      -3.9      2.288      3.929
REMARK  0 active torsions:
REMARK  status: ('A' for Active; 'I' for Inactive)
ROOT
HETATM    1  C1  UNL     1     -33.764  18.125  -5.418  1.00 20.00     0.065 C 
HETATM    2  C2  UNL     1     -34.687  13.296  -4.782  1.00 20.00     0.032 C 
HETATM    3  C3  UNL     1     -35.850  14.033  -4.144  1.00 20.00     0.037 C 
HETATM    4  C4  UNL     1     -35.378  16.544  -4.383  1.00 20.00     0.056 C 
HETATM    5  C5  UNL     1     -33.527  13.635  -3.862  1.00 20.00     0.273 C 
HETATM    6  C6  UNL     1     -33.088  15.989  -4.342  1.00 20.00     0.292 C 
HETATM    7  C7  UNL     1     -34.007  17.200  -4.308  1.00 20.00     0.123 C 
HETATM    8  C8  UNL     1     -35.212  15.279  -3.540  1.00 20.00     0.224 C 
HETATM    9  N9  UNL     1     -33.571  18.858  -6.296  1.00 20.00    -0.197 NA
HETATM   10  N10 UNL     1     -33.754  15.027  -3.452  1.00 20.00     0.094 N 
ENDROOT
TORSDOF 0
ENDMDL
