MODEL 1
REMARK VINA RESULT:      -5.3      0.000      0.000
REMARK  0 active torsions:
REMARK  status: ('A' for Active; 'I' for Inactive)
ROOT
HETATM    1  C1  UNL     1     -34.056   5.131   2.846  1.00 20.00     0.015 A 
HETATM    2  C2  UNL     1     -33.212   6.030   2.326  1.00 20.00     0.083 A 
HETATM    3  C3  UNL     1     -34.311   5.160   4.244  1.00 20.00    -0.028 A 
HETATM    4  C4  UNL     1     -33.708   6.070   5.005  1.00 20.00     0.063 A 
HETATM    5  C5  UNL     1     -32.545   7.045   3.185  1.00 20.00     0.287 A 
HETATM    6  C6  UNL     1     -35.195   4.269   5.037  1.00 20.00     0.041 C 
HETATM    7  C7  UNL     1     -34.068   5.968   6.440  1.00 20.00     0.066 C 
HETATM    8  C8  UNL     1     -35.262   5.002   6.388  1.00 20.00     0.011 C 
HETATM    9  O9  UNL     1     -31.774   7.862   2.692  1.00 20.00    -0.260 OA
HETATM   10  O10 UNL     1     -32.819   7.033   4.535  1.00 20.00    -0.279 OA
ENDROOT
TORSDOF 0
ENDMDL
MODEL 2
REMARK VINA RESULT:      -4.7     11.746     12.780
REMARK  0 active torsions:
REMARK  status: ('A' for Active; 'I' for Inactive)
ROOT
HETATM    1  C1  UNL     1     -33.990  15.954  -5.292  1.00 20.00     0.015 A 
HETATM    2  C2  UNL     1     -34.259  14.671  -5.558  1.00 20.00     0.083 A 
HETATM    3  C3  UNL     1     -34.088  16.411  -3.949  1.00 20.00    -0.028 A 
HETATM    4  C4  UNL     1     -34.447  15.563  -2.989  1.00 20.00     0.063 A 
HETATM    5  C5  UNL     1     -34.658  13.730  -4.477  1.00 20.00     0.287 A 
HETATM    6  C6  UNL     1     -33.844  17.778  -3.422  1.00 20.00     0.041 C 
HETATM    7  C7  UNL     1     -34.513  16.188  -1.646  1.00 20.00     0.066 C 
HETATM    8  C8  UNL     1     -33.820  17.536  -1.902  1.00 20.00     0.011 C 
HETATM    9  O9  UNL     1     -34.902  12.556  -4.738  1.00 20.00    -0.260 OA
HETATM   10  O10 UNL     1     -34.744  14.218  -3.191  1.00 20.00    -0.279 OA
ENDROOT
TORSDOF 0
ENDMDL
MODEL 3
REMARK VINA RESULT:      -4.6     12.028     13.961
REMARK  0 active torsions:
REMARK  status: ('A' for Active; 'I' for Inactive)
ROOT
HETATM    1  C1  UNL     1     -33.646  15.659  -3.603  1.00 20.00     0.015 A 
HETATM    2  C2  UNL     1     -34.031  14.383  -3.483  1.00 20.00     0.083 A 
HETATM    3  C3  UNL     1     -33.809  16.309  -4.857  1.00 20.00    -0.028 A 
HETATM    4  C4  UNL     1     -34.333  15.641  -5.882  1.00 20.00     0.063 A 
HETATM    5  C5  UNL     1     -34.617  13.646  -4.635  1.00 20.00     0.287 A 
HETATM    6  C6  UNL     1     -33.455  17.704  -5.224  1.00 20.00     0.041 C 
HETATM    7  C7  UNL     1     -34.431  16.449  -7.121  1.00 20.00     0.066 C 
HETATM    8  C8  UNL     1     -34.148  17.862  -6.589  1.00 20.00     0.011 C 
HETATM    9  O9  UNL     1     -34.964  12.476  -4.508  1.00 20.00    -0.260 OA
HETATM   10  O10 UNL     1     -34.752  14.315  -5.831  1.00 20.00    -0.279 OA
ENDROOT
TORSDOF 0
ENDMDL
MODEL 4
REMARK VINA RESULT:      -4.6      1.046      2.025
REMARK  0 active torsions:
REMARK  status: ('A' for Active; 'I' for Inactive)
ROOT
HETATM    1  C1  UNL     1     -32.776   7.194   5.426  1.00 20.00     0.015 A 
HETATM    2  C2  UNL     1     -32.192   7.594   4.290  1.00 20.00     0.083 A 
HETATM    3  C3  UNL     1     -33.772   6.181   5.364  1.00 20.00    -0.028 A 
HETATM    4  C4  UNL     1     -34.104   5.655   4.188  1.00 20.00     0.063 A 
HETATM    5  C5  UNL     1     -32.570   6.999   2.981  1.00 20.00     0.287 A 
HETATM    6  C6  UNL     1     -34.552   5.587   6.479  1.00 20.00     0.041 C 
HETATM    7  C7  UNL     1     -35.160   4.618   4.284  1.00 20.00     0.066 C 
HETATM    8  C8  UNL     1     -35.209   4.373   5.800  1.00 20.00     0.011 C 
HETATM    9  O9  UNL     1     -32.024   7.377   1.949  1.00 20.00    -0.260 OA
HETATM   10  O10 UNL     1     -33.541   6.022   2.968  1.00 20.00    -0.279 OA
ENDROOT
TORSDOF 0
ENDMDL
MODEL 5
REMARK VINA RESULT:      -4.5     11.479     12.705
REMARK  0 active torsions:
REMARK  status: ('A' for Active; 'I' for Inactive)
ROOT
HETATM    1  C1  UNL     1     -36.217  16.597  -3.216  1.00 20.00     0.015 A 
HETATM    2  C2  UNL     1     -37.438  16.096  -3.437  1.00 20.00     0.083 A 
HETATM    3  C3  UNL     1     -35.092  15.735  -3.329  1.00 20.00    -0.028 A 
HETATM    4  C4  UNL     1     -35.272  14.455  -3.647  1.00 20.00     0.063 A 
HETATM    5  C5  UNL     1     -37.628  14.664  -3.793  1.00 20.00     0.287 A 
HETATM    6  C6  UNL     1     -33.657  16.062  -3.128  1.00 20.00     0.041 C 
HETATM    7  C7  UNL     1     -34.007  13.684  -3.719  1.00 20.00     0.066 C 
HETATM    8  C8  UNL     1     -32.961  14.809  -3.686  1.00 20.00     0.011 C 
HETATM    9  O9  UNL     1     -38.755  14.221  -3.991  1.00 20.00    -0.260 OA
HETATM   10  O10 UNL     1     -36.510  13.865  -3.887  1.00 20.00    -0.279 OA
ENDROOT
TORSDOF 0
ENDMDL
MODEL 6
REMARK VINA RESULT:      -4.5     12.078     14.005
REMARK  0 active torsions:
REMARK  status: ('A' for Active; 'I' for Inactive)
ROOT
HETATM    1  C1  UNL     1     -33.396  16.363  -4.666  1.00 20.00     0.015 A 
HETATM    2  C2  UNL     1     -33.245  15.358  -3.795  1.00 20.00     0.083 A 
HETATM    3  C3  UNL     1     -34.031  16.101  -5.911  1.00 20.00    -0.028 A 
HETATM    4  C4  UNL     1     -34.456  14.871  -6.187  1.00 20.00     0.063 A 
HETATM    5  C5  UNL     1     -33.726  13.987  -4.113  1.00 20.00     0.287 A 
HETATM    6  C6  UNL     1     -34.301  17.046  -7.023  1.00 20.00     0.041 C 
HETATM    7  C7  UNL     1     -35.089  14.753  -7.523  1.00 20.00     0.066 C 
HETATM    8  C8  UNL     1     -35.256  16.230  -7.913  1.00 20.00     0.011 C 
HETATM    9  O9  UNL     1     -33.580  13.078  -3.302  1.00 20.00    -0.260 OA
HETATM   10  O10 UNL     1     -34.332  13.779  -5.332  1.00 20.00    -0.279 OA
ENDROOT
TORSDOF 0
ENDMDL
MODEL 7
REMARK VINA RESULT:      -4.4      1.829      4.108
REMARK  0 active torsions:
REMARK  status: ('A' for Active; 'I' for Inactive)
ROOT
HETATM    1  C1  UNL     1     -33.594   6.683   6.084  1.00 20.00     0.015 A 
HETATM    2  C2  UNL     1     -34.445   5.702   6.410  1.00 20.00     0.083 A 
HETATM    3  C3  UNL     1     -33.084   6.735   4.758  1.00 20.00    -0.028 A 
HETATM    4  C4  UNL     1     -33.455   5.814   3.873  1.00 20.00     0.063 A 
HETATM    5  C5  UNL     1     -34.854   4.678   5.411  1.00 20.00     0.287 A 
HETATM    6  C6  UNL     1     -32.135   7.717   4.175  1.00 20.00     0.041 C 
HETATM    7  C7  UNL     1     -32.834   5.996   2.539  1.00 20.00     0.066 C 
HETATM    8  C8  UNL     1     -32.233   7.404   2.671  1.00 20.00     0.011 C 
HETATM    9  O9  UNL     1     -35.635   3.785   5.727  1.00 20.00    -0.260 OA
HETATM   10  O10 UNL     1     -34.332   4.766   4.140  1.00 20.00    -0.279 OA
ENDROOT
TORSDOF 0
ENDMDL
MODEL 8
REMARK VINA RESULT:      -4.4     10.000     10.808
REMARK  0 active torsions:
REMARK  status: ('A' for Active; 'I' for Inactive)
ROOT
HETATM    1  C1  UNL     1     -43.234   5.234  -3.028  1.00 20.00     0.015 A 
HETATM    2  C2  UNL     1     -42.993   3.964  -3.376  1.00 20.00     0.083 A 
HETATM    3  C3  UNL     1     -42.395   5.851  -2.060  1.00 20.00    -0.028 A 
HETATM    4  C4  UNL     1     -41.395   5.160  -1.519  1.00 20.00     0.063 A 
HETATM    5  C5  UNL     1     -41.870   3.202  -2.766  1.00 20.00     0.287 A 
HETATM    6  C6  UNL     1     -42.474   7.232  -1.520  1.00 20.00     0.041 C 
HETATM    7  C7  UNL     1     -40.617   5.935  -0.523  1.00 20.00     0.066 C 
HETATM    8  C8  UNL     1     -41.137   7.360  -0.769  1.00 20.00     0.011 C 
HETATM    9  O9  UNL     1     -41.663   2.038  -3.096  1.00 20.00    -0.260 OA
HETATM   10  O10 UNL     1     -41.086   3.839  -1.830  1.00 20.00    -0.279 OA
ENDROOT
TORSDOF 0
ENDMDL
MODEL 9
REMARK VINA RESULT:      -4.3     12.218     13.990
REMARK  0 active torsions:
REMARK  status: ('A' for Active; 'I' for Inactive)
ROOT
HETATM    1  C1  UNL     1     -34.722  15.254  -6.863  1.00 20.00     0.015 A 
HETATM    2  C2  UNL     1     -34.918  14.034  -6.348  1.00 20.00     0.083 A 
HETATM    3  C3  UNL     1     -34.360  16.317  -5.991  1.00 20.00    -0.028 A 
HETATM    4  C4  UNL     1     -34.227  16.083  -4.688  1.00 20.00     0.063 A 
HETATM    5  C5  UNL     1     -34.765  13.784  -4.889  1.00 20.00     0.287 A 
HETATM    6  C6  UNL     1     -34.099  17.738  -6.331  1.00 20.00     0.041 C 
HETATM    7  C7  UNL     1     -33.855  17.289  -3.909  1.00 20.00     0.066 C 
HETATM    8  C8  UNL     1     -33.475  18.271  -5.029  1.00 20.00     0.011 C 
HETATM    9  O9  UNL     1     -34.948  12.660  -4.433  1.00 20.00    -0.260 OA
HETATM   10  O10 UNL     1     -34.417  14.844  -4.082  1.00 20.00    -0.279 OA
ENDROOT
TORSDOF 0
ENDMDL
