MODEL 1
REMARK VINA RESULT:      -5.1      0.000      0.000
REMARK  0 active torsions:
REMARK  status: ('A' for Active; 'I' for Inactive)
ROOT
HETATM    1  C1  UNL     1     -33.512   5.936   2.943  1.00 20.00     0.053 A 
HETATM    2  C2  UNL     1     -32.193   7.481   4.216  1.00 20.00     0.159 A 
HETATM    3  C3  UNL     1     -34.118   5.577   4.130  1.00 20.00    -0.030 A 
HETATM    4  C4  UNL     1     -32.518   6.909   2.985  1.00 20.00     0.134 A 
HETATM    5  C5  UNL     1     -33.725   6.206   5.306  1.00 20.00     0.040 A 
HETATM    6  C6  UNL     1     -35.219   4.601   4.376  1.00 20.00     0.041 C 
HETATM    7  C7  UNL     1     -34.540   5.715   6.469  1.00 20.00     0.060 C 
HETATM    8  C8  UNL     1     -35.104   4.406   5.897  1.00 20.00     0.011 C 
HETATM    9  N9  UNL     1     -32.779   7.156   5.394  1.00 20.00    -0.262 NA
HETATM   10  F10 UNL     1     -31.891   7.296   1.868  1.00 20.00    -0.205 F 
ENDROOT
TORSDOF 0
ENDMDL
MODEL 2
REMARK VINA RESULT:      -4.7      1.264      2.016
REMARK  0 active torsions:
REMARK  status: ('A' for Active; 'I' for Inactive)
ROOT
HETATM    1  C1  UNL     1     -32.792   7.058   4.408  1.00 20.00     0.053 A 
HETATM    2  C2  UNL     1     -33.307   6.009   2.315  1.00 20.00     0.159 A 
HETATM    3  C3  UNL     1     -33.647   6.150   4.998  1.00 20.00    -0.030 A 
HETATM    4  C4  UNL     1     -32.620   6.992   3.028  1.00 20.00     0.134 A 
HETATM    5  C5  UNL     1     -34.285   5.206   4.201  1.00 20.00     0.040 A 
HETATM    6  C6  UNL     1     -33.992   5.969   6.439  1.00 20.00     0.041 C 
HETATM    7  C7  UNL     1     -35.123   4.282   5.039  1.00 20.00     0.060 C 
HETATM    8  C8  UNL     1     -35.257   5.102   6.330  1.00 20.00     0.011 C 
HETATM    9  N9  UNL     1     -34.143   5.098   2.870  1.00 20.00    -0.262 NA
HETATM   10  F10 UNL     1     -31.808   7.849   2.398  1.00 20.00    -0.205 F 
ENDROOT
TORSDOF 0
ENDMDL
MODEL 3
REMARK VINA RESULT:      -4.6      2.283      3.662
REMARK  0 active torsions:
REMARK  status: ('A' for Active; 'I' for Inactive)
ROOT
HETATM    1  C1  UNL     1     -34.837   4.712   4.598  1.00 20.00     0.053 A 
HETATM    2  C2  UNL     1     -34.340   5.863   6.641  1.00 20.00     0.159 A 
HETATM    3  C3  UNL     1     -33.934   5.553   3.981  1.00 20.00    -0.030 A 
HETATM    4  C4  UNL     1     -35.053   4.873   5.964  1.00 20.00     0.134 A 
HETATM    5  C5  UNL     1     -33.270   6.508   4.744  1.00 20.00     0.040 A 
HETATM    6  C6  UNL     1     -33.487   5.587   2.558  1.00 20.00     0.041 C 
HETATM    7  C7  UNL     1     -32.296   7.279   3.900  1.00 20.00     0.060 C 
HETATM    8  C8  UNL     1     -32.825   6.973   2.492  1.00 20.00     0.011 C 
HETATM    9  N9  UNL     1     -33.438   6.693   6.064  1.00 20.00    -0.262 NA
HETATM   10  F10 UNL     1     -35.921   4.091   6.616  1.00 20.00    -0.205 F 
ENDROOT
TORSDOF 0
ENDMDL
MODEL 4
REMARK VINA RESULT:      -4.6     12.056     12.979
REMARK  0 active torsions:
REMARK  status: ('A' for Active; 'I' for Inactive)
ROOT
HETATM    1  C1  UNL     1     -34.403  14.944  -3.163  1.00 20.00     0.053 A 
HETATM    2  C2  UNL     1     -33.561  16.092  -5.092  1.00 20.00     0.159 A 
HETATM    3  C3  UNL     1     -34.256  16.130  -2.474  1.00 20.00    -0.030 A 
HETATM    4  C4  UNL     1     -34.040  14.919  -4.507  1.00 20.00     0.134 A 
HETATM    5  C5  UNL     1     -33.770  17.246  -3.147  1.00 20.00     0.040 A 
HETATM    6  C6  UNL     1     -34.590  16.452  -1.056  1.00 20.00     0.041 C 
HETATM    7  C7  UNL     1     -33.740  18.442  -2.238  1.00 20.00     0.060 C 
HETATM    8  C8  UNL     1     -33.813  17.764  -0.862  1.00 20.00     0.011 C 
HETATM    9  N9  UNL     1     -33.418  17.273  -4.443  1.00 20.00    -0.262 NA
HETATM   10  F10 UNL     1     -34.155  13.797  -5.226  1.00 20.00    -0.205 F 
ENDROOT
TORSDOF 0
ENDMDL
MODEL 5
REMARK VINA RESULT:      -4.5      2.474      4.119
REMARK  0 active torsions:
REMARK  status: ('A' for Active; 'I' for Inactive)
ROOT
HETATM    1  C1  UNL     1     -34.034   5.957   6.004  1.00 20.00     0.053 A 
HETATM    2  C2  UNL     1     -35.243   4.632   4.413  1.00 20.00     0.159 A 
HETATM    3  C3  UNL     1     -33.358   6.506   4.934  1.00 20.00    -0.030 A 
HETATM    4  C4  UNL     1     -34.999   4.988   5.740  1.00 20.00     0.134 A 
HETATM    5  C5  UNL     1     -33.675   6.086   3.646  1.00 20.00     0.040 A 
HETATM    6  C6  UNL     1     -32.313   7.571   4.917  1.00 20.00     0.041 C 
HETATM    7  C7  UNL     1     -32.871   6.843   2.628  1.00 20.00     0.060 C 
HETATM    8  C8  UNL     1     -31.736   7.393   3.503  1.00 20.00     0.011 C 
HETATM    9  N9  UNL     1     -34.603   5.164   3.343  1.00 20.00    -0.262 NA
HETATM   10  F10 UNL     1     -35.683   4.415   6.736  1.00 20.00    -0.205 F 
ENDROOT
TORSDOF 0
ENDMDL
MODEL 6
REMARK VINA RESULT:      -4.5     10.142     11.163
REMARK  0 active torsions:
REMARK  status: ('A' for Active; 'I' for Inactive)
ROOT
HETATM    1  C1  UNL     1     -41.114   3.968  -1.756  1.00 20.00     0.053 A 
HETATM    2  C2  UNL     1     -42.844   3.948  -3.416  1.00 20.00     0.159 A 
HETATM    3  C3  UNL     1     -41.446   5.286  -1.521  1.00 20.00    -0.030 A 
HETATM    4  C4  UNL     1     -41.827   3.279  -2.733  1.00 20.00     0.134 A 
HETATM    5  C5  UNL     1     -42.478   5.864  -2.252  1.00 20.00     0.040 A 
HETATM    6  C6  UNL     1     -40.882   6.244  -0.525  1.00 20.00     0.041 C 
HETATM    7  C7  UNL     1     -42.716   7.279  -1.808  1.00 20.00     0.060 C 
HETATM    8  C8  UNL     1     -41.398   7.582  -1.080  1.00 20.00     0.011 C 
HETATM    9  N9  UNL     1     -43.198   5.238  -3.197  1.00 20.00    -0.262 NA
HETATM   10  F10 UNL     1     -41.548   2.000  -3.010  1.00 20.00    -0.205 F 
ENDROOT
TORSDOF 0
ENDMDL
MODEL 7
REMARK VINA RESULT:      -4.5     12.070     13.273
REMARK  0 active torsions:
REMARK  status: ('A' for Active; 'I' for Inactive)
ROOT
HETATM    1  C1  UNL     1     -34.497  14.959  -3.077  1.00 20.00     0.053 A 
HETATM    2  C2  UNL     1     -33.741  17.217  -3.356  1.00 20.00     0.159 A 
HETATM    3  C3  UNL     1     -34.499  14.860  -4.453  1.00 20.00    -0.030 A 
HETATM    4  C4  UNL     1     -34.113  16.171  -2.510  1.00 20.00     0.134 A 
HETATM    5  C5  UNL     1     -34.109  15.958  -5.211  1.00 20.00     0.040 A 
HETATM    6  C6  UNL     1     -34.827  13.690  -5.319  1.00 20.00     0.041 C 
HETATM    7  C7  UNL     1     -34.127  15.627  -6.676  1.00 20.00     0.060 C 
HETATM    8  C8  UNL     1     -35.021  14.378  -6.680  1.00 20.00     0.011 C 
HETATM    9  N9  UNL     1     -33.722  17.143  -4.709  1.00 20.00    -0.262 NA
HETATM   10  F10 UNL     1     -34.096  16.331  -1.182  1.00 20.00    -0.205 F 
ENDROOT
TORSDOF 0
ENDMDL
MODEL 8
REMARK VINA RESULT:      -4.3      9.623     10.645
REMARK  0 active torsions:
REMARK  status: ('A' for Active; 'I' for Inactive)
ROOT
HETATM    1  C1  UNL     1     -40.676   4.764  -0.876  1.00 20.00     0.053 A 
HETATM    2  C2  UNL     1     -41.942   6.794  -0.716  1.00 20.00     0.159 A 
HETATM    3  C3  UNL     1     -41.563   4.366  -1.855  1.00 20.00    -0.030 A 
HETATM    4  C4  UNL     1     -40.872   6.009  -0.284  1.00 20.00     0.134 A 
HETATM    5  C5  UNL     1     -42.598   5.221  -2.218  1.00 20.00     0.040 A 
HETATM    6  C6  UNL     1     -41.577   3.117  -2.671  1.00 20.00     0.041 C 
HETATM    7  C7  UNL     1     -43.411   4.627  -3.332  1.00 20.00     0.060 C 
HETATM    8  C8  UNL     1     -43.009   3.149  -3.231  1.00 20.00     0.011 C 
HETATM    9  N9  UNL     1     -42.820   6.433  -1.683  1.00 20.00    -0.262 NA
HETATM   10  F10 UNL     1     -40.049   6.449   0.675  1.00 20.00    -0.205 F 
ENDROOT
TORSDOF 0
ENDMDL
MODEL 9
REMARK VINA RESULT:      -4.3     11.497     12.312
REMARK  0 active torsions:
REMARK  status: ('A' for Active; 'I' for Inactive)
ROOT
HETATM    1  C1  UNL     1     -33.939  15.665  -3.119  1.00 20.00     0.053 A 
HETATM    2  C2  UNL     1     -33.975  13.504  -4.157  1.00 20.00     0.159 A 
HETATM    3  C3  UNL     1     -35.312  15.682  -3.258  1.00 20.00    -0.030 A 
HETATM    4  C4  UNL     1     -33.249  14.550  -3.586  1.00 20.00     0.134 A 
HETATM    5  C5  UNL     1     -35.945  14.589  -3.839  1.00 20.00     0.040 A 
HETATM    6  C6  UNL     1     -36.297  16.715  -2.825  1.00 20.00     0.041 C 
HETATM    7  C7  UNL     1     -37.435  14.780  -3.845  1.00 20.00     0.060 C 
HETATM    8  C8  UNL     1     -37.535  16.298  -3.635  1.00 20.00     0.011 C 
HETATM    9  N9  UNL     1     -35.323  13.489  -4.294  1.00 20.00    -0.262 NA
HETATM   10  F10 UNL     1     -31.916  14.478  -3.485  1.00 20.00    -0.205 F 
ENDROOT
TORSDOF 0
ENDMDL
