MODEL 1
REMARK VINA RESULT:      -4.5      0.000      0.000
REMARK  2 active torsions:
REMARK  status: ('A' for Active; 'I' for Inactive)
REMARK    1  A    between atoms: C1_1  and  N9_9 
REMARK    2  A    between atoms: C8_8  and  N9_9 
ROOT
HETATM    1  C2  UNL     1     -33.431  13.744  -3.780  1.00 20.00     0.005 C 
HETATM    2  C3  UNL     1     -34.654  13.780  -4.707  1.00 20.00     0.007 C 
HETATM    3  C4  UNL     1     -33.513  15.851  -4.885  1.00 20.00     0.011 C 
HETATM    4  C5  UNL     1     -34.232  15.805  -2.609  1.00 20.00     0.030 C 
HETATM    5  C6  UNL     1     -33.142  15.234  -3.536  1.00 20.00    -0.012 C 
HETATM    6  C7  UNL     1     -34.936  15.288  -4.855  1.00 20.00     0.009 C 
HETATM    7  C8  UNL     1     -35.459  15.894  -3.535  1.00 20.00     0.088 C 
ENDROOT
BRANCH   7   8
HETATM    8  N9  UNL     1     -36.619  15.237  -3.005  1.00 20.00    -0.363 N 
HETATM    9  H23 UNL     1     -36.544  14.789  -2.092  1.00 20.00     0.162 HD
BRANCH   8  10
HETATM   10  C1  UNL     1     -37.834  15.179  -3.662  1.00 20.00     0.348 C 
HETATM   11  O10 UNL     1     -38.548  14.198  -3.827  1.00 20.00    -0.284 OA
ENDBRANCH   8  10
ENDBRANCH   7   8
TORSDOF 2
ENDMDL
MODEL 2
REMARK VINA RESULT:      -4.4      1.963      3.190
REMARK  2 active torsions:
REMARK  status: ('A' for Active; 'I' for Inactive)
REMARK    1  A    between atoms: C1_1  and  N9_9 
REMARK    2  A    between atoms: C8_8  and  N9_9 
ROOT
HETATM    1  C2  UNL     1     -35.881  16.405  -3.416  1.00 20.00     0.005 C 
HETATM    2  C3  UNL     1     -35.041  15.756  -2.306  1.00 20.00     0.007 C 
HETATM    3  C4  UNL     1     -33.828  17.590  -3.194  1.00 20.00     0.011 C 
HETATM    4  C5  UNL     1     -34.009  16.092  -5.045  1.00 20.00     0.030 C 
HETATM    5  C6  UNL     1     -34.826  17.136  -4.261  1.00 20.00    -0.012 C 
HETATM    6  C7  UNL     1     -33.602  16.169  -2.671  1.00 20.00     0.009 C 
HETATM    7  C8  UNL     1     -33.122  15.460  -3.956  1.00 20.00     0.088 C 
ENDROOT
BRANCH   7   8
HETATM    8  N9  UNL     1     -33.215  14.029  -3.908  1.00 20.00    -0.363 N 
HETATM    9  H23 UNL     1     -32.593  13.528  -3.273  1.00 20.00     0.162 HD
BRANCH   8  10
HETATM   10  C1  UNL     1     -34.100  13.292  -4.671  1.00 20.00     0.348 C 
HETATM   11  O10 UNL     1     -35.113  12.717  -4.294  1.00 20.00    -0.284 OA
ENDBRANCH   8  10
ENDBRANCH   7   8
TORSDOF 2
ENDMDL
MODEL 3
REMARK VINA RESULT:      -4.1      0.780      2.134
REMARK  2 active torsions:
REMARK  status: ('A' for Active; 'I' for Inactive)
REMARK    1  A    between atoms: C1_1  and  N9_9 
REMARK    2  A    between atoms: C8_8  and  N9_9 
ROOT
HETATM    1  C2  UNL     1     -33.669  17.350  -4.166  1.00 20.00     0.005 C 
HETATM    2  C3  UNL     1     -33.990  17.039  -2.697  1.00 20.00     0.007 C 
HETATM    3  C4  UNL     1     -32.964  15.132  -3.664  1.00 20.00     0.011 C 
HETATM    4  C5  UNL     1     -34.996  15.359  -4.899  1.00 20.00     0.030 C 
HETATM    5  C6  UNL     1     -33.577  15.953  -4.799  1.00 20.00    -0.012 C 
HETATM    6  C7  UNL     1     -34.074  15.500  -2.677  1.00 20.00     0.009 C 
HETATM    7  C8  UNL     1     -35.319  14.995  -3.438  1.00 20.00     0.088 C 
ENDROOT
BRANCH   7   8
HETATM    8  N9  UNL     1     -36.557  15.552  -2.975  1.00 20.00    -0.363 N 
HETATM    9  H23 UNL     1     -36.529  16.205  -2.192  1.00 20.00     0.162 HD
BRANCH   8  10
HETATM   10  C1  UNL     1     -37.787  15.253  -3.531  1.00 20.00     0.348 C 
HETATM   11  O10 UNL     1     -38.231  14.147  -3.812  1.00 20.00    -0.284 OA
ENDBRANCH   8  10
ENDBRANCH   7   8
TORSDOF 2
ENDMDL
MODEL 4
REMARK VINA RESULT:      -4.1     11.414     12.651
REMARK  2 active torsions:
REMARK  status: ('A' for Active; 'I' for Inactive)
REMARK    1  A    between atoms: C1_1  and  N9_9 
REMARK    2  A    between atoms: C8_8  and  N9_9 
ROOT
HETATM    1  C2  UNL     1     -43.178   6.617  -0.253  1.00 20.00     0.005 C 
HETATM    2  C3  UNL     1     -42.544   5.465   0.538  1.00 20.00     0.007 C 
HETATM    3  C4  UNL     1     -40.808   6.752  -0.439  1.00 20.00     0.011 C 
HETATM    4  C5  UNL     1     -41.985   5.879  -2.325  1.00 20.00     0.030 C 
HETATM    5  C6  UNL     1     -42.077   6.988  -1.259  1.00 20.00    -0.012 C 
HETATM    6  C7  UNL     1     -41.167   5.296  -0.134  1.00 20.00     0.009 C 
HETATM    7  C8  UNL     1     -41.305   4.727  -1.563  1.00 20.00     0.088 C 
ENDROOT
BRANCH   7   8
HETATM    8  N9  UNL     1     -42.032   3.492  -1.636  1.00 20.00    -0.363 N 
HETATM    9  H23 UNL     1     -42.472   3.141  -0.786  1.00 20.00     0.162 HD
BRANCH   8  10
HETATM   10  C1  UNL     1     -42.169   2.751  -2.795  1.00 20.00     0.348 C 
HETATM   11  O10 UNL     1     -41.278   2.310  -3.509  1.00 20.00    -0.284 OA
ENDBRANCH   8  10
ENDBRANCH   7   8
TORSDOF 2
ENDMDL
MODEL 5
REMARK VINA RESULT:      -4.1      2.441      3.253
REMARK  2 active torsions:
REMARK  status: ('A' for Active; 'I' for Inactive)
REMARK    1  A    between atoms: C1_1  and  N9_9 
REMARK    2  A    between atoms: C8_8  and  N9_9 
ROOT
HETATM    1  C2  UNL     1     -35.207  14.013  -3.663  1.00 20.00     0.005 C 
HETATM    2  C3  UNL     1     -33.679  14.020  -3.806  1.00 20.00     0.007 C 
HETATM    3  C4  UNL     1     -34.304  15.763  -2.325  1.00 20.00     0.011 C 
HETATM    4  C5  UNL     1     -35.308  16.404  -4.395  1.00 20.00     0.030 C 
HETATM    5  C6  UNL     1     -35.515  15.448  -3.204  1.00 20.00    -0.012 C 
HETATM    6  C7  UNL     1     -33.301  15.470  -3.443  1.00 20.00     0.009 C 
HETATM    7  C8  UNL     1     -33.775  16.463  -4.525  1.00 20.00     0.088 C 
ENDROOT
BRANCH   7   8
HETATM    8  N9  UNL     1     -33.306  16.160  -5.847  1.00 20.00    -0.363 N 
HETATM    9  H23 UNL     1     -32.300  16.174  -6.015  1.00 20.00     0.162 HD
BRANCH   8  10
HETATM   10  C1  UNL     1     -34.140  15.849  -6.904  1.00 20.00     0.348 C 
HETATM   11  O10 UNL     1     -34.409  14.737  -7.341  1.00 20.00    -0.284 OA
ENDBRANCH   8  10
ENDBRANCH   7   8
TORSDOF 2
ENDMDL
MODEL 6
REMARK VINA RESULT:      -4.1      2.052      3.132
REMARK  2 active torsions:
REMARK  status: ('A' for Active; 'I' for Inactive)
REMARK    1  A    between atoms: C1_1  and  N9_9 
REMARK    2  A    between atoms: C8_8  and  N9_9 
ROOT
HETATM    1  C2  UNL     1     -34.151  17.847  -3.154  1.00 20.00     0.005 C 
HETATM    2  C3  UNL     1     -35.625  17.433  -3.269  1.00 20.00     0.007 C 
HETATM    3  C4  UNL     1     -34.719  16.452  -1.310  1.00 20.00     0.011 C 
HETATM    4  C5  UNL     1     -33.461  15.443  -3.071  1.00 20.00     0.030 C 
HETATM    5  C6  UNL     1     -33.556  16.748  -2.258  1.00 20.00    -0.012 C 
HETATM    6  C7  UNL     1     -35.686  16.129  -2.451  1.00 20.00     0.009 C 
HETATM    7  C8  UNL     1     -34.928  14.985  -3.158  1.00 20.00     0.088 C 
ENDROOT
BRANCH   7   8
HETATM    8  N9  UNL     1     -35.366  14.731  -4.500  1.00 20.00    -0.363 N 
HETATM    9  H23 UNL     1     -36.063  15.356  -4.906  1.00 20.00     0.162 HD
BRANCH   8  10
HETATM   10  C1  UNL     1     -34.895  13.689  -5.276  1.00 20.00     0.348 C 
HETATM   11  O10 UNL     1     -34.741  12.520  -4.943  1.00 20.00    -0.284 OA
ENDBRANCH   8  10
ENDBRANCH   7   8
TORSDOF 2
ENDMDL
MODEL 7
REMARK VINA RESULT:      -4.0     10.435     11.537
REMARK  2 active torsions:
REMARK  status: ('A' for Active; 'I' for Inactive)
REMARK    1  A    between atoms: C1_1  and  N9_9 
REMARK    2  A    between atoms: C8_8  and  N9_9 
ROOT
HETATM    1  C2  UNL     1     -42.348   5.487   0.478  1.00 20.00     0.005 C 
HETATM    2  C3  UNL     1     -43.100   5.111  -0.807  1.00 20.00     0.007 C 
HETATM    3  C4  UNL     1     -40.786   4.716  -1.146  1.00 20.00     0.011 C 
HETATM    4  C5  UNL     1     -40.905   7.077  -0.807  1.00 20.00     0.030 C 
HETATM    5  C6  UNL     1     -40.920   5.749  -0.026  1.00 20.00    -0.012 C 
HETATM    6  C7  UNL     1     -42.015   5.236  -1.895  1.00 20.00     0.009 C 
HETATM    7  C8  UNL     1     -41.614   6.709  -2.123  1.00 20.00     0.088 C 
ENDROOT
BRANCH   7   8
HETATM    8  N9  UNL     1     -42.714   7.576  -2.437  1.00 20.00    -0.363 N 
HETATM    9  H23 UNL     1     -43.357   7.828  -1.687  1.00 20.00     0.162 HD
BRANCH   8  10
HETATM   10  C1  UNL     1     -42.948   8.089  -3.699  1.00 20.00     0.348 C 
HETATM   11  O10 UNL     1     -43.416   7.504  -4.668  1.00 20.00    -0.284 OA
ENDBRANCH   8  10
ENDBRANCH   7   8
TORSDOF 2
ENDMDL
MODEL 8
REMARK VINA RESULT:      -4.0     11.476     12.565
REMARK  2 active torsions:
REMARK  status: ('A' for Active; 'I' for Inactive)
REMARK    1  A    between atoms: C1_1  and  N9_9 
REMARK    2  A    between atoms: C8_8  and  N9_9 
ROOT
HETATM    1  C2  UNL     1     -34.463   4.600   5.738  1.00 20.00     0.005 C 
HETATM    2  C3  UNL     1     -34.199   6.112   5.780  1.00 20.00     0.007 C 
HETATM    3  C4  UNL     1     -35.831   5.678   4.115  1.00 20.00     0.011 C 
HETATM    4  C5  UNL     1     -33.891   4.547   3.303  1.00 20.00     0.030 C 
HETATM    5  C6  UNL     1     -35.032   4.391   4.326  1.00 20.00    -0.012 C 
HETATM    6  C7  UNL     1     -34.621   6.579   4.373  1.00 20.00     0.009 C 
HETATM    7  C8  UNL     1     -33.643   6.067   3.294  1.00 20.00     0.088 C 
ENDROOT
BRANCH   7   8
HETATM    8  N9  UNL     1     -32.272   6.420   3.528  1.00 20.00    -0.363 N 
HETATM    9  H23 UNL     1     -31.695   5.777   4.071  1.00 20.00     0.162 HD
BRANCH   8  10
HETATM   10  C1  UNL     1     -31.689   7.582   3.058  1.00 20.00     0.348 C 
HETATM   11  O10 UNL     1     -32.070   8.287   2.132  1.00 20.00    -0.284 OA
ENDBRANCH   8  10
ENDBRANCH   7   8
TORSDOF 2
ENDMDL
MODEL 9
REMARK VINA RESULT:      -4.0     11.422     12.724
REMARK  2 active torsions:
REMARK  status: ('A' for Active; 'I' for Inactive)
REMARK    1  A    between atoms: C1_1  and  N9_9 
REMARK    2  A    between atoms: C8_8  and  N9_9 
ROOT
HETATM    1  C2  UNL     1     -41.184   7.014  -1.367  1.00 20.00     0.005 C 
HETATM    2  C3  UNL     1     -42.566   6.590  -1.882  1.00 20.00     0.007 C 
HETATM    3  C4  UNL     1     -42.312   5.790   0.336  1.00 20.00     0.011 C 
HETATM    4  C5  UNL     1     -40.612   4.629  -0.875  1.00 20.00     0.030 C 
HETATM    5  C6  UNL     1     -40.912   6.001  -0.243  1.00 20.00    -0.012 C 
HETATM    6  C7  UNL     1     -42.903   5.365  -1.010  1.00 20.00     0.009 C 
HETATM    7  C8  UNL     1     -41.998   4.163  -1.357  1.00 20.00     0.088 C 
ENDROOT
BRANCH   7   8
HETATM    8  N9  UNL     1     -42.022   3.790  -2.742  1.00 20.00    -0.363 N 
HETATM    9  H23 UNL     1     -42.129   4.528  -3.438  1.00 20.00     0.162 HD
BRANCH   8  10
HETATM   10  C1  UNL     1     -41.905   2.486  -3.186  1.00 20.00     0.348 C 
HETATM   11  O10 UNL     1     -41.026   2.015  -3.897  1.00 20.00    -0.284 OA
ENDBRANCH   8  10
ENDBRANCH   7   8
TORSDOF 2
ENDMDL
