MODEL 1
REMARK VINA RESULT:      -5.7      0.000      0.000
REMARK  0 active torsions:
REMARK  status: ('A' for Active; 'I' for Inactive)
ROOT
HETATM    1  C1  UNL     1     -33.021   5.737   2.715  1.00 20.00    -0.023 C 
HETATM    2  C2  UNL     1     -32.856   6.617   3.712  1.00 20.00    -0.083 C 
HETATM    3  C3  UNL     1     -34.805   4.587   5.111  1.00 20.00     0.132 C 
HETATM    4  C4  UNL     1     -34.405   5.171   2.682  1.00 20.00     0.040 C 
HETATM    5  C5  UNL     1     -33.974   5.107   6.254  1.00 20.00     0.079 C 
HETATM    6  C6  UNL     1     -34.023   6.609   6.018  1.00 20.00     0.017 C 
HETATM    7  C7  UNL     1     -34.123   6.797   4.505  1.00 20.00     0.025 C 
HETATM    8  C8  UNL     1     -34.994   5.623   4.016  1.00 20.00     0.067 C 
HETATM    9  C9  UNL     1     -31.626   7.399   4.001  1.00 20.00     0.043 C 
HETATM   10  O10 UNL     1     -35.248   3.446   5.060  1.00 20.00    -0.298 OA
ENDROOT
TORSDOF 0
ENDMDL
MODEL 2
REMARK VINA RESULT:      -5.2      1.858      3.734
REMARK  0 active torsions:
REMARK  status: ('A' for Active; 'I' for Inactive)
ROOT
HETATM    1  C1  UNL     1     -34.040   5.657   6.330  1.00 20.00    -0.023 C 
HETATM    2  C2  UNL     1     -34.605   5.021   5.295  1.00 20.00    -0.083 C 
HETATM    3  C3  UNL     1     -32.517   6.794   3.754  1.00 20.00     0.132 C 
HETATM    4  C4  UNL     1     -33.664   7.064   5.993  1.00 20.00     0.040 C 
HETATM    5  C5  UNL     1     -32.623   5.564   2.893  1.00 20.00     0.079 C 
HETATM    6  C6  UNL     1     -34.131   5.389   2.782  1.00 20.00     0.017 C 
HETATM    7  C7  UNL     1     -34.716   5.917   4.090  1.00 20.00     0.025 C 
HETATM    8  C8  UNL     1     -33.818   7.109   4.475  1.00 20.00     0.067 C 
HETATM    9  C9  UNL     1     -35.139   3.634   5.300  1.00 20.00     0.043 C 
HETATM   10  O10 UNL     1     -31.487   7.445   3.881  1.00 20.00    -0.298 OA
ENDROOT
TORSDOF 0
ENDMDL
MODEL 3
REMARK VINA RESULT:      -4.7     12.695     13.445
REMARK  0 active torsions:
REMARK  status: ('A' for Active; 'I' for Inactive)
ROOT
HETATM    1  C1  UNL     1     -34.196  15.635  -6.870  1.00 20.00    -0.023 C 
HETATM    2  C2  UNL     1     -34.332  16.437  -5.806  1.00 20.00    -0.083 C 
HETATM    3  C3  UNL     1     -35.008  13.671  -4.476  1.00 20.00     0.132 C 
HETATM    4  C4  UNL     1     -35.178  14.507  -6.858  1.00 20.00     0.040 C 
HETATM    5  C5  UNL     1     -34.375  14.446  -3.351  1.00 20.00     0.079 C 
HETATM    6  C6  UNL     1     -35.113  15.775  -3.433  1.00 20.00     0.017 C 
HETATM    7  C7  UNL     1     -35.451  15.980  -4.909  1.00 20.00     0.025 C 
HETATM    8  C8  UNL     1     -35.756  14.569  -5.447  1.00 20.00     0.067 C 
HETATM    9  C9  UNL     1     -33.555  17.674  -5.532  1.00 20.00     0.043 C 
HETATM   10  O10 UNL     1     -34.899  12.458  -4.607  1.00 20.00    -0.298 OA
ENDROOT
TORSDOF 0
ENDMDL
MODEL 4
REMARK VINA RESULT:      -4.6     12.368     13.163
REMARK  0 active torsions:
REMARK  status: ('A' for Active; 'I' for Inactive)
ROOT
HETATM    1  C1  UNL     1     -36.278  15.353  -3.121  1.00 20.00    -0.023 C 
HETATM    2  C2  UNL     1     -35.054  15.539  -2.612  1.00 20.00    -0.083 C 
HETATM    3  C3  UNL     1     -34.326  15.240  -5.655  1.00 20.00     0.132 C 
HETATM    4  C4  UNL     1     -36.274  14.403  -4.275  1.00 20.00     0.040 C 
HETATM    5  C5  UNL     1     -33.267  16.179  -5.140  1.00 20.00     0.079 C 
HETATM    6  C6  UNL     1     -32.802  15.465  -3.879  1.00 20.00     0.017 C 
HETATM    7  C7  UNL     1     -34.022  14.719  -3.341  1.00 20.00     0.025 C 
HETATM    8  C8  UNL     1     -34.789  14.255  -4.595  1.00 20.00     0.067 C 
HETATM    9  C9  UNL     1     -34.707  16.377  -1.434  1.00 20.00     0.043 C 
HETATM   10  O10 UNL     1     -34.782  15.291  -6.790  1.00 20.00    -0.298 OA
ENDROOT
TORSDOF 0
ENDMDL
MODEL 5
REMARK VINA RESULT:      -4.5     12.590     13.603
REMARK  0 active torsions:
REMARK  status: ('A' for Active; 'I' for Inactive)
ROOT
HETATM    1  C1  UNL     1     -35.322  16.334  -3.346  1.00 20.00    -0.023 C 
HETATM    2  C2  UNL     1     -35.032  16.783  -4.575  1.00 20.00    -0.083 C 
HETATM    3  C3  UNL     1     -34.663  13.696  -5.036  1.00 20.00     0.132 C 
HETATM    4  C4  UNL     1     -34.498  15.146  -2.969  1.00 20.00     0.040 C 
HETATM    5  C5  UNL     1     -35.134  14.190  -6.378  1.00 20.00     0.079 C 
HETATM    6  C6  UNL     1     -34.233  15.395  -6.603  1.00 20.00     0.017 C 
HETATM    7  C7  UNL     1     -33.941  15.969  -5.217  1.00 20.00     0.025 C 
HETATM    8  C8  UNL     1     -33.850  14.741  -4.290  1.00 20.00     0.067 C 
HETATM    9  C9  UNL     1     -35.626  17.972  -5.240  1.00 20.00     0.043 C 
HETATM   10  O10 UNL     1     -34.936  12.590  -4.587  1.00 20.00    -0.298 OA
ENDROOT
TORSDOF 0
ENDMDL
MODEL 6
REMARK VINA RESULT:      -4.5     12.456     13.400
REMARK  0 active torsions:
REMARK  status: ('A' for Active; 'I' for Inactive)
ROOT
HETATM    1  C1  UNL     1     -33.915  16.159  -6.146  1.00 20.00    -0.023 C 
HETATM    2  C2  UNL     1     -34.517  14.969  -6.262  1.00 20.00    -0.083 C 
HETATM    3  C3  UNL     1     -34.916  15.466  -3.185  1.00 20.00     0.132 C 
HETATM    4  C4  UNL     1     -33.198  16.306  -4.842  1.00 20.00     0.040 C 
HETATM    5  C5  UNL     1     -36.132  14.663  -3.563  1.00 20.00     0.079 C 
HETATM    6  C6  UNL     1     -35.518  13.526  -4.367  1.00 20.00     0.017 C 
HETATM    7  C7  UNL     1     -34.282  14.109  -5.049  1.00 20.00     0.025 C 
HETATM    8  C8  UNL     1     -33.705  15.115  -4.033  1.00 20.00     0.067 C 
HETATM    9  C9  UNL     1     -35.271  14.476  -7.445  1.00 20.00     0.043 C 
HETATM   10  O10 UNL     1     -34.918  16.328  -2.315  1.00 20.00    -0.298 OA
ENDROOT
TORSDOF 0
ENDMDL
MODEL 7
REMARK VINA RESULT:      -4.5     12.431     13.217
REMARK  0 active torsions:
REMARK  status: ('A' for Active; 'I' for Inactive)
ROOT
HETATM    1  C1  UNL     1     -35.318  16.040  -6.278  1.00 20.00    -0.023 C 
HETATM    2  C2  UNL     1     -34.568  16.603  -5.321  1.00 20.00    -0.083 C 
HETATM    3  C3  UNL     1     -34.768  13.678  -4.188  1.00 20.00     0.132 C 
HETATM    4  C4  UNL     1     -36.262  15.018  -5.730  1.00 20.00     0.040 C 
HETATM    5  C5  UNL     1     -33.419  14.141  -3.706  1.00 20.00     0.079 C 
HETATM    6  C6  UNL     1     -33.746  15.511  -3.129  1.00 20.00     0.017 C 
HETATM    7  C7  UNL     1     -34.906  16.055  -3.961  1.00 20.00     0.025 C 
HETATM    8  C8  UNL     1     -35.764  14.821  -4.301  1.00 20.00     0.067 C 
HETATM    9  C9  UNL     1     -33.569  17.687  -5.510  1.00 20.00     0.043 C 
HETATM   10  O10 UNL     1     -35.019  12.518  -4.487  1.00 20.00    -0.298 OA
ENDROOT
TORSDOF 0
ENDMDL
MODEL 8
REMARK VINA RESULT:      -4.4     11.964     12.831
REMARK  0 active torsions:
REMARK  status: ('A' for Active; 'I' for Inactive)
ROOT
HETATM    1  C1  UNL     1     -35.377  14.144  -5.749  1.00 20.00    -0.023 C 
HETATM    2  C2  UNL     1     -36.053  14.983  -4.953  1.00 20.00    -0.083 C 
HETATM    3  C3  UNL     1     -33.305  14.904  -3.430  1.00 20.00     0.132 C 
HETATM    4  C4  UNL     1     -34.445  13.262  -4.980  1.00 20.00     0.040 C 
HETATM    5  C5  UNL     1     -33.814  16.293  -3.148  1.00 20.00     0.079 C 
HETATM    6  C6  UNL     1     -35.250  16.021  -2.727  1.00 20.00     0.017 C 
HETATM    7  C7  UNL     1     -35.692  14.783  -3.506  1.00 20.00     0.025 C 
HETATM    8  C8  UNL     1     -34.433  13.899  -3.593  1.00 20.00     0.067 C 
HETATM    9  C9  UNL     1     -37.092  15.956  -5.381  1.00 20.00     0.043 C 
HETATM   10  O10 UNL     1     -32.118  14.629  -3.546  1.00 20.00    -0.298 OA
ENDROOT
TORSDOF 0
ENDMDL
MODEL 9
REMARK VINA RESULT:      -4.4     12.091     12.957
REMARK  0 active torsions:
REMARK  status: ('A' for Active; 'I' for Inactive)
ROOT
HETATM    1  C1  UNL     1     -33.669  16.023  -2.680  1.00 20.00    -0.023 C 
HETATM    2  C2  UNL     1     -34.755  16.683  -3.104  1.00 20.00    -0.083 C 
HETATM    3  C3  UNL     1     -35.322  13.862  -4.367  1.00 20.00     0.132 C 
HETATM    4  C4  UNL     1     -33.183  15.029  -3.685  1.00 20.00     0.040 C 
HETATM    5  C5  UNL     1     -36.702  14.397  -4.089  1.00 20.00     0.079 C 
HETATM    6  C6  UNL     1     -36.615  15.802  -4.666  1.00 20.00     0.017 C 
HETATM    7  C7  UNL     1     -35.164  16.245  -4.485  1.00 20.00     0.025 C 
HETATM    8  C8  UNL     1     -34.329  14.966  -4.691  1.00 20.00     0.067 C 
HETATM    9  C9  UNL     1     -35.462  17.771  -2.379  1.00 20.00     0.043 C 
HETATM   10  O10 UNL     1     -35.031  12.674  -4.304  1.00 20.00    -0.298 OA
ENDROOT
TORSDOF 0
ENDMDL
