MODEL 1
REMARK VINA RESULT:      -5.5      0.000      0.000
REMARK  1 active torsions:
REMARK  status: ('A' for Active; 'I' for Inactive)
REMARK    1  A    between atoms: C2_2  and  C9_9 
ROOT
HETATM    1  C1  UNL     1     -33.292   6.455   4.964  1.00 20.00     0.053 C 
HETATM    2  C2  UNL     1     -33.170   6.213   3.650  1.00 20.00    -0.072 C 
HETATM    3  C3  UNL     1     -34.390   5.836   5.749  1.00 20.00     0.149 C 
HETATM    4  C4  UNL     1     -34.152   5.369   2.878  1.00 20.00     0.035 C 
HETATM    5  C5  UNL     1     -35.306   4.855   5.054  1.00 20.00     0.083 C 
HETATM    6  C6  UNL     1     -35.493   5.228   3.593  1.00 20.00     0.012 C 
HETATM    7  O10 UNL     1     -34.494   6.078   6.949  1.00 20.00    -0.293 OA
ENDROOT
BRANCH   2   8
HETATM    8  C9  UNL     1     -32.027   6.777   2.857  1.00 20.00     0.014 A 
HETATM    9  C7  UNL     1     -32.202   8.121   2.239  1.00 20.00     0.010 A 
HETATM   10  C8  UNL     1     -31.296   7.946   3.420  1.00 20.00     0.010 A 
ENDBRANCH   2   8
TORSDOF 1
ENDMDL
MODEL 2
REMARK VINA RESULT:      -4.9     11.527     11.985
REMARK  1 active torsions:
REMARK  status: ('A' for Active; 'I' for Inactive)
REMARK    1  A    between atoms: C2_2  and  C9_9 
ROOT
HETATM    1  C1  UNL     1     -35.788  15.426  -2.874  1.00 20.00     0.053 C 
HETATM    2  C2  UNL     1     -34.467  15.630  -2.767  1.00 20.00    -0.072 C 
HETATM    3  C3  UNL     1     -36.321  14.371  -3.772  1.00 20.00     0.149 C 
HETATM    4  C4  UNL     1     -33.452  14.867  -3.579  1.00 20.00     0.035 C 
HETATM    5  C5  UNL     1     -35.339  13.472  -4.488  1.00 20.00     0.083 C 
HETATM    6  C6  UNL     1     -34.060  14.222  -4.822  1.00 20.00     0.012 C 
HETATM    7  O10 UNL     1     -37.535  14.206  -3.868  1.00 20.00    -0.293 OA
ENDROOT
BRANCH   2   8
HETATM    8  C9  UNL     1     -33.910  16.646  -1.812  1.00 20.00     0.014 A 
HETATM    9  C7  UNL     1     -34.677  17.907  -1.609  1.00 20.00     0.010 A 
HETATM   10  C8  UNL     1     -34.632  16.868  -0.529  1.00 20.00     0.010 A 
ENDBRANCH   2   8
TORSDOF 1
ENDMDL
MODEL 3
REMARK VINA RESULT:      -4.9     11.380     12.544
REMARK  1 active torsions:
REMARK  status: ('A' for Active; 'I' for Inactive)
REMARK    1  A    between atoms: C2_2  and  C9_9 
ROOT
HETATM    1  C1  UNL     1     -34.328  14.456  -3.442  1.00 20.00     0.053 C 
HETATM    2  C2  UNL     1     -34.060  15.770  -3.441  1.00 20.00    -0.072 C 
HETATM    3  C3  UNL     1     -34.636  13.747  -4.710  1.00 20.00     0.149 C 
HETATM    4  C4  UNL     1     -34.114  16.619  -4.686  1.00 20.00     0.035 C 
HETATM    5  C5  UNL     1     -34.547  14.520  -6.006  1.00 20.00     0.083 C 
HETATM    6  C6  UNL     1     -34.936  15.975  -5.799  1.00 20.00     0.012 C 
HETATM    7  O10 UNL     1     -34.892  12.546  -4.691  1.00 20.00    -0.293 OA
ENDROOT
BRANCH   2   8
HETATM    8  C9  UNL     1     -33.679  16.487  -2.178  1.00 20.00     0.014 A 
HETATM    9  C7  UNL     1     -34.390  17.756  -1.855  1.00 20.00     0.010 A 
HETATM   10  C8  UNL     1     -34.668  16.513  -1.065  1.00 20.00     0.010 A 
ENDBRANCH   2   8
TORSDOF 1
ENDMDL
MODEL 4
REMARK VINA RESULT:      -4.8      1.333      2.034
REMARK  1 active torsions:
REMARK  status: ('A' for Active; 'I' for Inactive)
REMARK    1  A    between atoms: C2_2  and  C9_9 
ROOT
HETATM    1  C1  UNL     1     -33.920   5.013   3.901  1.00 20.00     0.053 C 
HETATM    2  C2  UNL     1     -33.269   6.181   3.996  1.00 20.00    -0.072 C 
HETATM    3  C3  UNL     1     -34.810   4.551   4.998  1.00 20.00     0.149 C 
HETATM    4  C4  UNL     1     -33.337   7.061   5.218  1.00 20.00     0.035 C 
HETATM    5  C5  UNL     1     -35.036   5.471   6.175  1.00 20.00     0.083 C 
HETATM    6  C6  UNL     1     -33.797   6.304   6.461  1.00 20.00     0.012 C 
HETATM    7  O10 UNL     1     -35.389   3.472   4.900  1.00 20.00    -0.293 OA
ENDROOT
BRANCH   2   8
HETATM    8  C9  UNL     1     -32.420   6.694   2.868  1.00 20.00     0.014 A 
HETATM    9  C7  UNL     1     -32.587   8.117   2.460  1.00 20.00     0.010 A 
HETATM   10  C8  UNL     1     -31.353   7.680   3.190  1.00 20.00     0.010 A 
ENDBRANCH   2   8
TORSDOF 1
ENDMDL
MODEL 5
REMARK VINA RESULT:      -4.6     11.892     12.745
REMARK  1 active torsions:
REMARK  status: ('A' for Active; 'I' for Inactive)
REMARK    1  A    between atoms: C2_2  and  C9_9 
ROOT
HETATM    1  C1  UNL     1     -33.087  17.965  -0.860  1.00 20.00     0.053 C 
HETATM    2  C2  UNL     1     -34.268  17.362  -0.659  1.00 20.00    -0.072 C 
HETATM    3  C3  UNL     1     -32.417  18.703   0.241  1.00 20.00     0.149 C 
HETATM    4  C4  UNL     1     -35.017  17.441   0.647  1.00 20.00     0.035 C 
HETATM    5  C5  UNL     1     -33.050  18.677   1.614  1.00 20.00     0.083 C 
HETATM    6  C6  UNL     1     -34.565  18.614   1.512  1.00 20.00     0.012 C 
HETATM    7  O10 UNL     1     -31.342  19.261   0.036  1.00 20.00    -0.293 OA
ENDROOT
BRANCH   2   8
HETATM    8  C9  UNL     1     -34.925  16.555  -1.741  1.00 20.00     0.014 A 
HETATM    9  C7  UNL     1     -34.593  16.883  -3.156  1.00 20.00     0.010 A 
HETATM   10  C8  UNL     1     -34.074  15.623  -2.531  1.00 20.00     0.010 A 
ENDBRANCH   2   8
TORSDOF 1
ENDMDL
MODEL 6
REMARK VINA RESULT:      -4.5     11.745     12.893
REMARK  1 active torsions:
REMARK  status: ('A' for Active; 'I' for Inactive)
REMARK    1  A    between atoms: C2_2  and  C9_9 
ROOT
HETATM    1  C1  UNL     1     -33.872  16.128  -4.861  1.00 20.00     0.053 C 
HETATM    2  C2  UNL     1     -33.996  15.538  -3.663  1.00 20.00    -0.072 C 
HETATM    3  C3  UNL     1     -34.321  15.436  -6.096  1.00 20.00     0.149 C 
HETATM    4  C4  UNL     1     -34.525  14.137  -3.491  1.00 20.00     0.035 C 
HETATM    5  C5  UNL     1     -35.005  14.095  -5.961  1.00 20.00     0.083 C 
HETATM    6  C6  UNL     1     -34.450  13.319  -4.777  1.00 20.00     0.012 C 
HETATM    7  O10 UNL     1     -34.188  15.987  -7.186  1.00 20.00    -0.293 OA
ENDROOT
BRANCH   2   8
HETATM    8  C9  UNL     1     -33.610  16.251  -2.399  1.00 20.00     0.014 A 
HETATM    9  C7  UNL     1     -34.186  17.604  -2.158  1.00 20.00     0.010 A 
HETATM   10  C8  UNL     1     -34.654  16.430  -1.353  1.00 20.00     0.010 A 
ENDBRANCH   2   8
TORSDOF 1
ENDMDL
MODEL 7
REMARK VINA RESULT:      -4.5     11.541     13.561
REMARK  1 active torsions:
REMARK  status: ('A' for Active; 'I' for Inactive)
REMARK    1  A    between atoms: C2_2  and  C9_9 
ROOT
HETATM    1  C1  UNL     1     -34.745  14.350  -5.896  1.00 20.00     0.053 C 
HETATM    2  C2  UNL     1     -34.271  15.589  -6.094  1.00 20.00    -0.072 C 
HETATM    3  C3  UNL     1     -34.611  13.691  -4.571  1.00 20.00     0.149 C 
HETATM    4  C4  UNL     1     -33.528  16.361  -5.035  1.00 20.00     0.035 C 
HETATM    5  C5  UNL     1     -34.015  14.485  -3.431  1.00 20.00     0.083 C 
HETATM    6  C6  UNL     1     -32.967  15.460  -3.938  1.00 20.00     0.012 C 
HETATM    7  O10 UNL     1     -35.040  12.551  -4.410  1.00 20.00    -0.293 OA
ENDROOT
BRANCH   2   8
HETATM    8  C9  UNL     1     -34.460  16.294  -7.407  1.00 20.00     0.014 A 
HETATM    9  C7  UNL     1     -35.757  16.987  -7.646  1.00 20.00     0.010 A 
HETATM   10  C8  UNL     1     -34.511  17.782  -7.398  1.00 20.00     0.010 A 
ENDBRANCH   2   8
TORSDOF 1
ENDMDL
MODEL 8
REMARK VINA RESULT:      -4.4      1.705      3.867
REMARK  1 active torsions:
REMARK  status: ('A' for Active; 'I' for Inactive)
REMARK    1  A    between atoms: C2_2  and  C9_9 
ROOT
HETATM    1  C1  UNL     1     -33.112   6.651   4.767  1.00 20.00     0.053 C 
HETATM    2  C2  UNL     1     -34.038   5.843   4.230  1.00 20.00    -0.072 C 
HETATM    3  C3  UNL     1     -32.087   7.301   3.911  1.00 20.00     0.149 C 
HETATM    4  C4  UNL     1     -34.068   5.491   2.764  1.00 20.00     0.035 C 
HETATM    5  C5  UNL     1     -32.171   7.107   2.415  1.00 20.00     0.083 C 
HETATM    6  C6  UNL     1     -32.728   5.734   2.075  1.00 20.00     0.012 C 
HETATM    7  O10 UNL     1     -31.238   8.029   4.422  1.00 20.00    -0.293 OA
ENDROOT
BRANCH   2   8
HETATM    8  C9  UNL     1     -35.122   5.233   5.071  1.00 20.00     0.014 A 
HETATM    9  C7  UNL     1     -34.927   3.839   5.557  1.00 20.00     0.010 A 
HETATM   10  C8  UNL     1     -34.835   4.991   6.511  1.00 20.00     0.010 A 
ENDBRANCH   2   8
TORSDOF 1
ENDMDL
MODEL 9
REMARK VINA RESULT:      -4.4     11.011     12.451
REMARK  1 active torsions:
REMARK  status: ('A' for Active; 'I' for Inactive)
REMARK    1  A    between atoms: C2_2  and  C9_9 
ROOT
HETATM    1  C1  UNL     1     -35.644  14.607  -3.731  1.00 20.00     0.053 C 
HETATM    2  C2  UNL     1     -35.245  15.736  -3.126  1.00 20.00    -0.072 C 
HETATM    3  C3  UNL     1     -34.664  13.547  -4.079  1.00 20.00     0.149 C 
HETATM    4  C4  UNL     1     -33.799  16.034  -2.820  1.00 20.00     0.035 C 
HETATM    5  C5  UNL     1     -33.227  13.728  -3.650  1.00 20.00     0.083 C 
HETATM    6  C6  UNL     1     -32.837  15.197  -3.660  1.00 20.00     0.012 C 
HETATM    7  O10 UNL     1     -35.046  12.525  -4.644  1.00 20.00    -0.293 OA
ENDROOT
BRANCH   2   8
HETATM    8  C9  UNL     1     -36.232  16.787  -2.706  1.00 20.00     0.014 A 
HETATM    9  C7  UNL     1     -35.801  18.212  -2.766  1.00 20.00     0.010 A 
HETATM   10  C8  UNL     1     -36.790  17.679  -3.759  1.00 20.00     0.010 A 
ENDBRANCH   2   8
TORSDOF 1
ENDMDL
