MODEL 1
REMARK VINA RESULT:      -4.7      0.000      0.000
REMARK  2 active torsions:
REMARK  status: ('A' for Active; 'I' for Inactive)
REMARK    1  A    between atoms: C7_7  and  C8_8 
REMARK    2  A    between atoms: C9_9  and  O10_10 
ROOT
HETATM    1  C1  UNL     1     -36.274  14.236  -4.142  1.00 20.00     0.003 C 
HETATM    2  C2  UNL     1     -36.234  15.521  -3.318  1.00 20.00     0.005 C 
HETATM    3  C5  UNL     1     -35.039  14.098  -5.031  1.00 20.00     0.032 C 
HETATM    4  C6  UNL     1     -33.707  15.492  -3.393  1.00 20.00     0.036 C 
HETATM    5  C8  UNL     1     -34.945  15.625  -2.491  1.00 20.00    -0.008 C 
HETATM    6  C9  UNL     1     -33.741  14.215  -4.236  1.00 20.00     0.118 C 
ENDROOT
BRANCH   5   7
HETATM    7  C7  UNL     1     -34.907  16.942  -1.718  1.00 20.00    -0.010 A 
HETATM    8  C3  UNL     1     -34.752  16.937  -0.221  1.00 20.00     0.005 A 
HETATM    9  C4  UNL     1     -33.623  17.416  -1.093  1.00 20.00     0.005 A 
ENDBRANCH   5   7
BRANCH   6  10
HETATM   10  O10 UNL     1     -33.618  13.073  -3.389  1.00 20.00    -0.396 OA
HETATM   11  H26 UNL     1     -33.511  13.411  -2.487  1.00 20.00     0.210 HD
ENDBRANCH   6  10
TORSDOF 2
ENDMDL
MODEL 2
REMARK VINA RESULT:      -4.6      1.051      1.066
REMARK  2 active torsions:
REMARK  status: ('A' for Active; 'I' for Inactive)
REMARK    1  A    between atoms: C7_7  and  C8_8 
REMARK    2  A    between atoms: C9_9  and  O10_10 
ROOT
HETATM    1  C1  UNL     1     -36.152  14.910  -5.565  1.00 20.00     0.003 C 
HETATM    2  C2  UNL     1     -35.913  16.060  -4.589  1.00 20.00     0.005 C 
HETATM    3  C5  UNL     1     -34.869  14.128  -5.839  1.00 20.00     0.032 C 
HETATM    4  C6  UNL     1     -33.980  14.791  -3.566  1.00 20.00     0.036 C 
HETATM    5  C8  UNL     1     -35.275  15.571  -3.282  1.00 20.00    -0.008 C 
HETATM    6  C9  UNL     1     -34.203  13.643  -4.553  1.00 20.00     0.118 C 
ENDROOT
BRANCH   5   7
HETATM    7  C7  UNL     1     -34.998  16.747  -2.346  1.00 20.00    -0.010 A 
HETATM    8  C3  UNL     1     -34.812  16.513  -0.871  1.00 20.00     0.005 A 
HETATM    9  C4  UNL     1     -33.639  16.915  -1.723  1.00 20.00     0.005 A 
ENDBRANCH   5   7
BRANCH   6  10
HETATM   10  O10 UNL     1     -35.030  12.645  -3.957  1.00 20.00    -0.396 OA
HETATM   11  H26 UNL     1     -34.446  11.906  -3.728  1.00 20.00     0.210 HD
ENDBRANCH   6  10
TORSDOF 2
ENDMDL
MODEL 3
REMARK VINA RESULT:      -4.6      1.287      1.384
REMARK  2 active torsions:
REMARK  status: ('A' for Active; 'I' for Inactive)
REMARK    1  A    between atoms: C7_7  and  C8_8 
REMARK    2  A    between atoms: C9_9  and  O10_10 
ROOT
HETATM    1  C1  UNL     1     -34.770  14.142  -3.832  1.00 20.00     0.003 C 
HETATM    2  C2  UNL     1     -35.320  15.176  -2.851  1.00 20.00     0.005 C 
HETATM    3  C5  UNL     1     -34.113  14.806  -5.041  1.00 20.00     0.032 C 
HETATM    4  C6  UNL     1     -33.586  16.841  -3.633  1.00 20.00     0.036 C 
HETATM    5  C8  UNL     1     -34.238  16.172  -2.412  1.00 20.00    -0.008 C 
HETATM    6  C9  UNL     1     -33.043  15.817  -4.632  1.00 20.00     0.118 C 
ENDROOT
BRANCH   5   7
HETATM    7  C7  UNL     1     -34.826  17.225  -1.474  1.00 20.00    -0.010 A 
HETATM    8  C3  UNL     1     -34.754  17.034   0.017  1.00 20.00     0.005 A 
HETATM    9  C4  UNL     1     -33.918  18.094  -0.647  1.00 20.00     0.005 A 
ENDBRANCH   5   7
BRANCH   6  10
HETATM   10  O10 UNL     1     -31.945  15.113  -4.054  1.00 20.00    -0.396 OA
HETATM   11  H26 UNL     1     -32.309  14.583  -3.329  1.00 20.00     0.210 HD
ENDBRANCH   6  10
TORSDOF 2
ENDMDL
MODEL 4
REMARK VINA RESULT:      -4.4     11.772     12.172
REMARK  2 active torsions:
REMARK  status: ('A' for Active; 'I' for Inactive)
REMARK    1  A    between atoms: C7_7  and  C8_8 
REMARK    2  A    between atoms: C9_9  and  O10_10 
ROOT
HETATM    1  C1  UNL     1     -35.695   5.034   4.197  1.00 20.00     0.003 C 
HETATM    2  C2  UNL     1     -34.602   5.450   3.215  1.00 20.00     0.005 C 
HETATM    3  C5  UNL     1     -35.111   4.367   5.441  1.00 20.00     0.032 C 
HETATM    4  C6  UNL     1     -32.965   5.668   5.129  1.00 20.00     0.036 C 
HETATM    5  C8  UNL     1     -33.553   6.349   3.882  1.00 20.00    -0.008 C 
HETATM    6  C9  UNL     1     -34.051   5.234   6.116  1.00 20.00     0.118 C 
ENDROOT
BRANCH   5   7
HETATM    7  C7  UNL     1     -32.445   6.707   2.893  1.00 20.00    -0.010 A 
HETATM    8  C3  UNL     1     -32.368   8.093   2.311  1.00 20.00     0.005 A 
HETATM    9  C4  UNL     1     -31.334   7.636   3.304  1.00 20.00     0.005 A 
ENDBRANCH   5   7
BRANCH   6  10
HETATM   10  O10 UNL     1     -34.686   6.383   6.674  1.00 20.00    -0.396 OA
HETATM   11  H26 UNL     1     -34.978   6.926   5.926  1.00 20.00     0.210 HD
ENDBRANCH   6  10
TORSDOF 2
ENDMDL
MODEL 5
REMARK VINA RESULT:      -4.3     12.022     12.561
REMARK  2 active torsions:
REMARK  status: ('A' for Active; 'I' for Inactive)
REMARK    1  A    between atoms: C7_7  and  C8_8 
REMARK    2  A    between atoms: C9_9  and  O10_10 
ROOT
HETATM    1  C1  UNL     1     -34.109   5.476   6.667  1.00 20.00     0.003 C 
HETATM    2  C2  UNL     1     -33.607   6.542   5.695  1.00 20.00     0.005 C 
HETATM    3  C5  UNL     1     -35.457   4.906   6.229  1.00 20.00     0.032 C 
HETATM    4  C6  UNL     1     -34.903   5.447   3.821  1.00 20.00     0.036 C 
HETATM    5  C8  UNL     1     -33.541   6.013   4.256  1.00 20.00    -0.008 C 
HETATM    6  C9  UNL     1     -35.425   4.387   4.793  1.00 20.00     0.118 C 
ENDROOT
BRANCH   5   7
HETATM    7  C7  UNL     1     -33.086   7.113   3.299  1.00 20.00    -0.010 A 
HETATM    8  C3  UNL     1     -31.657   7.583   3.310  1.00 20.00     0.005 A 
HETATM    9  C4  UNL     1     -32.177   6.785   2.146  1.00 20.00     0.005 A 
ENDBRANCH   5   7
BRANCH   6  10
HETATM   10  O10 UNL     1     -34.590   3.231   4.743  1.00 20.00    -0.396 OA
HETATM   11  H26 UNL     1     -34.471   2.938   5.659  1.00 20.00     0.210 HD
ENDBRANCH   6  10
TORSDOF 2
ENDMDL
MODEL 6
REMARK VINA RESULT:      -4.2      1.773      2.326
REMARK  2 active torsions:
REMARK  status: ('A' for Active; 'I' for Inactive)
REMARK    1  A    between atoms: C7_7  and  C8_8 
REMARK    2  A    between atoms: C9_9  and  O10_10 
ROOT
HETATM    1  C1  UNL     1     -34.005  15.832  -5.975  1.00 20.00     0.003 C 
HETATM    2  C2  UNL     1     -33.397  16.208  -4.626  1.00 20.00     0.005 C 
HETATM    3  C5  UNL     1     -34.648  14.446  -5.937  1.00 20.00     0.032 C 
HETATM    4  C6  UNL     1     -35.064  14.710  -3.456  1.00 20.00     0.036 C 
HETATM    5  C8  UNL     1     -34.427  16.109  -3.493  1.00 20.00    -0.008 C 
HETATM    6  C9  UNL     1     -35.665  14.314  -4.806  1.00 20.00     0.118 C 
ENDROOT
BRANCH   5   7
HETATM    7  C7  UNL     1     -33.780  16.440  -2.149  1.00 20.00    -0.010 A 
HETATM    8  C3  UNL     1     -33.990  17.790  -1.519  1.00 20.00     0.005 A 
HETATM    9  C4  UNL     1     -34.628  16.571  -0.913  1.00 20.00     0.005 A 
ENDBRANCH   5   7
BRANCH   6  10
HETATM   10  O10 UNL     1     -36.787  15.147  -5.100  1.00 20.00    -0.396 OA
HETATM   11  H26 UNL     1     -36.432  15.952  -5.506  1.00 20.00     0.210 HD
ENDBRANCH   6  10
TORSDOF 2
ENDMDL
MODEL 7
REMARK VINA RESULT:      -4.1     10.700     12.136
REMARK  2 active torsions:
REMARK  status: ('A' for Active; 'I' for Inactive)
REMARK    1  A    between atoms: C7_7  and  C8_8 
REMARK    2  A    between atoms: C9_9  and  O10_10 
ROOT
HETATM    1  C1  UNL     1     -40.630   6.131  -0.047  1.00 20.00     0.003 C 
HETATM    2  C2  UNL     1     -41.313   7.262  -0.813  1.00 20.00     0.005 C 
HETATM    3  C5  UNL     1     -41.575   4.951   0.175  1.00 20.00     0.032 C 
HETATM    4  C6  UNL     1     -42.859   5.589  -1.909  1.00 20.00     0.036 C 
HETATM    5  C8  UNL     1     -41.904   6.772  -2.141  1.00 20.00    -0.008 C 
HETATM    6  C9  UNL     1     -42.192   4.453  -1.131  1.00 20.00     0.118 C 
ENDROOT
BRANCH   5   7
HETATM    7  C7  UNL     1     -42.625   7.910  -2.861  1.00 20.00    -0.010 A 
HETATM    8  C3  UNL     1     -42.125   8.400  -4.193  1.00 20.00     0.005 A 
HETATM    9  C4  UNL     1     -43.417   7.634  -4.110  1.00 20.00     0.005 A 
ENDBRANCH   5   7
BRANCH   6  10
HETATM   10  O10 UNL     1     -41.166   3.859  -1.925  1.00 20.00    -0.396 OA
HETATM   11  H26 UNL     1     -41.329   2.904  -1.914  1.00 20.00     0.210 HD
ENDBRANCH   6  10
TORSDOF 2
ENDMDL
MODEL 8
REMARK VINA RESULT:      -4.1     12.058     13.979
REMARK  2 active torsions:
REMARK  status: ('A' for Active; 'I' for Inactive)
REMARK    1  A    between atoms: C7_7  and  C8_8 
REMARK    2  A    between atoms: C9_9  and  O10_10 
ROOT
HETATM    1  C1  UNL     1     -43.250   5.361  -0.252  1.00 20.00     0.003 C 
HETATM    2  C2  UNL     1     -43.364   4.011  -0.957  1.00 20.00     0.005 C 
HETATM    3  C5  UNL     1     -41.831   5.613   0.256  1.00 20.00     0.032 C 
HETATM    4  C6  UNL     1     -40.914   4.123  -1.572  1.00 20.00     0.036 C 
HETATM    5  C8  UNL     1     -42.340   3.875  -2.092  1.00 20.00    -0.008 C 
HETATM    6  C9  UNL     1     -40.789   5.468  -0.851  1.00 20.00     0.118 C 
ENDROOT
BRANCH   5   7
HETATM    7  C7  UNL     1     -42.441   2.497  -2.744  1.00 20.00    -0.010 A 
HETATM    8  C3  UNL     1     -42.776   2.375  -4.206  1.00 20.00     0.005 A 
HETATM    9  C4  UNL     1     -41.390   2.044  -3.722  1.00 20.00     0.005 A 
ENDBRANCH   5   7
BRANCH   6  10
HETATM   10  O10 UNL     1     -40.958   6.534  -1.783  1.00 20.00    -0.396 OA
HETATM   11  H26 UNL     1     -41.788   6.975  -1.548  1.00 20.00     0.210 HD
ENDBRANCH   6  10
TORSDOF 2
ENDMDL
MODEL 9
REMARK VINA RESULT:      -4.0      2.327      4.412
REMARK  2 active torsions:
REMARK  status: ('A' for Active; 'I' for Inactive)
REMARK    1  A    between atoms: C7_7  and  C8_8 
REMARK    2  A    between atoms: C9_9  and  O10_10 
ROOT
HETATM    1  C1  UNL     1     -34.800  15.900  -2.018  1.00 20.00     0.003 C 
HETATM    2  C2  UNL     1     -34.611  14.942  -3.192  1.00 20.00     0.005 C 
HETATM    3  C5  UNL     1     -33.775  17.033  -2.046  1.00 20.00     0.032 C 
HETATM    4  C6  UNL     1     -33.604  16.813  -4.560  1.00 20.00     0.036 C 
HETATM    5  C8  UNL     1     -34.641  15.679  -4.537  1.00 20.00    -0.008 C 
HETATM    6  C9  UNL     1     -33.772  17.774  -3.381  1.00 20.00     0.118 C 
ENDROOT
BRANCH   5   7
HETATM    7  C7  UNL     1     -34.399  14.706  -5.689  1.00 20.00    -0.010 A 
HETATM    8  C3  UNL     1     -35.495  14.415  -6.678  1.00 20.00     0.005 A 
HETATM    9  C4  UNL     1     -34.293  15.216  -7.101  1.00 20.00     0.005 A 
ENDBRANCH   5   7
BRANCH   6  10
HETATM   10  O10 UNL     1     -35.000  18.489  -3.511  1.00 20.00    -0.396 OA
HETATM   11  H26 UNL     1     -35.339  18.619  -2.613  1.00 20.00     0.210 HD
ENDBRANCH   6  10
TORSDOF 2
ENDMDL
