MODEL 1
REMARK VINA RESULT:      -5.8      0.000      0.000
REMARK  2 active torsions:
REMARK  status: ('A' for Active; 'I' for Inactive)
REMARK    1  A    between atoms: C7_7  and  C8_8 
REMARK    2  A    between atoms: C9_9  and  O10_10 
ROOT
HETATM    1  C1  UNL     1     -34.136   6.598   6.453  1.00 20.00     0.003 C 
HETATM    2  C2  UNL     1     -33.040   6.863   5.423  1.00 20.00     0.005 C 
HETATM    3  C5  UNL     1     -34.696   5.187   6.326  1.00 20.00     0.032 C 
HETATM    4  C6  UNL     1     -34.084   5.160   3.877  1.00 20.00     0.036 C 
HETATM    5  C8  UNL     1     -33.523   6.582   3.993  1.00 20.00    -0.008 C 
HETATM    6  C9  UNL     1     -35.182   4.900   4.908  1.00 20.00     0.118 C 
ENDROOT
BRANCH   5   7
HETATM    7  C7  UNL     1     -32.392   6.800   2.990  1.00 20.00    -0.010 A 
HETATM    8  C3  UNL     1     -32.312   8.080   2.205  1.00 20.00     0.005 A 
HETATM    9  C4  UNL     1     -31.303   7.795   3.282  1.00 20.00     0.005 A 
ENDBRANCH   5   7
BRANCH   6  10
HETATM   10  O10 UNL     1     -35.594   3.538   4.836  1.00 20.00    -0.396 OA
HETATM   11  H26 UNL     1     -35.369   3.228   3.944  1.00 20.00     0.210 HD
ENDBRANCH   6  10
TORSDOF 2
ENDMDL
MODEL 2
REMARK VINA RESULT:      -5.5     11.578     12.713
REMARK  2 active torsions:
REMARK  status: ('A' for Active; 'I' for Inactive)
REMARK    1  A    between atoms: C7_7  and  C8_8 
REMARK    2  A    between atoms: C9_9  and  O10_10 
ROOT
HETATM    1  C1  UNL     1     -33.795  15.733  -5.751  1.00 20.00     0.003 C 
HETATM    2  C2  UNL     1     -34.202  16.712  -4.652  1.00 20.00     0.005 C 
HETATM    3  C5  UNL     1     -34.532  14.406  -5.621  1.00 20.00     0.032 C 
HETATM    4  C6  UNL     1     -34.763  14.773  -3.134  1.00 20.00     0.036 C 
HETATM    5  C8  UNL     1     -34.017  16.107  -3.254  1.00 20.00    -0.008 C 
HETATM    6  C9  UNL     1     -34.351  13.795  -4.234  1.00 20.00     0.118 C 
ENDROOT
BRANCH   5   7
HETATM    7  C7  UNL     1     -34.484  17.086  -2.178  1.00 20.00    -0.010 A 
HETATM    8  C3  UNL     1     -34.649  16.627  -0.757  1.00 20.00     0.005 A 
HETATM    9  C4  UNL     1     -33.528  17.559  -1.119  1.00 20.00     0.005 A 
ENDBRANCH   5   7
BRANCH   6  10
HETATM   10  O10 UNL     1     -35.146  12.617  -4.150  1.00 20.00    -0.396 OA
HETATM   11  H26 UNL     1     -34.553  11.869  -4.326  1.00 20.00     0.210 HD
ENDBRANCH   6  10
TORSDOF 2
ENDMDL
MODEL 3
REMARK VINA RESULT:      -4.9     11.551     12.332
REMARK  2 active torsions:
REMARK  status: ('A' for Active; 'I' for Inactive)
REMARK    1  A    between atoms: C7_7  and  C8_8 
REMARK    2  A    between atoms: C9_9  and  O10_10 
ROOT
HETATM    1  C1  UNL     1     -36.378  14.480  -4.401  1.00 20.00     0.003 C 
HETATM    2  C2  UNL     1     -36.364  15.346  -3.143  1.00 20.00     0.005 C 
HETATM    3  C5  UNL     1     -35.274  13.430  -4.371  1.00 20.00     0.032 C 
HETATM    4  C6  UNL     1     -33.887  14.925  -2.883  1.00 20.00     0.036 C 
HETATM    5  C8  UNL     1     -34.990  15.989  -2.912  1.00 20.00    -0.008 C 
HETATM    6  C9  UNL     1     -33.903  14.061  -4.144  1.00 20.00     0.118 C 
ENDROOT
BRANCH   5   7
HETATM    7  C7  UNL     1     -34.988  16.804  -1.619  1.00 20.00    -0.010 A 
HETATM    8  C3  UNL     1     -33.708  17.393  -1.097  1.00 20.00     0.005 A 
HETATM    9  C4  UNL     1     -34.772  18.292  -1.663  1.00 20.00     0.005 A 
ENDBRANCH   5   7
BRANCH   6  10
HETATM   10  O10 UNL     1     -32.938  13.021  -4.024  1.00 20.00    -0.396 OA
HETATM   11  H26 UNL     1     -32.655  13.011  -3.096  1.00 20.00     0.210 HD
ENDBRANCH   6  10
TORSDOF 2
ENDMDL
MODEL 4
REMARK VINA RESULT:      -4.9     11.934     13.048
REMARK  2 active torsions:
REMARK  status: ('A' for Active; 'I' for Inactive)
REMARK    1  A    between atoms: C7_7  and  C8_8 
REMARK    2  A    between atoms: C9_9  and  O10_10 
ROOT
HETATM    1  C1  UNL     1     -34.838  13.277  -4.566  1.00 20.00     0.003 C 
HETATM    2  C2  UNL     1     -34.089  14.083  -3.507  1.00 20.00     0.005 C 
HETATM    3  C5  UNL     1     -35.059  14.089  -5.837  1.00 20.00     0.032 C 
HETATM    4  C6  UNL     1     -35.008  16.222  -4.488  1.00 20.00     0.036 C 
HETATM    5  C8  UNL     1     -34.792  15.413  -3.203  1.00 20.00    -0.008 C 
HETATM    6  C9  UNL     1     -35.760  15.413  -5.544  1.00 20.00     0.118 C 
ENDROOT
BRANCH   5   7
HETATM    7  C7  UNL     1     -33.993  16.224  -2.184  1.00 20.00    -0.010 A 
HETATM    8  C3  UNL     1     -34.333  17.664  -1.926  1.00 20.00     0.005 A 
HETATM    9  C4  UNL     1     -34.620  16.627  -0.878  1.00 20.00     0.005 A 
ENDBRANCH   5   7
BRANCH   6  10
HETATM   10  O10 UNL     1     -35.840  16.161  -6.753  1.00 20.00    -0.396 OA
HETATM   11  H26 UNL     1     -36.780  16.356  -6.897  1.00 20.00     0.210 HD
ENDBRANCH   6  10
TORSDOF 2
ENDMDL
MODEL 5
REMARK VINA RESULT:      -4.8      9.971     11.165
REMARK  2 active torsions:
REMARK  status: ('A' for Active; 'I' for Inactive)
REMARK    1  A    between atoms: C7_7  and  C8_8 
REMARK    2  A    between atoms: C9_9  and  O10_10 
ROOT
HETATM    1  C1  UNL     1     -40.761   5.998  -0.175  1.00 20.00     0.003 C 
HETATM    2  C2  UNL     1     -41.516   4.711  -0.504  1.00 20.00     0.005 C 
HETATM    3  C5  UNL     1     -41.418   7.213  -0.817  1.00 20.00     0.032 C 
HETATM    4  C6  UNL     1     -42.343   5.748  -2.653  1.00 20.00     0.036 C 
HETATM    5  C8  UNL     1     -41.681   4.520  -2.017  1.00 20.00    -0.008 C 
HETATM    6  C9  UNL     1     -41.583   7.033  -2.324  1.00 20.00     0.118 C 
ENDROOT
BRANCH   5   7
HETATM    7  C7  UNL     1     -42.486   3.257  -2.316  1.00 20.00    -0.010 A 
HETATM    8  C3  UNL     1     -43.099   3.052  -3.673  1.00 20.00     0.005 A 
HETATM    9  C4  UNL     1     -41.934   2.208  -3.240  1.00 20.00     0.005 A 
ENDBRANCH   5   7
BRANCH   6  10
HETATM   10  O10 UNL     1     -42.293   8.155  -2.839  1.00 20.00    -0.396 OA
HETATM   11  H26 UNL     1     -42.473   7.963  -3.774  1.00 20.00     0.210 HD
ENDBRANCH   6  10
TORSDOF 2
ENDMDL
MODEL 6
REMARK VINA RESULT:      -4.8     11.375     13.571
REMARK  2 active torsions:
REMARK  status: ('A' for Active; 'I' for Inactive)
REMARK    1  A    between atoms: C7_7  and  C8_8 
REMARK    2  A    between atoms: C9_9  and  O10_10 
ROOT
HETATM    1  C1  UNL     1     -33.291  15.641  -3.437  1.00 20.00     0.003 C 
HETATM    2  C2  UNL     1     -33.285  16.207  -4.855  1.00 20.00     0.005 C 
HETATM    3  C5  UNL     1     -33.670  14.165  -3.424  1.00 20.00     0.032 C 
HETATM    4  C6  UNL     1     -34.994  14.482  -5.550  1.00 20.00     0.036 C 
HETATM    5  C8  UNL     1     -34.623  15.969  -5.568  1.00 20.00    -0.008 C 
HETATM    6  C9  UNL     1     -35.002  13.919  -4.128  1.00 20.00     0.118 C 
ENDROOT
BRANCH   5   7
HETATM    7  C7  UNL     1     -34.571  16.495  -7.002  1.00 20.00    -0.010 A 
HETATM    8  C3  UNL     1     -35.748  16.316  -7.918  1.00 20.00     0.005 A 
HETATM    9  C4  UNL     1     -35.399  17.684  -7.402  1.00 20.00     0.005 A 
ENDBRANCH   5   7
BRANCH   6  10
HETATM   10  O10 UNL     1     -35.241  12.516  -4.170  1.00 20.00    -0.396 OA
HETATM   11  H26 UNL     1     -35.641  12.329  -5.035  1.00 20.00     0.210 HD
ENDBRANCH   6  10
TORSDOF 2
ENDMDL
MODEL 7
REMARK VINA RESULT:      -4.8     12.236     13.109
REMARK  2 active torsions:
REMARK  status: ('A' for Active; 'I' for Inactive)
REMARK    1  A    between atoms: C7_7  and  C8_8 
REMARK    2  A    between atoms: C9_9  and  O10_10 
ROOT
HETATM    1  C1  UNL     1     -36.008  15.271  -4.343  1.00 20.00     0.003 C 
HETATM    2  C2  UNL     1     -35.859  15.379  -2.827  1.00 20.00     0.005 C 
HETATM    3  C5  UNL     1     -34.655  15.127  -5.030  1.00 20.00     0.032 C 
HETATM    4  C6  UNL     1     -33.551  16.360  -3.124  1.00 20.00     0.036 C 
HETATM    5  C8  UNL     1     -34.908  16.515  -2.428  1.00 20.00    -0.008 C 
HETATM    6  C9  UNL     1     -33.704  16.255  -4.642  1.00 20.00     0.118 C 
ENDROOT
BRANCH   5   7
HETATM    7  C7  UNL     1     -34.734  16.565  -0.911  1.00 20.00    -0.010 A 
HETATM    8  C3  UNL     1     -33.863  17.615  -0.282  1.00 20.00     0.005 A 
HETATM    9  C4  UNL     1     -35.355  17.679  -0.114  1.00 20.00     0.005 A 
ENDBRANCH   5   7
BRANCH   6  10
HETATM   10  O10 UNL     1     -32.434  16.002  -5.234  1.00 20.00    -0.396 OA
HETATM   11  H26 UNL     1     -32.604  15.742  -6.154  1.00 20.00     0.210 HD
ENDBRANCH   6  10
TORSDOF 2
ENDMDL
MODEL 8
REMARK VINA RESULT:      -4.6     11.826     12.997
REMARK  2 active torsions:
REMARK  status: ('A' for Active; 'I' for Inactive)
REMARK    1  A    between atoms: C7_7  and  C8_8 
REMARK    2  A    between atoms: C9_9  and  O10_10 
ROOT
HETATM    1  C1  UNL     1     -33.749  18.142  -3.602  1.00 20.00     0.003 C 
HETATM    2  C2  UNL     1     -33.450  16.878  -4.405  1.00 20.00     0.005 C 
HETATM    3  C5  UNL     1     -33.866  17.846  -2.112  1.00 20.00     0.032 C 
HETATM    4  C6  UNL     1     -34.593  15.485  -2.635  1.00 20.00     0.036 C 
HETATM    5  C8  UNL     1     -34.484  15.776  -4.136  1.00 20.00    -0.008 C 
HETATM    6  C9  UNL     1     -34.895  16.753  -1.835  1.00 20.00     0.118 C 
ENDROOT
BRANCH   5   7
HETATM    7  C7  UNL     1     -34.130  14.506  -4.908  1.00 20.00    -0.010 A 
HETATM    8  C3  UNL     1     -34.902  13.238  -4.675  1.00 20.00     0.005 A 
HETATM    9  C4  UNL     1     -35.055  13.983  -5.971  1.00 20.00     0.005 A 
ENDBRANCH   5   7
BRANCH   6  10
HETATM   10  O10 UNL     1     -34.878  16.456  -0.443  1.00 20.00    -0.396 OA
HETATM   11  H26 UNL     1     -34.281  15.699  -0.328  1.00 20.00     0.210 HD
ENDBRANCH   6  10
TORSDOF 2
ENDMDL
MODEL 9
REMARK VINA RESULT:      -4.6     11.942     13.360
REMARK  2 active torsions:
REMARK  status: ('A' for Active; 'I' for Inactive)
REMARK    1  A    between atoms: C7_7  and  C8_8 
REMARK    2  A    between atoms: C9_9  and  O10_10 
ROOT
HETATM    1  C1  UNL     1     -33.436  17.639  -4.924  1.00 20.00     0.003 C 
HETATM    2  C2  UNL     1     -34.314  18.073  -3.753  1.00 20.00     0.005 C 
HETATM    3  C5  UNL     1     -33.427  16.124  -5.087  1.00 20.00     0.032 C 
HETATM    4  C6  UNL     1     -33.901  15.852  -2.622  1.00 20.00     0.036 C 
HETATM    5  C8  UNL     1     -33.906  17.375  -2.448  1.00 20.00    -0.008 C 
HETATM    6  C9  UNL     1     -33.020  15.421  -3.795  1.00 20.00     0.118 C 
ENDROOT
BRANCH   5   7
HETATM    7  C7  UNL     1     -34.835  17.785  -1.306  1.00 20.00    -0.010 A 
HETATM    8  C3  UNL     1     -34.790  17.053   0.006  1.00 20.00     0.005 A 
HETATM    9  C4  UNL     1     -34.278  18.463  -0.085  1.00 20.00     0.005 A 
ENDBRANCH   5   7
BRANCH   6  10
HETATM   10  O10 UNL     1     -33.133  14.015  -3.987  1.00 20.00    -0.396 OA
HETATM   11  H26 UNL     1     -34.053  13.843  -4.242  1.00 20.00     0.210 HD
ENDBRANCH   6  10
TORSDOF 2
ENDMDL
