MODEL 1
REMARK VINA RESULT:      -4.6      0.000      0.000
REMARK  2 active torsions:
REMARK  status: ('A' for Active; 'I' for Inactive)
REMARK    1  A    between atoms: C4_4  and  O10_10 
REMARK    2  A    between atoms: C5_5  and  C8_8 
ROOT
HETATM    1  C1  UNL     1     -34.357   5.687   6.383  1.00 20.00     0.040 A 
HETATM    2  C2  UNL     1     -33.670   6.542   5.527  1.00 20.00     0.030 A 
HETATM    3  C3  UNL     1     -35.214   4.553   4.476  1.00 20.00     0.153 A 
HETATM    4  C4  UNL     1     -35.146   4.671   5.855  1.00 20.00     0.083 A 
HETATM    5  C5  UNL     1     -33.805   6.340   4.163  1.00 20.00     0.038 A 
HETATM    6  N9  UNL     1     -34.562   5.364   3.613  1.00 20.00    -0.262 NA
ENDROOT
BRANCH   5   7
HETATM    7  C8  UNL     1     -33.078   7.245   3.227  1.00 20.00     0.038 A 
HETATM    8  C6  UNL     1     -31.938   6.691   2.412  1.00 20.00     0.011 A 
HETATM    9  C7  UNL     1     -31.657   7.634   3.540  1.00 20.00     0.011 A 
ENDBRANCH   5   7
BRANCH   4  10
HETATM   10  O10 UNL     1     -35.826   3.822   6.666  1.00 20.00    -0.359 OA
HETATM   11  H19 UNL     1     -36.532   3.373   6.173  1.00 20.00     0.217 HD
ENDBRANCH   4  10
TORSDOF 2
ENDMDL
MODEL 2
REMARK VINA RESULT:      -4.5     11.984     12.478
REMARK  2 active torsions:
REMARK  status: ('A' for Active; 'I' for Inactive)
REMARK    1  A    between atoms: C4_4  and  O10_10 
REMARK    2  A    between atoms: C5_5  and  C8_8 
ROOT
HETATM    1  C1  UNL     1     -33.476  14.076  -3.856  1.00 20.00     0.040 A 
HETATM    2  C2  UNL     1     -33.353  15.230  -3.090  1.00 20.00     0.030 A 
HETATM    3  C3  UNL     1     -35.838  14.355  -3.799  1.00 20.00     0.153 A 
HETATM    4  C4  UNL     1     -34.739  13.623  -4.222  1.00 20.00     0.083 A 
HETATM    5  C5  UNL     1     -34.513  15.889  -2.718  1.00 20.00     0.038 A 
HETATM    6  N9  UNL     1     -35.757  15.480  -3.054  1.00 20.00    -0.262 NA
ENDROOT
BRANCH   5   7
HETATM    7  C8  UNL     1     -34.404  17.129  -1.896  1.00 20.00     0.038 A 
HETATM    8  C6  UNL     1     -34.529  17.026  -0.398  1.00 20.00     0.011 A 
HETATM    9  C7  UNL     1     -35.629  17.654  -1.196  1.00 20.00     0.011 A 
ENDBRANCH   5   7
BRANCH   4  10
HETATM   10  O10 UNL     1     -34.890  12.501  -4.969  1.00 20.00    -0.359 OA
HETATM   11  H19 UNL     1     -35.685  12.566  -5.524  1.00 20.00     0.217 HD
ENDBRANCH   4  10
TORSDOF 2
ENDMDL
MODEL 3
REMARK VINA RESULT:      -4.4      9.685     10.918
REMARK  2 active torsions:
REMARK  status: ('A' for Active; 'I' for Inactive)
REMARK    1  A    between atoms: C4_4  and  O10_10 
REMARK    2  A    between atoms: C5_5  and  C8_8 
ROOT
HETATM    1  C1  UNL     1     -40.748   5.784  -0.651  1.00 20.00     0.040 A 
HETATM    2  C2  UNL     1     -41.074   4.483  -1.020  1.00 20.00     0.030 A 
HETATM    3  C3  UNL     1     -42.109   6.573  -2.435  1.00 20.00     0.153 A 
HETATM    4  C4  UNL     1     -41.272   6.854  -1.367  1.00 20.00     0.083 A 
HETATM    5  C5  UNL     1     -41.920   4.308  -2.103  1.00 20.00     0.038 A 
HETATM    6  N9  UNL     1     -42.448   5.323  -2.823  1.00 20.00    -0.262 NA
ENDROOT
BRANCH   5   7
HETATM    7  C8  UNL     1     -42.282   2.921  -2.515  1.00 20.00     0.038 A 
HETATM    8  C6  UNL     1     -41.483   2.249  -3.601  1.00 20.00     0.011 A 
HETATM    9  C7  UNL     1     -42.885   2.696  -3.877  1.00 20.00     0.011 A 
ENDBRANCH   5   7
BRANCH   4  10
HETATM   10  O10 UNL     1     -40.973   8.133  -1.030  1.00 20.00    -0.359 OA
HETATM   11  H19 UNL     1     -40.097   8.380  -1.371  1.00 20.00     0.217 HD
ENDBRANCH   4  10
TORSDOF 2
ENDMDL
MODEL 4
REMARK VINA RESULT:      -4.3      1.477      2.193
REMARK  2 active torsions:
REMARK  status: ('A' for Active; 'I' for Inactive)
REMARK    1  A    between atoms: C4_4  and  O10_10 
REMARK    2  A    between atoms: C5_5  and  C8_8 
ROOT
HETATM    1  C1  UNL     1     -34.507   5.103   3.281  1.00 20.00     0.040 A 
HETATM    2  C2  UNL     1     -33.587   5.942   2.659  1.00 20.00     0.030 A 
HETATM    3  C3  UNL     1     -33.932   6.104   5.361  1.00 20.00     0.153 A 
HETATM    4  C4  UNL     1     -34.689   5.180   4.657  1.00 20.00     0.083 A 
HETATM    5  C5  UNL     1     -32.881   6.831   3.453  1.00 20.00     0.038 A 
HETATM    6  N9  UNL     1     -33.030   6.934   4.792  1.00 20.00    -0.262 NA
ENDROOT
BRANCH   5   7
HETATM    7  C8  UNL     1     -31.890   7.739   2.807  1.00 20.00     0.038 A 
HETATM    8  C6  UNL     1     -32.363   9.051   2.236  1.00 20.00     0.011 A 
HETATM    9  C7  UNL     1     -31.948   7.946   1.316  1.00 20.00     0.011 A 
ENDBRANCH   5   7
BRANCH   4  10
HETATM   10  O10 UNL     1     -35.579   4.376   5.290  1.00 20.00    -0.359 OA
HETATM   11  H19 UNL     1     -35.133   3.840   5.968  1.00 20.00     0.217 HD
ENDBRANCH   4  10
TORSDOF 2
ENDMDL
MODEL 5
REMARK VINA RESULT:      -4.2     12.733     13.519
REMARK  2 active torsions:
REMARK  status: ('A' for Active; 'I' for Inactive)
REMARK    1  A    between atoms: C4_4  and  O10_10 
REMARK    2  A    between atoms: C5_5  and  C8_8 
ROOT
HETATM    1  C1  UNL     1     -34.990  14.590  -4.733  1.00 20.00     0.040 A 
HETATM    2  C2  UNL     1     -35.169  14.902  -3.389  1.00 20.00     0.030 A 
HETATM    3  C3  UNL     1     -33.367  16.324  -4.865  1.00 20.00     0.153 A 
HETATM    4  C4  UNL     1     -34.074  15.309  -5.492  1.00 20.00     0.083 A 
HETATM    5  C5  UNL     1     -34.413  15.934  -2.858  1.00 20.00     0.038 A 
HETATM    6  N9  UNL     1     -33.514  16.656  -3.563  1.00 20.00    -0.262 NA
ENDROOT
BRANCH   5   7
HETATM    7  C8  UNL     1     -34.589  16.286  -1.419  1.00 20.00     0.038 A 
HETATM    8  C6  UNL     1     -35.312  17.558  -1.061  1.00 20.00     0.011 A 
HETATM    9  C7  UNL     1     -33.833  17.460  -0.854  1.00 20.00     0.011 A 
ENDBRANCH   5   7
BRANCH   4  10
HETATM   10  O10 UNL     1     -33.878  15.026  -6.804  1.00 20.00    -0.359 OA
HETATM   11  H19 UNL     1     -34.727  14.859  -7.247  1.00 20.00     0.217 HD
ENDBRANCH   4  10
TORSDOF 2
ENDMDL
MODEL 6
REMARK VINA RESULT:      -4.1     12.135     12.911
REMARK  2 active torsions:
REMARK  status: ('A' for Active; 'I' for Inactive)
REMARK    1  A    between atoms: C4_4  and  O10_10 
REMARK    2  A    between atoms: C5_5  and  C8_8 
ROOT
HETATM    1  C1  UNL     1     -33.997  15.613  -3.042  1.00 20.00     0.040 A 
HETATM    2  C2  UNL     1     -35.386  15.636  -3.099  1.00 20.00     0.030 A 
HETATM    3  C3  UNL     1     -34.028  13.635  -4.363  1.00 20.00     0.153 A 
HETATM    4  C4  UNL     1     -33.297  14.598  -3.684  1.00 20.00     0.083 A 
HETATM    5  C5  UNL     1     -36.023  14.627  -3.804  1.00 20.00     0.038 A 
HETATM    6  N9  UNL     1     -35.377  13.624  -4.440  1.00 20.00    -0.262 NA
ENDROOT
BRANCH   5   7
HETATM    7  C8  UNL     1     -37.513  14.632  -3.877  1.00 20.00     0.038 A 
HETATM    8  C6  UNL     1     -38.187  15.387  -4.992  1.00 20.00     0.011 A 
HETATM    9  C7  UNL     1     -38.256  15.910  -3.591  1.00 20.00     0.011 A 
ENDBRANCH   5   7
BRANCH   4  10
HETATM   10  O10 UNL     1     -31.942  14.551  -3.647  1.00 20.00    -0.359 OA
HETATM   11  H19 UNL     1     -31.597  15.174  -2.986  1.00 20.00     0.217 HD
ENDBRANCH   4  10
TORSDOF 2
ENDMDL
MODEL 7
REMARK VINA RESULT:      -4.1     12.114     13.028
REMARK  2 active torsions:
REMARK  status: ('A' for Active; 'I' for Inactive)
REMARK    1  A    between atoms: C4_4  and  O10_10 
REMARK    2  A    between atoms: C5_5  and  C8_8 
ROOT
HETATM    1  C1  UNL     1     -33.934  13.535  -4.231  1.00 20.00     0.040 A 
HETATM    2  C2  UNL     1     -35.323  13.533  -4.280  1.00 20.00     0.030 A 
HETATM    3  C3  UNL     1     -34.022  15.719  -3.294  1.00 20.00     0.153 A 
HETATM    4  C4  UNL     1     -33.262  14.645  -3.730  1.00 20.00     0.083 A 
HETATM    5  C5  UNL     1     -35.990  14.657  -3.819  1.00 20.00     0.038 A 
HETATM    6  N9  UNL     1     -35.373  15.754  -3.326  1.00 20.00    -0.262 NA
ENDROOT
BRANCH   5   7
HETATM    7  C8  UNL     1     -37.481  14.677  -3.862  1.00 20.00     0.038 A 
HETATM    8  C6  UNL     1     -38.169  15.267  -5.065  1.00 20.00     0.011 A 
HETATM    9  C7  UNL     1     -38.199  15.997  -3.758  1.00 20.00     0.011 A 
ENDBRANCH   5   7
BRANCH   4  10
HETATM   10  O10 UNL     1     -31.908  14.674  -3.670  1.00 20.00    -0.359 OA
HETATM   11  H19 UNL     1     -31.524  14.067  -4.324  1.00 20.00     0.217 HD
ENDBRANCH   4  10
TORSDOF 2
ENDMDL
MODEL 8
REMARK VINA RESULT:      -4.1     12.655     13.853
REMARK  2 active torsions:
REMARK  status: ('A' for Active; 'I' for Inactive)
REMARK    1  A    between atoms: C4_4  and  O10_10 
REMARK    2  A    between atoms: C5_5  and  C8_8 
ROOT
HETATM    1  C1  UNL     1     -33.849  14.384  -3.574  1.00 20.00     0.040 A 
HETATM    2  C2  UNL     1     -33.405  15.668  -3.871  1.00 20.00     0.030 A 
HETATM    3  C3  UNL     1     -35.040  14.377  -5.633  1.00 20.00     0.153 A 
HETATM    4  C4  UNL     1     -34.682  13.719  -4.467  1.00 20.00     0.083 A 
HETATM    5  C5  UNL     1     -33.820  16.238  -5.064  1.00 20.00     0.038 A 
HETATM    6  N9  UNL     1     -34.629  15.624  -5.955  1.00 20.00    -0.262 NA
ENDROOT
BRANCH   5   7
HETATM    7  C8  UNL     1     -33.356  17.615  -5.402  1.00 20.00     0.038 A 
HETATM    8  C6  UNL     1     -34.246  18.787  -5.076  1.00 20.00     0.011 A 
HETATM    9  C7  UNL     1     -34.052  18.373  -6.502  1.00 20.00     0.011 A 
ENDBRANCH   5   7
BRANCH   4  10
HETATM   10  O10 UNL     1     -35.130  12.466  -4.204  1.00 20.00    -0.359 OA
HETATM   11  H19 UNL     1     -36.098  12.429  -4.268  1.00 20.00     0.217 HD
ENDBRANCH   4  10
TORSDOF 2
ENDMDL
MODEL 9
REMARK VINA RESULT:      -4.0     12.433     13.358
REMARK  2 active torsions:
REMARK  status: ('A' for Active; 'I' for Inactive)
REMARK    1  A    between atoms: C4_4  and  O10_10 
REMARK    2  A    between atoms: C5_5  and  C8_8 
ROOT
HETATM    1  C1  UNL     1     -33.583  15.947  -2.882  1.00 20.00     0.040 A 
HETATM    2  C2  UNL     1     -33.429  15.547  -4.205  1.00 20.00     0.030 A 
HETATM    3  C3  UNL     1     -35.909  15.486  -3.070  1.00 20.00     0.153 A 
HETATM    4  C4  UNL     1     -34.844  15.919  -2.296  1.00 20.00     0.083 A 
HETATM    5  C5  UNL     1     -34.557  15.132  -4.893  1.00 20.00     0.038 A 
HETATM    6  N9  UNL     1     -35.798  15.091  -4.357  1.00 20.00    -0.262 NA
ENDROOT
BRANCH   5   7
HETATM    7  C8  UNL     1     -34.415  14.699  -6.313  1.00 20.00     0.038 A 
HETATM    8  C6  UNL     1     -34.702  15.689  -7.411  1.00 20.00     0.011 A 
HETATM    9  C7  UNL     1     -35.650  14.557  -7.163  1.00 20.00     0.011 A 
ENDBRANCH   5   7
BRANCH   4  10
HETATM   10  O10 UNL     1     -35.024  16.302  -1.007  1.00 20.00    -0.359 OA
HETATM   11  H19 UNL     1     -35.968  16.439  -0.821  1.00 20.00     0.217 HD
ENDBRANCH   4  10
TORSDOF 2
ENDMDL
