MODEL 1
REMARK VINA RESULT:      -4.7      0.000      0.000
REMARK  1 active torsions:
REMARK  status: ('A' for Active; 'I' for Inactive)
REMARK    1  A    between atoms: C7_7  and  C8_8 
ROOT
HETATM    1  C1  UNL     1     -34.413   5.782   5.835  1.00 20.00     0.131 C 
HETATM    2  C2  UNL     1     -35.265   4.746   5.141  1.00 20.00     0.104 C 
HETATM    3  C3  UNL     1     -33.182   6.230   5.083  1.00 20.00     0.110 C 
HETATM    4  C6  UNL     1     -35.476   5.154   3.692  1.00 20.00     0.175 C 
HETATM    5  C8  UNL     1     -33.554   6.536   3.633  1.00 20.00     0.132 C 
HETATM    6  O9  UNL     1     -34.644   6.151   6.985  1.00 20.00    -0.298 OA
HETATM    7  O10 UNL     1     -34.223   5.408   3.051  1.00 20.00    -0.385 OA
ENDROOT
BRANCH   5   8
HETATM    8  C7  UNL     1     -32.336   6.841   2.812  1.00 20.00     0.015 A 
HETATM    9  C4  UNL     1     -32.186   8.183   2.149  1.00 20.00     0.007 A 
HETATM   10  C5  UNL     1     -31.311   7.819   3.315  1.00 20.00     0.007 A 
ENDBRANCH   5   8
TORSDOF 1
ENDMDL
MODEL 2
REMARK VINA RESULT:      -4.7     11.140     11.828
REMARK  1 active torsions:
REMARK  status: ('A' for Active; 'I' for Inactive)
REMARK    1  A    between atoms: C7_7  and  C8_8 
ROOT
HETATM    1  C1  UNL     1     -33.830  13.872  -3.830  1.00 20.00     0.131 C 
HETATM    2  C2  UNL     1     -35.041  13.788  -4.728  1.00 20.00     0.104 C 
HETATM    3  C3  UNL     1     -33.667  15.165  -3.068  1.00 20.00     0.110 C 
HETATM    4  C6  UNL     1     -36.265  14.279  -3.973  1.00 20.00     0.175 C 
HETATM    5  C8  UNL     1     -35.000  15.549  -2.426  1.00 20.00     0.132 C 
HETATM    6  O9  UNL     1     -32.971  12.991  -3.810  1.00 20.00    -0.298 OA
HETATM    7  O10 UNL     1     -36.032  15.578  -3.422  1.00 20.00    -0.385 OA
ENDROOT
BRANCH   5   8
HETATM    8  C7  UNL     1     -34.923  16.902  -1.783  1.00 20.00     0.015 A 
HETATM    9  C4  UNL     1     -34.804  17.025  -0.288  1.00 20.00     0.007 A 
HETATM   10  C5  UNL     1     -33.636  17.375  -1.167  1.00 20.00     0.007 A 
ENDBRANCH   5   8
TORSDOF 1
ENDMDL
MODEL 3
REMARK VINA RESULT:      -4.6     11.230     12.496
REMARK  1 active torsions:
REMARK  status: ('A' for Active; 'I' for Inactive)
REMARK    1  A    between atoms: C7_7  and  C8_8 
ROOT
HETATM    1  C1  UNL     1     -34.644  13.707  -4.579  1.00 20.00     0.131 C 
HETATM    2  C2  UNL     1     -34.534  14.485  -5.870  1.00 20.00     0.104 C 
HETATM    3  C3  UNL     1     -34.092  14.393  -3.352  1.00 20.00     0.110 C 
HETATM    4  C6  UNL     1     -34.990  15.915  -5.638  1.00 20.00     0.175 C 
HETATM    5  C8  UNL     1     -34.592  15.836  -3.306  1.00 20.00     0.132 C 
HETATM    6  O9  UNL     1     -35.051  12.548  -4.550  1.00 20.00    -0.298 OA
HETATM    7  O10 UNL     1     -34.285  16.499  -4.540  1.00 20.00    -0.385 OA
ENDROOT
BRANCH   5   8
HETATM    8  C7  UNL     1     -33.950  16.597  -2.184  1.00 20.00     0.015 A 
HETATM    9  C4  UNL     1     -34.592  17.850  -1.654  1.00 20.00     0.007 A 
HETATM   10  C5  UNL     1     -34.576  16.602  -0.817  1.00 20.00     0.007 A 
ENDBRANCH   5   8
TORSDOF 1
ENDMDL
MODEL 4
REMARK VINA RESULT:      -4.3      1.297      2.212
REMARK  1 active torsions:
REMARK  status: ('A' for Active; 'I' for Inactive)
REMARK    1  A    between atoms: C7_7  and  C8_8 
ROOT
HETATM    1  C1  UNL     1     -34.954   4.435   4.894  1.00 20.00     0.131 C 
HETATM    2  C2  UNL     1     -35.211   5.043   6.252  1.00 20.00     0.104 C 
HETATM    3  C3  UNL     1     -34.487   5.393   3.824  1.00 20.00     0.110 C 
HETATM    4  C6  UNL     1     -34.052   5.952   6.625  1.00 20.00     0.175 C 
HETATM    5  C8  UNL     1     -33.370   6.273   4.381  1.00 20.00     0.132 C 
HETATM    6  O9  UNL     1     -35.219   3.260   4.646  1.00 20.00    -0.298 OA
HETATM    7  O10 UNL     1     -33.805   6.908   5.591  1.00 20.00    -0.385 OA
ENDROOT
BRANCH   5   8
HETATM    8  C7  UNL     1     -32.977   7.338   3.400  1.00 20.00     0.015 A 
HETATM    9  C4  UNL     1     -31.539   7.764   3.280  1.00 20.00     0.007 A 
HETATM   10  C5  UNL     1     -32.187   6.981   2.172  1.00 20.00     0.007 A 
ENDBRANCH   5   8
TORSDOF 1
ENDMDL
MODEL 5
REMARK VINA RESULT:      -4.1     11.608     12.446
REMARK  1 active torsions:
REMARK  status: ('A' for Active; 'I' for Inactive)
REMARK    1  A    between atoms: C7_7  and  C8_8 
ROOT
HETATM    1  C1  UNL     1     -36.062  14.374  -4.093  1.00 20.00     0.131 C 
HETATM    2  C2  UNL     1     -35.186  14.153  -5.303  1.00 20.00     0.104 C 
HETATM    3  C3  UNL     1     -35.370  14.950  -2.880  1.00 20.00     0.110 C 
HETATM    4  C6  UNL     1     -34.331  15.386  -5.541  1.00 20.00     0.175 C 
HETATM    5  C8  UNL     1     -34.503  16.135  -3.302  1.00 20.00     0.132 C 
HETATM    6  O9  UNL     1     -37.233  14.004  -4.060  1.00 20.00    -0.298 OA
HETATM    7  O10 UNL     1     -33.614  15.741  -4.355  1.00 20.00    -0.385 OA
ENDROOT
BRANCH   5   8
HETATM    8  C7  UNL     1     -33.683  16.645  -2.154  1.00 20.00     0.015 A 
HETATM    9  C4  UNL     1     -33.832  18.068  -1.689  1.00 20.00     0.007 A 
HETATM   10  C5  UNL     1     -34.335  16.941  -0.831  1.00 20.00     0.007 A 
ENDBRANCH   5   8
TORSDOF 1
ENDMDL
MODEL 6
REMARK VINA RESULT:      -4.0     11.362     12.204
REMARK  1 active torsions:
REMARK  status: ('A' for Active; 'I' for Inactive)
REMARK    1  A    between atoms: C7_7  and  C8_8 
ROOT
HETATM    1  C1  UNL     1     -36.158  14.638  -4.665  1.00 20.00     0.131 C 
HETATM    2  C2  UNL     1     -35.240  13.444  -4.783  1.00 20.00     0.104 C 
HETATM    3  C3  UNL     1     -36.132  15.356  -3.337  1.00 20.00     0.110 C 
HETATM    4  C6  UNL     1     -33.866  13.808  -4.245  1.00 20.00     0.175 C 
HETATM    5  C8  UNL     1     -34.683  15.585  -2.910  1.00 20.00     0.132 C 
HETATM    6  O9  UNL     1     -36.957  14.935  -5.551  1.00 20.00    -0.298 OA
HETATM    7  O10 UNL     1     -33.967  14.342  -2.922  1.00 20.00    -0.385 OA
ENDROOT
BRANCH   5   8
HETATM    8  C7  UNL     1     -34.608  16.163  -1.527  1.00 20.00     0.015 A 
HETATM    9  C4  UNL     1     -33.757  17.372  -1.256  1.00 20.00     0.007 A 
HETATM   10  C5  UNL     1     -35.255  17.486  -1.224  1.00 20.00     0.007 A 
ENDBRANCH   5   8
TORSDOF 1
ENDMDL
MODEL 7
REMARK VINA RESULT:      -4.0      9.124     11.134
REMARK  1 active torsions:
REMARK  status: ('A' for Active; 'I' for Inactive)
REMARK    1  A    between atoms: C7_7  and  C8_8 
ROOT
HETATM    1  C1  UNL     1     -42.374   6.920  -1.801  1.00 20.00     0.131 C 
HETATM    2  C2  UNL     1     -41.072   7.058  -1.049  1.00 20.00     0.104 C 
HETATM    3  C3  UNL     1     -42.485   5.716  -2.705  1.00 20.00     0.110 C 
HETATM    4  C6  UNL     1     -40.700   5.720  -0.432  1.00 20.00     0.175 C 
HETATM    5  C8  UNL     1     -42.013   4.471  -1.955  1.00 20.00     0.132 C 
HETATM    6  O9  UNL     1     -43.241   7.792  -1.767  1.00 20.00    -0.298 OA
HETATM    7  O10 UNL     1     -40.699   4.689  -1.423  1.00 20.00    -0.385 OA
ENDROOT
BRANCH   5   8
HETATM    8  C7  UNL     1     -41.966   3.276  -2.861  1.00 20.00     0.015 A 
HETATM    9  C4  UNL     1     -42.869   2.100  -2.612  1.00 20.00     0.007 A 
HETATM   10  C5  UNL     1     -43.106   2.992  -3.799  1.00 20.00     0.007 A 
ENDBRANCH   5   8
TORSDOF 1
ENDMDL
MODEL 8
REMARK VINA RESULT:      -3.9     11.113     12.642
REMARK  1 active torsions:
REMARK  status: ('A' for Active; 'I' for Inactive)
REMARK    1  A    between atoms: C7_7  and  C8_8 
ROOT
HETATM    1  C1  UNL     1     -34.643  13.529  -4.200  1.00 20.00     0.131 C 
HETATM    2  C2  UNL     1     -33.258  13.802  -3.663  1.00 20.00     0.104 C 
HETATM    3  C3  UNL     1     -35.729  14.461  -3.718  1.00 20.00     0.110 C 
HETATM    4  C6  UNL     1     -32.960  15.289  -3.767  1.00 20.00     0.175 C 
HETATM    5  C8  UNL     1     -35.245  15.906  -3.827  1.00 20.00     0.132 C 
HETATM    6  O9  UNL     1     -34.890  12.543  -4.893  1.00 20.00    -0.298 OA
HETATM    7  O10 UNL     1     -33.993  16.056  -3.143  1.00 20.00    -0.385 OA
ENDROOT
BRANCH   5   8
HETATM    8  C7  UNL     1     -36.235  16.857  -3.221  1.00 20.00     0.015 A 
HETATM    9  C4  UNL     1     -36.815  17.974  -4.045  1.00 20.00     0.007 A 
HETATM   10  C5  UNL     1     -37.679  16.813  -3.637  1.00 20.00     0.007 A 
ENDBRANCH   5   8
TORSDOF 1
ENDMDL
MODEL 9
REMARK VINA RESULT:      -3.9     11.471     13.602
REMARK  1 active torsions:
REMARK  status: ('A' for Active; 'I' for Inactive)
REMARK    1  A    between atoms: C7_7  and  C8_8 
ROOT
HETATM    1  C1  UNL     1     -34.656  13.696  -4.676  1.00 20.00     0.131 C 
HETATM    2  C2  UNL     1     -33.903  14.241  -3.486  1.00 20.00     0.104 C 
HETATM    3  C3  UNL     1     -35.341  14.725  -5.545  1.00 20.00     0.110 C 
HETATM    4  C6  UNL     1     -33.052  15.422  -3.923  1.00 20.00     0.175 C 
HETATM    5  C8  UNL     1     -34.374  15.871  -5.836  1.00 20.00     0.132 C 
HETATM    6  O9  UNL     1     -34.799  12.489  -4.860  1.00 20.00    -0.298 OA
HETATM    7  O10 UNL     1     -33.849  16.393  -4.607  1.00 20.00    -0.385 OA
ENDROOT
BRANCH   5   8
HETATM    8  C7  UNL     1     -35.057  16.986  -6.572  1.00 20.00     0.015 A 
HETATM    9  C4  UNL     1     -34.550  17.429  -7.916  1.00 20.00     0.007 A 
HETATM   10  C5  UNL     1     -35.857  16.695  -7.811  1.00 20.00     0.007 A 
ENDBRANCH   5   8
TORSDOF 1
ENDMDL
