MODEL 1
REMARK VINA RESULT:      -5.4      0.000      0.000
REMARK  0 active torsions:
REMARK  status: ('A' for Active; 'I' for Inactive)
ROOT
HETATM    1  C1  UNL     1     -36.553  14.509  -3.859  1.00 20.00     0.136 C 
HETATM    2  C2  UNL     1     -34.747  13.572  -5.448  1.00 20.00     0.018 A 
HETATM    3  C3  UNL     1     -36.286  16.888  -2.614  1.00 20.00     0.018 A 
HETATM    4  C4  UNL     1     -33.129  16.218  -4.374  1.00 20.00     0.011 A 
HETATM    5  C5  UNL     1     -35.511  13.478  -4.153  1.00 20.00     0.060 A 
HETATM    6  C6  UNL     1     -36.094  15.893  -3.706  1.00 20.00     0.060 A 
HETATM    7  C7  UNL     1     -33.995  13.657  -4.145  1.00 20.00     0.002 A 
HETATM    8  C8  UNL     1     -35.103  15.991  -2.544  1.00 20.00     0.002 A 
HETATM    9  C9  UNL     1     -33.120  14.860  -3.729  1.00 20.00    -0.005 A 
HETATM   10  C10 UNL     1     -33.656  16.076  -2.971  1.00 20.00    -0.005 A 
HETATM   11  O11 UNL     1     -37.738  14.216  -3.786  1.00 20.00    -0.297 OA
ENDROOT
TORSDOF 0
ENDMDL
MODEL 2
REMARK VINA RESULT:      -5.3     10.591     12.148
REMARK  0 active torsions:
REMARK  status: ('A' for Active; 'I' for Inactive)
ROOT
HETATM    1  C1  UNL     1     -42.838   6.330  -3.023  1.00 20.00     0.136 C 
HETATM    2  C2  UNL     1     -42.529   7.828  -0.943  1.00 20.00     0.018 A 
HETATM    3  C3  UNL     1     -42.628   3.643  -2.910  1.00 20.00     0.018 A 
HETATM    4  C4  UNL     1     -41.706   4.948   0.399  1.00 20.00     0.011 A 
HETATM    5  C5  UNL     1     -42.046   7.368  -2.294  1.00 20.00     0.060 A 
HETATM    6  C6  UNL     1     -42.934   5.008  -2.399  1.00 20.00     0.060 A 
HETATM    7  C7  UNL     1     -41.174   7.175  -1.056  1.00 20.00     0.002 A 
HETATM    8  C8  UNL     1     -41.538   4.400  -2.240  1.00 20.00     0.002 A 
HETATM    9  C9  UNL     1     -40.766   5.895  -0.295  1.00 20.00    -0.005 A 
HETATM   10  C10 UNL     1     -40.985   4.481  -0.837  1.00 20.00    -0.005 A 
HETATM   11  O11 UNL     1     -43.410   6.585  -4.074  1.00 20.00    -0.297 OA
ENDROOT
TORSDOF 0
ENDMDL
MODEL 3
REMARK VINA RESULT:      -5.2      1.819      2.921
REMARK  0 active torsions:
REMARK  status: ('A' for Active; 'I' for Inactive)
ROOT
HETATM    1  C1  UNL     1     -34.549  13.622  -4.798  1.00 20.00     0.136 C 
HETATM    2  C2  UNL     1     -32.593  14.769  -3.563  1.00 20.00     0.018 A 
HETATM    3  C3  UNL     1     -35.855  14.802  -6.842  1.00 20.00     0.018 A 
HETATM    4  C4  UNL     1     -33.490  17.270  -5.489  1.00 20.00     0.011 A 
HETATM    5  C5  UNL     1     -34.003  14.237  -3.549  1.00 20.00     0.060 A 
HETATM    6  C6  UNL     1     -34.691  14.500  -5.963  1.00 20.00     0.060 A 
HETATM    7  C7  UNL     1     -33.732  15.715  -3.280  1.00 20.00     0.002 A 
HETATM    8  C8  UNL     1     -35.647  15.651  -5.639  1.00 20.00     0.002 A 
HETATM    9  C9  UNL     1     -34.042  16.970  -4.123  1.00 20.00    -0.005 A 
HETATM   10  C10 UNL     1     -34.958  16.963  -5.349  1.00 20.00    -0.005 A 
HETATM   11  O11 UNL     1     -34.829  12.433  -4.854  1.00 20.00    -0.297 OA
ENDROOT
TORSDOF 0
ENDMDL
MODEL 4
REMARK VINA RESULT:      -5.1      1.330      2.926
REMARK  0 active torsions:
REMARK  status: ('A' for Active; 'I' for Inactive)
ROOT
HETATM    1  C1  UNL     1     -34.947  13.558  -4.469  1.00 20.00     0.136 C 
HETATM    2  C2  UNL     1     -37.035  14.813  -3.615  1.00 20.00     0.018 A 
HETATM    3  C3  UNL     1     -32.508  13.897  -3.367  1.00 20.00     0.018 A 
HETATM    4  C4  UNL     1     -34.773  16.307  -1.763  1.00 20.00     0.011 A 
HETATM    5  C5  UNL     1     -36.023  14.570  -4.704  1.00 20.00     0.060 A 
HETATM    6  C6  UNL     1     -33.996  13.838  -3.390  1.00 20.00     0.060 A 
HETATM    7  C7  UNL     1     -36.157  15.952  -4.069  1.00 20.00     0.002 A 
HETATM    8  C8  UNL     1     -33.253  15.147  -3.671  1.00 20.00     0.002 A 
HETATM    9  C9  UNL     1     -35.206  16.734  -3.138  1.00 20.00    -0.005 A 
HETATM   10  C10 UNL     1     -33.755  16.327  -2.872  1.00 20.00    -0.005 A 
HETATM   11  O11 UNL     1     -34.886  12.528  -5.124  1.00 20.00    -0.297 OA
ENDROOT
TORSDOF 0
ENDMDL
MODEL 5
REMARK VINA RESULT:      -5.1      1.877      2.650
REMARK  0 active torsions:
REMARK  status: ('A' for Active; 'I' for Inactive)
ROOT
HETATM    1  C1  UNL     1     -34.886  13.803  -4.805  1.00 20.00     0.136 C 
HETATM    2  C2  UNL     1     -35.959  14.740  -6.958  1.00 20.00     0.018 A 
HETATM    3  C3  UNL     1     -33.816  15.400  -2.912  1.00 20.00     0.018 A 
HETATM    4  C4  UNL     1     -34.781  17.549  -5.734  1.00 20.00     0.011 A 
HETATM    5  C5  UNL     1     -34.858  13.955  -6.292  1.00 20.00     0.060 A 
HETATM    6  C6  UNL     1     -34.752  15.026  -4.009  1.00 20.00     0.060 A 
HETATM    7  C7  UNL     1     -34.534  15.214  -7.093  1.00 20.00     0.002 A 
HETATM    8  C8  UNL     1     -33.414  15.705  -4.311  1.00 20.00     0.002 A 
HETATM    9  C9  UNL     1     -34.039  16.604  -6.638  1.00 20.00    -0.005 A 
HETATM   10  C10 UNL     1     -33.520  16.899  -5.229  1.00 20.00    -0.005 A 
HETATM   11  O11 UNL     1     -35.050  12.711  -4.279  1.00 20.00    -0.297 OA
ENDROOT
TORSDOF 0
ENDMDL
MODEL 6
REMARK VINA RESULT:      -5.0      2.214      3.771
REMARK  0 active torsions:
REMARK  status: ('A' for Active; 'I' for Inactive)
ROOT
HETATM    1  C1  UNL     1     -33.777  16.826  -5.309  1.00 20.00     0.136 C 
HETATM    2  C2  UNL     1     -33.779  15.939  -2.885  1.00 20.00     0.018 A 
HETATM    3  C3  UNL     1     -35.284  15.717  -7.253  1.00 20.00     0.018 A 
HETATM    4  C4  UNL     1     -35.653  13.620  -4.257  1.00 20.00     0.011 A 
HETATM    5  C5  UNL     1     -33.051  16.160  -4.185  1.00 20.00     0.060 A 
HETATM    6  C6  UNL     1     -34.937  16.121  -5.862  1.00 20.00     0.060 A 
HETATM    7  C7  UNL     1     -33.262  14.746  -3.648  1.00 20.00     0.002 A 
HETATM    8  C8  UNL     1     -34.507  14.761  -6.420  1.00 20.00     0.002 A 
HETATM    9  C9  UNL     1     -34.153  13.593  -4.156  1.00 20.00    -0.005 A 
HETATM   10  C10 UNL     1     -34.840  13.592  -5.524  1.00 20.00    -0.005 A 
HETATM   11  O11 UNL     1     -33.440  17.926  -5.723  1.00 20.00    -0.297 OA
ENDROOT
TORSDOF 0
ENDMDL
MODEL 7
REMARK VINA RESULT:      -4.8      1.950      3.402
REMARK  0 active torsions:
REMARK  status: ('A' for Active; 'I' for Inactive)
ROOT
HETATM    1  C1  UNL     1     -34.410  15.245  -6.324  1.00 20.00     0.136 C 
HETATM    2  C2  UNL     1     -34.718  17.641  -5.414  1.00 20.00     0.018 A 
HETATM    3  C3  UNL     1     -34.777  13.059  -4.786  1.00 20.00     0.018 A 
HETATM    4  C4  UNL     1     -35.087  15.995  -2.598  1.00 20.00     0.011 A 
HETATM    5  C5  UNL     1     -33.813  16.566  -5.957  1.00 20.00     0.060 A 
HETATM    6  C6  UNL     1     -35.005  14.460  -5.239  1.00 20.00     0.060 A 
HETATM    7  C7  UNL     1     -33.589  17.129  -4.555  1.00 20.00     0.002 A 
HETATM    8  C8  UNL     1     -33.943  14.133  -4.185  1.00 20.00     0.002 A 
HETATM    9  C9  UNL     1     -33.784  16.489  -3.164  1.00 20.00    -0.005 A 
HETATM   10  C10 UNL     1     -34.019  14.992  -2.945  1.00 20.00    -0.005 A 
HETATM   11  O11 UNL     1     -34.433  14.856  -7.483  1.00 20.00    -0.297 OA
ENDROOT
TORSDOF 0
ENDMDL
MODEL 8
REMARK VINA RESULT:      -4.8      1.731      3.483
REMARK  0 active torsions:
REMARK  status: ('A' for Active; 'I' for Inactive)
ROOT
HETATM    1  C1  UNL     1     -34.258  16.039  -2.567  1.00 20.00     0.136 C 
HETATM    2  C2  UNL     1     -36.461  16.395  -3.865  1.00 20.00     0.018 A 
HETATM    3  C3  UNL     1     -32.243  14.524  -3.530  1.00 20.00     0.018 A 
HETATM    4  C4  UNL     1     -35.070  14.185  -5.854  1.00 20.00     0.011 A 
HETATM    5  C5  UNL     1     -35.733  15.824  -2.676  1.00 20.00     0.060 A 
HETATM    6  C6  UNL     1     -33.420  15.435  -3.606  1.00 20.00     0.060 A 
HETATM    7  C7  UNL     1     -36.471  14.903  -3.645  1.00 20.00     0.002 A 
HETATM    8  C8  UNL     1     -33.598  13.915  -3.607  1.00 20.00     0.002 A 
HETATM    9  C9  UNL     1     -35.940  13.876  -4.667  1.00 20.00    -0.005 A 
HETATM   10  C10 UNL     1     -34.487  13.397  -4.712  1.00 20.00    -0.005 A 
HETATM   11  O11 UNL     1     -33.777  16.719  -1.671  1.00 20.00    -0.297 OA
ENDROOT
TORSDOF 0
ENDMDL
MODEL 9
REMARK VINA RESULT:      -4.8      1.977      2.795
REMARK  0 active torsions:
REMARK  status: ('A' for Active; 'I' for Inactive)
ROOT
HETATM    1  C1  UNL     1     -34.409  15.055  -6.307  1.00 20.00     0.136 C 
HETATM    2  C2  UNL     1     -34.246  13.315  -4.406  1.00 20.00     0.018 A 
HETATM    3  C3  UNL     1     -33.877  17.671  -5.917  1.00 20.00     0.018 A 
HETATM    4  C4  UNL     1     -33.729  16.029  -2.633  1.00 20.00     0.011 A 
HETATM    5  C5  UNL     1     -35.086  14.085  -5.392  1.00 20.00     0.060 A 
HETATM    6  C6  UNL     1     -33.748  16.206  -5.684  1.00 20.00     0.060 A 
HETATM    7  C7  UNL     1     -35.326  14.233  -3.891  1.00 20.00     0.002 A 
HETATM    8  C8  UNL     1     -34.770  17.042  -4.909  1.00 20.00     0.002 A 
HETATM    9  C9  UNL     1     -35.069  15.418  -2.937  1.00 20.00    -0.005 A 
HETATM   10  C10 UNL     1     -34.733  16.833  -3.414  1.00 20.00    -0.005 A 
HETATM   11  O11 UNL     1     -34.376  14.875  -7.516  1.00 20.00    -0.297 OA
ENDROOT
TORSDOF 0
ENDMDL
