MODEL 1
REMARK VINA RESULT:      -4.6      0.000      0.000
REMARK  0 active torsions:
REMARK  status: ('A' for Active; 'I' for Inactive)
ROOT
HETATM    1  C1  UNL     1     -33.211  13.780  -3.696  1.00 20.00     0.005 C 
HETATM    2  C2  UNL     1     -34.654  15.556  -2.697  1.00 20.00     0.005 C 
HETATM    3  C3  UNL     1     -34.371  13.348  -4.610  1.00 20.00     0.008 C 
HETATM    4  C4  UNL     1     -35.819  15.130  -3.608  1.00 20.00     0.008 C 
HETATM    5  C5  UNL     1     -33.254  16.072  -4.720  1.00 20.00     0.045 C 
HETATM    6  C6  UNL     1     -34.959  16.508  -6.666  1.00 20.00     0.207 A 
HETATM    7  C7  UNL     1     -33.302  15.287  -3.389  1.00 20.00    -0.012 C 
HETATM    8  C8  UNL     1     -35.274  14.555  -4.928  1.00 20.00     0.022 C 
HETATM    9  C9  UNL     1     -34.419  15.626  -5.567  1.00 20.00     0.086 A 
HETATM   10  O10 UNL     1     -34.101  15.396  -6.946  1.00 20.00    -0.375 OA
ENDROOT
TORSDOF 0
ENDMDL
MODEL 2
REMARK VINA RESULT:      -4.5      1.361      2.619
REMARK  0 active torsions:
REMARK  status: ('A' for Active; 'I' for Inactive)
ROOT
HETATM    1  C1  UNL     1     -33.238  16.032  -4.679  1.00 20.00     0.005 C 
HETATM    2  C2  UNL     1     -33.410  13.738  -3.708  1.00 20.00     0.005 C 
HETATM    3  C3  UNL     1     -34.211  15.632  -5.802  1.00 20.00     0.008 C 
HETATM    4  C4  UNL     1     -34.383  13.330  -4.828  1.00 20.00     0.008 C 
HETATM    5  C5  UNL     1     -35.005  15.532  -2.967  1.00 20.00     0.045 C 
HETATM    6  C6  UNL     1     -37.365  14.780  -3.832  1.00 20.00     0.207 A 
HETATM    7  C7  UNL     1     -33.548  15.241  -3.393  1.00 20.00    -0.012 C 
HETATM    8  C8  UNL     1     -35.189  14.554  -5.298  1.00 20.00     0.022 C 
HETATM    9  C9  UNL     1     -35.915  15.105  -4.091  1.00 20.00     0.086 A 
HETATM   10  O10 UNL     1     -36.964  16.034  -4.395  1.00 20.00    -0.375 OA
ENDROOT
TORSDOF 0
ENDMDL
MODEL 3
REMARK VINA RESULT:      -4.5      1.798      2.787
REMARK  0 active torsions:
REMARK  status: ('A' for Active; 'I' for Inactive)
ROOT
HETATM    1  C1  UNL     1     -33.709  16.898  -2.340  1.00 20.00     0.005 C 
HETATM    2  C2  UNL     1     -34.957  17.383  -4.448  1.00 20.00     0.005 C 
HETATM    3  C3  UNL     1     -34.841  15.961  -1.882  1.00 20.00     0.008 C 
HETATM    4  C4  UNL     1     -36.093  16.448  -3.996  1.00 20.00     0.008 C 
HETATM    5  C5  UNL     1     -33.338  15.463  -4.366  1.00 20.00     0.045 C 
HETATM    6  C6  UNL     1     -34.798  13.297  -4.612  1.00 20.00     0.207 A 
HETATM    7  C7  UNL     1     -33.606  16.904  -3.877  1.00 20.00    -0.012 C 
HETATM    8  C8  UNL     1     -35.532  15.327  -3.104  1.00 20.00     0.022 C 
HETATM    9  C9  UNL     1     -34.483  14.594  -3.909  1.00 20.00     0.086 A 
HETATM   10  O10 UNL     1     -34.090  13.326  -3.368  1.00 20.00    -0.375 OA
ENDROOT
TORSDOF 0
ENDMDL
MODEL 4
REMARK VINA RESULT:      -4.4      1.353      2.100
REMARK  0 active torsions:
REMARK  status: ('A' for Active; 'I' for Inactive)
ROOT
HETATM    1  C1  UNL     1     -34.714  13.289  -5.202  1.00 20.00     0.005 C 
HETATM    2  C2  UNL     1     -36.477  14.522  -3.935  1.00 20.00     0.005 C 
HETATM    3  C3  UNL     1     -34.722  14.383  -6.284  1.00 20.00     0.008 C 
HETATM    4  C4  UNL     1     -36.491  15.620  -5.013  1.00 20.00     0.008 C 
HETATM    5  C5  UNL     1     -34.050  14.992  -3.481  1.00 20.00     0.045 C 
HETATM    6  C6  UNL     1     -33.643  17.454  -4.293  1.00 20.00     0.207 A 
HETATM    7  C7  UNL     1     -35.075  13.888  -3.829  1.00 20.00    -0.012 C 
HETATM    8  C8  UNL     1     -35.100  15.741  -5.663  1.00 20.00     0.022 C 
HETATM    9  C9  UNL     1     -34.113  16.045  -4.559  1.00 20.00     0.086 A 
HETATM   10  O10 UNL     1     -32.835  16.514  -5.010  1.00 20.00    -0.375 OA
ENDROOT
TORSDOF 0
ENDMDL
MODEL 5
REMARK VINA RESULT:      -4.3      1.862      3.181
REMARK  0 active torsions:
REMARK  status: ('A' for Active; 'I' for Inactive)
ROOT
HETATM    1  C1  UNL     1     -34.735  13.229  -4.162  1.00 20.00     0.005 C 
HETATM    2  C2  UNL     1     -35.165  15.096  -5.762  1.00 20.00     0.005 C 
HETATM    3  C3  UNL     1     -33.441  13.921  -3.697  1.00 20.00     0.008 C 
HETATM    4  C4  UNL     1     -33.872  15.794  -5.303  1.00 20.00     0.008 C 
HETATM    5  C5  UNL     1     -36.070  15.221  -3.421  1.00 20.00     0.045 C 
HETATM    6  C6  UNL     1     -34.782  17.195  -2.269  1.00 20.00     0.207 A 
HETATM    7  C7  UNL     1     -35.774  14.275  -4.607  1.00 20.00    -0.012 C 
HETATM    8  C8  UNL     1     -33.580  15.449  -3.831  1.00 20.00     0.022 C 
HETATM    9  C9  UNL     1     -34.778  15.886  -3.020  1.00 20.00     0.086 A 
HETATM   10  O10 UNL     1     -34.553  15.947  -1.605  1.00 20.00    -0.375 OA
ENDROOT
TORSDOF 0
ENDMDL
MODEL 6
REMARK VINA RESULT:      -4.3     11.503     12.488
REMARK  0 active torsions:
REMARK  status: ('A' for Active; 'I' for Inactive)
ROOT
HETATM    1  C1  UNL     1     -40.694   4.545  -1.167  1.00 20.00     0.005 C 
HETATM    2  C2  UNL     1     -42.206   5.394   0.630  1.00 20.00     0.005 C 
HETATM    3  C3  UNL     1     -41.901   4.377  -2.107  1.00 20.00     0.008 C 
HETATM    4  C4  UNL     1     -43.417   5.229  -0.304  1.00 20.00     0.008 C 
HETATM    5  C5  UNL     1     -41.166   7.004  -0.996  1.00 20.00     0.045 C 
HETATM    6  C6  UNL     1     -43.156   7.968  -2.408  1.00 20.00     0.207 A 
HETATM    7  C7  UNL     1     -40.935   5.708  -0.186  1.00 20.00    -0.012 C 
HETATM    8  C8  UNL     1     -42.985   5.419  -1.769  1.00 20.00     0.022 C 
HETATM    9  C9  UNL     1     -42.367   6.794  -1.882  1.00 20.00     0.086 A 
HETATM   10  O10 UNL     1     -42.208   7.271  -3.225  1.00 20.00    -0.375 OA
ENDROOT
TORSDOF 0
ENDMDL
MODEL 7
REMARK VINA RESULT:      -4.3     11.834     12.977
REMARK  0 active torsions:
REMARK  status: ('A' for Active; 'I' for Inactive)
ROOT
HETATM    1  C1  UNL     1     -40.906   7.259  -0.798  1.00 20.00     0.005 C 
HETATM    2  C2  UNL     1     -43.367   7.106  -0.406  1.00 20.00     0.005 C 
HETATM    3  C3  UNL     1     -40.695   5.961   0.001  1.00 20.00     0.008 C 
HETATM    4  C4  UNL     1     -43.164   5.807   0.395  1.00 20.00     0.008 C 
HETATM    5  C5  UNL     1     -42.354   6.021  -2.433  1.00 20.00     0.045 C 
HETATM    6  C6  UNL     1     -42.661   3.440  -2.081  1.00 20.00     0.207 A 
HETATM    7  C7  UNL     1     -42.281   7.246  -1.492  1.00 20.00    -0.012 C 
HETATM    8  C8  UNL     1     -41.931   5.051  -0.130  1.00 20.00     0.022 C 
HETATM    9  C9  UNL     1     -42.161   4.780  -1.600  1.00 20.00     0.086 A 
HETATM   10  O10 UNL     1     -41.280   3.806  -2.175  1.00 20.00    -0.375 OA
ENDROOT
TORSDOF 0
ENDMDL
MODEL 8
REMARK VINA RESULT:      -4.3      1.788      3.431
REMARK  0 active torsions:
REMARK  status: ('A' for Active; 'I' for Inactive)
ROOT
HETATM    1  C1  UNL     1     -36.804  15.078  -6.911  1.00 20.00     0.005 C 
HETATM    2  C2  UNL     1     -35.497  16.849  -5.733  1.00 20.00     0.005 C 
HETATM    3  C3  UNL     1     -35.494  14.404  -7.356  1.00 20.00     0.008 C 
HETATM    4  C4  UNL     1     -34.183  16.181  -6.175  1.00 20.00     0.008 C 
HETATM    5  C5  UNL     1     -36.155  14.757  -4.507  1.00 20.00     0.045 C 
HETATM    6  C6  UNL     1     -33.910  13.495  -4.006  1.00 20.00     0.207 A 
HETATM    7  C7  UNL     1     -36.608  15.793  -5.561  1.00 20.00    -0.012 C 
HETATM    8  C8  UNL     1     -34.385  14.662  -6.319  1.00 20.00     0.022 C 
HETATM    9  C9  UNL     1     -34.862  14.143  -4.981  1.00 20.00     0.086 A 
HETATM   10  O10 UNL     1     -34.787  12.719  -4.830  1.00 20.00    -0.375 OA
ENDROOT
TORSDOF 0
ENDMDL
MODEL 9
REMARK VINA RESULT:      -4.3      1.131      2.276
REMARK  0 active torsions:
REMARK  status: ('A' for Active; 'I' for Inactive)
ROOT
HETATM    1  C1  UNL     1     -35.358  15.061  -3.056  1.00 20.00     0.005 C 
HETATM    2  C2  UNL     1     -32.943  15.048  -3.693  1.00 20.00     0.005 C 
HETATM    3  C3  UNL     1     -35.607  16.238  -4.016  1.00 20.00     0.008 C 
HETATM    4  C4  UNL     1     -33.185  16.225  -4.654  1.00 20.00     0.008 C 
HETATM    5  C5  UNL     1     -34.585  13.650  -4.984  1.00 20.00     0.045 C 
HETATM    6  C6  UNL     1     -34.678  14.705  -7.384  1.00 20.00     0.207 A 
HETATM    7  C7  UNL     1     -34.210  14.176  -3.579  1.00 20.00    -0.012 C 
HETATM    8  C8  UNL     1     -34.624  16.175  -5.200  1.00 20.00     0.022 C 
HETATM    9  C9  UNL     1     -34.798  14.839  -5.886  1.00 20.00     0.086 A 
HETATM   10  O10 UNL     1     -35.953  14.747  -6.732  1.00 20.00    -0.375 OA
ENDROOT
TORSDOF 0
ENDMDL
