MODEL 1
REMARK VINA RESULT:      -4.9      0.000      0.000
REMARK  0 active torsions:
REMARK  status: ('A' for Active; 'I' for Inactive)
ROOT
HETATM    1  C1  UNL     1     -34.434  14.332  -3.414  1.00 20.00     0.132 C 
HETATM    2  C2  UNL     1     -35.812  14.964  -3.585  1.00 20.00     0.084 C 
HETATM    3  C3  UNL     1     -33.207  16.111  -4.502  1.00 20.00     0.013 C 
HETATM    4  C4  UNL     1     -34.567  16.824  -4.758  1.00 20.00     0.006 C 
HETATM    5  C5  UNL     1     -33.851  17.627  -1.690  1.00 20.00     0.011 A 
HETATM    6  C6  UNL     1     -34.567  16.496  -0.986  1.00 20.00     0.011 A 
HETATM    7  C7  UNL     1     -33.420  15.440  -3.131  1.00 20.00     0.064 C 
HETATM    8  C8  UNL     1     -35.410  16.464  -3.504  1.00 20.00     0.002 C 
HETATM    9  C9  UNL     1     -34.325  16.432  -2.465  1.00 20.00    -0.026 A 
HETATM   10  O10 UNL     1     -34.181  13.144  -3.517  1.00 20.00    -0.298 OA
ENDROOT
TORSDOF 0
ENDMDL
MODEL 2
REMARK VINA RESULT:      -4.9      1.169      2.874
REMARK  0 active torsions:
REMARK  status: ('A' for Active; 'I' for Inactive)
ROOT
HETATM    1  C1  UNL     1     -34.647  13.695  -4.207  1.00 20.00     0.132 C 
HETATM    2  C2  UNL     1     -33.242  14.024  -3.712  1.00 20.00     0.084 C 
HETATM    3  C3  UNL     1     -35.766  15.443  -2.962  1.00 20.00     0.013 C 
HETATM    4  C4  UNL     1     -34.381  15.837  -2.371  1.00 20.00     0.006 C 
HETATM    5  C5  UNL     1     -34.413  17.296  -5.276  1.00 20.00     0.011 A 
HETATM    6  C6  UNL     1     -33.762  16.199  -6.089  1.00 20.00     0.011 A 
HETATM    7  C7  UNL     1     -35.417  15.002  -4.397  1.00 20.00     0.064 C 
HETATM    8  C8  UNL     1     -33.393  15.562  -3.537  1.00 20.00     0.002 C 
HETATM    9  C9  UNL     1     -34.269  15.915  -4.705  1.00 20.00    -0.026 A 
HETATM   10  O10 UNL     1     -35.090  12.574  -4.389  1.00 20.00    -0.298 OA
ENDROOT
TORSDOF 0
ENDMDL
MODEL 3
REMARK VINA RESULT:      -4.8      1.826      2.599
REMARK  0 active torsions:
REMARK  status: ('A' for Active; 'I' for Inactive)
ROOT
HETATM    1  C1  UNL     1     -36.555  14.572  -4.114  1.00 20.00     0.132 C 
HETATM    2  C2  UNL     1     -36.371  15.854  -4.919  1.00 20.00     0.084 C 
HETATM    3  C3  UNL     1     -34.879  13.290  -5.300  1.00 20.00     0.013 C 
HETATM    4  C4  UNL     1     -34.638  14.537  -6.201  1.00 20.00     0.006 C 
HETATM    5  C5  UNL     1     -32.885  15.172  -3.539  1.00 20.00     0.011 A 
HETATM    6  C6  UNL     1     -33.930  15.933  -2.754  1.00 20.00     0.011 A 
HETATM    7  C7  UNL     1     -35.189  13.913  -3.924  1.00 20.00     0.064 C 
HETATM    8  C8  UNL     1     -34.853  15.734  -5.236  1.00 20.00     0.002 C 
HETATM    9  C9  UNL     1     -34.324  15.137  -3.963  1.00 20.00    -0.026 A 
HETATM   10  O10 UNL     1     -37.620  14.130  -3.717  1.00 20.00    -0.298 OA
ENDROOT
TORSDOF 0
ENDMDL
MODEL 4
REMARK VINA RESULT:      -4.6      2.004      3.591
REMARK  0 active torsions:
REMARK  status: ('A' for Active; 'I' for Inactive)
ROOT
HETATM    1  C1  UNL     1     -36.369  14.329  -4.173  1.00 20.00     0.132 C 
HETATM    2  C2  UNL     1     -35.245  13.297  -4.161  1.00 20.00     0.084 C 
HETATM    3  C3  UNL     1     -34.959  16.239  -3.704  1.00 20.00     0.013 C 
HETATM    4  C4  UNL     1     -33.748  15.263  -3.636  1.00 20.00     0.006 C 
HETATM    5  C5  UNL     1     -34.127  15.787  -6.822  1.00 20.00     0.011 A 
HETATM    6  C6  UNL     1     -35.051  14.630  -7.134  1.00 20.00     0.011 A 
HETATM    7  C7  UNL     1     -35.842  15.618  -4.804  1.00 20.00     0.064 C 
HETATM    8  C8  UNL     1     -34.086  14.184  -4.700  1.00 20.00     0.002 C 
HETATM    9  C9  UNL     1     -34.802  15.035  -5.711  1.00 20.00    -0.026 A 
HETATM   10  O10 UNL     1     -37.490  14.161  -3.724  1.00 20.00    -0.298 OA
ENDROOT
TORSDOF 0
ENDMDL
MODEL 5
REMARK VINA RESULT:      -4.6      1.248      1.933
REMARK  0 active torsions:
REMARK  status: ('A' for Active; 'I' for Inactive)
ROOT
HETATM    1  C1  UNL     1     -34.666  13.655  -4.756  1.00 20.00     0.132 C 
HETATM    2  C2  UNL     1     -34.946  14.739  -5.792  1.00 20.00     0.084 C 
HETATM    3  C3  UNL     1     -32.906  14.856  -3.608  1.00 20.00     0.013 C 
HETATM    4  C4  UNL     1     -33.089  16.007  -4.640  1.00 20.00     0.006 C 
HETATM    5  C5  UNL     1     -35.453  16.543  -2.473  1.00 20.00     0.011 A 
HETATM    6  C6  UNL     1     -36.558  15.756  -3.143  1.00 20.00     0.011 A 
HETATM    7  C7  UNL     1     -34.342  14.327  -3.421  1.00 20.00     0.064 C 
HETATM    8  C8  UNL     1     -34.614  15.995  -4.936  1.00 20.00     0.002 C 
HETATM    9  C9  UNL     1     -35.135  15.588  -3.587  1.00 20.00    -0.026 A 
HETATM   10  O10 UNL     1     -34.670  12.454  -4.966  1.00 20.00    -0.298 OA
ENDROOT
TORSDOF 0
ENDMDL
MODEL 6
REMARK VINA RESULT:      -4.5      1.941      2.734
REMARK  0 active torsions:
REMARK  status: ('A' for Active; 'I' for Inactive)
ROOT
HETATM    1  C1  UNL     1     -35.153  13.699  -4.635  1.00 20.00     0.132 C 
HETATM    2  C2  UNL     1     -36.032  14.662  -3.844  1.00 20.00     0.084 C 
HETATM    3  C3  UNL     1     -35.662  14.629  -6.811  1.00 20.00     0.013 C 
HETATM    4  C4  UNL     1     -36.613  15.636  -6.101  1.00 20.00     0.006 C 
HETATM    5  C5  UNL     1     -33.675  16.979  -5.741  1.00 20.00     0.011 A 
HETATM    6  C6  UNL     1     -33.309  16.371  -4.405  1.00 20.00     0.011 A 
HETATM    7  C7  UNL     1     -34.514  14.462  -5.796  1.00 20.00     0.064 C 
HETATM    8  C8  UNL     1     -35.903  15.920  -4.749  1.00 20.00     0.002 C 
HETATM    9  C9  UNL     1     -34.469  15.832  -5.188  1.00 20.00    -0.026 A 
HETATM   10  O10 UNL     1     -35.011  12.511  -4.399  1.00 20.00    -0.298 OA
ENDROOT
TORSDOF 0
ENDMDL
MODEL 7
REMARK VINA RESULT:      -4.5      1.715      3.202
REMARK  0 active torsions:
REMARK  status: ('A' for Active; 'I' for Inactive)
ROOT
HETATM    1  C1  UNL     1     -34.457  15.719  -2.875  1.00 20.00     0.132 C 
HETATM    2  C2  UNL     1     -35.912  15.407  -3.211  1.00 20.00     0.084 C 
HETATM    3  C3  UNL     1     -33.536  13.714  -3.868  1.00 20.00     0.013 C 
HETATM    4  C4  UNL     1     -34.989  13.286  -4.228  1.00 20.00     0.006 C 
HETATM    5  C5  UNL     1     -34.191  15.348  -6.611  1.00 20.00     0.011 A 
HETATM    6  C6  UNL     1     -34.712  16.626  -5.990  1.00 20.00     0.011 A 
HETATM    7  C7  UNL     1     -33.576  15.246  -4.031  1.00 20.00     0.064 C 
HETATM    8  C8  UNL     1     -35.700  14.631  -4.542  1.00 20.00     0.002 C 
HETATM    9  C9  UNL     1     -34.556  15.389  -5.156  1.00 20.00    -0.026 A 
HETATM   10  O10 UNL     1     -34.062  16.232  -1.841  1.00 20.00    -0.298 OA
ENDROOT
TORSDOF 0
ENDMDL
MODEL 8
REMARK VINA RESULT:      -4.5      2.108      3.170
REMARK  0 active torsions:
REMARK  status: ('A' for Active; 'I' for Inactive)
ROOT
HETATM    1  C1  UNL     1     -33.613  15.901  -4.723  1.00 20.00     0.132 C 
HETATM    2  C2  UNL     1     -33.299  15.003  -3.530  1.00 20.00     0.084 C 
HETATM    3  C3  UNL     1     -34.768  14.208  -6.011  1.00 20.00     0.013 C 
HETATM    4  C4  UNL     1     -34.467  13.202  -4.861  1.00 20.00     0.006 C 
HETATM    5  C5  UNL     1     -37.094  14.801  -3.807  1.00 20.00     0.011 A 
HETATM    6  C6  UNL     1     -36.397  15.901  -3.037  1.00 20.00     0.011 A 
HETATM    7  C7  UNL     1     -34.997  15.534  -5.259  1.00 20.00     0.064 C 
HETATM    8  C8  UNL     1     -34.546  14.076  -3.580  1.00 20.00     0.002 C 
HETATM    9  C9  UNL     1     -35.624  15.039  -3.991  1.00 20.00    -0.026 A 
HETATM   10  O10 UNL     1     -32.870  16.747  -5.190  1.00 20.00    -0.298 OA
ENDROOT
TORSDOF 0
ENDMDL
MODEL 9
REMARK VINA RESULT:      -4.5      1.812      3.602
REMARK  0 active torsions:
REMARK  status: ('A' for Active; 'I' for Inactive)
ROOT
HETATM    1  C1  UNL     1     -33.653  13.859  -4.176  1.00 20.00     0.132 C 
HETATM    2  C2  UNL     1     -33.404  15.358  -4.037  1.00 20.00     0.084 C 
HETATM    3  C3  UNL     1     -36.058  13.984  -3.942  1.00 20.00     0.013 C 
HETATM    4  C4  UNL     1     -35.909  15.522  -3.753  1.00 20.00     0.006 C 
HETATM    5  C5  UNL     1     -35.814  15.138  -6.980  1.00 20.00     0.011 A 
HETATM    6  C6  UNL     1     -34.317  15.005  -7.150  1.00 20.00     0.011 A 
HETATM    7  C7  UNL     1     -34.949  13.651  -4.959  1.00 20.00     0.064 C 
HETATM    8  C8  UNL     1     -34.716  15.890  -4.678  1.00 20.00     0.002 C 
HETATM    9  C9  UNL     1     -34.935  14.900  -5.787  1.00 20.00    -0.026 A 
HETATM   10  O10 UNL     1     -32.951  12.977  -3.713  1.00 20.00    -0.298 OA
ENDROOT
TORSDOF 0
ENDMDL
