MODEL 1
REMARK VINA RESULT:      -5.1      0.000      0.000
REMARK  1 active torsions:
REMARK  status: ('A' for Active; 'I' for Inactive)
REMARK    1  A    between atoms: C11_11  and  C12_12 
ROOT
HETATM    1  C1  UNL     1     -33.391  13.781  -3.863  1.00 20.00     0.009 C 
HETATM    2  C2  UNL     1     -35.890  13.926  -3.988  1.00 20.00     0.009 C 
HETATM    3  C3  UNL     1     -34.607  15.575  -2.602  1.00 20.00     0.009 C 
HETATM    4  C4  UNL     1     -34.500  14.521  -5.988  1.00 20.00     0.017 C 
HETATM    5  C5  UNL     1     -33.212  16.172  -4.599  1.00 20.00     0.017 C 
HETATM    6  C6  UNL     1     -35.718  16.318  -4.724  1.00 20.00     0.017 C 
HETATM    7  C8  UNL     1     -34.614  13.583  -4.773  1.00 20.00    -0.013 C 
HETATM    8  C9  UNL     1     -33.324  15.240  -3.380  1.00 20.00    -0.013 C 
HETATM    9  C10 UNL     1     -35.836  15.386  -3.505  1.00 20.00    -0.013 C 
HETATM   10  C12 UNL     1     -34.437  15.996  -5.528  1.00 20.00    -0.011 C 
ENDROOT
BRANCH  10  11
HETATM   11  C11 UNL     1     -34.324  16.914  -6.724  1.00 20.00     0.153 A 
HETATM   12  C7  UNL     1     -34.029  18.379  -6.556  1.00 20.00     0.201 A 
HETATM   13  O13 UNL     1     -35.358  17.900  -6.818  1.00 20.00    -0.380 OA
ENDBRANCH  10  11
TORSDOF 1
ENDMDL
MODEL 2
REMARK VINA RESULT:      -5.1      0.060      2.070
REMARK  1 active torsions:
REMARK  status: ('A' for Active; 'I' for Inactive)
REMARK    1  A    between atoms: C11_11  and  C12_12 
ROOT
HETATM    1  C1  UNL     1     -34.581  15.594  -2.624  1.00 20.00     0.009 C 
HETATM    2  C2  UNL     1     -33.445  13.754  -3.893  1.00 20.00     0.009 C 
HETATM    3  C3  UNL     1     -35.941  13.980  -3.978  1.00 20.00     0.009 C 
HETATM    4  C4  UNL     1     -33.201  16.134  -4.648  1.00 20.00     0.017 C 
HETATM    5  C5  UNL     1     -35.703  16.361  -4.732  1.00 20.00     0.017 C 
HETATM    6  C6  UNL     1     -34.564  14.517  -6.004  1.00 20.00     0.017 C 
HETATM    7  C8  UNL     1     -33.323  15.212  -3.421  1.00 20.00    -0.013 C 
HETATM    8  C9  UNL     1     -35.831  15.440  -3.506  1.00 20.00    -0.013 C 
HETATM    9  C10 UNL     1     -34.690  13.590  -4.782  1.00 20.00    -0.013 C 
HETATM   10  C12 UNL     1     -34.446  15.992  -5.555  1.00 20.00    -0.011 C 
ENDROOT
BRANCH  10  11
HETATM   11  C11 UNL     1     -34.323  16.899  -6.759  1.00 20.00     0.153 A 
HETATM   12  C7  UNL     1     -34.064  18.371  -6.602  1.00 20.00     0.201 A 
HETATM   13  O13 UNL     1     -35.376  17.860  -6.890  1.00 20.00    -0.380 OA
ENDBRANCH  10  11
TORSDOF 1
ENDMDL
MODEL 3
REMARK VINA RESULT:      -5.1      0.036      2.101
REMARK  1 active torsions:
REMARK  status: ('A' for Active; 'I' for Inactive)
REMARK    1  A    between atoms: C11_11  and  C12_12 
ROOT
HETATM    1  C1  UNL     1     -35.937  13.965  -3.988  1.00 20.00     0.009 C 
HETATM    2  C2  UNL     1     -34.619  15.588  -2.603  1.00 20.00     0.009 C 
HETATM    3  C3  UNL     1     -33.439  13.774  -3.870  1.00 20.00     0.009 C 
HETATM    4  C4  UNL     1     -35.722  16.355  -4.722  1.00 20.00     0.017 C 
HETATM    5  C5  UNL     1     -34.540  14.536  -5.991  1.00 20.00     0.017 C 
HETATM    6  C6  UNL     1     -33.219  16.162  -4.603  1.00 20.00     0.017 C 
HETATM    7  C8  UNL     1     -35.854  15.423  -3.504  1.00 20.00    -0.013 C 
HETATM    8  C9  UNL     1     -34.669  13.600  -4.777  1.00 20.00    -0.013 C 
HETATM    9  C10 UNL     1     -33.344  15.230  -3.385  1.00 20.00    -0.013 C 
HETATM   10  C12 UNL     1     -34.448  16.010  -5.529  1.00 20.00    -0.011 C 
ENDROOT
BRANCH  10  11
HETATM   11  C11 UNL     1     -34.321  16.927  -6.725  1.00 20.00     0.153 A 
HETATM   12  C7  UNL     1     -34.032  18.392  -6.554  1.00 20.00     0.201 A 
HETATM   13  O13 UNL     1     -35.356  17.909  -6.834  1.00 20.00    -0.380 OA
ENDBRANCH  10  11
TORSDOF 1
ENDMDL
MODEL 4
REMARK VINA RESULT:      -5.0     12.000     13.846
REMARK  1 active torsions:
REMARK  status: ('A' for Active; 'I' for Inactive)
REMARK    1  A    between atoms: C11_11  and  C12_12 
ROOT
HETATM    1  C1  UNL     1     -40.914   6.966  -0.869  1.00 20.00     0.009 C 
HETATM    2  C2  UNL     1     -41.971   5.366   0.746  1.00 20.00     0.009 C 
HETATM    3  C3  UNL     1     -43.407   6.920  -0.600  1.00 20.00     0.009 C 
HETATM    4  C4  UNL     1     -40.920   4.506  -1.363  1.00 20.00     0.017 C 
HETATM    5  C5  UNL     1     -42.358   6.064  -2.712  1.00 20.00     0.017 C 
HETATM    6  C6  UNL     1     -43.417   4.461  -1.093  1.00 20.00     0.017 C 
HETATM    7  C8  UNL     1     -40.815   5.563  -0.248  1.00 20.00    -0.013 C 
HETATM    8  C9  UNL     1     -42.258   7.124  -1.601  1.00 20.00    -0.013 C 
HETATM    9  C10 UNL     1     -43.320   5.517   0.023  1.00 20.00    -0.013 C 
HETATM   10  C12 UNL     1     -42.267   4.641  -2.110  1.00 20.00    -0.011 C 
ENDROOT
BRANCH  10  11
HETATM   11  C11 UNL     1     -42.366   3.603  -3.204  1.00 20.00     0.153 A 
HETATM   12  C7  UNL     1     -42.620   2.156  -2.883  1.00 20.00     0.201 A 
HETATM   13  O13 UNL     1     -41.307   2.640  -3.209  1.00 20.00    -0.380 OA
ENDBRANCH  10  11
TORSDOF 1
ENDMDL
MODEL 5
REMARK VINA RESULT:      -5.0     12.046     14.050
REMARK  1 active torsions:
REMARK  status: ('A' for Active; 'I' for Inactive)
REMARK    1  A    between atoms: C11_11  and  C12_12 
ROOT
HETATM    1  C1  UNL     1     -43.416   6.799  -0.583  1.00 20.00     0.009 C 
HETATM    2  C2  UNL     1     -40.956   6.885  -1.057  1.00 20.00     0.009 C 
HETATM    3  C3  UNL     1     -41.843   5.310   0.681  1.00 20.00     0.009 C 
HETATM    4  C4  UNL     1     -42.524   5.904  -2.751  1.00 20.00     0.017 C 
HETATM    5  C5  UNL     1     -43.415   4.327  -1.008  1.00 20.00     0.017 C 
HETATM    6  C6  UNL     1     -40.948   4.414  -1.483  1.00 20.00     0.017 C 
HETATM    7  C8  UNL     1     -42.357   6.997  -1.680  1.00 20.00    -0.013 C 
HETATM    8  C9  UNL     1     -43.249   5.415   0.067  1.00 20.00    -0.013 C 
HETATM    9  C10 UNL     1     -40.776   5.502  -0.408  1.00 20.00    -0.013 C 
HETATM   10  C12 UNL     1     -42.354   4.501  -2.121  1.00 20.00    -0.011 C 
ENDROOT
BRANCH  10  11
HETATM   11  C11 UNL     1     -42.519   3.430  -3.175  1.00 20.00     0.153 A 
HETATM   12  C7  UNL     1     -42.783   2.000  -2.796  1.00 20.00     0.201 A 
HETATM   13  O13 UNL     1     -41.478   2.449  -3.195  1.00 20.00    -0.380 OA
ENDBRANCH  10  11
TORSDOF 1
ENDMDL
MODEL 6
REMARK VINA RESULT:      -4.9     12.104     14.028
REMARK  1 active torsions:
REMARK  status: ('A' for Active; 'I' for Inactive)
REMARK    1  A    between atoms: C11_11  and  C12_12 
ROOT
HETATM    1  C1  UNL     1     -41.734   5.205   0.675  1.00 20.00     0.009 C 
HETATM    2  C2  UNL     1     -43.416   6.639  -0.508  1.00 20.00     0.009 C 
HETATM    3  C3  UNL     1     -40.983   6.828  -1.083  1.00 20.00     0.009 C 
HETATM    4  C4  UNL     1     -43.335   4.173  -0.958  1.00 20.00     0.017 C 
HETATM    5  C5  UNL     1     -40.895   4.362  -1.534  1.00 20.00     0.017 C 
HETATM    6  C6  UNL     1     -42.581   5.800  -2.719  1.00 20.00     0.017 C 
HETATM    7  C8  UNL     1     -43.168   5.258   0.120  1.00 20.00    -0.013 C 
HETATM    8  C9  UNL     1     -40.722   5.447  -0.457  1.00 20.00    -0.013 C 
HETATM    9  C10 UNL     1     -42.412   6.890  -1.646  1.00 20.00    -0.013 C 
HETATM   10  C12 UNL     1     -42.330   4.399  -2.113  1.00 20.00    -0.011 C 
ENDROOT
BRANCH  10  11
HETATM   11  C11 UNL     1     -42.496   3.332  -3.170  1.00 20.00     0.153 A 
HETATM   12  C7  UNL     1     -42.816   1.911  -2.798  1.00 20.00     0.201 A 
HETATM   13  O13 UNL     1     -41.486   2.319  -3.157  1.00 20.00    -0.380 OA
ENDBRANCH  10  11
TORSDOF 1
ENDMDL
MODEL 7
REMARK VINA RESULT:      -4.9      1.491      3.257
REMARK  1 active torsions:
REMARK  status: ('A' for Active; 'I' for Inactive)
REMARK    1  A    between atoms: C11_11  and  C12_12 
ROOT
HETATM    1  C1  UNL     1     -33.259  16.188  -4.610  1.00 20.00     0.009 C 
HETATM    2  C2  UNL     1     -34.360  14.505  -6.107  1.00 20.00     0.009 C 
HETATM    3  C3  UNL     1     -33.496  13.807  -3.859  1.00 20.00     0.009 C 
HETATM    4  C4  UNL     1     -35.730  16.306  -5.025  1.00 20.00     0.017 C 
HETATM    5  C5  UNL     1     -34.863  15.608  -2.772  1.00 20.00     0.017 C 
HETATM    6  C6  UNL     1     -35.966  13.920  -4.272  1.00 20.00     0.017 C 
HETATM    7  C8  UNL     1     -34.366  15.975  -5.656  1.00 20.00    -0.013 C 
HETATM    8  C9  UNL     1     -33.497  15.274  -3.397  1.00 20.00    -0.013 C 
HETATM    9  C10 UNL     1     -34.603  13.582  -4.901  1.00 20.00    -0.013 C 
HETATM   10  C12 UNL     1     -35.996  15.394  -3.804  1.00 20.00    -0.011 C 
ENDROOT
BRANCH  10  11
HETATM   11  C11 UNL     1     -37.336  15.721  -3.186  1.00 20.00     0.153 A 
HETATM   12  C7  UNL     1     -38.599  15.069  -3.675  1.00 20.00     0.201 A 
HETATM   13  O13 UNL     1     -38.242  16.407  -4.057  1.00 20.00    -0.380 OA
ENDBRANCH  10  11
TORSDOF 1
ENDMDL
MODEL 8
REMARK VINA RESULT:      -4.9      1.490      3.226
REMARK  1 active torsions:
REMARK  status: ('A' for Active; 'I' for Inactive)
REMARK    1  A    between atoms: C11_11  and  C12_12 
ROOT
HETATM    1  C1  UNL     1     -34.374  14.474  -6.113  1.00 20.00     0.009 C 
HETATM    2  C2  UNL     1     -33.484  13.809  -3.866  1.00 20.00     0.009 C 
HETATM    3  C3  UNL     1     -33.265  16.181  -4.649  1.00 20.00     0.009 C 
HETATM    4  C4  UNL     1     -35.960  13.906  -4.254  1.00 20.00     0.017 C 
HETATM    5  C5  UNL     1     -35.741  16.283  -5.040  1.00 20.00     0.017 C 
HETATM    6  C6  UNL     1     -34.848  15.617  -2.788  1.00 20.00     0.017 C 
HETATM    7  C8  UNL     1     -34.601  13.566  -4.893  1.00 20.00    -0.013 C 
HETATM    8  C9  UNL     1     -34.382  15.950  -5.681  1.00 20.00    -0.013 C 
HETATM    9  C10 UNL     1     -33.486  15.282  -3.422  1.00 20.00    -0.013 C 
HETATM   10  C12 UNL     1     -35.990  15.386  -3.804  1.00 20.00    -0.011 C 
ENDROOT
BRANCH  10  11
HETATM   11  C11 UNL     1     -37.325  15.717  -3.178  1.00 20.00     0.153 A 
HETATM   12  C7  UNL     1     -38.595  15.078  -3.667  1.00 20.00     0.201 A 
HETATM   13  O13 UNL     1     -38.229  16.417  -4.038  1.00 20.00    -0.380 OA
ENDBRANCH  10  11
TORSDOF 1
ENDMDL
MODEL 9
REMARK VINA RESULT:      -4.9      1.492      3.480
REMARK  1 active torsions:
REMARK  status: ('A' for Active; 'I' for Inactive)
REMARK    1  A    between atoms: C11_11  and  C12_12 
ROOT
HETATM    1  C1  UNL     1     -33.489  13.818  -3.857  1.00 20.00     0.009 C 
HETATM    2  C2  UNL     1     -33.266  16.199  -4.612  1.00 20.00     0.009 C 
HETATM    3  C3  UNL     1     -34.355  14.507  -6.108  1.00 20.00     0.009 C 
HETATM    4  C4  UNL     1     -34.869  15.612  -2.775  1.00 20.00     0.017 C 
HETATM    5  C5  UNL     1     -35.961  13.915  -4.273  1.00 20.00     0.017 C 
HETATM    6  C6  UNL     1     -35.736  16.301  -5.030  1.00 20.00     0.017 C 
HETATM    7  C8  UNL     1     -33.500  15.286  -3.397  1.00 20.00    -0.013 C 
HETATM    8  C9  UNL     1     -34.595  13.585  -4.900  1.00 20.00    -0.013 C 
HETATM    9  C10 UNL     1     -34.370  15.977  -5.659  1.00 20.00    -0.013 C 
HETATM   10  C12 UNL     1     -35.999  15.391  -3.808  1.00 20.00    -0.011 C 
ENDROOT
BRANCH  10  11
HETATM   11  C11 UNL     1     -37.342  15.711  -3.193  1.00 20.00     0.153 A 
HETATM   12  C7  UNL     1     -38.602  15.059  -3.692  1.00 20.00     0.201 A 
HETATM   13  O13 UNL     1     -38.246  16.400  -4.064  1.00 20.00    -0.380 OA
ENDBRANCH  10  11
TORSDOF 1
ENDMDL
