MODEL 1
REMARK VINA RESULT:      -4.6      0.000      0.000
REMARK  0 active torsions:
REMARK  status: ('A' for Active; 'I' for Inactive)
ROOT
HETATM    1  C1  UNL     1     -34.387  13.697  -4.365  1.00 20.00     0.064 C 
HETATM    2  C2  UNL     1     -34.071  16.112  -4.767  1.00 20.00     0.045 C 
HETATM    3  C3  UNL     1     -34.848  15.292  -2.531  1.00 20.00     0.056 C 
HETATM    4  C4  UNL     1     -33.648  17.439  -4.144  1.00 20.00     0.170 C 
HETATM    5  C5  UNL     1     -33.982  14.974  -3.758  1.00 20.00     0.097 C 
HETATM    6  C6  UNL     1     -34.791  16.782  -2.116  1.00 20.00     0.055 C 
HETATM    7  C7  UNL     1     -36.094  17.520  -2.462  1.00 20.00     0.045 C 
HETATM    8  C8  UNL     1     -34.573  16.887  -0.600  1.00 20.00     0.045 C 
HETATM    9  N9  UNL     1     -34.707  12.689  -4.845  1.00 20.00    -0.197 NA
HETATM   10  O10 UNL     1     -33.666  17.431  -2.719  1.00 20.00    -0.381 OA
ENDROOT
TORSDOF 0
ENDMDL
MODEL 2
REMARK VINA RESULT:      -4.4      2.668      3.698
REMARK  0 active torsions:
REMARK  status: ('A' for Active; 'I' for Inactive)
ROOT
HETATM    1  C1  UNL     1     -37.520  14.617  -3.821  1.00 20.00     0.064 C 
HETATM    2  C2  UNL     1     -35.350  13.511  -4.221  1.00 20.00     0.045 C 
HETATM    3  C3  UNL     1     -35.709  15.887  -4.930  1.00 20.00     0.056 C 
HETATM    4  C4  UNL     1     -33.839  13.709  -4.289  1.00 20.00     0.170 C 
HETATM    5  C5  UNL     1     -36.064  14.816  -3.890  1.00 20.00     0.097 C 
HETATM    6  C6  UNL     1     -34.228  15.837  -5.373  1.00 20.00     0.055 C 
HETATM    7  C7  UNL     1     -34.078  15.280  -6.798  1.00 20.00     0.045 C 
HETATM    8  C8  UNL     1     -33.634  17.252  -5.351  1.00 20.00     0.045 C 
HETATM    9  N9  UNL     1     -38.670  14.460  -3.768  1.00 20.00    -0.197 NA
HETATM   10  O10 UNL     1     -33.449  15.072  -4.447  1.00 20.00    -0.381 OA
ENDROOT
TORSDOF 0
ENDMDL
MODEL 3
REMARK VINA RESULT:      -4.2     11.827     13.139
REMARK  0 active torsions:
REMARK  status: ('A' for Active; 'I' for Inactive)
ROOT
HETATM    1  C1  UNL     1     -42.747   7.927  -3.058  1.00 20.00     0.064 C 
HETATM    2  C2  UNL     1     -41.676   7.066  -1.008  1.00 20.00     0.045 C 
HETATM    3  C3  UNL     1     -42.518   5.481  -2.757  1.00 20.00     0.056 C 
HETATM    4  C4  UNL     1     -40.793   5.967  -0.425  1.00 20.00     0.170 C 
HETATM    5  C5  UNL     1     -41.898   6.862  -2.501  1.00 20.00     0.097 C 
HETATM    6  C6  UNL     1     -41.940   4.376  -1.841  1.00 20.00     0.055 C 
HETATM    7  C7  UNL     1     -42.944   3.948  -0.760  1.00 20.00     0.045 C 
HETATM    8  C8  UNL     1     -41.590   3.140  -2.682  1.00 20.00     0.045 C 
HETATM    9  N9  UNL     1     -43.417   8.767  -3.498  1.00 20.00    -0.197 NA
HETATM   10  O10 UNL     1     -40.709   4.806  -1.247  1.00 20.00    -0.381 OA
ENDROOT
TORSDOF 0
ENDMDL
MODEL 4
REMARK VINA RESULT:      -4.1      1.283      1.939
REMARK  0 active torsions:
REMARK  status: ('A' for Active; 'I' for Inactive)
ROOT
HETATM    1  C1  UNL     1     -34.076  14.180  -3.926  1.00 20.00     0.064 C 
HETATM    2  C2  UNL     1     -36.003  15.513  -3.151  1.00 20.00     0.045 C 
HETATM    3  C3  UNL     1     -33.671  16.168  -2.510  1.00 20.00     0.056 C 
HETATM    4  C4  UNL     1     -36.499  16.916  -2.815  1.00 20.00     0.170 C 
HETATM    5  C5  UNL     1     -34.547  15.535  -3.599  1.00 20.00     0.097 C 
HETATM    6  C6  UNL     1     -34.346  17.373  -1.811  1.00 20.00     0.055 C 
HETATM    7  C7  UNL     1     -34.797  17.023  -0.384  1.00 20.00     0.045 C 
HETATM    8  C8  UNL     1     -33.354  18.541  -1.724  1.00 20.00     0.045 C 
HETATM    9  N9  UNL     1     -33.704  13.110  -4.183  1.00 20.00    -0.197 NA
HETATM   10  O10 UNL     1     -35.449  17.853  -2.587  1.00 20.00    -0.381 OA
ENDROOT
TORSDOF 0
ENDMDL
MODEL 5
REMARK VINA RESULT:      -4.1      2.685      4.041
REMARK  0 active torsions:
REMARK  status: ('A' for Active; 'I' for Inactive)
ROOT
HETATM    1  C1  UNL     1     -34.043  17.013  -1.233  1.00 20.00     0.064 C 
HETATM    2  C2  UNL     1     -36.004  16.617  -2.678  1.00 20.00     0.045 C 
HETATM    3  C3  UNL     1     -33.868  15.368  -3.073  1.00 20.00     0.056 C 
HETATM    4  C4  UNL     1     -36.773  15.575  -3.486  1.00 20.00     0.170 C 
HETATM    5  C5  UNL     1     -34.777  16.005  -2.013  1.00 20.00     0.097 C 
HETATM    6  C6  UNL     1     -34.653  14.649  -4.195  1.00 20.00     0.055 C 
HETATM    7  C7  UNL     1     -34.609  15.435  -5.515  1.00 20.00     0.045 C 
HETATM    8  C8  UNL     1     -34.042  13.263  -4.446  1.00 20.00     0.045 C 
HETATM    9  N9  UNL     1     -33.463  17.809  -0.617  1.00 20.00    -0.197 NA
HETATM   10  O10 UNL     1     -36.007  14.412  -3.792  1.00 20.00    -0.381 OA
ENDROOT
TORSDOF 0
ENDMDL
MODEL 6
REMARK VINA RESULT:      -4.1      2.615      3.798
REMARK  0 active torsions:
REMARK  status: ('A' for Active; 'I' for Inactive)
ROOT
HETATM    1  C1  UNL     1     -34.757  16.751  -1.106  1.00 20.00     0.064 C 
HETATM    2  C2  UNL     1     -33.347  15.954  -2.968  1.00 20.00     0.045 C 
HETATM    3  C3  UNL     1     -35.821  15.562  -2.997  1.00 20.00     0.056 C 
HETATM    4  C4  UNL     1     -33.282  15.712  -4.473  1.00 20.00     0.170 C 
HETATM    5  C5  UNL     1     -34.702  16.516  -2.557  1.00 20.00     0.097 C 
HETATM    6  C6  UNL     1     -35.568  14.926  -4.385  1.00 20.00     0.055 C 
HETATM    7  C7  UNL     1     -35.186  13.442  -4.271  1.00 20.00     0.045 C 
HETATM    8  C8  UNL     1     -36.841  15.026  -5.238  1.00 20.00     0.045 C 
HETATM    9  N9  UNL     1     -34.801  16.937   0.039  1.00 20.00    -0.197 NA
HETATM   10  O10 UNL     1     -34.562  15.655  -5.098  1.00 20.00    -0.381 OA
ENDROOT
TORSDOF 0
ENDMDL
MODEL 7
REMARK VINA RESULT:      -4.1      2.249      2.769
REMARK  0 active torsions:
REMARK  status: ('A' for Active; 'I' for Inactive)
ROOT
HETATM    1  C1  UNL     1     -37.489  14.740  -4.086  1.00 20.00     0.064 C 
HETATM    2  C2  UNL     1     -36.147  16.755  -4.566  1.00 20.00     0.045 C 
HETATM    3  C3  UNL     1     -35.098  14.772  -3.448  1.00 20.00     0.056 C 
HETATM    4  C4  UNL     1     -34.767  17.274  -4.959  1.00 20.00     0.170 C 
HETATM    5  C5  UNL     1     -36.155  15.235  -4.461  1.00 20.00     0.097 C 
HETATM    6  C6  UNL     1     -33.790  15.596  -3.515  1.00 20.00     0.055 C 
HETATM    7  C7  UNL     1     -33.647  16.538  -2.309  1.00 20.00     0.045 C 
HETATM    8  C8  UNL     1     -32.583  14.648  -3.525  1.00 20.00     0.045 C 
HETATM    9  N9  UNL     1     -38.541  14.349  -3.791  1.00 20.00    -0.197 NA
HETATM   10  O10 UNL     1     -33.719  16.332  -4.742  1.00 20.00    -0.381 OA
ENDROOT
TORSDOF 0
ENDMDL
MODEL 8
REMARK VINA RESULT:      -4.1      2.630      4.054
REMARK  0 active torsions:
REMARK  status: ('A' for Active; 'I' for Inactive)
ROOT
HETATM    1  C1  UNL     1     -34.348  16.022  -2.139  1.00 20.00     0.064 C 
HETATM    2  C2  UNL     1     -34.679  14.014  -3.537  1.00 20.00     0.045 C 
HETATM    3  C3  UNL     1     -34.897  16.302  -4.536  1.00 20.00     0.056 C 
HETATM    4  C4  UNL     1     -34.496  13.414  -4.927  1.00 20.00     0.170 C 
HETATM    5  C5  UNL     1     -34.173  15.451  -3.484  1.00 20.00     0.097 C 
HETATM    6  C6  UNL     1     -35.134  15.550  -5.867  1.00 20.00     0.055 C 
HETATM    7  C7  UNL     1     -36.612  15.169  -6.051  1.00 20.00     0.045 C 
HETATM    8  C8  UNL     1     -34.724  16.445  -7.046  1.00 20.00     0.045 C 
HETATM    9  N9  UNL     1     -34.487  16.473  -1.079  1.00 20.00    -0.197 NA
HETATM   10  O10 UNL     1     -34.299  14.390  -5.948  1.00 20.00    -0.381 OA
ENDROOT
TORSDOF 0
ENDMDL
MODEL 9
REMARK VINA RESULT:      -4.1      1.820      2.084
REMARK  0 active torsions:
REMARK  status: ('A' for Active; 'I' for Inactive)
ROOT
HETATM    1  C1  UNL     1     -37.064  14.636  -3.700  1.00 20.00     0.064 C 
HETATM    2  C2  UNL     1     -34.864  15.144  -4.697  1.00 20.00     0.045 C 
HETATM    3  C3  UNL     1     -35.573  16.251  -2.564  1.00 20.00     0.056 C 
HETATM    4  C4  UNL     1     -33.408  15.490  -4.403  1.00 20.00     0.170 C 
HETATM    5  C5  UNL     1     -35.662  14.974  -3.410  1.00 20.00     0.097 C 
HETATM    6  C6  UNL     1     -34.171  16.905  -2.595  1.00 20.00     0.055 C 
HETATM    7  C7  UNL     1     -34.162  18.194  -3.433  1.00 20.00     0.045 C 
HETATM    8  C8  UNL     1     -33.736  17.263  -1.167  1.00 20.00     0.045 C 
HETATM    9  N9  UNL     1     -38.171  14.370  -3.928  1.00 20.00    -0.197 NA
HETATM   10  O10 UNL     1     -33.193  15.979  -3.081  1.00 20.00    -0.381 OA
ENDROOT
TORSDOF 0
ENDMDL
