MODEL 1
REMARK VINA RESULT:      -4.6      0.000      0.000
REMARK  2 active torsions:
REMARK  status: ('A' for Active; 'I' for Inactive)
REMARK    1  A    between atoms: C8_8  and  C9_9 
REMARK    2  A    between atoms: C9_9  and  N11_11 
ROOT
HETATM    1  C1  UNL     1     -33.425  16.911  -4.122  1.00 20.00     0.096 C 
HETATM    2  C9  UNL     1     -33.680  16.279  -2.820  1.00 20.00     0.332 C 
HETATM    3  N10 UNL     1     -33.221  17.408  -5.149  1.00 20.00    -0.195 NA
ENDROOT
BRANCH   2   4
HETATM    4  C8  UNL     1     -34.306  17.267  -1.846  1.00 20.00     0.033 A 
HETATM    5  C4  UNL     1     -34.686  16.827  -0.459  1.00 20.00     0.008 A 
HETATM    6  C5  UNL     1     -33.524  17.760  -0.659  1.00 20.00     0.008 A 
ENDBRANCH   2   4
BRANCH   2   7
HETATM    7  N11 UNL     1     -34.547  15.108  -2.994  1.00 20.00     0.106 N 
HETATM    8  C6  UNL     1     -35.788  15.475  -3.678  1.00 20.00     0.274 C 
HETATM    9  C2  UNL     1     -36.314  14.136  -4.170  1.00 20.00     0.032 C 
HETATM   10  C3  UNL     1     -35.083  13.241  -4.289  1.00 20.00     0.032 C 
HETATM   11  C7  UNL     1     -33.914  14.117  -3.864  1.00 20.00     0.274 C 
ENDBRANCH   2   7
TORSDOF 2
ENDMDL
MODEL 2
REMARK VINA RESULT:      -4.4      2.232      3.288
REMARK  2 active torsions:
REMARK  status: ('A' for Active; 'I' for Inactive)
REMARK    1  A    between atoms: C8_8  and  C9_9 
REMARK    2  A    between atoms: C9_9  and  N11_11 
ROOT
HETATM    1  C1  UNL     1     -36.948  15.033  -3.708  1.00 20.00     0.096 C 
HETATM    2  C9  UNL     1     -35.846  16.002  -3.635  1.00 20.00     0.332 C 
HETATM    3  N10 UNL     1     -37.820  14.271  -3.764  1.00 20.00    -0.195 NA
ENDROOT
BRANCH   2   4
HETATM    4  C8  UNL     1     -34.864  15.632  -2.532  1.00 20.00     0.033 A 
HETATM    5  C4  UNL     1     -33.651  16.483  -2.281  1.00 20.00     0.008 A 
HETATM    6  C5  UNL     1     -34.776  16.468  -1.285  1.00 20.00     0.008 A 
ENDBRANCH   2   4
BRANCH   2   7
HETATM    7  N11 UNL     1     -35.160  16.078  -4.931  1.00 20.00     0.106 N 
HETATM    8  C6  UNL     1     -34.714  14.752  -5.361  1.00 20.00     0.274 C 
HETATM    9  C2  UNL     1     -34.470  14.943  -6.851  1.00 20.00     0.032 C 
HETATM   10  C3  UNL     1     -35.364  16.111  -7.256  1.00 20.00     0.032 C 
HETATM   11  C7  UNL     1     -36.078  16.526  -5.979  1.00 20.00     0.274 C 
ENDBRANCH   2   7
TORSDOF 2
ENDMDL
MODEL 3
REMARK VINA RESULT:      -4.4      2.009      3.190
REMARK  2 active torsions:
REMARK  status: ('A' for Active; 'I' for Inactive)
REMARK    1  A    between atoms: C8_8  and  C9_9 
REMARK    2  A    between atoms: C9_9  and  N11_11 
ROOT
HETATM    1  C1  UNL     1     -35.110  13.917  -3.995  1.00 20.00     0.096 C 
HETATM    2  C9  UNL     1     -35.270  15.324  -3.604  1.00 20.00     0.332 C 
HETATM    3  N10 UNL     1     -34.986  12.806  -4.303  1.00 20.00    -0.195 NA
ENDROOT
BRANCH   2   4
HETATM    4  C8  UNL     1     -34.222  15.729  -2.576  1.00 20.00     0.033 A 
HETATM    5  C4  UNL     1     -33.925  17.182  -2.329  1.00 20.00     0.008 A 
HETATM    6  C5  UNL     1     -34.638  16.373  -1.283  1.00 20.00     0.008 A 
ENDBRANCH   2   4
BRANCH   2   7
HETATM    7  N11 UNL     1     -35.188  16.185  -4.790  1.00 20.00     0.106 N 
HETATM    8  C6  UNL     1     -34.044  15.815  -5.624  1.00 20.00     0.274 C 
HETATM    9  C2  UNL     1     -34.379  16.454  -6.963  1.00 20.00     0.032 C 
HETATM   10  C3  UNL     1     -35.900  16.579  -6.978  1.00 20.00     0.032 C 
HETATM   11  C7  UNL     1     -36.359  15.999  -5.648  1.00 20.00     0.274 C 
ENDBRANCH   2   7
TORSDOF 2
ENDMDL
MODEL 4
REMARK VINA RESULT:      -4.1      2.278      4.399
REMARK  2 active torsions:
REMARK  status: ('A' for Active; 'I' for Inactive)
REMARK    1  A    between atoms: C8_8  and  C9_9 
REMARK    2  A    between atoms: C9_9  and  N11_11 
ROOT
HETATM    1  C1  UNL     1     -34.666  13.595  -4.955  1.00 20.00     0.096 C 
HETATM    2  C9  UNL     1     -34.491  14.963  -5.462  1.00 20.00     0.332 C 
HETATM    3  N10 UNL     1     -34.801  12.515  -4.556  1.00 20.00    -0.195 NA
ENDROOT
BRANCH   2   4
HETATM    4  C8  UNL     1     -35.543  15.297  -6.510  1.00 20.00     0.033 A 
HETATM    5  C4  UNL     1     -35.683  16.703  -7.022  1.00 20.00     0.008 A 
HETATM    6  C5  UNL     1     -35.133  15.629  -7.917  1.00 20.00     0.008 A 
ENDBRANCH   2   4
BRANCH   2   7
HETATM    7  N11 UNL     1     -34.548  15.920  -4.350  1.00 20.00     0.106 N 
HETATM    8  C6  UNL     1     -35.667  15.613  -3.458  1.00 20.00     0.274 C 
HETATM    9  C2  UNL     1     -35.303  16.364  -2.186  1.00 20.00     0.032 C 
HETATM   10  C3  UNL     1     -33.783  16.499  -2.222  1.00 20.00     0.032 C 
HETATM   11  C7  UNL     1     -33.355  15.813  -3.511  1.00 20.00     0.274 C 
ENDBRANCH   2   7
TORSDOF 2
ENDMDL
MODEL 5
REMARK VINA RESULT:      -4.0      1.530      4.250
REMARK  2 active torsions:
REMARK  status: ('A' for Active; 'I' for Inactive)
REMARK    1  A    between atoms: C8_8  and  C9_9 
REMARK    2  A    between atoms: C9_9  and  N11_11 
ROOT
HETATM    1  C1  UNL     1     -36.293  16.294  -3.114  1.00 20.00     0.096 C 
HETATM    2  C9  UNL     1     -35.132  15.488  -2.711  1.00 20.00     0.332 C 
HETATM    3  N10 UNL     1     -37.211  16.928  -3.431  1.00 20.00    -0.195 NA
ENDROOT
BRANCH   2   4
HETATM    4  C8  UNL     1     -34.465  14.847  -3.919  1.00 20.00     0.033 A 
HETATM    5  C4  UNL     1     -33.343  13.864  -3.733  1.00 20.00     0.008 A 
HETATM    6  C5  UNL     1     -34.683  13.390  -4.221  1.00 20.00     0.008 A 
ENDBRANCH   2   4
BRANCH   2   7
HETATM    7  N11 UNL     1     -34.175  16.324  -1.976  1.00 20.00     0.106 N 
HETATM    8  C6  UNL     1     -33.944  17.589  -2.675  1.00 20.00     0.274 C 
HETATM    9  C2  UNL     1     -33.338  18.469  -1.593  1.00 20.00     0.032 C 
HETATM   10  C3  UNL     1     -33.840  17.887  -0.275  1.00 20.00     0.032 C 
HETATM   11  C7  UNL     1     -34.713  16.706  -0.671  1.00 20.00     0.274 C 
ENDBRANCH   2   7
TORSDOF 2
ENDMDL
MODEL 6
REMARK VINA RESULT:      -4.0      2.156      4.604
REMARK  2 active torsions:
REMARK  status: ('A' for Active; 'I' for Inactive)
REMARK    1  A    between atoms: C8_8  and  C9_9 
REMARK    2  A    between atoms: C9_9  and  N11_11 
ROOT
HETATM    1  C1  UNL     1     -36.828  14.543  -4.228  1.00 20.00     0.096 C 
HETATM    2  C9  UNL     1     -35.525  14.801  -4.855  1.00 20.00     0.332 C 
HETATM    3  N10 UNL     1     -37.856  14.336  -3.732  1.00 20.00    -0.195 NA
ENDROOT
BRANCH   2   4
HETATM    4  C8  UNL     1     -35.694  15.300  -6.283  1.00 20.00     0.033 A 
HETATM    5  C4  UNL     1     -34.489  15.585  -7.134  1.00 20.00     0.008 A 
HETATM    6  C5  UNL     1     -35.364  14.404  -7.444  1.00 20.00     0.008 A 
ENDBRANCH   2   4
BRANCH   2   7
HETATM    7  N11 UNL     1     -34.769  15.772  -4.055  1.00 20.00     0.106 N 
HETATM    8  C6  UNL     1     -35.543  16.999  -3.858  1.00 20.00     0.274 C 
HETATM    9  C2  UNL     1     -34.842  17.656  -2.679  1.00 20.00     0.032 C 
HETATM   10  C3  UNL     1     -34.170  16.512  -1.924  1.00 20.00     0.032 C 
HETATM   11  C7  UNL     1     -34.525  15.258  -2.708  1.00 20.00     0.274 C 
ENDBRANCH   2   7
TORSDOF 2
ENDMDL
MODEL 7
REMARK VINA RESULT:      -3.9      1.380      4.040
REMARK  2 active torsions:
REMARK  status: ('A' for Active; 'I' for Inactive)
REMARK    1  A    between atoms: C8_8  and  C9_9 
REMARK    2  A    between atoms: C9_9  and  N11_11 
ROOT
HETATM    1  C1  UNL     1     -33.891  14.199  -3.649  1.00 20.00     0.096 C 
HETATM    2  C9  UNL     1     -34.569  15.497  -3.527  1.00 20.00     0.332 C 
HETATM    3  N10 UNL     1     -33.355  13.175  -3.747  1.00 20.00    -0.195 NA
ENDROOT
BRANCH   2   4
HETATM    4  C8  UNL     1     -36.031  15.316  -3.145  1.00 20.00     0.033 A 
HETATM    5  C4  UNL     1     -37.100  16.112  -3.841  1.00 20.00     0.008 A 
HETATM    6  C5  UNL     1     -36.983  14.635  -4.089  1.00 20.00     0.008 A 
ENDBRANCH   2   4
BRANCH   2   7
HETATM    7  N11 UNL     1     -33.877  16.332  -2.538  1.00 20.00     0.106 N 
HETATM    8  C6  UNL     1     -33.834  17.728  -2.975  1.00 20.00     0.274 C 
HETATM    9  C2  UNL     1     -33.529  18.478  -1.687  1.00 20.00     0.032 C 
HETATM   10  C3  UNL     1     -34.035  17.573  -0.567  1.00 20.00     0.032 C 
HETATM   11  C7  UNL     1     -34.610  16.354  -1.272  1.00 20.00     0.274 C 
ENDBRANCH   2   7
TORSDOF 2
ENDMDL
MODEL 8
REMARK VINA RESULT:      -3.9      1.469      2.966
REMARK  2 active torsions:
REMARK  status: ('A' for Active; 'I' for Inactive)
REMARK    1  A    between atoms: C8_8  and  C9_9 
REMARK    2  A    between atoms: C9_9  and  N11_11 
ROOT
HETATM    1  C1  UNL     1     -34.698  16.709  -1.867  1.00 20.00     0.096 C 
HETATM    2  C9  UNL     1     -34.802  16.929  -3.316  1.00 20.00     0.332 C 
HETATM    3  N10 UNL     1     -34.619  16.537  -0.723  1.00 20.00    -0.195 NA
ENDROOT
BRANCH   2   4
HETATM    4  C8  UNL     1     -33.786  17.959  -3.788  1.00 20.00     0.033 A 
HETATM    5  C4  UNL     1     -33.604  18.227  -5.256  1.00 20.00     0.008 A 
HETATM    6  C5  UNL     1     -34.247  19.263  -4.378  1.00 20.00     0.008 A 
ENDBRANCH   2   4
BRANCH   2   7
HETATM    7  N11 UNL     1     -34.617  15.658  -4.029  1.00 20.00     0.106 N 
HETATM    8  C6  UNL     1     -33.418  14.966  -3.555  1.00 20.00     0.274 C 
HETATM    9  C2  UNL     1     -33.639  13.539  -4.031  1.00 20.00     0.032 C 
HETATM   10  C3  UNL     1     -35.153  13.390  -4.162  1.00 20.00     0.032 C 
HETATM   11  C7  UNL     1     -35.720  14.740  -3.748  1.00 20.00     0.274 C 
ENDBRANCH   2   7
TORSDOF 2
ENDMDL
MODEL 9
REMARK VINA RESULT:      -3.9      1.114      3.860
REMARK  2 active torsions:
REMARK  status: ('A' for Active; 'I' for Inactive)
REMARK    1  A    between atoms: C8_8  and  C9_9 
REMARK    2  A    between atoms: C9_9  and  N11_11 
ROOT
HETATM    1  C1  UNL     1     -33.961  17.057  -4.748  1.00 20.00     0.096 C 
HETATM    2  C9  UNL     1     -34.904  16.013  -4.326  1.00 20.00     0.332 C 
HETATM    3  N10 UNL     1     -33.218  17.882  -5.082  1.00 20.00    -0.195 NA
ENDROOT
BRANCH   2   4
HETATM    4  C8  UNL     1     -34.323  14.625  -4.553  1.00 20.00     0.033 A 
HETATM    5  C4  UNL     1     -35.112  13.402  -4.178  1.00 20.00     0.008 A 
HETATM    6  C5  UNL     1     -34.884  13.734  -5.626  1.00 20.00     0.008 A 
ENDBRANCH   2   4
BRANCH   2   7
HETATM    7  N11 UNL     1     -35.257  16.199  -2.913  1.00 20.00     0.106 N 
HETATM    8  C6  UNL     1     -34.058  16.205  -2.074  1.00 20.00     0.274 C 
HETATM    9  C2  UNL     1     -34.548  16.850  -0.786  1.00 20.00     0.032 C 
HETATM   10  C3  UNL     1     -35.744  17.705  -1.197  1.00 20.00     0.032 C 
HETATM   11  C7  UNL     1     -35.875  17.508  -2.700  1.00 20.00     0.274 C 
ENDBRANCH   2   7
TORSDOF 2
ENDMDL
