MODEL 1
REMARK VINA RESULT:      -4.6      0.000      0.000
REMARK  1 active torsions:
REMARK  status: ('A' for Active; 'I' for Inactive)
REMARK    1  A    between atoms: C5_5  and  C9_9 
ROOT
HETATM    1  C1  UNL     1     -35.140  13.956  -4.362  1.00 20.00     0.133 C 
HETATM    2  C2  UNL     1     -36.471  14.584  -4.725  1.00 20.00     0.093 C 
HETATM    3  C3  UNL     1     -33.940  14.885  -4.184  1.00 20.00     0.065 C 
HETATM    4  C4  UNL     1     -36.315  15.940  -5.403  1.00 20.00     0.050 C 
HETATM    5  C5  UNL     1     -34.315  16.159  -3.405  1.00 20.00     0.058 C 
HETATM    6  C6  UNL     1     -32.769  14.142  -3.536  1.00 20.00     0.019 C 
HETATM    7  C7  UNL     1     -37.666  16.468  -5.880  1.00 20.00     0.022 C 
HETATM    8  O10 UNL     1     -35.053  12.736  -4.220  1.00 20.00    -0.298 OA
HETATM    9  S11 UNL     1     -35.575  17.177  -4.274  1.00 20.00    -0.159 SA
ENDROOT
BRANCH   5  10
HETATM   10  C9  UNL     1     -34.792  15.908  -1.973  1.00 20.00     0.011 C 
HETATM   11  C8  UNL     1     -34.229  16.911  -1.019  1.00 20.00     0.006 C 
ENDBRANCH   5  10
TORSDOF 1
ENDMDL
MODEL 2
REMARK VINA RESULT:      -4.4      1.613      3.271
REMARK  1 active torsions:
REMARK  status: ('A' for Active; 'I' for Inactive)
REMARK    1  A    between atoms: C5_5  and  C9_9 
ROOT
HETATM    1  C1  UNL     1     -34.276  14.305  -4.095  1.00 20.00     0.133 C 
HETATM    2  C2  UNL     1     -33.925  15.057  -2.827  1.00 20.00     0.093 C 
HETATM    3  C3  UNL     1     -35.338  14.910  -5.011  1.00 20.00     0.065 C 
HETATM    4  C4  UNL     1     -35.044  15.982  -2.365  1.00 20.00     0.050 C 
HETATM    5  C5  UNL     1     -35.163  16.432  -5.161  1.00 20.00     0.058 C 
HETATM    6  C6  UNL     1     -35.356  14.199  -6.366  1.00 20.00     0.019 C 
HETATM    7  C7  UNL     1     -34.710  16.608  -1.013  1.00 20.00     0.022 C 
HETATM    8  O10 UNL     1     -33.709  13.243  -4.358  1.00 20.00    -0.298 OA
HETATM    9  S11 UNL     1     -35.348  17.329  -3.567  1.00 20.00    -0.159 SA
ENDROOT
BRANCH   5  10
HETATM   10  C9  UNL     1     -33.844  16.856  -5.811  1.00 20.00     0.011 C 
HETATM   11  C8  UNL     1     -33.528  18.290  -5.534  1.00 20.00     0.006 C 
ENDBRANCH   5  10
TORSDOF 1
ENDMDL
MODEL 3
REMARK VINA RESULT:      -4.2      1.915      4.181
REMARK  1 active torsions:
REMARK  status: ('A' for Active; 'I' for Inactive)
REMARK    1  A    between atoms: C5_5  and  C9_9 
ROOT
HETATM    1  C1  UNL     1     -36.836  14.669  -4.096  1.00 20.00     0.133 C 
HETATM    2  C2  UNL     1     -35.578  13.828  -4.027  1.00 20.00     0.093 C 
HETATM    3  C3  UNL     1     -36.698  16.121  -4.551  1.00 20.00     0.065 C 
HETATM    4  C4  UNL     1     -34.317  14.670  -3.870  1.00 20.00     0.050 C 
HETATM    5  C5  UNL     1     -35.734  16.257  -5.744  1.00 20.00     0.058 C 
HETATM    6  C6  UNL     1     -38.070  16.730  -4.852  1.00 20.00     0.019 C 
HETATM    7  C7  UNL     1     -33.092  13.783  -3.659  1.00 20.00     0.022 C 
HETATM    8  O10 UNL     1     -37.924  14.177  -3.793  1.00 20.00    -0.298 OA
HETATM    9  S11 UNL     1     -34.022  15.725  -5.337  1.00 20.00    -0.159 SA
ENDROOT
BRANCH   5  10
HETATM   10  C9  UNL     1     -36.187  15.525  -7.010  1.00 20.00     0.011 C 
HETATM   11  C8  UNL     1     -35.068  14.753  -7.631  1.00 20.00     0.006 C 
ENDBRANCH   5  10
TORSDOF 1
ENDMDL
MODEL 4
REMARK VINA RESULT:      -4.2      1.683      2.713
REMARK  1 active torsions:
REMARK  status: ('A' for Active; 'I' for Inactive)
REMARK    1  A    between atoms: C5_5  and  C9_9 
ROOT
HETATM    1  C1  UNL     1     -34.455  14.089  -4.213  1.00 20.00     0.133 C 
HETATM    2  C2  UNL     1     -34.969  13.679  -5.578  1.00 20.00     0.093 C 
HETATM    3  C3  UNL     1     -34.713  15.524  -3.757  1.00 20.00     0.065 C 
HETATM    4  C4  UNL     1     -35.158  14.866  -6.515  1.00 20.00     0.050 C 
HETATM    5  C5  UNL     1     -36.140  15.985  -4.102  1.00 20.00     0.058 C 
HETATM    6  C6  UNL     1     -34.404  15.684  -2.266  1.00 20.00     0.019 C 
HETATM    7  C7  UNL     1     -35.536  14.397  -7.918  1.00 20.00     0.022 C 
HETATM    8  O10 UNL     1     -33.853  13.274  -3.511  1.00 20.00    -0.298 OA
HETATM    9  S11 UNL     1     -36.463  16.000  -5.912  1.00 20.00    -0.159 SA
ENDROOT
BRANCH   5  10
HETATM   10  C9  UNL     1     -37.248  15.184  -3.414  1.00 20.00     0.011 C 
HETATM   11  C8  UNL     1     -38.316  14.777  -4.377  1.00 20.00     0.006 C 
ENDBRANCH   5  10
TORSDOF 1
ENDMDL
MODEL 5
REMARK VINA RESULT:      -4.2      1.644      1.835
REMARK  1 active torsions:
REMARK  status: ('A' for Active; 'I' for Inactive)
REMARK    1  A    between atoms: C5_5  and  C9_9 
ROOT
HETATM    1  C1  UNL     1     -34.635  15.001  -5.266  1.00 20.00     0.133 C 
HETATM    2  C2  UNL     1     -35.209  16.301  -5.792  1.00 20.00     0.093 C 
HETATM    3  C3  UNL     1     -33.465  15.083  -4.288  1.00 20.00     0.065 C 
HETATM    4  C4  UNL     1     -34.211  17.451  -5.728  1.00 20.00     0.050 C 
HETATM    5  C5  UNL     1     -33.670  16.195  -3.244  1.00 20.00     0.058 C 
HETATM    6  C6  UNL     1     -33.208  13.724  -3.633  1.00 20.00     0.019 C 
HETATM    7  C7  UNL     1     -34.777  18.701  -6.397  1.00 20.00     0.022 C 
HETATM    8  O10 UNL     1     -35.114  13.925  -5.629  1.00 20.00    -0.298 OA
HETATM    9  S11 UNL     1     -33.771  17.868  -4.000  1.00 20.00    -0.159 SA
ENDROOT
BRANCH   5  10
HETATM   10  C9  UNL     1     -34.885  15.995  -2.336  1.00 20.00     0.011 C 
HETATM   11  C8  UNL     1     -34.645  16.537  -0.964  1.00 20.00     0.006 C 
ENDBRANCH   5  10
TORSDOF 1
ENDMDL
MODEL 6
REMARK VINA RESULT:      -4.2      1.547      3.408
REMARK  1 active torsions:
REMARK  status: ('A' for Active; 'I' for Inactive)
REMARK    1  A    between atoms: C5_5  and  C9_9 
ROOT
HETATM    1  C1  UNL     1     -33.496  15.013  -3.347  1.00 20.00     0.133 C 
HETATM    2  C2  UNL     1     -33.633  16.280  -2.526  1.00 20.00     0.093 C 
HETATM    3  C3  UNL     1     -34.778  14.307  -3.785  1.00 20.00     0.065 C 
HETATM    4  C4  UNL     1     -34.963  16.359  -1.787  1.00 20.00     0.050 C 
HETATM    5  C5  UNL     1     -35.845  15.306  -4.268  1.00 20.00     0.058 C 
HETATM    6  C6  UNL     1     -34.477  13.238  -4.839  1.00 20.00     0.019 C 
HETATM    7  C7  UNL     1     -35.001  17.574  -0.863  1.00 20.00     0.022 C 
HETATM    8  O10 UNL     1     -32.378  14.587  -3.640  1.00 20.00    -0.298 OA
HETATM    9  S11 UNL     1     -36.375  16.471  -2.948  1.00 20.00    -0.159 SA
ENDROOT
BRANCH   5  10
HETATM   10  C9  UNL     1     -35.441  16.117  -5.502  1.00 20.00     0.011 C 
HETATM   11  C8  UNL     1     -35.755  17.568  -5.336  1.00 20.00     0.006 C 
ENDBRANCH   5  10
TORSDOF 1
ENDMDL
MODEL 7
REMARK VINA RESULT:      -4.1      2.251      3.934
REMARK  1 active torsions:
REMARK  status: ('A' for Active; 'I' for Inactive)
REMARK    1  A    between atoms: C5_5  and  C9_9 
ROOT
HETATM    1  C1  UNL     1     -35.823  17.031  -4.864  1.00 20.00     0.133 C 
HETATM    2  C2  UNL     1     -35.856  16.697  -3.386  1.00 20.00     0.093 C 
HETATM    3  C3  UNL     1     -34.534  16.743  -5.630  1.00 20.00     0.065 C 
HETATM    4  C4  UNL     1     -34.466  16.658  -2.763  1.00 20.00     0.050 C 
HETATM    5  C5  UNL     1     -33.927  15.384  -5.237  1.00 20.00     0.058 C 
HETATM    6  C6  UNL     1     -34.763  16.852  -7.140  1.00 20.00     0.019 C 
HETATM    7  C7  UNL     1     -34.552  16.462  -1.251  1.00 20.00     0.022 C 
HETATM    8  O10 UNL     1     -36.816  17.517  -5.407  1.00 20.00    -0.298 OA
HETATM    9  S11 UNL     1     -33.448  15.307  -3.464  1.00 20.00    -0.159 SA
ENDROOT
BRANCH   5  10
HETATM   10  C9  UNL     1     -34.813  14.178  -5.557  1.00 20.00     0.011 C 
HETATM   11  C8  UNL     1     -34.932  13.254  -4.389  1.00 20.00     0.006 C 
ENDBRANCH   5  10
TORSDOF 1
ENDMDL
MODEL 8
REMARK VINA RESULT:      -4.1      1.567      1.889
REMARK  1 active torsions:
REMARK  status: ('A' for Active; 'I' for Inactive)
REMARK    1  A    between atoms: C5_5  and  C9_9 
ROOT
HETATM    1  C1  UNL     1     -36.752  15.024  -4.091  1.00 20.00     0.133 C 
HETATM    2  C2  UNL     1     -37.165  16.469  -3.898  1.00 20.00     0.093 C 
HETATM    3  C3  UNL     1     -35.365  14.752  -4.671  1.00 20.00     0.065 C 
HETATM    4  C4  UNL     1     -36.402  17.424  -4.807  1.00 20.00     0.050 C 
HETATM    5  C5  UNL     1     -34.298  15.677  -4.059  1.00 20.00     0.058 C 
HETATM    6  C6  UNL     1     -34.994  13.274  -4.521  1.00 20.00     0.019 C 
HETATM    7  C7  UNL     1     -36.948  18.845  -4.685  1.00 20.00     0.022 C 
HETATM    8  O10 UNL     1     -37.526  14.116  -3.783  1.00 20.00    -0.298 OA
HETATM    9  S11 UNL     1     -34.615  17.454  -4.408  1.00 20.00    -0.159 SA
ENDROOT
BRANCH   5  10
HETATM   10  C9  UNL     1     -34.099  15.504  -2.551  1.00 20.00     0.011 C 
HETATM   11  C8  UNL     1     -34.010  16.821  -1.850  1.00 20.00     0.006 C 
ENDBRANCH   5  10
TORSDOF 1
ENDMDL
MODEL 9
REMARK VINA RESULT:      -4.0      2.060      3.073
REMARK  1 active torsions:
REMARK  status: ('A' for Active; 'I' for Inactive)
REMARK    1  A    between atoms: C5_5  and  C9_9 
ROOT
HETATM    1  C1  UNL     1     -34.478  17.031  -4.386  1.00 20.00     0.133 C 
HETATM    2  C2  UNL     1     -35.299  16.665  -5.606  1.00 20.00     0.093 C 
HETATM    3  C3  UNL     1     -34.920  16.467  -3.036  1.00 20.00     0.065 C 
HETATM    4  C4  UNL     1     -36.729  16.273  -5.256  1.00 20.00     0.050 C 
HETATM    5  C5  UNL     1     -35.340  14.990  -3.144  1.00 20.00     0.058 C 
HETATM    6  C6  UNL     1     -33.835  16.678  -1.978  1.00 20.00     0.019 C 
HETATM    7  C7  UNL     1     -37.559  16.054  -6.519  1.00 20.00     0.022 C 
HETATM    8  O10 UNL     1     -33.491  17.759  -4.503  1.00 20.00    -0.298 OA
HETATM    9  S11 UNL     1     -36.784  14.741  -4.254  1.00 20.00    -0.159 SA
ENDROOT
BRANCH   5  10
HETATM   10  C9  UNL     1     -34.219  14.044  -3.580  1.00 20.00     0.011 C 
HETATM   11  C8  UNL     1     -34.635  13.189  -4.733  1.00 20.00     0.006 C 
ENDBRANCH   5  10
TORSDOF 1
ENDMDL
