MODEL 1
REMARK VINA RESULT:      -3.9      0.000      0.000
REMARK  0 active torsions:
REMARK  status: ('A' for Active; 'I' for Inactive)
ROOT
HETATM    1  C1  UNL     1     -35.169   4.843   6.205  1.00 20.00     0.032 C 
HETATM    2  C2  UNL     1     -33.000   6.502   2.847  1.00 20.00     0.032 C 
HETATM    3  C3  UNL     1     -35.122   4.336   4.778  1.00 20.00     0.109 C 
HETATM    4  C4  UNL     1     -34.017   5.827   6.229  1.00 20.00     0.109 C 
HETATM    5  C5  UNL     1     -33.890   5.276   2.873  1.00 20.00     0.109 C 
HETATM    6  C6  UNL     1     -32.786   6.771   4.324  1.00 20.00     0.109 C 
HETATM    7  N7  UNL     1     -34.766   5.528   4.014  1.00 20.00    -0.250 NA
HETATM    8  N8  UNL     1     -34.085   6.449   4.909  1.00 20.00    -0.250 NA
ENDROOT
TORSDOF 0
ENDMDL
MODEL 2
REMARK VINA RESULT:      -3.9      0.040      3.317
REMARK  0 active torsions:
REMARK  status: ('A' for Active; 'I' for Inactive)
ROOT
HETATM    1  C1  UNL     1     -33.015   6.518   2.879  1.00 20.00     0.032 C 
HETATM    2  C2  UNL     1     -35.181   4.789   6.202  1.00 20.00     0.032 C 
HETATM    3  C3  UNL     1     -32.806   6.761   4.360  1.00 20.00     0.109 C 
HETATM    4  C4  UNL     1     -33.898   5.287   2.881  1.00 20.00     0.109 C 
HETATM    5  C5  UNL     1     -34.034   5.778   6.246  1.00 20.00     0.109 C 
HETATM    6  C6  UNL     1     -35.130   4.306   4.766  1.00 20.00     0.109 C 
HETATM    7  N7  UNL     1     -34.104   6.422   4.937  1.00 20.00    -0.250 NA
HETATM    8  N8  UNL     1     -34.779   5.514   4.024  1.00 20.00    -0.250 NA
ENDROOT
TORSDOF 0
ENDMDL
MODEL 3
REMARK VINA RESULT:      -3.5      9.310     10.168
REMARK  0 active torsions:
REMARK  status: ('A' for Active; 'I' for Inactive)
ROOT
HETATM    1  C1  UNL     1     -41.821   7.761  -1.014  1.00 20.00     0.032 C 
HETATM    2  C2  UNL     1     -41.785   3.677  -2.444  1.00 20.00     0.032 C 
HETATM    3  C3  UNL     1     -42.834   7.074  -1.907  1.00 20.00     0.109 C 
HETATM    4  C4  UNL     1     -41.023   6.590  -0.480  1.00 20.00     0.109 C 
HETATM    5  C5  UNL     1     -42.814   4.755  -2.717  1.00 20.00     0.109 C 
HETATM    6  C6  UNL     1     -40.999   4.272  -1.292  1.00 20.00     0.109 C 
HETATM    7  N7  UNL     1     -42.062   5.990  -2.509  1.00 20.00    -0.250 NA
HETATM    8  N8  UNL     1     -40.944   5.692  -1.629  1.00 20.00    -0.250 NA
ENDROOT
TORSDOF 0
ENDMDL
MODEL 4
REMARK VINA RESULT:      -3.5      9.293     10.144
REMARK  0 active torsions:
REMARK  status: ('A' for Active; 'I' for Inactive)
ROOT
HETATM    1  C1  UNL     1     -42.858   7.876  -2.440  1.00 20.00     0.032 C 
HETATM    2  C2  UNL     1     -40.649   4.438  -1.014  1.00 20.00     0.032 C 
HETATM    3  C3  UNL     1     -43.031   6.423  -2.834  1.00 20.00     0.109 C 
HETATM    4  C4  UNL     1     -41.995   7.767  -1.199  1.00 20.00     0.109 C 
HETATM    5  C5  UNL     1     -41.779   4.472  -2.023  1.00 20.00     0.109 C 
HETATM    6  C6  UNL     1     -40.739   5.817  -0.390  1.00 20.00     0.109 C 
HETATM    7  N7  UNL     1     -41.727   5.840  -2.531  1.00 20.00    -0.250 NA
HETATM    8  N8  UNL     1     -41.087   6.670  -1.524  1.00 20.00    -0.250 NA
ENDROOT
TORSDOF 0
ENDMDL
MODEL 5
REMARK VINA RESULT:      -3.5      9.375     10.277
REMARK  0 active torsions:
REMARK  status: ('A' for Active; 'I' for Inactive)
ROOT
HETATM    1  C1  UNL     1     -40.726   4.364  -1.191  1.00 20.00     0.032 C 
HETATM    2  C2  UNL     1     -42.982   7.900  -2.255  1.00 20.00     0.032 C 
HETATM    3  C3  UNL     1     -40.679   5.733  -0.544  1.00 20.00     0.109 C 
HETATM    4  C4  UNL     1     -41.981   4.454  -2.034  1.00 20.00     0.109 C 
HETATM    5  C5  UNL     1     -41.961   7.739  -1.147  1.00 20.00     0.109 C 
HETATM    6  C6  UNL     1     -43.261   6.461  -2.641  1.00 20.00     0.109 C 
HETATM    7  N7  UNL     1     -41.147   6.617  -1.607  1.00 20.00    -0.250 NA
HETATM    8  N8  UNL     1     -41.949   5.828  -2.528  1.00 20.00    -0.250 NA
ENDROOT
TORSDOF 0
ENDMDL
MODEL 6
REMARK VINA RESULT:      -3.4     12.269     13.520
REMARK  0 active torsions:
REMARK  status: ('A' for Active; 'I' for Inactive)
ROOT
HETATM    1  C1  UNL     1     -34.009  13.682  -3.543  1.00 20.00     0.032 C 
HETATM    2  C2  UNL     1     -34.393  16.255  -7.002  1.00 20.00     0.032 C 
HETATM    3  C3  UNL     1     -34.513  13.322  -4.925  1.00 20.00     0.109 C 
HETATM    4  C4  UNL     1     -33.359  15.030  -3.784  1.00 20.00     0.109 C 
HETATM    5  C5  UNL     1     -34.730  14.782  -6.888  1.00 20.00     0.109 C 
HETATM    6  C6  UNL     1     -33.579  16.492  -5.745  1.00 20.00     0.109 C 
HETATM    7  N7  UNL     1     -34.963  14.605  -5.458  1.00 20.00    -0.250 NA
HETATM    8  N8  UNL     1     -34.253  15.659  -4.753  1.00 20.00    -0.250 NA
ENDROOT
TORSDOF 0
ENDMDL
MODEL 7
REMARK VINA RESULT:      -3.4     12.314     13.907
REMARK  0 active torsions:
REMARK  status: ('A' for Active; 'I' for Inactive)
ROOT
HETATM    1  C1  UNL     1     -34.424  16.257  -7.060  1.00 20.00     0.032 C 
HETATM    2  C2  UNL     1     -34.185  13.668  -3.601  1.00 20.00     0.032 C 
HETATM    3  C3  UNL     1     -33.659  16.484  -5.772  1.00 20.00     0.109 C 
HETATM    4  C4  UNL     1     -34.770  14.785  -6.967  1.00 20.00     0.109 C 
HETATM    5  C5  UNL     1     -33.522  15.014  -3.810  1.00 20.00     0.109 C 
HETATM    6  C6  UNL     1     -34.637  13.315  -5.004  1.00 20.00     0.109 C 
HETATM    7  N7  UNL     1     -34.374  15.650  -4.811  1.00 20.00    -0.250 NA
HETATM    8  N8  UNL     1     -35.061  14.602  -5.548  1.00 20.00    -0.250 NA
ENDROOT
TORSDOF 0
ENDMDL
MODEL 8
REMARK VINA RESULT:      -3.4     12.390     13.830
REMARK  0 active torsions:
REMARK  status: ('A' for Active; 'I' for Inactive)
ROOT
HETATM    1  C1  UNL     1     -34.382  15.089  -6.876  1.00 20.00     0.032 C 
HETATM    2  C2  UNL     1     -33.804  16.053  -2.697  1.00 20.00     0.032 C 
HETATM    3  C3  UNL     1     -34.757  14.261  -5.664  1.00 20.00     0.109 C 
HETATM    4  C4  UNL     1     -34.097  16.443  -6.259  1.00 20.00     0.109 C 
HETATM    5  C5  UNL     1     -34.431  14.809  -3.293  1.00 20.00     0.109 C 
HETATM    6  C6  UNL     1     -33.767  16.991  -3.888  1.00 20.00     0.109 C 
HETATM    7  N7  UNL     1     -33.851  14.755  -4.632  1.00 20.00    -0.250 NA
HETATM    8  N8  UNL     1     -33.442  16.101  -4.999  1.00 20.00    -0.250 NA
ENDROOT
TORSDOF 0
ENDMDL
MODEL 9
REMARK VINA RESULT:      -3.3     12.323     13.659
REMARK  0 active torsions:
REMARK  status: ('A' for Active; 'I' for Inactive)
ROOT
HETATM    1  C1  UNL     1     -33.963  15.895  -2.695  1.00 20.00     0.032 C 
HETATM    2  C2  UNL     1     -34.394  15.024  -6.912  1.00 20.00     0.032 C 
HETATM    3  C3  UNL     1     -33.853  16.852  -3.864  1.00 20.00     0.109 C 
HETATM    4  C4  UNL     1     -34.598  14.680  -3.339  1.00 20.00     0.109 C 
HETATM    5  C5  UNL     1     -34.099  16.358  -6.257  1.00 20.00     0.109 C 
HETATM    6  C6  UNL     1     -34.840  14.183  -5.733  1.00 20.00     0.109 C 
HETATM    7  N7  UNL     1     -33.506  15.975  -4.979  1.00 20.00    -0.250 NA
HETATM    8  N8  UNL     1     -33.964  14.634  -4.655  1.00 20.00    -0.250 NA
ENDROOT
TORSDOF 0
ENDMDL
