MODEL 1
REMARK VINA RESULT:      -4.3      0.000      0.000
REMARK  0 active torsions:
REMARK  status: ('A' for Active; 'I' for Inactive)
ROOT
HETATM    1  C1  UNL     1     -34.467  13.198  -4.850  1.00 20.00     0.000 C 
HETATM    2  C2  UNL     1     -35.176  14.199  -5.761  1.00 20.00     0.003 C 
HETATM    3  C3  UNL     1     -33.986  13.862  -3.563  1.00 20.00     0.003 C 
HETATM    4  C4  UNL     1     -34.296  15.417  -6.055  1.00 20.00     0.044 C 
HETATM    5  C5  UNL     1     -33.103  15.075  -3.859  1.00 20.00     0.044 C 
HETATM    6  C6  UNL     1     -34.965  18.809  -5.722  1.00 20.00     0.032 C 
HETATM    7  C7  UNL     1     -33.560  18.288  -5.872  1.00 20.00     0.112 C 
HETATM    8  C8  UNL     1     -35.622  17.799  -4.821  1.00 20.00     0.112 C 
HETATM    9  C9  UNL     1     -33.824  16.061  -4.767  1.00 20.00     0.095 A 
HETATM   10  N10 UNL     1     -33.298  17.431  -4.720  1.00 20.00    -0.223 NA
HETATM   11  N11 UNL     1     -34.561  17.126  -4.080  1.00 20.00    -0.223 NA
ENDROOT
TORSDOF 0
ENDMDL
MODEL 2
REMARK VINA RESULT:      -4.3      2.677      3.725
REMARK  0 active torsions:
REMARK  status: ('A' for Active; 'I' for Inactive)
ROOT
HETATM    1  C1  UNL     1     -33.213  15.140  -3.415  1.00 20.00     0.000 C 
HETATM    2  C2  UNL     1     -34.229  16.276  -3.318  1.00 20.00     0.003 C 
HETATM    3  C3  UNL     1     -33.694  14.043  -4.362  1.00 20.00     0.003 C 
HETATM    4  C4  UNL     1     -35.616  15.761  -2.919  1.00 20.00     0.044 C 
HETATM    5  C5  UNL     1     -35.075  13.527  -3.958  1.00 20.00     0.044 C 
HETATM    6  C6  UNL     1     -38.714  16.254  -4.409  1.00 20.00     0.032 C 
HETATM    7  C7  UNL     1     -38.482  15.159  -3.402  1.00 20.00     0.112 C 
HETATM    8  C8  UNL     1     -37.453  16.252  -5.230  1.00 20.00     0.112 C 
HETATM    9  C9  UNL     1     -36.075  14.671  -3.866  1.00 20.00     0.095 A 
HETATM   10  N10 UNL     1     -37.481  14.262  -3.969  1.00 20.00    -0.223 NA
HETATM   11  N11 UNL     1     -36.846  14.933  -5.085  1.00 20.00    -0.223 NA
ENDROOT
TORSDOF 0
ENDMDL
MODEL 3
REMARK VINA RESULT:      -4.3      2.001      4.002
REMARK  0 active torsions:
REMARK  status: ('A' for Active; 'I' for Inactive)
ROOT
HETATM    1  C1  UNL     1     -33.697  18.386  -2.218  1.00 20.00     0.000 C 
HETATM    2  C2  UNL     1     -34.149  17.006  -1.744  1.00 20.00     0.003 C 
HETATM    3  C3  UNL     1     -34.141  18.652  -3.654  1.00 20.00     0.003 C 
HETATM    4  C4  UNL     1     -33.673  15.899  -2.690  1.00 20.00     0.044 C 
HETATM    5  C5  UNL     1     -33.661  17.550  -4.598  1.00 20.00     0.044 C 
HETATM    6  C6  UNL     1     -35.450  13.359  -4.256  1.00 20.00     0.032 C 
HETATM    7  C7  UNL     1     -34.069  13.754  -4.704  1.00 20.00     0.112 C 
HETATM    8  C8  UNL     1     -36.106  14.673  -3.929  1.00 20.00     0.112 C 
HETATM    9  C9  UNL     1     -34.118  16.182  -4.111  1.00 20.00     0.095 A 
HETATM   10  N10 UNL     1     -34.144  15.142  -5.147  1.00 20.00    -0.223 NA
HETATM   11  N11 UNL     1     -35.389  15.707  -4.668  1.00 20.00    -0.223 NA
ENDROOT
TORSDOF 0
ENDMDL
MODEL 4
REMARK VINA RESULT:      -4.3      1.758      3.006
REMARK  0 active torsions:
REMARK  status: ('A' for Active; 'I' for Inactive)
ROOT
HETATM    1  C1  UNL     1     -36.685  15.034  -7.397  1.00 20.00     0.000 C 
HETATM    2  C2  UNL     1     -36.976  15.351  -5.931  1.00 20.00     0.003 C 
HETATM    3  C3  UNL     1     -35.263  14.511  -7.580  1.00 20.00     0.003 C 
HETATM    4  C4  UNL     1     -35.944  16.319  -5.346  1.00 20.00     0.044 C 
HETATM    5  C5  UNL     1     -34.235  15.482  -7.001  1.00 20.00     0.044 C 
HETATM    6  C6  UNL     1     -34.003  16.077  -2.477  1.00 20.00     0.032 C 
HETATM    7  C7  UNL     1     -33.686  17.064  -3.569  1.00 20.00     0.112 C 
HETATM    8  C8  UNL     1     -34.432  14.846  -3.226  1.00 20.00     0.112 C 
HETATM    9  C9  UNL     1     -34.539  15.787  -5.541  1.00 20.00     0.095 A 
HETATM   10  N10 UNL     1     -33.395  16.290  -4.771  1.00 20.00    -0.223 NA
HETATM   11  N11 UNL     1     -33.857  14.933  -4.564  1.00 20.00    -0.223 NA
ENDROOT
TORSDOF 0
ENDMDL
MODEL 5
REMARK VINA RESULT:      -4.3      2.149      2.474
REMARK  0 active torsions:
REMARK  status: ('A' for Active; 'I' for Inactive)
ROOT
HETATM    1  C1  UNL     1     -34.784  13.507  -4.350  1.00 20.00     0.000 C 
HETATM    2  C2  UNL     1     -35.849  14.416  -3.739  1.00 20.00     0.003 C 
HETATM    3  C3  UNL     1     -33.407  13.785  -3.751  1.00 20.00     0.003 C 
HETATM    4  C4  UNL     1     -35.471  15.894  -3.866  1.00 20.00     0.044 C 
HETATM    5  C5  UNL     1     -33.030  15.260  -3.884  1.00 20.00     0.044 C 
HETATM    6  C6  UNL     1     -35.308  18.391  -1.458  1.00 20.00     0.032 C 
HETATM    7  C7  UNL     1     -34.654  18.544  -2.805  1.00 20.00     0.112 C 
HETATM    8  C8  UNL     1     -35.049  16.954  -1.100  1.00 20.00     0.112 C 
HETATM    9  C9  UNL     1     -34.102  16.151  -3.272  1.00 20.00     0.095 A 
HETATM   10  N10 UNL     1     -33.642  17.497  -2.910  1.00 20.00    -0.223 NA
HETATM   11  N11 UNL     1     -33.888  16.520  -1.869  1.00 20.00    -0.223 NA
ENDROOT
TORSDOF 0
ENDMDL
MODEL 6
REMARK VINA RESULT:      -4.2      2.708      3.742
REMARK  0 active torsions:
REMARK  status: ('A' for Active; 'I' for Inactive)
ROOT
HETATM    1  C1  UNL     1     -34.256  17.643  -0.127  1.00 20.00     0.000 C 
HETATM    2  C2  UNL     1     -34.658  16.478  -1.029  1.00 20.00     0.003 C 
HETATM    3  C3  UNL     1     -34.315  18.972  -0.876  1.00 20.00     0.003 C 
HETATM    4  C4  UNL     1     -33.817  16.437  -2.308  1.00 20.00     0.044 C 
HETATM    5  C5  UNL     1     -33.470  18.930  -2.149  1.00 20.00     0.044 C 
HETATM    6  C6  UNL     1     -34.791  16.292  -5.639  1.00 20.00     0.032 C 
HETATM    7  C7  UNL     1     -33.394  16.683  -5.236  1.00 20.00     0.112 C 
HETATM    8  C8  UNL     1     -35.657  16.963  -4.608  1.00 20.00     0.112 C 
HETATM    9  C9  UNL     1     -33.883  17.764  -3.036  1.00 20.00     0.095 A 
HETATM   10  N10 UNL     1     -33.504  17.906  -4.447  1.00 20.00    -0.223 NA
HETATM   11  N11 UNL     1     -34.889  18.074  -4.057  1.00 20.00    -0.223 NA
ENDROOT
TORSDOF 0
ENDMDL
MODEL 7
REMARK VINA RESULT:      -4.2      1.741      2.809
REMARK  0 active torsions:
REMARK  status: ('A' for Active; 'I' for Inactive)
ROOT
HETATM    1  C1  UNL     1     -33.310  13.648  -3.790  1.00 20.00     0.000 C 
HETATM    2  C2  UNL     1     -33.192  15.129  -3.438  1.00 20.00     0.003 C 
HETATM    3  C3  UNL     1     -34.510  13.387  -4.697  1.00 20.00     0.003 C 
HETATM    4  C4  UNL     1     -34.486  15.669  -2.821  1.00 20.00     0.044 C 
HETATM    5  C5  UNL     1     -35.802  13.920  -4.077  1.00 20.00     0.044 C 
HETATM    6  C6  UNL     1     -36.407  18.432  -3.679  1.00 20.00     0.032 C 
HETATM    7  C7  UNL     1     -36.944  17.334  -2.800  1.00 20.00     0.112 C 
HETATM    8  C8  UNL     1     -35.606  17.695  -4.717  1.00 20.00     0.112 C 
HETATM    9  C9  UNL     1     -35.667  15.397  -3.731  1.00 20.00     0.095 A 
HETATM   10  N10 UNL     1     -36.943  16.111  -3.597  1.00 20.00    -0.223 NA
HETATM   11  N11 UNL     1     -36.118  16.330  -4.768  1.00 20.00    -0.223 NA
ENDROOT
TORSDOF 0
ENDMDL
MODEL 8
REMARK VINA RESULT:      -4.2      1.769      2.750
REMARK  0 active torsions:
REMARK  status: ('A' for Active; 'I' for Inactive)
ROOT
HETATM    1  C1  UNL     1     -34.367  15.143  -7.180  1.00 20.00     0.000 C 
HETATM    2  C2  UNL     1     -34.343  16.494  -6.469  1.00 20.00     0.003 C 
HETATM    3  C3  UNL     1     -35.098  14.091  -6.350  1.00 20.00     0.003 C 
HETATM    4  C4  UNL     1     -33.750  16.382  -5.062  1.00 20.00     0.044 C 
HETATM    5  C5  UNL     1     -34.501  13.976  -4.947  1.00 20.00     0.044 C 
HETATM    6  C6  UNL     1     -35.007  17.430  -1.999  1.00 20.00     0.032 C 
HETATM    7  C7  UNL     1     -33.878  16.439  -2.096  1.00 20.00     0.112 C 
HETATM    8  C8  UNL     1     -35.930  17.026  -3.116  1.00 20.00     0.112 C 
HETATM    9  C9  UNL     1     -34.483  15.331  -4.253  1.00 20.00     0.095 A 
HETATM   10  N10 UNL     1     -34.398  15.265  -2.789  1.00 20.00    -0.223 NA
HETATM   11  N11 UNL     1     -35.652  15.626  -3.419  1.00 20.00    -0.223 NA
ENDROOT
TORSDOF 0
ENDMDL
MODEL 9
REMARK VINA RESULT:      -4.2      2.253      3.995
REMARK  0 active torsions:
REMARK  status: ('A' for Active; 'I' for Inactive)
ROOT
HETATM    1  C1  UNL     1     -36.246  18.037  -1.973  1.00 20.00     0.000 C 
HETATM    2  C2  UNL     1     -36.665  17.413  -3.302  1.00 20.00     0.003 C 
HETATM    3  C3  UNL     1     -34.798  17.692  -1.630  1.00 20.00     0.003 C 
HETATM    4  C4  UNL     1     -36.433  15.899  -3.314  1.00 20.00     0.044 C 
HETATM    5  C5  UNL     1     -34.570  16.181  -1.637  1.00 20.00     0.044 C 
HETATM    6  C6  UNL     1     -34.738  13.900  -5.593  1.00 20.00     0.032 C 
HETATM    7  C7  UNL     1     -35.088  13.410  -4.213  1.00 20.00     0.112 C 
HETATM    8  C8  UNL     1     -34.332  15.331  -5.367  1.00 20.00     0.112 C 
HETATM    9  C9  UNL     1     -34.994  15.575  -2.968  1.00 20.00     0.095 A 
HETATM   10  N10 UNL     1     -34.390  14.270  -3.264  1.00 20.00    -0.223 NA
HETATM   11  N11 UNL     1     -33.931  15.450  -3.970  1.00 20.00    -0.223 NA
ENDROOT
TORSDOF 0
ENDMDL
