MODEL 1
REMARK VINA RESULT:      -2.9      0.000      0.000
REMARK  1 active torsions:
REMARK  status: ('A' for Active; 'I' for Inactive)
REMARK    1  A    between atoms: N5_5  and  N6_6 
ROOT
HETATM    1  C1  UNL     1     -35.023   4.704   5.496  1.00 20.00     0.130 C 
HETATM    2  C2  UNL     1     -33.963   6.649   6.472  1.00 20.00     0.130 C 
HETATM    3  N5  UNL     1     -33.931   5.669   5.388  1.00 20.00    -0.259 NA
ENDROOT
BRANCH   3   4
HETATM    4  N6  UNL     1     -33.921   6.238   4.050  1.00 20.00    -0.259 NA
HETATM    5  C3  UNL     1     -34.699   5.387   3.156  1.00 20.00     0.130 C 
HETATM    6  C4  UNL     1     -32.592   6.519   3.513  1.00 20.00     0.130 C 
ENDBRANCH   3   4
TORSDOF 1
ENDMDL
MODEL 2
REMARK VINA RESULT:      -2.9      0.038      2.504
REMARK  1 active torsions:
REMARK  status: ('A' for Active; 'I' for Inactive)
REMARK    1  A    between atoms: N5_5  and  N6_6 
ROOT
HETATM    1  C1  UNL     1     -34.736   5.380   3.189  1.00 20.00     0.130 C 
HETATM    2  C2  UNL     1     -32.625   6.514   3.527  1.00 20.00     0.130 C 
HETATM    3  N5  UNL     1     -33.949   6.232   4.077  1.00 20.00    -0.259 NA
ENDROOT
BRANCH   3   4
HETATM    4  N6  UNL     1     -33.946   5.662   5.415  1.00 20.00    -0.259 NA
HETATM    5  C3  UNL     1     -35.034   4.698   5.533  1.00 20.00     0.130 C 
HETATM    6  C4  UNL     1     -33.967   6.641   6.498  1.00 20.00     0.130 C 
ENDBRANCH   3   4
TORSDOF 1
ENDMDL
MODEL 3
REMARK VINA RESULT:      -2.8      0.624      2.765
REMARK  1 active torsions:
REMARK  status: ('A' for Active; 'I' for Inactive)
REMARK    1  A    between atoms: N5_5  and  N6_6 
ROOT
HETATM    1  C1  UNL     1     -33.130   6.517   3.807  1.00 20.00     0.130 C 
HETATM    2  C2  UNL     1     -35.324   5.522   3.576  1.00 20.00     0.130 C 
HETATM    3  N5  UNL     1     -34.000   5.405   4.183  1.00 20.00    -0.259 NA
ENDROOT
BRANCH   3   4
HETATM    4  N6  UNL     1     -34.002   5.263   5.630  1.00 20.00    -0.259 NA
HETATM    5  C3  UNL     1     -35.085   4.369   6.027  1.00 20.00     0.130 C 
HETATM    6  C4  UNL     1     -34.039   6.522   6.370  1.00 20.00     0.130 C 
ENDBRANCH   3   4
TORSDOF 1
ENDMDL
MODEL 4
REMARK VINA RESULT:      -2.8      0.626      1.526
REMARK  1 active torsions:
REMARK  status: ('A' for Active; 'I' for Inactive)
REMARK    1  A    between atoms: N5_5  and  N6_6 
ROOT
HETATM    1  C1  UNL     1     -35.124   4.352   5.976  1.00 20.00     0.130 C 
HETATM    2  C2  UNL     1     -34.042   6.484   6.346  1.00 20.00     0.130 C 
HETATM    3  N5  UNL     1     -34.029   5.236   5.587  1.00 20.00    -0.259 NA
ENDROOT
BRANCH   3   4
HETATM    4  N6  UNL     1     -34.032   5.401   4.142  1.00 20.00    -0.259 NA
HETATM    5  C3  UNL     1     -33.127   6.485   3.776  1.00 20.00     0.130 C 
HETATM    6  C4  UNL     1     -35.356   5.574   3.548  1.00 20.00     0.130 C 
ENDBRANCH   3   4
TORSDOF 1
ENDMDL
MODEL 5
REMARK VINA RESULT:      -2.6      9.039      9.864
REMARK  1 active torsions:
REMARK  status: ('A' for Active; 'I' for Inactive)
REMARK    1  A    between atoms: N5_5  and  N6_6 
ROOT
HETATM    1  C1  UNL     1     -41.454   3.984  -2.176  1.00 20.00     0.130 C 
HETATM    2  C2  UNL     1     -41.389   4.925   0.052  1.00 20.00     0.130 C 
HETATM    3  N5  UNL     1     -40.936   5.058  -1.330  1.00 20.00    -0.259 NA
ENDROOT
BRANCH   3   4
HETATM    4  N6  UNL     1     -41.228   6.341  -1.948  1.00 20.00    -0.259 NA
HETATM    5  C3  UNL     1     -41.242   7.380  -0.923  1.00 20.00     0.130 C 
HETATM    6  C4  UNL     1     -42.438   6.368  -2.765  1.00 20.00     0.130 C 
ENDBRANCH   3   4
TORSDOF 1
ENDMDL
MODEL 6
REMARK VINA RESULT:      -2.6      9.030     10.005
REMARK  1 active torsions:
REMARK  status: ('A' for Active; 'I' for Inactive)
REMARK    1  A    between atoms: N5_5  and  N6_6 
ROOT
HETATM    1  C1  UNL     1     -41.242   7.444  -0.951  1.00 20.00     0.130 C 
HETATM    2  C2  UNL     1     -42.420   6.422  -2.801  1.00 20.00     0.130 C 
HETATM    3  N5  UNL     1     -41.223   6.391  -1.964  1.00 20.00    -0.259 NA
ENDROOT
BRANCH   3   4
HETATM    4  N6  UNL     1     -40.957   5.113  -1.324  1.00 20.00    -0.259 NA
HETATM    5  C3  UNL     1     -41.517   4.039  -2.138  1.00 20.00     0.130 C 
HETATM    6  C4  UNL     1     -41.390   5.022   0.068  1.00 20.00     0.130 C 
ENDBRANCH   3   4
TORSDOF 1
ENDMDL
MODEL 7
REMARK VINA RESULT:      -2.6      0.828      2.424
REMARK  1 active torsions:
REMARK  status: ('A' for Active; 'I' for Inactive)
REMARK    1  A    between atoms: N5_5  and  N6_6 
ROOT
HETATM    1  C1  UNL     1     -33.740   6.887   6.387  1.00 20.00     0.130 C 
HETATM    2  C2  UNL     1     -33.146   6.553   4.066  1.00 20.00     0.130 C 
HETATM    3  N5  UNL     1     -33.690   5.941   5.275  1.00 20.00    -0.259 NA
ENDROOT
BRANCH   3   4
HETATM    4  N6  UNL     1     -34.994   5.319   5.111  1.00 20.00    -0.259 NA
HETATM    5  C3  UNL     1     -34.957   3.966   5.656  1.00 20.00     0.130 C 
HETATM    6  C4  UNL     1     -35.516   5.342   3.748  1.00 20.00     0.130 C 
ENDBRANCH   3   4
TORSDOF 1
ENDMDL
MODEL 8
REMARK VINA RESULT:      -2.6      0.851      2.218
REMARK  1 active torsions:
REMARK  status: ('A' for Active; 'I' for Inactive)
REMARK    1  A    between atoms: N5_5  and  N6_6 
ROOT
HETATM    1  C1  UNL     1     -34.927   3.901   5.603  1.00 20.00     0.130 C 
HETATM    2  C2  UNL     1     -35.545   5.355   3.771  1.00 20.00     0.130 C 
HETATM    3  N5  UNL     1     -35.001   5.279   5.125  1.00 20.00    -0.259 NA
ENDROOT
BRANCH   3   4
HETATM    4  N6  UNL     1     -33.708   5.921   5.300  1.00 20.00    -0.259 NA
HETATM    5  C3  UNL     1     -33.779   6.856   6.418  1.00 20.00     0.130 C 
HETATM    6  C4  UNL     1     -33.169   6.551   4.098  1.00 20.00     0.130 C 
ENDBRANCH   3   4
TORSDOF 1
ENDMDL
MODEL 9
REMARK VINA RESULT:      -2.5      0.827      2.260
REMARK  1 active torsions:
REMARK  status: ('A' for Active; 'I' for Inactive)
REMARK    1  A    between atoms: N5_5  and  N6_6 
ROOT
HETATM    1  C1  UNL     1     -32.774   6.575   4.052  1.00 20.00     0.130 C 
HETATM    2  C2  UNL     1     -33.596   6.708   6.323  1.00 20.00     0.130 C 
HETATM    3  N5  UNL     1     -33.932   6.425   4.930  1.00 20.00    -0.259 NA
ENDROOT
BRANCH   3   4
HETATM    4  N6  UNL     1     -34.545   5.127   4.702  1.00 20.00    -0.259 NA
HETATM    5  C3  UNL     1     -35.686   5.281   3.806  1.00 20.00     0.130 C 
HETATM    6  C4  UNL     1     -34.901   4.395   5.915  1.00 20.00     0.130 C 
ENDBRANCH   3   4
TORSDOF 1
ENDMDL
