MODEL 1
REMARK VINA RESULT:      -5.9      0.000      0.000
REMARK  0 active torsions:
REMARK  status: ('A' for Active; 'I' for Inactive)
ROOT
HETATM    1  C1  UNL     1     -34.566   4.806   6.168  1.00 20.00    -0.029 A 
HETATM    2  C2  UNL     1     -34.072   6.041   6.029  1.00 20.00    -0.018 A 
HETATM    3  C3  UNL     1     -33.152   6.352   3.713  1.00 20.00     0.135 A 
HETATM    4  C4  UNL     1     -35.238   4.281   4.936  1.00 20.00     0.033 A 
HETATM    5  C5  UNL     1     -33.903   5.300   2.882  1.00 20.00     0.084 A 
HETATM    6  C6  UNL     1     -34.338   6.545   4.673  1.00 20.00     0.082 A 
HETATM    7  C7  UNL     1     -35.072   5.405   3.904  1.00 20.00     0.011 A 
HETATM    8  O8  UNL     1     -32.042   6.836   3.640  1.00 20.00    -0.297 OA
ENDROOT
TORSDOF 0
ENDMDL
MODEL 2
REMARK VINA RESULT:      -5.2      1.807      3.268
REMARK  0 active torsions:
REMARK  status: ('A' for Active; 'I' for Inactive)
ROOT
HETATM    1  C1  UNL     1     -32.833   5.977   2.987  1.00 20.00    -0.029 A 
HETATM    2  C2  UNL     1     -33.985   5.320   2.815  1.00 20.00    -0.018 A 
HETATM    3  C3  UNL     1     -34.909   4.594   5.035  1.00 20.00     0.135 A 
HETATM    4  C4  UNL     1     -32.804   6.838   4.213  1.00 20.00     0.033 A 
HETATM    5  C5  UNL     1     -34.266   5.571   6.031  1.00 20.00     0.084 A 
HETATM    6  C6  UNL     1     -34.919   5.638   3.906  1.00 20.00     0.082 A 
HETATM    7  C7  UNL     1     -34.171   6.606   4.872  1.00 20.00     0.011 A 
HETATM    8  O8  UNL     1     -35.263   3.436   5.113  1.00 20.00    -0.297 OA
ENDROOT
TORSDOF 0
ENDMDL
MODEL 3
REMARK VINA RESULT:      -4.6      1.545      2.666
REMARK  0 active torsions:
REMARK  status: ('A' for Active; 'I' for Inactive)
ROOT
HETATM    1  C1  UNL     1     -35.070   5.728   3.418  1.00 20.00    -0.029 A 
HETATM    2  C2  UNL     1     -33.973   6.343   3.873  1.00 20.00    -0.018 A 
HETATM    3  C3  UNL     1     -33.992   6.408   6.383  1.00 20.00     0.135 A 
HETATM    4  C4  UNL     1     -35.514   4.577   4.269  1.00 20.00     0.033 A 
HETATM    5  C5  UNL     1     -34.912   5.239   6.767  1.00 20.00     0.084 A 
HETATM    6  C6  UNL     1     -33.504   5.699   5.108  1.00 20.00     0.082 A 
HETATM    7  C7  UNL     1     -34.510   4.553   5.429  1.00 20.00     0.011 A 
HETATM    8  O8  UNL     1     -33.752   7.484   6.892  1.00 20.00    -0.297 OA
ENDROOT
TORSDOF 0
ENDMDL
MODEL 4
REMARK VINA RESULT:      -4.2     11.618     12.215
REMARK  0 active torsions:
REMARK  status: ('A' for Active; 'I' for Inactive)
ROOT
HETATM    1  C1  UNL     1     -34.930  16.103  -2.212  1.00 20.00    -0.029 A 
HETATM    2  C2  UNL     1     -33.717  15.884  -2.733  1.00 20.00    -0.018 A 
HETATM    3  C3  UNL     1     -33.666  13.666  -3.910  1.00 20.00     0.135 A 
HETATM    4  C4  UNL     1     -36.054  15.594  -3.063  1.00 20.00     0.033 A 
HETATM    5  C5  UNL     1     -35.141  13.404  -4.250  1.00 20.00     0.084 A 
HETATM    6  C6  UNL     1     -33.837  15.191  -4.024  1.00 20.00     0.082 A 
HETATM    7  C7  UNL     1     -35.356  14.945  -4.265  1.00 20.00     0.011 A 
HETATM    8  O8  UNL     1     -32.729  12.942  -3.645  1.00 20.00    -0.297 OA
ENDROOT
TORSDOF 0
ENDMDL
MODEL 5
REMARK VINA RESULT:      -4.1     11.943     13.158
REMARK  0 active torsions:
REMARK  status: ('A' for Active; 'I' for Inactive)
ROOT
HETATM    1  C1  UNL     1     -34.385  16.389  -5.663  1.00 20.00    -0.029 A 
HETATM    2  C2  UNL     1     -35.411  15.681  -5.178  1.00 20.00    -0.018 A 
HETATM    3  C3  UNL     1     -34.570  13.606  -4.040  1.00 20.00     0.135 A 
HETATM    4  C4  UNL     1     -33.166  16.363  -4.792  1.00 20.00     0.033 A 
HETATM    5  C5  UNL     1     -33.123  13.961  -3.666  1.00 20.00     0.084 A 
HETATM    6  C6  UNL     1     -35.040  15.064  -3.896  1.00 20.00     0.082 A 
HETATM    7  C7  UNL     1     -33.557  15.454  -3.619  1.00 20.00     0.011 A 
HETATM    8  O8  UNL     1     -35.124  12.569  -4.341  1.00 20.00    -0.297 OA
ENDROOT
TORSDOF 0
ENDMDL
MODEL 6
REMARK VINA RESULT:      -4.0     11.871     12.760
REMARK  0 active torsions:
REMARK  status: ('A' for Active; 'I' for Inactive)
ROOT
HETATM    1  C1  UNL     1     -33.582  13.694  -3.857  1.00 20.00    -0.029 A 
HETATM    2  C2  UNL     1     -34.643  13.379  -4.609  1.00 20.00    -0.018 A 
HETATM    3  C3  UNL     1     -36.640  14.725  -3.899  1.00 20.00     0.135 A 
HETATM    4  C4  UNL     1     -33.511  15.145  -3.490  1.00 20.00     0.033 A 
HETATM    5  C5  UNL     1     -36.023  15.957  -3.219  1.00 20.00     0.084 A 
HETATM    6  C6  UNL     1     -35.455  14.577  -4.868  1.00 20.00     0.082 A 
HETATM    7  C7  UNL     1     -34.769  15.758  -4.120  1.00 20.00     0.011 A 
HETATM    8  O8  UNL     1     -37.669  14.105  -3.726  1.00 20.00    -0.297 OA
ENDROOT
TORSDOF 0
ENDMDL
MODEL 7
REMARK VINA RESULT:      -4.0     11.965     12.924
REMARK  0 active torsions:
REMARK  status: ('A' for Active; 'I' for Inactive)
ROOT
HETATM    1  C1  UNL     1     -33.849  16.418  -3.303  1.00 20.00    -0.029 A 
HETATM    2  C2  UNL     1     -34.536  15.491  -2.627  1.00 20.00    -0.018 A 
HETATM    3  C3  UNL     1     -36.078  14.254  -4.176  1.00 20.00     0.135 A 
HETATM    4  C4  UNL     1     -33.461  15.994  -4.687  1.00 20.00     0.033 A 
HETATM    5  C5  UNL     1     -35.431  14.444  -5.557  1.00 20.00     0.084 A 
HETATM    6  C6  UNL     1     -34.719  14.290  -3.455  1.00 20.00     0.082 A 
HETATM    7  C7  UNL     1     -34.060  14.589  -4.835  1.00 20.00     0.011 A 
HETATM    8  O8  UNL     1     -37.225  14.130  -3.802  1.00 20.00    -0.297 OA
ENDROOT
TORSDOF 0
ENDMDL
MODEL 8
REMARK VINA RESULT:      -4.0     12.141     13.099
REMARK  0 active torsions:
REMARK  status: ('A' for Active; 'I' for Inactive)
ROOT
HETATM    1  C1  UNL     1     -35.000  16.469  -3.258  1.00 20.00    -0.029 A 
HETATM    2  C2  UNL     1     -34.463  15.303  -2.881  1.00 20.00    -0.018 A 
HETATM    3  C3  UNL     1     -34.548  13.655  -4.774  1.00 20.00     0.135 A 
HETATM    4  C4  UNL     1     -34.712  16.834  -4.682  1.00 20.00     0.033 A 
HETATM    5  C5  UNL     1     -34.632  14.546  -6.023  1.00 20.00     0.084 A 
HETATM    6  C6  UNL     1     -33.724  14.698  -3.999  1.00 20.00     0.082 A 
HETATM    7  C7  UNL     1     -33.891  15.653  -5.219  1.00 20.00     0.011 A 
HETATM    8  O8  UNL     1     -34.977  12.553  -4.504  1.00 20.00    -0.297 OA
ENDROOT
TORSDOF 0
ENDMDL
MODEL 9
REMARK VINA RESULT:      -3.9     12.022     12.835
REMARK  0 active torsions:
REMARK  status: ('A' for Active; 'I' for Inactive)
ROOT
HETATM    1  C1  UNL     1     -35.087  13.243  -4.285  1.00 20.00    -0.029 A 
HETATM    2  C2  UNL     1     -33.867  13.685  -3.959  1.00 20.00    -0.018 A 
HETATM    3  C3  UNL     1     -33.709  16.161  -4.346  1.00 20.00     0.135 A 
HETATM    4  C4  UNL     1     -36.188  14.202  -3.947  1.00 20.00     0.033 A 
HETATM    5  C5  UNL     1     -35.170  16.630  -4.280  1.00 20.00     0.084 A 
HETATM    6  C6  UNL     1     -33.956  15.018  -3.346  1.00 20.00     0.082 A 
HETATM    7  C7  UNL     1     -35.463  15.417  -3.351  1.00 20.00     0.011 A 
HETATM    8  O8  UNL     1     -32.735  16.544  -4.960  1.00 20.00    -0.297 OA
ENDROOT
TORSDOF 0
ENDMDL
