MODEL 1
REMARK VINA RESULT:      -3.9      0.000      0.000
REMARK  2 active torsions:
REMARK  status: ('A' for Active; 'I' for Inactive)
REMARK    1  A    between atoms: C6_6  and  N9_9 
REMARK    2  A    between atoms: C7_7  and  N9_9 
ROOT
HETATM    1  C1  UNL     1     -34.601  13.780  -4.356  1.00 20.00     0.100 C 
HETATM    2  C4  UNL     1     -32.606  15.047  -3.663  1.00 20.00     0.065 C 
HETATM    3  C5  UNL     1     -33.953  15.762  -5.659  1.00 20.00     0.065 C 
HETATM    4  C7  UNL     1     -34.010  15.127  -4.267  1.00 20.00     0.237 C 
HETATM    5  N8  UNL     1     -35.065  12.717  -4.426  1.00 20.00    -0.195 NA
ENDROOT
BRANCH   4   6
HETATM    6  N9  UNL     1     -34.832  15.959  -3.406  1.00 20.00     0.110 N 
HETATM    7  H23 UNL     1     -35.358  16.624  -3.976  1.00 20.00     0.318 HD
BRANCH   6   8
HETATM    8  C6  UNL     1     -34.015  16.695  -2.450  1.00 20.00     0.214 C 
HETATM    9  C2  UNL     1     -34.594  16.513  -1.055  1.00 20.00     0.042 C 
HETATM   10  C3  UNL     1     -33.980  18.161  -2.857  1.00 20.00     0.042 C 
ENDBRANCH   6   8
ENDBRANCH   4   6
TORSDOF 2
ENDMDL
MODEL 2
REMARK VINA RESULT:      -3.9      1.285      2.872
REMARK  2 active torsions:
REMARK  status: ('A' for Active; 'I' for Inactive)
REMARK    1  A    between atoms: C6_6  and  N9_9 
REMARK    2  A    between atoms: C7_7  and  N9_9 
ROOT
HETATM    1  C1  UNL     1     -34.733  13.837  -4.028  1.00 20.00     0.100 C 
HETATM    2  C4  UNL     1     -34.866  15.596  -2.309  1.00 20.00     0.065 C 
HETATM    3  C5  UNL     1     -32.778  15.286  -3.672  1.00 20.00     0.065 C 
HETATM    4  C7  UNL     1     -34.308  15.205  -3.679  1.00 20.00     0.237 C 
HETATM    5  N8  UNL     1     -35.067  12.759  -4.301  1.00 20.00    -0.195 NA
ENDROOT
BRANCH   4   6
HETATM    6  N9  UNL     1     -34.821  16.136  -4.667  1.00 20.00     0.110 N 
HETATM    7  H23 UNL     1     -35.649  15.738  -5.113  1.00 20.00     0.318 HD
BRANCH   6   8
HETATM    8  C6  UNL     1     -33.823  16.423  -5.689  1.00 20.00     0.214 C 
HETATM    9  C2  UNL     1     -33.673  17.930  -5.833  1.00 20.00     0.042 C 
HETATM   10  C3  UNL     1     -34.255  15.773  -6.996  1.00 20.00     0.042 C 
ENDBRANCH   6   8
ENDBRANCH   4   6
TORSDOF 2
ENDMDL
MODEL 3
REMARK VINA RESULT:      -3.8      1.508      2.385
REMARK  2 active torsions:
REMARK  status: ('A' for Active; 'I' for Inactive)
REMARK    1  A    between atoms: C6_6  and  N9_9 
REMARK    2  A    between atoms: C7_7  and  N9_9 
ROOT
HETATM    1  C1  UNL     1     -34.783  13.671  -5.108  1.00 20.00     0.100 C 
HETATM    2  C4  UNL     1     -34.469  14.861  -7.241  1.00 20.00     0.065 C 
HETATM    3  C5  UNL     1     -36.012  15.768  -5.478  1.00 20.00     0.065 C 
HETATM    4  C7  UNL     1     -34.711  15.002  -5.737  1.00 20.00     0.237 C 
HETATM    5  N8  UNL     1     -34.840  12.621  -4.614  1.00 20.00    -0.195 NA
ENDROOT
BRANCH   4   6
HETATM    6  N9  UNL     1     -33.607  15.749  -5.162  1.00 20.00     0.110 N 
HETATM    7  H23 UNL     1     -32.968  15.105  -4.691  1.00 20.00     0.318 HD
BRANCH   6   8
HETATM    8  C6  UNL     1     -34.082  16.735  -4.200  1.00 20.00     0.214 C 
HETATM    9  C2  UNL     1     -33.519  18.100  -4.565  1.00 20.00     0.042 C 
HETATM   10  C3  UNL     1     -33.656  16.306  -2.803  1.00 20.00     0.042 C 
ENDBRANCH   6   8
ENDBRANCH   4   6
TORSDOF 2
ENDMDL
MODEL 4
REMARK VINA RESULT:      -3.8      2.021      3.426
REMARK  2 active torsions:
REMARK  status: ('A' for Active; 'I' for Inactive)
REMARK    1  A    between atoms: C6_6  and  N9_9 
REMARK    2  A    between atoms: C7_7  and  N9_9 
ROOT
HETATM    1  C1  UNL     1     -37.230  14.583  -3.853  1.00 20.00     0.100 C 
HETATM    2  C4  UNL     1     -35.319  15.590  -2.669  1.00 20.00     0.065 C 
HETATM    3  C5  UNL     1     -35.012  13.551  -4.103  1.00 20.00     0.065 C 
HETATM    4  C7  UNL     1     -35.784  14.862  -3.932  1.00 20.00     0.237 C 
HETATM    5  N8  UNL     1     -38.369  14.364  -3.789  1.00 20.00    -0.195 NA
ENDROOT
BRANCH   4   6
HETATM    6  N9  UNL     1     -35.519  15.714  -5.077  1.00 20.00     0.110 N 
HETATM    7  H23 UNL     1     -36.236  15.563  -5.789  1.00 20.00     0.318 HD
BRANCH   6   8
HETATM    8  C6  UNL     1     -34.211  15.429  -5.653  1.00 20.00     0.214 C 
HETATM    9  C2  UNL     1     -33.285  16.609  -5.398  1.00 20.00     0.042 C 
HETATM   10  C3  UNL     1     -34.377  15.155  -7.141  1.00 20.00     0.042 C 
ENDBRANCH   6   8
ENDBRANCH   4   6
TORSDOF 2
ENDMDL
MODEL 5
REMARK VINA RESULT:      -3.8      1.911      2.440
REMARK  2 active torsions:
REMARK  status: ('A' for Active; 'I' for Inactive)
REMARK    1  A    between atoms: C6_6  and  N9_9 
REMARK    2  A    between atoms: C7_7  and  N9_9 
ROOT
HETATM    1  C1  UNL     1     -37.196  14.515  -4.101  1.00 20.00     0.100 C 
HETATM    2  C4  UNL     1     -35.084  13.286  -4.407  1.00 20.00     0.065 C 
HETATM    3  C5  UNL     1     -35.999  14.744  -6.237  1.00 20.00     0.065 C 
HETATM    4  C7  UNL     1     -35.860  14.567  -4.722  1.00 20.00     0.237 C 
HETATM    5  N8  UNL     1     -38.249  14.473  -3.611  1.00 20.00    -0.195 NA
ENDROOT
BRANCH   4   6
HETATM    6  N9  UNL     1     -35.121  15.695  -4.185  1.00 20.00     0.110 N 
HETATM    7  H23 UNL     1     -34.546  16.107  -4.921  1.00 20.00     0.318 HD
BRANCH   6   8
HETATM    8  C6  UNL     1     -34.259  15.283  -3.084  1.00 20.00     0.214 C 
HETATM    9  C2  UNL     1     -34.601  16.104  -1.849  1.00 20.00     0.042 C 
HETATM   10  C3  UNL     1     -32.807  15.469  -3.499  1.00 20.00     0.042 C 
ENDBRANCH   6   8
ENDBRANCH   4   6
TORSDOF 2
ENDMDL
MODEL 6
REMARK VINA RESULT:      -3.8      1.972      3.630
REMARK  2 active torsions:
REMARK  status: ('A' for Active; 'I' for Inactive)
REMARK    1  A    between atoms: C6_6  and  N9_9 
REMARK    2  A    between atoms: C7_7  and  N9_9 
ROOT
HETATM    1  C1  UNL     1     -34.573  13.755  -4.644  1.00 20.00     0.100 C 
HETATM    2  C4  UNL     1     -35.337  16.083  -4.389  1.00 20.00     0.065 C 
HETATM    3  C5  UNL     1     -32.981  15.432  -3.807  1.00 20.00     0.065 C 
HETATM    4  C7  UNL     1     -34.163  15.168  -4.744  1.00 20.00     0.237 C 
HETATM    5  N8  UNL     1     -34.897  12.643  -4.564  1.00 20.00    -0.195 NA
ENDROOT
BRANCH   4   6
HETATM    6  N9  UNL     1     -33.753  15.456  -6.107  1.00 20.00     0.110 N 
HETATM    7  H23 UNL     1     -33.055  16.202  -6.103  1.00 20.00     0.318 HD
BRANCH   6   8
HETATM    8  C6  UNL     1     -34.887  15.872  -6.921  1.00 20.00     0.214 C 
HETATM    9  C2  UNL     1     -35.218  14.770  -7.917  1.00 20.00     0.042 C 
HETATM   10  C3  UNL     1     -34.539  17.178  -7.622  1.00 20.00     0.042 C 
ENDBRANCH   6   8
ENDBRANCH   4   6
TORSDOF 2
ENDMDL
MODEL 7
REMARK VINA RESULT:      -3.7      1.676      3.227
REMARK  2 active torsions:
REMARK  status: ('A' for Active; 'I' for Inactive)
REMARK    1  A    between atoms: C6_6  and  N9_9 
REMARK    2  A    between atoms: C7_7  and  N9_9 
ROOT
HETATM    1  C1  UNL     1     -35.308  13.736  -4.197  1.00 20.00     0.100 C 
HETATM    2  C4  UNL     1     -37.326  15.033  -3.637  1.00 20.00     0.065 C 
HETATM    3  C5  UNL     1     -35.101  15.619  -2.628  1.00 20.00     0.065 C 
HETATM    4  C7  UNL     1     -35.815  15.082  -3.872  1.00 20.00     0.237 C 
HETATM    5  N8  UNL     1     -34.910  12.675  -4.451  1.00 20.00    -0.195 NA
ENDROOT
BRANCH   4   6
HETATM    6  N9  UNL     1     -35.553  15.978  -4.985  1.00 20.00     0.110 N 
HETATM    7  H23 UNL     1     -36.217  15.790  -5.738  1.00 20.00     0.318 HD
BRANCH   6   8
HETATM    8  C6  UNL     1     -34.198  15.803  -5.493  1.00 20.00     0.214 C 
HETATM    9  C2  UNL     1     -33.410  17.085  -5.265  1.00 20.00     0.042 C 
HETATM   10  C3  UNL     1     -34.269  15.441  -6.970  1.00 20.00     0.042 C 
ENDBRANCH   6   8
ENDBRANCH   4   6
TORSDOF 2
ENDMDL
MODEL 8
REMARK VINA RESULT:      -3.6      1.901      2.395
REMARK  2 active torsions:
REMARK  status: ('A' for Active; 'I' for Inactive)
REMARK    1  A    between atoms: C6_6  and  N9_9 
REMARK    2  A    between atoms: C7_7  and  N9_9 
ROOT
HETATM    1  C1  UNL     1     -35.620  13.802  -4.173  1.00 20.00     0.100 C 
HETATM    2  C4  UNL     1     -35.992  16.100  -4.977  1.00 20.00     0.065 C 
HETATM    3  C5  UNL     1     -37.906  14.709  -4.134  1.00 20.00     0.065 C 
HETATM    4  C7  UNL     1     -36.417  15.027  -3.973  1.00 20.00     0.237 C 
HETATM    5  N8  UNL     1     -34.993  12.838  -4.333  1.00 20.00    -0.195 NA
ENDROOT
BRANCH   4   6
HETATM    6  N9  UNL     1     -36.189  15.537  -2.633  1.00 20.00     0.110 N 
HETATM    7  H23 UNL     1     -37.086  15.744  -2.190  1.00 20.00     0.318 HD
BRANCH   6   8
HETATM    8  C6  UNL     1     -35.383  16.750  -2.661  1.00 20.00     0.214 C 
HETATM    9  C2  UNL     1     -34.045  16.476  -1.991  1.00 20.00     0.042 C 
HETATM   10  C3  UNL     1     -36.146  17.866  -1.961  1.00 20.00     0.042 C 
ENDBRANCH   6   8
ENDBRANCH   4   6
TORSDOF 2
ENDMDL
MODEL 9
REMARK VINA RESULT:      -3.6      1.260      1.967
REMARK  2 active torsions:
REMARK  status: ('A' for Active; 'I' for Inactive)
REMARK    1  A    between atoms: C6_6  and  N9_9 
REMARK    2  A    between atoms: C7_7  and  N9_9 
ROOT
HETATM    1  C1  UNL     1     -34.247  15.134  -5.668  1.00 20.00     0.100 C 
HETATM    2  C4  UNL     1     -35.188  13.395  -4.200  1.00 20.00     0.065 C 
HETATM    3  C5  UNL     1     -32.960  14.437  -3.692  1.00 20.00     0.065 C 
HETATM    4  C7  UNL     1     -34.357  14.678  -4.270  1.00 20.00     0.237 C 
HETATM    5  N8  UNL     1     -34.160  15.492  -6.769  1.00 20.00    -0.195 NA
ENDROOT
BRANCH   4   6
HETATM    6  N9  UNL     1     -35.021  15.699  -3.480  1.00 20.00     0.110 N 
HETATM    7  H23 UNL     1     -35.474  16.371  -4.101  1.00 20.00     0.318 HD
BRANCH   6   8
HETATM    8  C6  UNL     1     -34.072  16.405  -2.628  1.00 20.00     0.214 C 
HETATM    9  C2  UNL     1     -34.605  16.431  -1.203  1.00 20.00     0.042 C 
HETATM   10  C3  UNL     1     -33.866  17.809  -3.178  1.00 20.00     0.042 C 
ENDBRANCH   6   8
ENDBRANCH   4   6
TORSDOF 2
ENDMDL
