MODEL 1
REMARK VINA RESULT:      -4.3      0.000      0.000
REMARK  0 active torsions:
REMARK  status: ('A' for Active; 'I' for Inactive)
ROOT
HETATM    1  C1  UNL     1     -32.537   6.706   2.842  1.00 20.00     0.086 C 
HETATM    2  C2  UNL     1     -33.633   5.714   2.576  1.00 20.00     0.055 C 
HETATM    3  C3  UNL     1     -35.155   4.455   5.923  1.00 20.00     0.030 C 
HETATM    4  C4  UNL     1     -35.168   4.671   4.403  1.00 20.00     0.010 C 
HETATM    5  C5  UNL     1     -34.703   5.708   6.693  1.00 20.00     0.272 C 
HETATM    6  C6  UNL     1     -33.831   5.265   4.004  1.00 20.00     0.045 C 
HETATM    7  C7  UNL     1     -33.589   6.571   4.756  1.00 20.00     0.345 C 
HETATM    8  N8  UNL     1     -32.432   7.173   4.052  1.00 20.00    -0.270 NA
HETATM    9  N9  UNL     1     -33.445   6.278   6.181  1.00 20.00     0.108 N 
HETATM   10  H21 UNL     1     -33.242   7.142   6.683  1.00 20.00     0.318 HD
ENDROOT
TORSDOF 0
ENDMDL
MODEL 2
REMARK VINA RESULT:      -4.2     12.222     13.806
REMARK  0 active torsions:
REMARK  status: ('A' for Active; 'I' for Inactive)
ROOT
HETATM    1  C1  UNL     1     -35.139  15.720  -7.623  1.00 20.00     0.086 C 
HETATM    2  C2  UNL     1     -35.644  14.482  -6.939  1.00 20.00     0.055 C 
HETATM    3  C3  UNL     1     -33.484  13.696  -3.806  1.00 20.00     0.030 C 
HETATM    4  C4  UNL     1     -34.742  13.563  -4.676  1.00 20.00     0.010 C 
HETATM    5  C5  UNL     1     -33.017  15.154  -3.661  1.00 20.00     0.272 C 
HETATM    6  C6  UNL     1     -34.502  14.327  -5.963  1.00 20.00     0.045 C 
HETATM    7  C7  UNL     1     -34.181  15.787  -5.657  1.00 20.00     0.345 C 
HETATM    8  N8  UNL     1     -34.280  16.454  -6.977  1.00 20.00    -0.270 NA
HETATM    9  N9  UNL     1     -32.902  15.854  -4.952  1.00 20.00     0.108 N 
HETATM   10  H21 UNL     1     -32.662  16.831  -4.782  1.00 20.00     0.318 HD
ENDROOT
TORSDOF 0
ENDMDL
MODEL 3
REMARK VINA RESULT:      -4.2     11.829     12.761
REMARK  0 active torsions:
REMARK  status: ('A' for Active; 'I' for Inactive)
ROOT
HETATM    1  C1  UNL     1     -37.864  15.366  -3.466  1.00 20.00     0.086 C 
HETATM    2  C2  UNL     1     -36.751  16.366  -3.335  1.00 20.00     0.055 C 
HETATM    3  C3  UNL     1     -33.305  14.590  -3.602  1.00 20.00     0.030 C 
HETATM    4  C4  UNL     1     -34.223  15.821  -3.635  1.00 20.00     0.010 C 
HETATM    5  C5  UNL     1     -33.889  13.398  -4.379  1.00 20.00     0.272 C 
HETATM    6  C6  UNL     1     -35.617  15.373  -3.241  1.00 20.00     0.045 C 
HETATM    7  C7  UNL     1     -36.107  14.281  -4.187  1.00 20.00     0.345 C 
HETATM    8  N8  UNL     1     -37.554  14.173  -3.882  1.00 20.00    -0.270 NA
HETATM    9  N9  UNL     1     -35.280  13.090  -4.005  1.00 20.00     0.108 N 
HETATM   10  H21 UNL     1     -35.629  12.342  -4.604  1.00 20.00     0.318 HD
ENDROOT
TORSDOF 0
ENDMDL
MODEL 4
REMARK VINA RESULT:      -4.0     12.216     13.797
REMARK  0 active torsions:
REMARK  status: ('A' for Active; 'I' for Inactive)
ROOT
HETATM    1  C1  UNL     1     -33.873  17.588  -6.154  1.00 20.00     0.086 C 
HETATM    2  C2  UNL     1     -34.938  16.624  -6.593  1.00 20.00     0.055 C 
HETATM    3  C3  UNL     1     -34.425  13.176  -4.877  1.00 20.00     0.030 C 
HETATM    4  C4  UNL     1     -35.252  14.223  -5.637  1.00 20.00     0.010 C 
HETATM    5  C5  UNL     1     -33.634  13.784  -3.707  1.00 20.00     0.272 C 
HETATM    6  C6  UNL     1     -34.338  15.386  -5.971  1.00 20.00     0.045 C 
HETATM    7  C7  UNL     1     -33.734  15.964  -4.694  1.00 20.00     0.345 C 
HETATM    8  N8  UNL     1     -33.136  17.246  -5.137  1.00 20.00    -0.270 NA
HETATM    9  N9  UNL     1     -32.848  14.968  -4.095  1.00 20.00     0.108 N 
HETATM   10  H21 UNL     1     -32.409  15.364  -3.263  1.00 20.00     0.318 HD
ENDROOT
TORSDOF 0
ENDMDL
MODEL 5
REMARK VINA RESULT:      -4.0      1.500      2.088
REMARK  0 active torsions:
REMARK  status: ('A' for Active; 'I' for Inactive)
ROOT
HETATM    1  C1  UNL     1     -33.031   6.402   2.613  1.00 20.00     0.086 C 
HETATM    2  C2  UNL     1     -32.636   6.967   3.947  1.00 20.00     0.055 C 
HETATM    3  C3  UNL     1     -34.888   5.499   6.753  1.00 20.00     0.030 C 
HETATM    4  C4  UNL     1     -33.635   6.216   6.232  1.00 20.00     0.010 C 
HETATM    5  C5  UNL     1     -35.237   4.248   5.930  1.00 20.00     0.272 C 
HETATM    6  C6  UNL     1     -33.798   6.413   4.737  1.00 20.00     0.045 C 
HETATM    7  C7  UNL     1     -34.003   5.068   4.048  1.00 20.00     0.345 C 
HETATM    8  N8  UNL     1     -33.836   5.379   2.608  1.00 20.00    -0.270 NA
HETATM    9  N9  UNL     1     -35.281   4.503   4.480  1.00 20.00     0.108 N 
HETATM   10  H21 UNL     1     -35.444   3.623   3.990  1.00 20.00     0.318 HD
ENDROOT
TORSDOF 0
ENDMDL
MODEL 6
REMARK VINA RESULT:      -4.0     12.412     13.247
REMARK  0 active torsions:
REMARK  status: ('A' for Active; 'I' for Inactive)
ROOT
HETATM    1  C1  UNL     1     -34.847  13.737  -5.501  1.00 20.00     0.086 C 
HETATM    2  C2  UNL     1     -35.292  13.707  -4.067  1.00 20.00     0.055 C 
HETATM    3  C3  UNL     1     -33.889  16.784  -2.154  1.00 20.00     0.030 C 
HETATM    4  C4  UNL     1     -34.847  15.598  -2.334  1.00 20.00     0.010 C 
HETATM    5  C5  UNL     1     -33.725  17.611  -3.440  1.00 20.00     0.272 C 
HETATM    6  C6  UNL     1     -34.423  14.840  -3.576  1.00 20.00     0.045 C 
HETATM    7  C7  UNL     1     -34.439  15.765  -4.790  1.00 20.00     0.345 C 
HETATM    8  N8  UNL     1     -34.314  14.839  -5.940  1.00 20.00    -0.270 NA
HETATM    9  N9  UNL     1     -33.409  16.788  -4.620  1.00 20.00     0.108 N 
HETATM   10  H21 UNL     1     -33.386  17.384  -5.447  1.00 20.00     0.318 HD
ENDROOT
TORSDOF 0
ENDMDL
MODEL 7
REMARK VINA RESULT:      -3.9      9.913     10.715
REMARK  0 active torsions:
REMARK  status: ('A' for Active; 'I' for Inactive)
ROOT
HETATM    1  C1  UNL     1     -43.175   4.119  -3.329  1.00 20.00     0.086 C 
HETATM    2  C2  UNL     1     -42.650   3.559  -2.038  1.00 20.00     0.055 C 
HETATM    3  C3  UNL     1     -40.511   6.222  -0.185  1.00 20.00     0.030 C 
HETATM    4  C4  UNL     1     -41.325   4.922  -0.259  1.00 20.00     0.010 C 
HETATM    5  C5  UNL     1     -41.204   7.394  -0.899  1.00 20.00     0.272 C 
HETATM    6  C6  UNL     1     -41.714   4.697  -1.707  1.00 20.00     0.045 C 
HETATM    7  C7  UNL     1     -42.510   5.890  -2.230  1.00 20.00     0.345 C 
HETATM    8  N8  UNL     1     -43.072   5.404  -3.512  1.00 20.00    -0.270 NA
HETATM    9  N9  UNL     1     -41.638   7.062  -2.267  1.00 20.00     0.108 N 
HETATM   10  H21 UNL     1     -42.152   7.853  -2.656  1.00 20.00     0.318 HD
ENDROOT
TORSDOF 0
ENDMDL
MODEL 8
REMARK VINA RESULT:      -3.9     11.971     12.804
REMARK  0 active torsions:
REMARK  status: ('A' for Active; 'I' for Inactive)
ROOT
HETATM    1  C1  UNL     1     -34.892  17.760  -1.364  1.00 20.00     0.086 C 
HETATM    2  C2  UNL     1     -33.689  17.019  -1.876  1.00 20.00     0.055 C 
HETATM    3  C3  UNL     1     -34.790  13.823  -3.793  1.00 20.00     0.030 C 
HETATM    4  C4  UNL     1     -33.782  14.916  -3.408  1.00 20.00     0.010 C 
HETATM    5  C5  UNL     1     -36.187  14.389  -4.098  1.00 20.00     0.272 C 
HETATM    6  C6  UNL     1     -34.415  15.775  -2.330  1.00 20.00     0.045 C 
HETATM    7  C7  UNL     1     -35.726  16.371  -2.834  1.00 20.00     0.345 C 
HETATM    8  N8  UNL     1     -36.056  17.402  -1.822  1.00 20.00    -0.270 NA
HETATM    9  N9  UNL     1     -36.688  15.290  -3.046  1.00 20.00     0.108 N 
HETATM   10  H21 UNL     1     -37.580  15.686  -3.342  1.00 20.00     0.318 HD
ENDROOT
TORSDOF 0
ENDMDL
MODEL 9
REMARK VINA RESULT:      -3.9      0.765      3.155
REMARK  0 active torsions:
REMARK  status: ('A' for Active; 'I' for Inactive)
ROOT
HETATM    1  C1  UNL     1     -35.200   4.940   6.162  1.00 20.00     0.086 C 
HETATM    2  C2  UNL     1     -35.266   4.433   4.749  1.00 20.00     0.055 C 
HETATM    3  C3  UNL     1     -32.987   6.573   2.442  1.00 20.00     0.030 C 
HETATM    4  C4  UNL     1     -33.807   5.321   2.784  1.00 20.00     0.010 C 
HETATM    5  C5  UNL     1     -32.100   7.037   3.610  1.00 20.00     0.272 C 
HETATM    6  C6  UNL     1     -34.506   5.569   4.107  1.00 20.00     0.045 C 
HETATM    7  C7  UNL     1     -33.482   5.885   5.193  1.00 20.00     0.345 C 
HETATM    8  N8  UNL     1     -34.261   5.794   6.450  1.00 20.00    -0.270 NA
HETATM    9  N9  UNL     1     -32.837   7.159   4.880  1.00 20.00     0.108 N 
HETATM   10  H21 UNL     1     -32.181   7.397   5.625  1.00 20.00     0.318 HD
ENDROOT
TORSDOF 0
ENDMDL
