MODEL 1
REMARK VINA RESULT:      -4.5      0.000      0.000
REMARK  5 active torsions:
REMARK  status: ('A' for Active; 'I' for Inactive)
REMARK    1  A    between atoms: C5_5  and  C7_7 
REMARK    2  A    between atoms: C6_6  and  C8_8 
REMARK    3  A    between atoms: C6_6  and  C9_9 
REMARK    4  A    between atoms: C7_7  and  O11_11 
REMARK    5  A    between atoms: C9_9  and  O11_11 
ROOT
HETATM    1  C1  UNL     1     -32.559   8.985   0.324  1.00 20.00     0.061 C 
HETATM    2  C5  UNL     1     -32.230   9.247   1.733  1.00 20.00     0.150 C 
HETATM    3  N10 UNL     1     -32.819   8.781  -0.788  1.00 20.00    -0.197 NA
ENDROOT
BRANCH   2   4
HETATM    4  C7  UNL     1     -32.060   7.952   2.515  1.00 20.00     0.182 C 
BRANCH   4   5
HETATM    5  O11 UNL     1     -33.313   7.543   3.039  1.00 20.00    -0.385 OA
BRANCH   5   6
HETATM    6  C9  UNL     1     -33.473   6.125   2.949  1.00 20.00     0.117 C 
HETATM    7  C4  UNL     1     -32.136   5.467   3.257  1.00 20.00     0.039 C 
BRANCH   6   8
HETATM    8  C6  UNL     1     -34.587   5.731   3.927  1.00 20.00     0.035 C 
BRANCH   8   9
HETATM    9  C8  UNL     1     -34.127   5.294   5.330  1.00 20.00    -0.020 C 
HETATM   10  C2  UNL     1     -34.058   6.465   6.311  1.00 20.00     0.009 C 
HETATM   11  C3  UNL     1     -35.075   4.221   5.873  1.00 20.00     0.009 C 
ENDBRANCH   8   9
ENDBRANCH   6   8
ENDBRANCH   5   6
ENDBRANCH   4   5
ENDBRANCH   2   4
TORSDOF 5
ENDMDL
MODEL 2
REMARK VINA RESULT:      -4.2      1.231      1.420
REMARK  5 active torsions:
REMARK  status: ('A' for Active; 'I' for Inactive)
REMARK    1  A    between atoms: C5_5  and  C7_7 
REMARK    2  A    between atoms: C6_6  and  C8_8 
REMARK    3  A    between atoms: C6_6  and  C9_9 
REMARK    4  A    between atoms: C7_7  and  O11_11 
REMARK    5  A    between atoms: C9_9  and  O11_11 
ROOT
HETATM    1  C1  UNL     1     -32.209   9.061   1.712  1.00 20.00     0.061 C 
HETATM    2  C5  UNL     1     -31.761   7.685   1.973  1.00 20.00     0.150 C 
HETATM    3  N10 UNL     1     -32.561  10.147   1.504  1.00 20.00    -0.197 NA
ENDROOT
BRANCH   2   4
HETATM    4  C7  UNL     1     -31.948   7.307   3.435  1.00 20.00     0.182 C 
BRANCH   4   5
HETATM    5  O11 UNL     1     -32.523   6.013   3.523  1.00 20.00    -0.385 OA
BRANCH   5   6
HETATM    6  C9  UNL     1     -33.849   5.999   2.990  1.00 20.00     0.117 C 
HETATM    7  C4  UNL     1     -33.976   4.819   2.038  1.00 20.00     0.039 C 
BRANCH   6   8
HETATM    8  C6  UNL     1     -34.816   5.930   4.178  1.00 20.00     0.035 C 
BRANCH   8   9
HETATM    9  C8  UNL     1     -34.223   5.406   5.499  1.00 20.00    -0.020 C 
HETATM   10  C2  UNL     1     -34.089   6.506   6.553  1.00 20.00     0.009 C 
HETATM   11  C3  UNL     1     -35.096   4.273   6.044  1.00 20.00     0.009 C 
ENDBRANCH   8   9
ENDBRANCH   6   8
ENDBRANCH   5   6
ENDBRANCH   4   5
ENDBRANCH   2   4
TORSDOF 5
ENDMDL
MODEL 3
REMARK VINA RESULT:      -4.2     10.446     12.946
REMARK  5 active torsions:
REMARK  status: ('A' for Active; 'I' for Inactive)
REMARK    1  A    between atoms: C5_5  and  C7_7 
REMARK    2  A    between atoms: C6_6  and  C8_8 
REMARK    3  A    between atoms: C6_6  and  C9_9 
REMARK    4  A    between atoms: C7_7  and  O11_11 
REMARK    5  A    between atoms: C9_9  and  O11_11 
ROOT
HETATM    1  C1  UNL     1     -34.096  13.462  -4.107  1.00 20.00     0.061 C 
HETATM    2  C5  UNL     1     -32.958  14.296  -3.695  1.00 20.00     0.150 C 
HETATM    3  N10 UNL     1     -34.992  12.801  -4.433  1.00 20.00    -0.197 NA
ENDROOT
BRANCH   2   4
HETATM    4  C7  UNL     1     -33.340  15.768  -3.632  1.00 20.00     0.182 C 
BRANCH   4   5
HETATM    5  O11 UNL     1     -32.864  16.434  -4.791  1.00 20.00    -0.385 OA
BRANCH   5   6
HETATM    6  C9  UNL     1     -33.940  17.013  -5.533  1.00 20.00     0.117 C 
HETATM    7  C4  UNL     1     -33.601  18.470  -5.818  1.00 20.00     0.039 C 
BRANCH   6   8
HETATM    8  C6  UNL     1     -34.123  16.170  -6.801  1.00 20.00     0.035 C 
BRANCH   8   9
HETATM    9  C8  UNL     1     -35.568  15.751  -7.127  1.00 20.00    -0.020 C 
HETATM   10  C2  UNL     1     -35.645  14.349  -7.732  1.00 20.00     0.009 C 
HETATM   11  C3  UNL     1     -36.423  15.813  -5.859  1.00 20.00     0.009 C 
ENDBRANCH   8   9
ENDBRANCH   6   8
ENDBRANCH   5   6
ENDBRANCH   4   5
ENDBRANCH   2   4
TORSDOF 5
ENDMDL
MODEL 4
REMARK VINA RESULT:      -4.2     10.419     11.595
REMARK  5 active torsions:
REMARK  status: ('A' for Active; 'I' for Inactive)
REMARK    1  A    between atoms: C5_5  and  C7_7 
REMARK    2  A    between atoms: C6_6  and  C8_8 
REMARK    3  A    between atoms: C6_6  and  C9_9 
REMARK    4  A    between atoms: C7_7  and  O11_11 
REMARK    5  A    between atoms: C9_9  and  O11_11 
ROOT
HETATM    1  C1  UNL     1     -34.007  13.571  -4.126  1.00 20.00     0.061 C 
HETATM    2  C5  UNL     1     -32.979  14.525  -3.687  1.00 20.00     0.150 C 
HETATM    3  N10 UNL     1     -34.817  12.815  -4.473  1.00 20.00    -0.197 NA
ENDROOT
BRANCH   2   4
HETATM    4  C7  UNL     1     -33.292  15.937  -4.162  1.00 20.00     0.182 C 
BRANCH   4   5
HETATM    5  O11 UNL     1     -34.673  16.206  -3.982  1.00 20.00    -0.385 OA
BRANCH   5   6
HETATM    6  C9  UNL     1     -34.873  17.359  -3.162  1.00 20.00     0.117 C 
HETATM    7  C4  UNL     1     -35.823  18.305  -3.882  1.00 20.00     0.039 C 
BRANCH   6   8
HETATM    8  C6  UNL     1     -35.408  16.869  -1.811  1.00 20.00     0.035 C 
BRANCH   8   9
HETATM    9  C8  UNL     1     -34.424  16.945  -0.629  1.00 20.00    -0.020 C 
HETATM   10  C2  UNL     1     -33.254  17.889  -0.906  1.00 20.00     0.009 C 
HETATM   11  C3  UNL     1     -35.165  17.398   0.632  1.00 20.00     0.009 C 
ENDBRANCH   8   9
ENDBRANCH   6   8
ENDBRANCH   5   6
ENDBRANCH   4   5
ENDBRANCH   2   4
TORSDOF 5
ENDMDL
MODEL 5
REMARK VINA RESULT:      -4.1     10.987     11.963
REMARK  5 active torsions:
REMARK  status: ('A' for Active; 'I' for Inactive)
REMARK    1  A    between atoms: C5_5  and  C7_7 
REMARK    2  A    between atoms: C6_6  and  C8_8 
REMARK    3  A    between atoms: C6_6  and  C9_9 
REMARK    4  A    between atoms: C7_7  and  O11_11 
REMARK    5  A    between atoms: C9_9  and  O11_11 
ROOT
HETATM    1  C1  UNL     1     -34.774  13.572  -5.163  1.00 20.00     0.061 C 
HETATM    2  C5  UNL     1     -34.591  14.523  -6.269  1.00 20.00     0.150 C 
HETATM    3  N10 UNL     1     -34.918  12.820  -4.291  1.00 20.00    -0.197 NA
ENDROOT
BRANCH   2   4
HETATM    4  C7  UNL     1     -34.509  15.956  -5.764  1.00 20.00     0.182 C 
BRANCH   4   5
HETATM    5  O11 UNL     1     -33.697  16.006  -4.602  1.00 20.00    -0.385 OA
BRANCH   5   6
HETATM    6  C9  UNL     1     -34.190  16.969  -3.668  1.00 20.00     0.117 C 
HETATM    7  C4  UNL     1     -35.578  17.407  -4.113  1.00 20.00     0.039 C 
BRANCH   6   8
HETATM    8  C6  UNL     1     -34.173  16.309  -2.283  1.00 20.00     0.035 C 
BRANCH   8   9
HETATM    9  C8  UNL     1     -33.727  17.208  -1.115  1.00 20.00    -0.020 C 
HETATM   10  C2  UNL     1     -33.440  18.642  -1.560  1.00 20.00     0.009 C 
HETATM   11  C3  UNL     1     -34.804  17.211  -0.026  1.00 20.00     0.009 C 
ENDBRANCH   8   9
ENDBRANCH   6   8
ENDBRANCH   5   6
ENDBRANCH   4   5
ENDBRANCH   2   4
TORSDOF 5
ENDMDL
MODEL 6
REMARK VINA RESULT:      -4.1      2.669      5.222
REMARK  5 active torsions:
REMARK  status: ('A' for Active; 'I' for Inactive)
REMARK    1  A    between atoms: C5_5  and  C7_7 
REMARK    2  A    between atoms: C6_6  and  C8_8 
REMARK    3  A    between atoms: C6_6  and  C9_9 
REMARK    4  A    between atoms: C7_7  and  O11_11 
REMARK    5  A    between atoms: C9_9  and  O11_11 
ROOT
HETATM    1  C1  UNL     1     -34.895   4.580   5.589  1.00 20.00     0.061 C 
HETATM    2  C5  UNL     1     -34.611   5.792   6.371  1.00 20.00     0.150 C 
HETATM    3  N10 UNL     1     -35.121   3.623   4.973  1.00 20.00    -0.197 NA
ENDROOT
BRANCH   2   4
HETATM    4  C7  UNL     1     -33.430   6.561   5.797  1.00 20.00     0.182 C 
BRANCH   4   5
HETATM    5  O11 UNL     1     -33.697   6.907   4.448  1.00 20.00    -0.385 OA
BRANCH   5   6
HETATM    6  C9  UNL     1     -32.654   6.454   3.582  1.00 20.00     0.117 C 
HETATM    7  C4  UNL     1     -33.281   5.666   2.441  1.00 20.00     0.039 C 
BRANCH   6   8
HETATM    8  C6  UNL     1     -31.881   7.694   3.113  1.00 20.00     0.035 C 
BRANCH   8   9
HETATM    9  C8  UNL     1     -32.475   8.440   1.904  1.00 20.00    -0.020 C 
HETATM   10  C2  UNL     1     -32.789   9.902   2.219  1.00 20.00     0.009 C 
HETATM   11  C3  UNL     1     -31.503   8.364   0.723  1.00 20.00     0.009 C 
ENDBRANCH   8   9
ENDBRANCH   6   8
ENDBRANCH   5   6
ENDBRANCH   4   5
ENDBRANCH   2   4
TORSDOF 5
ENDMDL
MODEL 7
REMARK VINA RESULT:      -4.1     10.979     12.105
REMARK  5 active torsions:
REMARK  status: ('A' for Active; 'I' for Inactive)
REMARK    1  A    between atoms: C5_5  and  C7_7 
REMARK    2  A    between atoms: C6_6  and  C8_8 
REMARK    3  A    between atoms: C6_6  and  C9_9 
REMARK    4  A    between atoms: C7_7  and  O11_11 
REMARK    5  A    between atoms: C9_9  and  O11_11 
ROOT
HETATM    1  C1  UNL     1     -34.934  13.510  -5.266  1.00 20.00     0.061 C 
HETATM    2  C5  UNL     1     -35.082  14.356  -6.459  1.00 20.00     0.150 C 
HETATM    3  N10 UNL     1     -34.818  12.840  -4.326  1.00 20.00    -0.197 NA
ENDROOT
BRANCH   2   4
HETATM    4  C7  UNL     1     -34.984  15.834  -6.108  1.00 20.00     0.182 C 
BRANCH   4   5
HETATM    5  O11 UNL     1     -36.084  16.205  -5.293  1.00 20.00    -0.385 OA
BRANCH   5   6
HETATM    6  C9  UNL     1     -35.670  17.054  -4.220  1.00 20.00     0.117 C 
HETATM    7  C4  UNL     1     -36.408  18.380  -4.341  1.00 20.00     0.039 C 
BRANCH   6   8
HETATM    8  C6  UNL     1     -35.963  16.310  -2.912  1.00 20.00     0.035 C 
BRANCH   8   9
HETATM    9  C8  UNL     1     -34.734  15.880  -2.091  1.00 20.00    -0.020 C 
HETATM   10  C2  UNL     1     -33.427  16.053  -2.866  1.00 20.00     0.009 C 
HETATM   11  C3  UNL     1     -34.673  16.686  -0.791  1.00 20.00     0.009 C 
ENDBRANCH   8   9
ENDBRANCH   6   8
ENDBRANCH   5   6
ENDBRANCH   4   5
ENDBRANCH   2   4
TORSDOF 5
ENDMDL
MODEL 8
REMARK VINA RESULT:      -4.1     10.651     12.319
REMARK  5 active torsions:
REMARK  status: ('A' for Active; 'I' for Inactive)
REMARK    1  A    between atoms: C5_5  and  C7_7 
REMARK    2  A    between atoms: C6_6  and  C8_8 
REMARK    3  A    between atoms: C6_6  and  C9_9 
REMARK    4  A    between atoms: C7_7  and  O11_11 
REMARK    5  A    between atoms: C9_9  and  O11_11 
ROOT
HETATM    1  C1  UNL     1     -35.806  13.577  -4.271  1.00 20.00     0.061 C 
HETATM    2  C5  UNL     1     -36.930  14.496  -4.042  1.00 20.00     0.150 C 
HETATM    3  N10 UNL     1     -34.919  12.850  -4.451  1.00 20.00    -0.197 NA
ENDROOT
BRANCH   2   4
HETATM    4  C7  UNL     1     -36.452  15.842  -3.517  1.00 20.00     0.182 C 
BRANCH   4   5
HETATM    5  O11 UNL     1     -35.360  15.648  -2.632  1.00 20.00    -0.385 OA
BRANCH   5   6
HETATM    6  C9  UNL     1     -34.359  16.651  -2.819  1.00 20.00     0.117 C 
HETATM    7  C4  UNL     1     -33.789  17.024  -1.457  1.00 20.00     0.039 C 
BRANCH   6   8
HETATM    8  C6  UNL     1     -33.312  16.076  -3.781  1.00 20.00     0.035 C 
BRANCH   8   9
HETATM    9  C8  UNL     1     -33.213  16.762  -5.156  1.00 20.00    -0.020 C 
HETATM   10  C2  UNL     1     -34.007  16.022  -6.233  1.00 20.00     0.009 C 
HETATM   11  C3  UNL     1     -33.709  18.206  -5.050  1.00 20.00     0.009 C 
ENDBRANCH   8   9
ENDBRANCH   6   8
ENDBRANCH   5   6
ENDBRANCH   4   5
ENDBRANCH   2   4
TORSDOF 5
ENDMDL
MODEL 9
REMARK VINA RESULT:      -4.0     10.677     12.052
REMARK  5 active torsions:
REMARK  status: ('A' for Active; 'I' for Inactive)
REMARK    1  A    between atoms: C5_5  and  C7_7 
REMARK    2  A    between atoms: C6_6  and  C8_8 
REMARK    3  A    between atoms: C6_6  and  C9_9 
REMARK    4  A    between atoms: C7_7  and  O11_11 
REMARK    5  A    between atoms: C9_9  and  O11_11 
ROOT
HETATM    1  C1  UNL     1     -34.628  16.893  -0.520  1.00 20.00     0.061 C 
HETATM    2  C5  UNL     1     -34.089  16.488  -1.826  1.00 20.00     0.150 C 
HETATM    3  N10 UNL     1     -35.052  17.213   0.512  1.00 20.00    -0.197 NA
ENDROOT
BRANCH   2   4
HETATM    4  C7  UNL     1     -35.110  15.696  -2.630  1.00 20.00     0.182 C 
BRANCH   4   5
HETATM    5  O11 UNL     1     -34.503  14.526  -3.152  1.00 20.00    -0.385 OA
BRANCH   5   6
HETATM    6  C9  UNL     1     -35.387  13.835  -4.038  1.00 20.00     0.117 C 
HETATM    7  C4  UNL     1     -36.747  14.516  -3.990  1.00 20.00     0.039 C 
BRANCH   6   8
HETATM    8  C6  UNL     1     -34.743  13.856  -5.430  1.00 20.00     0.035 C 
BRANCH   8   9
HETATM    9  C8  UNL     1     -35.170  15.013  -6.351  1.00 20.00    -0.020 C 
HETATM   10  C2  UNL     1     -34.111  16.112  -6.434  1.00 20.00     0.009 C 
HETATM   11  C3  UNL     1     -35.465  14.474  -7.754  1.00 20.00     0.009 C 
ENDBRANCH   8   9
ENDBRANCH   6   8
ENDBRANCH   5   6
ENDBRANCH   4   5
ENDBRANCH   2   4
TORSDOF 5
ENDMDL
