MODEL 1
REMARK VINA RESULT:      -4.3      0.000      0.000
REMARK  2 active torsions:
REMARK  status: ('A' for Active; 'I' for Inactive)
REMARK    1  A    between atoms: C2_2  and  C3_3 
REMARK    2  A    between atoms: C2_2  and  N4_4 
ROOT
HETATM    1  C1  UNL     1     -32.790   6.777   3.153  1.00 20.00     0.157 C 
HETATM    2  N4  UNL     1     -33.342   5.919   3.738  1.00 20.00    -0.267 NA
HETATM    3  S8  UNL     1     -32.041   7.924   2.341  1.00 20.00    -0.055 SA
ENDROOT
BRANCH   2   4
HETATM    4  C2  UNL     1     -33.702   6.244   5.117  1.00 20.00     0.267 C 
BRANCH   4   5
HETATM    5  C3  UNL     1     -34.671   5.212   5.635  1.00 20.00     0.405 C 
HETATM    6  F5  UNL     1     -35.198   5.608   6.815  1.00 20.00    -0.169 F 
HETATM    7  F6  UNL     1     -34.065   4.023   5.837  1.00 20.00    -0.169 F 
HETATM    8  F7  UNL     1     -35.694   5.021   4.774  1.00 20.00    -0.169 F 
ENDBRANCH   4   5
ENDBRANCH   2   4
TORSDOF 2
ENDMDL
MODEL 2
REMARK VINA RESULT:      -4.3      0.041      1.339
REMARK  2 active torsions:
REMARK  status: ('A' for Active; 'I' for Inactive)
REMARK    1  A    between atoms: C2_2  and  C3_3 
REMARK    2  A    between atoms: C2_2  and  N4_4 
ROOT
HETATM    1  C1  UNL     1     -32.778   6.762   3.176  1.00 20.00     0.157 C 
HETATM    2  N4  UNL     1     -33.313   5.903   3.775  1.00 20.00    -0.267 NA
HETATM    3  S8  UNL     1     -32.050   7.910   2.346  1.00 20.00    -0.055 SA
ENDROOT
BRANCH   2   4
HETATM    4  C2  UNL     1     -33.748   6.266   5.122  1.00 20.00     0.267 C 
BRANCH   4   5
HETATM    5  C3  UNL     1     -34.687   5.208   5.644  1.00 20.00     0.405 C 
HETATM    6  F5  UNL     1     -34.032   4.038   5.814  1.00 20.00    -0.169 F 
HETATM    7  F6  UNL     1     -35.705   4.986   4.787  1.00 20.00    -0.169 F 
HETATM    8  F7  UNL     1     -35.212   5.560   6.838  1.00 20.00    -0.169 F 
ENDBRANCH   4   5
ENDBRANCH   2   4
TORSDOF 2
ENDMDL
MODEL 3
REMARK VINA RESULT:      -4.3      0.026      1.337
REMARK  2 active torsions:
REMARK  status: ('A' for Active; 'I' for Inactive)
REMARK    1  A    between atoms: C2_2  and  C3_3 
REMARK    2  A    between atoms: C2_2  and  N4_4 
ROOT
HETATM    1  C1  UNL     1     -32.817   6.769   3.138  1.00 20.00     0.157 C 
HETATM    2  N4  UNL     1     -33.389   5.920   3.718  1.00 20.00    -0.267 NA
HETATM    3  S8  UNL     1     -32.043   7.903   2.333  1.00 20.00    -0.055 SA
ENDROOT
BRANCH   2   4
HETATM    4  C2  UNL     1     -33.707   6.229   5.111  1.00 20.00     0.267 C 
BRANCH   4   5
HETATM    5  C3  UNL     1     -34.675   5.202   5.641  1.00 20.00     0.405 C 
HETATM    6  F5  UNL     1     -35.689   5.014   4.767  1.00 20.00    -0.169 F 
HETATM    7  F6  UNL     1     -35.214   5.591   6.815  1.00 20.00    -0.169 F 
HETATM    8  F7  UNL     1     -34.072   4.008   5.830  1.00 20.00    -0.169 F 
ENDBRANCH   4   5
ENDBRANCH   2   4
TORSDOF 2
ENDMDL
MODEL 4
REMARK VINA RESULT:      -3.9      3.621      4.167
REMARK  2 active torsions:
REMARK  status: ('A' for Active; 'I' for Inactive)
REMARK    1  A    between atoms: C2_2  and  C3_3 
REMARK    2  A    between atoms: C2_2  and  N4_4 
ROOT
HETATM    1  C1  UNL     1     -34.590   5.103   4.596  1.00 20.00     0.157 C 
HETATM    2  N4  UNL     1     -34.274   5.670   3.615  1.00 20.00    -0.267 NA
HETATM    3  S8  UNL     1     -35.028   4.316   5.909  1.00 20.00    -0.055 SA
ENDROOT
BRANCH   2   4
HETATM    4  C2  UNL     1     -33.597   6.948   3.831  1.00 20.00     0.267 C 
BRANCH   4   5
HETATM    5  C3  UNL     1     -32.292   6.953   3.077  1.00 20.00     0.405 C 
HETATM    6  F5  UNL     1     -31.307   7.477   3.840  1.00 20.00    -0.169 F 
HETATM    7  F6  UNL     1     -32.375   7.694   1.952  1.00 20.00    -0.169 F 
HETATM    8  F7  UNL     1     -31.918   5.703   2.729  1.00 20.00    -0.169 F 
ENDBRANCH   4   5
ENDBRANCH   2   4
TORSDOF 2
ENDMDL
MODEL 5
REMARK VINA RESULT:      -3.5     11.870     12.323
REMARK  2 active torsions:
REMARK  status: ('A' for Active; 'I' for Inactive)
REMARK    1  A    between atoms: C2_2  and  C3_3 
REMARK    2  A    between atoms: C2_2  and  N4_4 
ROOT
HETATM    1  C1  UNL     1     -34.705  16.325  -1.593  1.00 20.00     0.157 C 
HETATM    2  N4  UNL     1     -34.887  15.589  -2.492  1.00 20.00    -0.267 NA
HETATM    3  S8  UNL     1     -34.483  17.318  -0.368  1.00 20.00    -0.055 SA
ENDROOT
BRANCH   2   4
HETATM    4  C2  UNL     1     -33.725  15.366  -3.352  1.00 20.00     0.267 C 
BRANCH   4   5
HETATM    5  C3  UNL     1     -33.811  13.987  -3.955  1.00 20.00     0.405 C 
HETATM    6  F5  UNL     1     -32.694  13.279  -3.675  1.00 20.00    -0.169 F 
HETATM    7  F6  UNL     1     -33.932  14.043  -5.299  1.00 20.00    -0.169 F 
HETATM    8  F7  UNL     1     -34.865  13.300  -3.466  1.00 20.00    -0.169 F 
ENDBRANCH   4   5
ENDBRANCH   2   4
TORSDOF 2
ENDMDL
MODEL 6
REMARK VINA RESULT:      -3.5     11.858     12.338
REMARK  2 active torsions:
REMARK  status: ('A' for Active; 'I' for Inactive)
REMARK    1  A    between atoms: C2_2  and  C3_3 
REMARK    2  A    between atoms: C2_2  and  N4_4 
ROOT
HETATM    1  C1  UNL     1     -34.714  16.287  -1.574  1.00 20.00     0.157 C 
HETATM    2  N4  UNL     1     -34.901  15.532  -2.457  1.00 20.00    -0.267 NA
HETATM    3  S8  UNL     1     -34.484  17.304  -0.371  1.00 20.00    -0.055 SA
ENDROOT
BRANCH   2   4
HETATM    4  C2  UNL     1     -33.778  15.368  -3.378  1.00 20.00     0.267 C 
BRANCH   4   5
HETATM    5  C3  UNL     1     -33.813  13.978  -3.962  1.00 20.00     0.405 C 
HETATM    6  F5  UNL     1     -33.937  14.034  -5.307  1.00 20.00    -0.169 F 
HETATM    7  F6  UNL     1     -34.858  13.269  -3.485  1.00 20.00    -0.169 F 
HETATM    8  F7  UNL     1     -32.681  13.298  -3.683  1.00 20.00    -0.169 F 
ENDBRANCH   4   5
ENDBRANCH   2   4
TORSDOF 2
ENDMDL
MODEL 7
REMARK VINA RESULT:      -3.5      9.519     10.025
REMARK  2 active torsions:
REMARK  status: ('A' for Active; 'I' for Inactive)
REMARK    1  A    between atoms: C2_2  and  C3_3 
REMARK    2  A    between atoms: C2_2  and  N4_4 
ROOT
HETATM    1  C1  UNL     1     -41.803   3.517  -2.619  1.00 20.00     0.157 C 
HETATM    2  N4  UNL     1     -41.844   4.558  -2.074  1.00 20.00    -0.267 NA
HETATM    3  S8  UNL     1     -41.768   2.114  -3.371  1.00 20.00    -0.055 SA
ENDROOT
BRANCH   2   4
HETATM    4  C2  UNL     1     -40.827   4.756  -1.042  1.00 20.00     0.267 C 
BRANCH   4   5
HETATM    5  C3  UNL     1     -40.977   6.136  -0.454  1.00 20.00     0.405 C 
HETATM    6  F5  UNL     1     -42.240   6.325  -0.010  1.00 20.00    -0.169 F 
HETATM    7  F6  UNL     1     -40.719   7.094  -1.370  1.00 20.00    -0.169 F 
HETATM    8  F7  UNL     1     -40.144   6.319   0.592  1.00 20.00    -0.169 F 
ENDBRANCH   4   5
ENDBRANCH   2   4
TORSDOF 2
ENDMDL
MODEL 8
REMARK VINA RESULT:      -3.5      9.538     10.016
REMARK  2 active torsions:
REMARK  status: ('A' for Active; 'I' for Inactive)
REMARK    1  A    between atoms: C2_2  and  C3_3 
REMARK    2  A    between atoms: C2_2  and  N4_4 
ROOT
HETATM    1  C1  UNL     1     -42.115   7.298  -2.960  1.00 20.00     0.157 C 
HETATM    2  N4  UNL     1     -41.387   6.758  -2.211  1.00 20.00    -0.267 NA
HETATM    3  S8  UNL     1     -43.085   8.049  -3.975  1.00 20.00    -0.055 SA
ENDROOT
BRANCH   2   4
HETATM    4  C2  UNL     1     -41.814   5.426  -1.785  1.00 20.00     0.267 C 
BRANCH   4   5
HETATM    5  C3  UNL     1     -40.917   4.948  -0.672  1.00 20.00     0.405 C 
HETATM    6  F5  UNL     1     -40.040   4.029  -1.134  1.00 20.00    -0.169 F 
HETATM    7  F6  UNL     1     -41.627   4.372   0.321  1.00 20.00    -0.169 F 
HETATM    8  F7  UNL     1     -40.203   5.965  -0.143  1.00 20.00    -0.169 F 
ENDBRANCH   4   5
ENDBRANCH   2   4
TORSDOF 2
ENDMDL
MODEL 9
REMARK VINA RESULT:      -3.5      9.500      9.983
REMARK  2 active torsions:
REMARK  status: ('A' for Active; 'I' for Inactive)
REMARK    1  A    between atoms: C2_2  and  C3_3 
REMARK    2  A    between atoms: C2_2  and  N4_4 
ROOT
HETATM    1  C1  UNL     1     -41.804   3.497  -2.585  1.00 20.00     0.157 C 
HETATM    2  N4  UNL     1     -41.896   4.503  -1.982  1.00 20.00    -0.267 NA
HETATM    3  S8  UNL     1     -41.702   2.141  -3.414  1.00 20.00    -0.055 SA
ENDROOT
BRANCH   2   4
HETATM    4  C2  UNL     1     -40.815   4.752  -1.029  1.00 20.00     0.267 C 
BRANCH   4   5
HETATM    5  C3  UNL     1     -40.977   6.132  -0.444  1.00 20.00     0.405 C 
HETATM    6  F5  UNL     1     -40.126   6.308   0.592  1.00 20.00    -0.169 F 
HETATM    7  F6  UNL     1     -42.230   6.328   0.018  1.00 20.00    -0.169 F 
HETATM    8  F7  UNL     1     -40.712   7.089  -1.359  1.00 20.00    -0.169 F 
ENDBRANCH   4   5
ENDBRANCH   2   4
TORSDOF 2
ENDMDL
