MODEL 1
REMARK VINA RESULT:      -5.5      0.000      0.000
REMARK  0 active torsions:
REMARK  status: ('A' for Active; 'I' for Inactive)
ROOT
HETATM    1  C1  UNL     1     -34.335  15.118  -2.892  1.00 20.00     0.061 A 
HETATM    2  C2  UNL     1     -33.836  17.209  -4.734  1.00 20.00     0.053 A 
HETATM    3  C3  UNL     1     -34.441  14.936  -4.258  1.00 20.00     0.019 A 
HETATM    4  C4  UNL     1     -34.201  15.949  -5.179  1.00 20.00    -0.041 A 
HETATM    5  C5  UNL     1     -33.968  16.386  -2.442  1.00 20.00     0.155 A 
HETATM    6  C6  UNL     1     -33.720  17.425  -3.356  1.00 20.00     0.155 A 
HETATM    7  C7  UNL     1     -34.801  13.733  -4.991  1.00 20.00     0.160 A 
HETATM    8  C8  UNL     1     -34.382  15.503  -6.594  1.00 20.00     0.047 A 
HETATM    9  C9  UNL     1     -34.784  14.023  -6.473  1.00 20.00     0.088 A 
HETATM   10  O10 UNL     1     -35.071  12.667  -4.469  1.00 20.00    -0.292 OA
HETATM   11  F11 UNL     1     -33.851  16.618  -1.128  1.00 20.00    -0.203 F 
HETATM   12  F12 UNL     1     -33.368  18.636  -2.901  1.00 20.00    -0.203 F 
ENDROOT
TORSDOF 0
ENDMDL
MODEL 2
REMARK VINA RESULT:      -5.2      3.077      4.624
REMARK  0 active torsions:
REMARK  status: ('A' for Active; 'I' for Inactive)
ROOT
HETATM    1  C1  UNL     1     -33.894  16.394  -5.272  1.00 20.00     0.061 A 
HETATM    2  C2  UNL     1     -34.654  14.385  -3.428  1.00 20.00     0.053 A 
HETATM    3  C3  UNL     1     -34.024  16.648  -3.920  1.00 20.00     0.019 A 
HETATM    4  C4  UNL     1     -34.397  15.677  -2.998  1.00 20.00    -0.041 A 
HETATM    5  C5  UNL     1     -34.153  15.094  -5.706  1.00 20.00     0.155 A 
HETATM    6  C6  UNL     1     -34.531  14.096  -4.792  1.00 20.00     0.155 A 
HETATM    7  C7  UNL     1     -33.816  17.897  -3.204  1.00 20.00     0.160 A 
HETATM    8  C8  UNL     1     -34.466  16.200  -1.600  1.00 20.00     0.047 A 
HETATM    9  C9  UNL     1     -34.081  17.684  -1.733  1.00 20.00     0.088 A 
HETATM   10  O10 UNL     1     -33.481  18.942  -3.732  1.00 20.00    -0.292 OA
HETATM   11  F11 UNL     1     -34.043  14.793  -7.007  1.00 20.00    -0.203 F 
HETATM   12  F12 UNL     1     -34.775  12.854  -5.231  1.00 20.00    -0.203 F 
ENDROOT
TORSDOF 0
ENDMDL
MODEL 3
REMARK VINA RESULT:      -5.0      2.798      3.494
REMARK  0 active torsions:
REMARK  status: ('A' for Active; 'I' for Inactive)
ROOT
HETATM    1  C1  UNL     1     -35.426  13.695  -4.102  1.00 20.00     0.061 A 
HETATM    2  C2  UNL     1     -34.111  16.052  -3.250  1.00 20.00     0.053 A 
HETATM    3  C3  UNL     1     -36.121  14.822  -3.704  1.00 20.00     0.019 A 
HETATM    4  C4  UNL     1     -35.494  15.988  -3.281  1.00 20.00    -0.041 A 
HETATM    5  C5  UNL     1     -34.034  13.757  -4.070  1.00 20.00     0.155 A 
HETATM    6  C6  UNL     1     -33.380  14.927  -3.647  1.00 20.00     0.155 A 
HETATM    7  C7  UNL     1     -37.559  15.030  -3.640  1.00 20.00     0.160 A 
HETATM    8  C8  UNL     1     -36.462  17.063  -2.904  1.00 20.00     0.047 A 
HETATM    9  C9  UNL     1     -37.843  16.426  -3.141  1.00 20.00     0.088 A 
HETATM   10  O10 UNL     1     -38.387  14.192  -3.948  1.00 20.00    -0.292 OA
HETATM   11  F11 UNL     1     -33.311  12.693  -4.445  1.00 20.00    -0.203 F 
HETATM   12  F12 UNL     1     -32.040  14.964  -3.624  1.00 20.00    -0.203 F 
ENDROOT
TORSDOF 0
ENDMDL
MODEL 4
REMARK VINA RESULT:      -4.9      1.909      2.232
REMARK  0 active torsions:
REMARK  status: ('A' for Active; 'I' for Inactive)
ROOT
HETATM    1  C1  UNL     1     -33.615  15.996  -2.377  1.00 20.00     0.061 A 
HETATM    2  C2  UNL     1     -36.328  16.651  -2.853  1.00 20.00     0.053 A 
HETATM    3  C3  UNL     1     -34.459  15.164  -3.088  1.00 20.00     0.019 A 
HETATM    4  C4  UNL     1     -35.793  15.466  -3.332  1.00 20.00    -0.041 A 
HETATM    5  C5  UNL     1     -34.152  17.189  -1.894  1.00 20.00     0.155 A 
HETATM    6  C6  UNL     1     -35.498  17.515  -2.130  1.00 20.00     0.155 A 
HETATM    7  C7  UNL     1     -34.167  13.876  -3.698  1.00 20.00     0.160 A 
HETATM    8  C8  UNL     1     -36.494  14.407  -4.122  1.00 20.00     0.047 A 
HETATM    9  C9  UNL     1     -35.410  13.342  -4.367  1.00 20.00     0.088 A 
HETATM   10  O10 UNL     1     -33.078  13.332  -3.661  1.00 20.00    -0.292 OA
HETATM   11  F11 UNL     1     -33.378  18.033  -1.197  1.00 20.00    -0.203 F 
HETATM   12  F12 UNL     1     -35.993  18.667  -1.656  1.00 20.00    -0.203 F 
ENDROOT
TORSDOF 0
ENDMDL
MODEL 5
REMARK VINA RESULT:      -4.8      2.824      3.961
REMARK  0 active torsions:
REMARK  status: ('A' for Active; 'I' for Inactive)
ROOT
HETATM    1  C1  UNL     1     -34.528  14.717  -3.403  1.00 20.00     0.061 A 
HETATM    2  C2  UNL     1     -33.910  16.499  -5.514  1.00 20.00     0.053 A 
HETATM    3  C3  UNL     1     -34.291  16.061  -3.185  1.00 20.00     0.019 A 
HETATM    4  C4  UNL     1     -33.985  16.952  -4.207  1.00 20.00    -0.041 A 
HETATM    5  C5  UNL     1     -34.453  14.259  -4.718  1.00 20.00     0.155 A 
HETATM    6  C6  UNL     1     -34.146  15.143  -5.767  1.00 20.00     0.155 A 
HETATM    7  C7  UNL     1     -34.305  16.797  -1.931  1.00 20.00     0.160 A 
HETATM    8  C8  UNL     1     -33.771  18.348  -3.716  1.00 20.00     0.047 A 
HETATM    9  C9  UNL     1     -33.983  18.248  -2.195  1.00 20.00     0.088 A 
HETATM   10  O10 UNL     1     -34.543  16.297  -0.846  1.00 20.00    -0.292 OA
HETATM   11  F11 UNL     1     -34.674  12.965  -4.986  1.00 20.00    -0.203 F 
HETATM   12  F12 UNL     1     -34.078  14.681  -7.023  1.00 20.00    -0.203 F 
ENDROOT
TORSDOF 0
ENDMDL
MODEL 6
REMARK VINA RESULT:      -4.8      1.904      2.278
REMARK  0 active torsions:
REMARK  status: ('A' for Active; 'I' for Inactive)
ROOT
HETATM    1  C1  UNL     1     -36.257  16.571  -2.714  1.00 20.00     0.061 A 
HETATM    2  C2  UNL     1     -33.451  16.199  -2.671  1.00 20.00     0.053 A 
HETATM    3  C3  UNL     1     -35.658  15.435  -3.224  1.00 20.00     0.019 A 
HETATM    4  C4  UNL     1     -34.283  15.233  -3.214  1.00 20.00    -0.041 A 
HETATM    5  C5  UNL     1     -35.421  17.544  -2.167  1.00 20.00     0.155 A 
HETATM    6  C6  UNL     1     -34.028  17.361  -2.146  1.00 20.00     0.155 A 
HETATM    7  C7  UNL     1     -36.282  14.277  -3.844  1.00 20.00     0.160 A 
HETATM    8  C8  UNL     1     -33.883  13.928  -3.824  1.00 20.00     0.047 A 
HETATM    9  C9  UNL     1     -35.216  13.287  -4.248  1.00 20.00     0.088 A 
HETATM   10  O10 UNL     1     -37.482  14.148  -4.002  1.00 20.00    -0.292 OA
HETATM   11  F11 UNL     1     -35.949  18.666  -1.659  1.00 20.00    -0.203 F 
HETATM   12  F12 UNL     1     -33.243  18.309  -1.616  1.00 20.00    -0.203 F 
ENDROOT
TORSDOF 0
ENDMDL
MODEL 7
REMARK VINA RESULT:      -4.8      2.570      3.459
REMARK  0 active torsions:
REMARK  status: ('A' for Active; 'I' for Inactive)
ROOT
HETATM    1  C1  UNL     1     -35.557  14.931  -6.289  1.00 20.00     0.061 A 
HETATM    2  C2  UNL     1     -33.621  16.858  -5.545  1.00 20.00     0.053 A 
HETATM    3  C3  UNL     1     -34.637  14.700  -5.284  1.00 20.00     0.019 A 
HETATM    4  C4  UNL     1     -33.678  15.631  -4.905  1.00 20.00    -0.041 A 
HETATM    5  C5  UNL     1     -35.501  16.165  -6.936  1.00 20.00     0.155 A 
HETATM    6  C6  UNL     1     -34.540  17.123  -6.567  1.00 20.00     0.155 A 
HETATM    7  C7  UNL     1     -34.472  13.516  -4.455  1.00 20.00     0.160 A 
HETATM    8  C8  UNL     1     -32.801  15.144  -3.796  1.00 20.00     0.047 A 
HETATM    9  C9  UNL     1     -33.328  13.730  -3.494  1.00 20.00     0.088 A 
HETATM   10  O10 UNL     1     -35.163  12.517  -4.542  1.00 20.00    -0.292 OA
HETATM   11  F11 UNL     1     -36.369  16.442  -7.918  1.00 20.00    -0.203 F 
HETATM   12  F12 UNL     1     -34.504  18.302  -7.203  1.00 20.00    -0.203 F 
ENDROOT
TORSDOF 0
ENDMDL
MODEL 8
REMARK VINA RESULT:      -4.8      1.281      2.410
REMARK  0 active torsions:
REMARK  status: ('A' for Active; 'I' for Inactive)
ROOT
HETATM    1  C1  UNL     1     -33.758  17.138  -4.519  1.00 20.00     0.061 A 
HETATM    2  C2  UNL     1     -34.418  15.513  -2.297  1.00 20.00     0.053 A 
HETATM    3  C3  UNL     1     -34.165  15.825  -4.663  1.00 20.00     0.019 A 
HETATM    4  C4  UNL     1     -34.492  15.010  -3.586  1.00 20.00    -0.041 A 
HETATM    5  C5  UNL     1     -33.682  17.645  -3.222  1.00 20.00     0.155 A 
HETATM    6  C6  UNL     1     -34.009  16.840  -2.118  1.00 20.00     0.155 A 
HETATM    7  C7  UNL     1     -34.330  15.052  -5.883  1.00 20.00     0.160 A 
HETATM    8  C8  UNL     1     -34.901  13.634  -4.002  1.00 20.00     0.047 A 
HETATM    9  C9  UNL     1     -34.793  13.657  -5.537  1.00 20.00     0.088 A 
HETATM   10  O10 UNL     1     -34.122  15.485  -7.002  1.00 20.00    -0.292 OA
HETATM   11  F11 UNL     1     -33.293  18.912  -3.025  1.00 20.00    -0.203 F 
HETATM   12  F12 UNL     1     -33.929  17.348  -0.881  1.00 20.00    -0.203 F 
ENDROOT
TORSDOF 0
ENDMDL
MODEL 9
REMARK VINA RESULT:      -4.8      2.936      3.913
REMARK  0 active torsions:
REMARK  status: ('A' for Active; 'I' for Inactive)
ROOT
HETATM    1  C1  UNL     1     -33.698  15.954  -4.196  1.00 20.00     0.061 A 
HETATM    2  C2  UNL     1     -34.734  14.762  -6.545  1.00 20.00     0.053 A 
HETATM    3  C3  UNL     1     -33.914  16.677  -5.354  1.00 20.00     0.019 A 
HETATM    4  C4  UNL     1     -34.420  16.111  -6.518  1.00 20.00    -0.041 A 
HETATM    5  C5  UNL     1     -34.013  14.596  -4.221  1.00 20.00     0.155 A 
HETATM    6  C6  UNL     1     -34.528  14.003  -5.387  1.00 20.00     0.155 A 
HETATM    7  C7  UNL     1     -33.677  18.090  -5.602  1.00 20.00     0.160 A 
HETATM    8  C8  UNL     1     -34.561  17.099  -7.630  1.00 20.00     0.047 A 
HETATM    9  C9  UNL     1     -34.064  18.423  -7.023  1.00 20.00     0.088 A 
HETATM   10  O10 UNL     1     -33.234  18.867  -4.776  1.00 20.00    -0.292 OA
HETATM   11  F11 UNL     1     -33.824  13.848  -3.126  1.00 20.00    -0.203 F 
HETATM   12  F12 UNL     1     -34.823  12.696  -5.390  1.00 20.00    -0.203 F 
ENDROOT
TORSDOF 0
ENDMDL
