MODEL 1
REMARK VINA RESULT:      -4.8      0.000      0.000
REMARK  0 active torsions:
REMARK  status: ('A' for Active; 'I' for Inactive)
ROOT
HETATM    1  C1  UNL     1     -36.359  16.666  -3.818  1.00 20.00     0.009 A 
HETATM    2  C2  UNL     1     -36.012  17.233  -2.592  1.00 20.00     0.024 A 
HETATM    3  C3  UNL     1     -34.311  15.528  -2.235  1.00 20.00     0.034 A 
HETATM    4  C4  UNL     1     -35.675  15.536  -4.236  1.00 20.00    -0.047 A 
HETATM    5  C5  UNL     1     -34.651  14.959  -3.456  1.00 20.00    -0.019 A 
HETATM    6  C6  UNL     1     -34.995  16.668  -1.806  1.00 20.00     0.034 A 
HETATM    7  C7  UNL     1     -35.890  14.762  -5.518  1.00 20.00     0.074 A 
HETATM    8  C8  UNL     1     -34.089  13.756  -4.134  1.00 20.00     0.185 A 
HETATM    9  C9  UNL     1     -34.831  13.678  -5.458  1.00 20.00     0.160 A 
HETATM   10  O10 UNL     1     -34.989  12.682  -4.446  1.00 20.00    -0.370 OA
HETATM   11 CL11 UNL     1     -34.587  17.389  -0.296  1.00 20.00    -0.084 Cl
ENDROOT
TORSDOF 0
ENDMDL
MODEL 2
REMARK VINA RESULT:      -4.6      1.380      1.408
REMARK  0 active torsions:
REMARK  status: ('A' for Active; 'I' for Inactive)
ROOT
HETATM    1  C1  UNL     1     -34.587  16.954  -5.132  1.00 20.00     0.009 A 
HETATM    2  C2  UNL     1     -34.289  17.796  -4.061  1.00 20.00     0.024 A 
HETATM    3  C3  UNL     1     -33.782  15.885  -2.641  1.00 20.00     0.034 A 
HETATM    4  C4  UNL     1     -34.477  15.586  -4.941  1.00 20.00    -0.047 A 
HETATM    5  C5  UNL     1     -34.076  15.041  -3.703  1.00 20.00    -0.019 A 
HETATM    6  C6  UNL     1     -33.889  17.266  -2.825  1.00 20.00     0.034 A 
HETATM    7  C7  UNL     1     -34.754  14.498  -5.955  1.00 20.00     0.074 A 
HETATM    8  C8  UNL     1     -34.046  13.551  -3.771  1.00 20.00     0.185 A 
HETATM    9  C9  UNL     1     -34.413  13.223  -5.208  1.00 20.00     0.160 A 
HETATM   10  O10 UNL     1     -35.264  12.872  -4.116  1.00 20.00    -0.370 OA
HETATM   11 CL11 UNL     1     -33.528  18.330  -1.519  1.00 20.00    -0.084 Cl
ENDROOT
TORSDOF 0
ENDMDL
MODEL 3
REMARK VINA RESULT:      -4.5     11.741     12.713
REMARK  0 active torsions:
REMARK  status: ('A' for Active; 'I' for Inactive)
ROOT
HETATM    1  C1  UNL     1     -32.716   7.175   5.431  1.00 20.00     0.009 A 
HETATM    2  C2  UNL     1     -32.151   7.650   4.247  1.00 20.00     0.024 A 
HETATM    3  C3  UNL     1     -33.556   6.164   2.927  1.00 20.00     0.034 A 
HETATM    4  C4  UNL     1     -33.695   6.199   5.344  1.00 20.00    -0.047 A 
HETATM    5  C5  UNL     1     -34.123   5.687   4.101  1.00 20.00    -0.019 A 
HETATM    6  C6  UNL     1     -32.568   7.149   3.004  1.00 20.00     0.034 A 
HETATM    7  C7  UNL     1     -34.433   5.543   6.490  1.00 20.00     0.074 A 
HETATM    8  C8  UNL     1     -35.177   4.649   4.296  1.00 20.00     0.185 A 
HETATM    9  C9  UNL     1     -35.408   4.611   5.797  1.00 20.00     0.160 A 
HETATM   10  O10 UNL     1     -34.847   3.502   5.094  1.00 20.00    -0.370 OA
HETATM   11 CL11 UNL     1     -31.853   7.754   1.559  1.00 20.00    -0.084 Cl
ENDROOT
TORSDOF 0
ENDMDL
MODEL 4
REMARK VINA RESULT:      -4.5     12.087     12.973
REMARK  0 active torsions:
REMARK  status: ('A' for Active; 'I' for Inactive)
ROOT
HETATM    1  C1  UNL     1     -40.965   4.255  -1.511  1.00 20.00     0.009 A 
HETATM    2  C2  UNL     1     -41.592   3.376  -2.393  1.00 20.00     0.024 A 
HETATM    3  C3  UNL     1     -43.121   5.125  -3.121  1.00 20.00     0.034 A 
HETATM    4  C4  UNL     1     -41.427   5.560  -1.446  1.00 20.00    -0.047 A 
HETATM    5  C5  UNL     1     -42.501   6.006  -2.245  1.00 20.00    -0.019 A 
HETATM    6  C6  UNL     1     -42.662   3.808  -3.193  1.00 20.00     0.034 A 
HETATM    7  C7  UNL     1     -40.902   6.670  -0.563  1.00 20.00     0.074 A 
HETATM    8  C8  UNL     1     -42.794   7.443  -1.974  1.00 20.00     0.185 A 
HETATM    9  C9  UNL     1     -41.743   7.867  -0.962  1.00 20.00     0.160 A 
HETATM   10  O10 UNL     1     -43.131   7.816  -0.629  1.00 20.00    -0.370 OA
HETATM   11 CL11 UNL     1     -43.417   2.700  -4.275  1.00 20.00    -0.084 Cl
ENDROOT
TORSDOF 0
ENDMDL
MODEL 5
REMARK VINA RESULT:      -4.5      3.249      4.510
REMARK  0 active torsions:
REMARK  status: ('A' for Active; 'I' for Inactive)
ROOT
HETATM    1  C1  UNL     1     -34.787  14.472  -3.406  1.00 20.00     0.009 A 
HETATM    2  C2  UNL     1     -34.733  14.211  -4.775  1.00 20.00     0.024 A 
HETATM    3  C3  UNL     1     -34.038  16.499  -5.230  1.00 20.00     0.034 A 
HETATM    4  C4  UNL     1     -34.464  15.747  -2.969  1.00 20.00    -0.047 A 
HETATM    5  C5  UNL     1     -34.088  16.766  -3.869  1.00 20.00    -0.019 A 
HETATM    6  C6  UNL     1     -34.361  15.217  -5.681  1.00 20.00     0.034 A 
HETATM    7  C7  UNL     1     -34.460  16.247  -1.541  1.00 20.00     0.074 A 
HETATM    8  C8  UNL     1     -33.800  18.033  -3.136  1.00 20.00     0.185 A 
HETATM    9  C9  UNL     1     -33.976  17.679  -1.670  1.00 20.00     0.160 A 
HETATM   10  O10 UNL     1     -34.850  18.594  -2.332  1.00 20.00    -0.370 OA
HETATM   11 CL11 UNL     1     -34.304  14.866  -7.366  1.00 20.00    -0.084 Cl
ENDROOT
TORSDOF 0
ENDMDL
MODEL 6
REMARK VINA RESULT:      -4.5      1.806      1.929
REMARK  0 active torsions:
REMARK  status: ('A' for Active; 'I' for Inactive)
ROOT
HETATM    1  C1  UNL     1     -33.741  17.477  -4.502  1.00 20.00     0.009 A 
HETATM    2  C2  UNL     1     -33.892  17.521  -3.116  1.00 20.00     0.024 A 
HETATM    3  C3  UNL     1     -34.861  15.288  -3.107  1.00 20.00     0.034 A 
HETATM    4  C4  UNL     1     -34.154  16.336  -5.171  1.00 20.00    -0.047 A 
HETATM    5  C5  UNL     1     -34.713  15.237  -4.486  1.00 20.00    -0.019 A 
HETATM    6  C6  UNL     1     -34.447  16.434  -2.423  1.00 20.00     0.034 A 
HETATM    7  C7  UNL     1     -34.088  16.078  -6.661  1.00 20.00     0.074 A 
HETATM    8  C8  UNL     1     -35.072  14.150  -5.442  1.00 20.00     0.185 A 
HETATM    9  C9  UNL     1     -34.618  14.664  -6.798  1.00 20.00     0.160 A 
HETATM   10  O10 UNL     1     -35.999  14.463  -6.494  1.00 20.00    -0.370 OA
HETATM   11 CL11 UNL     1     -34.621  16.516  -0.712  1.00 20.00    -0.084 Cl
ENDROOT
TORSDOF 0
ENDMDL
MODEL 7
REMARK VINA RESULT:      -4.5      2.924      3.623
REMARK  0 active torsions:
REMARK  status: ('A' for Active; 'I' for Inactive)
ROOT
HETATM    1  C1  UNL     1     -33.319  16.694  -5.289  1.00 20.00     0.009 A 
HETATM    2  C2  UNL     1     -34.099  17.477  -6.139  1.00 20.00     0.024 A 
HETATM    3  C3  UNL     1     -35.971  15.937  -5.915  1.00 20.00     0.034 A 
HETATM    4  C4  UNL     1     -33.878  15.540  -4.763  1.00 20.00    -0.047 A 
HETATM    5  C5  UNL     1     -35.200  15.152  -5.068  1.00 20.00    -0.019 A 
HETATM    6  C6  UNL     1     -35.415  17.102  -6.450  1.00 20.00     0.034 A 
HETATM    7  C7  UNL     1     -33.216  14.548  -3.832  1.00 20.00     0.074 A 
HETATM    8  C8  UNL     1     -35.545  13.877  -4.376  1.00 20.00     0.185 A 
HETATM    9  C9  UNL     1     -34.313  13.539  -3.553  1.00 20.00     0.160 A 
HETATM   10  O10 UNL     1     -34.731  12.725  -4.650  1.00 20.00    -0.370 OA
HETATM   11 CL11 UNL     1     -36.356  18.089  -7.502  1.00 20.00    -0.084 Cl
ENDROOT
TORSDOF 0
ENDMDL
MODEL 8
REMARK VINA RESULT:      -4.4      1.464      1.521
REMARK  0 active torsions:
REMARK  status: ('A' for Active; 'I' for Inactive)
ROOT
HETATM    1  C1  UNL     1     -33.765  17.550  -4.130  1.00 20.00     0.009 A 
HETATM    2  C2  UNL     1     -33.773  18.096  -2.847  1.00 20.00     0.024 A 
HETATM    3  C3  UNL     1     -34.357  15.939  -1.883  1.00 20.00     0.034 A 
HETATM    4  C4  UNL     1     -34.054  16.202  -4.271  1.00 20.00    -0.047 A 
HETATM    5  C5  UNL     1     -34.350  15.388  -3.157  1.00 20.00    -0.019 A 
HETATM    6  C6  UNL     1     -34.066  17.297  -1.731  1.00 20.00     0.034 A 
HETATM    7  C7  UNL     1     -34.107  15.410  -5.558  1.00 20.00     0.074 A 
HETATM    8  C8  UNL     1     -34.627  13.988  -3.589  1.00 20.00     0.185 A 
HETATM    9  C9  UNL     1     -34.410  13.998  -5.093  1.00 20.00     0.160 A 
HETATM   10  O10 UNL     1     -35.699  13.774  -4.521  1.00 20.00    -0.370 OA
HETATM   11 CL11 UNL     1     -34.068  17.999  -0.158  1.00 20.00    -0.084 Cl
ENDROOT
TORSDOF 0
ENDMDL
MODEL 9
REMARK VINA RESULT:      -4.4      1.289      2.106
REMARK  0 active torsions:
REMARK  status: ('A' for Active; 'I' for Inactive)
ROOT
HETATM    1  C1  UNL     1     -33.706  16.181  -2.381  1.00 20.00     0.009 A 
HETATM    2  C2  UNL     1     -34.562  17.191  -1.942  1.00 20.00     0.024 A 
HETATM    3  C3  UNL     1     -36.438  16.171  -3.111  1.00 20.00     0.034 A 
HETATM    4  C4  UNL     1     -34.231  15.178  -3.181  1.00 20.00    -0.047 A 
HETATM    5  C5  UNL     1     -35.592  15.162  -3.551  1.00 20.00    -0.019 A 
HETATM    6  C6  UNL     1     -35.918  17.186  -2.304  1.00 20.00     0.034 A 
HETATM    7  C7  UNL     1     -33.489  13.998  -3.768  1.00 20.00     0.074 A 
HETATM    8  C8  UNL     1     -35.888  13.981  -4.412  1.00 20.00     0.185 A 
HETATM    9  C9  UNL     1     -34.574  13.223  -4.491  1.00 20.00     0.160 A 
HETATM   10  O10 UNL     1     -35.152  13.847  -5.639  1.00 20.00    -0.370 OA
HETATM   11 CL11 UNL     1     -36.952  18.447  -1.747  1.00 20.00    -0.084 Cl
ENDROOT
TORSDOF 0
ENDMDL
