MODEL 1
REMARK VINA RESULT:      -5.4      0.000      0.000
REMARK  0 active torsions:
REMARK  status: ('A' for Active; 'I' for Inactive)
ROOT
HETATM    1  C1  UNL     1     -33.474  18.735  -2.273  1.00 20.00     0.012 A 
HETATM    2  C2  UNL     1     -33.466  18.919  -0.891  1.00 20.00     0.024 A 
HETATM    3  C3  UNL     1     -34.616  16.812  -0.590  1.00 20.00     0.031 A 
HETATM    4  C4  UNL     1     -34.049  17.589  -2.833  1.00 20.00    -0.021 A 
HETATM    5  C5  UNL     1     -34.631  16.610  -1.976  1.00 20.00    -0.048 A 
HETATM    6  C6  UNL     1     -34.033  17.960  -0.053  1.00 20.00     0.034 A 
HETATM    7  C7  UNL     1     -35.318  15.372  -2.562  1.00 20.00     0.039 C 
HETATM    8  C8  UNL     1     -34.447  14.380  -3.378  1.00 20.00     0.007 C 
HETATM    9  C9  UNL     1     -33.926  14.890  -4.748  1.00 20.00     0.035 C 
HETATM   10  C10 UNL     1     -34.067  17.311  -4.300  1.00 20.00     0.184 A 
HETATM   11  C11 UNL     1     -33.125  16.105  -4.498  1.00 20.00     0.156 A 
HETATM   12  O12 UNL     1     -33.029  17.271  -5.278  1.00 20.00    -0.370 OA
HETATM   13 CL13 UNL     1     -34.019  18.196   1.653  1.00 20.00    -0.084 Cl
ENDROOT
TORSDOF 0
ENDMDL
MODEL 2
REMARK VINA RESULT:      -5.3      2.068      3.274
REMARK  0 active torsions:
REMARK  status: ('A' for Active; 'I' for Inactive)
ROOT
HETATM    1  C1  UNL     1     -34.416  15.329  -2.293  1.00 20.00     0.012 A 
HETATM    2  C2  UNL     1     -34.502  16.564  -1.652  1.00 20.00     0.024 A 
HETATM    3  C3  UNL     1     -33.999  17.694  -3.732  1.00 20.00     0.031 A 
HETATM    4  C4  UNL     1     -34.123  15.258  -3.660  1.00 20.00    -0.021 A 
HETATM    5  C5  UNL     1     -33.910  16.462  -4.392  1.00 20.00    -0.048 A 
HETATM    6  C6  UNL     1     -34.296  17.742  -2.369  1.00 20.00     0.034 A 
HETATM    7  C7  UNL     1     -33.533  16.414  -5.876  1.00 20.00     0.039 C 
HETATM    8  C8  UNL     1     -34.560  15.800  -6.864  1.00 20.00     0.007 C 
HETATM    9  C9  UNL     1     -34.794  14.271  -6.749  1.00 20.00     0.035 C 
HETATM   10  C10 UNL     1     -34.045  13.973  -4.418  1.00 20.00     0.184 A 
HETATM   11  C11 UNL     1     -35.256  13.991  -5.374  1.00 20.00     0.156 A 
HETATM   12  O12 UNL     1     -34.960  12.887  -4.554  1.00 20.00    -0.370 OA
HETATM   13 CL13 UNL     1     -34.404  19.263  -1.569  1.00 20.00    -0.084 Cl
ENDROOT
TORSDOF 0
ENDMDL
MODEL 3
REMARK VINA RESULT:      -5.1      3.849      6.224
REMARK  0 active torsions:
REMARK  status: ('A' for Active; 'I' for Inactive)
ROOT
HETATM    1  C1  UNL     1     -35.382  17.720   0.767  1.00 20.00     0.012 A 
HETATM    2  C2  UNL     1     -35.163  17.241  -0.524  1.00 20.00     0.024 A 
HETATM    3  C3  UNL     1     -32.878  18.032  -0.444  1.00 20.00     0.031 A 
HETATM    4  C4  UNL     1     -34.355  18.359   1.471  1.00 20.00    -0.021 A 
HETATM    5  C5  UNL     1     -33.080  18.519   0.854  1.00 20.00    -0.048 A 
HETATM    6  C6  UNL     1     -33.914  17.394  -1.126  1.00 20.00     0.034 A 
HETATM    7  C7  UNL     1     -31.953  19.263   1.577  1.00 20.00     0.039 C 
HETATM    8  C8  UNL     1     -31.421  18.657   2.903  1.00 20.00     0.007 C 
HETATM    9  C9  UNL     1     -32.389  18.696   4.114  1.00 20.00     0.035 C 
HETATM   10  C10 UNL     1     -34.509  18.870   2.866  1.00 20.00     0.184 A 
HETATM   11  C11 UNL     1     -33.612  17.962   3.733  1.00 20.00     0.156 A 
HETATM   12  O12 UNL     1     -34.949  18.243   4.070  1.00 20.00    -0.370 OA
HETATM   13 CL13 UNL     1     -33.653  16.800  -2.721  1.00 20.00    -0.084 Cl
ENDROOT
TORSDOF 0
ENDMDL
MODEL 4
REMARK VINA RESULT:      -4.9      2.230      2.935
REMARK  0 active torsions:
REMARK  status: ('A' for Active; 'I' for Inactive)
ROOT
HETATM    1  C1  UNL     1     -34.275  16.060  -1.768  1.00 20.00     0.012 A 
HETATM    2  C2  UNL     1     -35.056  17.048  -1.169  1.00 20.00     0.024 A 
HETATM    3  C3  UNL     1     -36.136  17.496  -3.288  1.00 20.00     0.031 A 
HETATM    4  C4  UNL     1     -34.414  15.774  -3.131  1.00 20.00    -0.021 A 
HETATM    5  C5  UNL     1     -35.361  16.506  -3.905  1.00 20.00    -0.048 A 
HETATM    6  C6  UNL     1     -35.985  17.761  -1.926  1.00 20.00     0.034 A 
HETATM    7  C7  UNL     1     -35.496  16.255  -5.410  1.00 20.00     0.039 C 
HETATM    8  C8  UNL     1     -35.959  14.847  -5.869  1.00 20.00     0.007 C 
HETATM    9  C9  UNL     1     -34.956  13.685  -5.642  1.00 20.00     0.035 C 
HETATM   10  C10 UNL     1     -33.633  14.711  -3.830  1.00 20.00     0.184 A 
HETATM   11  C11 UNL     1     -34.665  13.623  -4.196  1.00 20.00     0.156 A 
HETATM   12  O12 UNL     1     -33.449  13.323  -3.555  1.00 20.00    -0.370 OA
HETATM   13 CL13 UNL     1     -36.945  18.980  -1.179  1.00 20.00    -0.084 Cl
ENDROOT
TORSDOF 0
ENDMDL
MODEL 5
REMARK VINA RESULT:      -4.9      1.250      1.533
REMARK  0 active torsions:
REMARK  status: ('A' for Active; 'I' for Inactive)
ROOT
HETATM    1  C1  UNL     1     -33.950  18.051  -3.710  1.00 20.00     0.012 A 
HETATM    2  C2  UNL     1     -33.693  18.349  -2.372  1.00 20.00     0.024 A 
HETATM    3  C3  UNL     1     -34.842  16.333  -1.688  1.00 20.00     0.031 A 
HETATM    4  C4  UNL     1     -34.654  16.892  -4.056  1.00 20.00    -0.021 A 
HETATM    5  C5  UNL     1     -35.109  16.018  -3.026  1.00 20.00    -0.048 A 
HETATM    6  C6  UNL     1     -34.135  17.492  -1.365  1.00 20.00     0.034 A 
HETATM    7  C7  UNL     1     -35.929  14.771  -3.370  1.00 20.00     0.039 C 
HETATM    8  C8  UNL     1     -35.250  13.673  -4.231  1.00 20.00     0.007 C 
HETATM    9  C9  UNL     1     -34.962  14.040  -5.711  1.00 20.00     0.035 C 
HETATM   10  C10 UNL     1     -34.940  16.495  -5.467  1.00 20.00     0.184 A 
HETATM   11  C11 UNL     1     -34.089  15.231  -5.714  1.00 20.00     0.156 A 
HETATM   12  O12 UNL     1     -34.092  16.323  -6.601  1.00 20.00    -0.370 OA
HETATM   13 CL13 UNL     1     -33.812  17.868   0.284  1.00 20.00    -0.084 Cl
ENDROOT
TORSDOF 0
ENDMDL
MODEL 6
REMARK VINA RESULT:      -4.9      1.319      1.505
REMARK  0 active torsions:
REMARK  status: ('A' for Active; 'I' for Inactive)
ROOT
HETATM    1  C1  UNL     1     -35.636  18.833  -2.077  1.00 20.00     0.012 A 
HETATM    2  C2  UNL     1     -35.617  18.801  -0.683  1.00 20.00     0.024 A 
HETATM    3  C3  UNL     1     -34.697  16.564  -0.732  1.00 20.00     0.031 A 
HETATM    4  C4  UNL     1     -35.185  17.734  -2.818  1.00 20.00    -0.021 A 
HETATM    5  C5  UNL     1     -34.708  16.579  -2.133  1.00 20.00    -0.048 A 
HETATM    6  C6  UNL     1     -35.148  17.672  -0.014  1.00 20.00     0.034 A 
HETATM    7  C7  UNL     1     -34.260  15.340  -2.915  1.00 20.00     0.039 C 
HETATM    8  C8  UNL     1     -33.041  15.485  -3.864  1.00 20.00     0.007 C 
HETATM    9  C9  UNL     1     -33.254  16.357  -5.129  1.00 20.00     0.035 C 
HETATM   10  C10 UNL     1     -35.148  17.709  -4.310  1.00 20.00     0.184 A 
HETATM   11  C11 UNL     1     -33.650  17.707  -4.680  1.00 20.00     0.156 A 
HETATM   12  O12 UNL     1     -34.569  18.595  -5.267  1.00 20.00    -0.370 OA
HETATM   13 CL13 UNL     1     -35.129  17.642   1.708  1.00 20.00    -0.084 Cl
ENDROOT
TORSDOF 0
ENDMDL
MODEL 7
REMARK VINA RESULT:      -4.9      3.719      5.049
REMARK  0 active torsions:
REMARK  status: ('A' for Active; 'I' for Inactive)
ROOT
HETATM    1  C1  UNL     1     -36.767  15.158  -6.000  1.00 20.00     0.012 A 
HETATM    2  C2  UNL     1     -36.964  16.324  -6.739  1.00 20.00     0.024 A 
HETATM    3  C3  UNL     1     -35.226  17.435  -5.475  1.00 20.00     0.031 A 
HETATM    4  C4  UNL     1     -35.798  15.112  -4.992  1.00 20.00    -0.021 A 
HETATM    5  C5  UNL     1     -35.013  16.272  -4.724  1.00 20.00    -0.048 A 
HETATM    6  C6  UNL     1     -36.195  17.457  -6.479  1.00 20.00     0.034 A 
HETATM    7  C7  UNL     1     -33.983  16.270  -3.590  1.00 20.00     0.039 C 
HETATM    8  C8  UNL     1     -32.789  15.284  -3.699  1.00 20.00     0.007 C 
HETATM    9  C9  UNL     1     -33.128  13.777  -3.559  1.00 20.00     0.035 C 
HETATM   10  C10 UNL     1     -35.511  13.890  -4.182  1.00 20.00     0.184 A 
HETATM   11  C11 UNL     1     -34.101  13.436  -4.615  1.00 20.00     0.156 A 
HETATM   12  O12 UNL     1     -35.192  12.550  -4.554  1.00 20.00    -0.370 OA
HETATM   13 CL13 UNL     1     -36.446  18.893  -7.396  1.00 20.00    -0.084 Cl
ENDROOT
TORSDOF 0
ENDMDL
MODEL 8
REMARK VINA RESULT:      -4.8      3.115      4.337
REMARK  0 active torsions:
REMARK  status: ('A' for Active; 'I' for Inactive)
ROOT
HETATM    1  C1  UNL     1     -37.625  14.754  -4.476  1.00 20.00     0.012 A 
HETATM    2  C2  UNL     1     -38.444  15.878  -4.375  1.00 20.00     0.024 A 
HETATM    3  C3  UNL     1     -36.793  16.971  -2.984  1.00 20.00     0.031 A 
HETATM    4  C4  UNL     1     -36.381  14.722  -3.837  1.00 20.00    -0.021 A 
HETATM    5  C5  UNL     1     -35.958  15.851  -3.076  1.00 20.00    -0.048 A 
HETATM    6  C6  UNL     1     -38.028  16.984  -3.633  1.00 20.00     0.034 A 
HETATM    7  C7  UNL     1     -34.626  15.824  -2.319  1.00 20.00     0.039 C 
HETATM    8  C8  UNL     1     -33.324  15.688  -3.151  1.00 20.00     0.007 C 
HETATM    9  C9  UNL     1     -33.094  14.322  -3.850  1.00 20.00     0.035 C 
HETATM   10  C10 UNL     1     -35.440  13.566  -3.927  1.00 20.00     0.184 A 
HETATM   11  C11 UNL     1     -34.240  14.081  -4.749  1.00 20.00     0.156 A 
HETATM   12  O12 UNL     1     -34.889  12.867  -5.041  1.00 20.00    -0.370 OA
HETATM   13 CL13 UNL     1     -39.046  18.367  -3.513  1.00 20.00    -0.084 Cl
ENDROOT
TORSDOF 0
ENDMDL
MODEL 9
REMARK VINA RESULT:      -4.7      3.625      5.323
REMARK  0 active torsions:
REMARK  status: ('A' for Active; 'I' for Inactive)
ROOT
HETATM    1  C1  UNL     1     -34.646  14.371  -6.341  1.00 20.00     0.012 A 
HETATM    2  C2  UNL     1     -35.688  14.589  -7.242  1.00 20.00     0.024 A 
HETATM    3  C3  UNL     1     -37.083  15.420  -5.449  1.00 20.00     0.031 A 
HETATM    4  C4  UNL     1     -34.806  14.676  -4.984  1.00 20.00    -0.021 A 
HETATM    5  C5  UNL     1     -36.048  15.210  -4.530  1.00 20.00    -0.048 A 
HETATM    6  C6  UNL     1     -36.901  15.113  -6.798  1.00 20.00     0.034 A 
HETATM    7  C7  UNL     1     -36.272  15.500  -3.043  1.00 20.00     0.039 C 
HETATM    8  C8  UNL     1     -35.375  16.575  -2.373  1.00 20.00     0.007 C 
HETATM    9  C9  UNL     1     -33.877  16.211  -2.201  1.00 20.00     0.035 C 
HETATM   10  C10 UNL     1     -33.725  14.498  -3.969  1.00 20.00     0.184 A 
HETATM   11  C11 UNL     1     -33.329  15.927  -3.542  1.00 20.00     0.156 A 
HETATM   12  O12 UNL     1     -32.377  14.961  -3.917  1.00 20.00    -0.370 OA
HETATM   13 CL13 UNL     1     -38.182  15.378  -7.918  1.00 20.00    -0.084 Cl
ENDROOT
TORSDOF 0
ENDMDL
