MODEL 1
REMARK VINA RESULT:      -5.3      0.000      0.000
REMARK  0 active torsions:
REMARK  status: ('A' for Active; 'I' for Inactive)
ROOT
HETATM    1  C1  UNL     1     -33.418  18.697  -2.177  1.00 20.00     0.012 A 
HETATM    2  C2  UNL     1     -33.566  18.868  -0.799  1.00 20.00     0.024 A 
HETATM    3  C3  UNL     1     -34.630  16.726  -0.681  1.00 20.00     0.031 A 
HETATM    4  C4  UNL     1     -33.865  17.539  -2.859  1.00 20.00    -0.021 A 
HETATM    5  C5  UNL     1     -34.475  16.537  -2.073  1.00 20.00    -0.048 A 
HETATM    6  C6  UNL     1     -34.177  17.879  -0.049  1.00 20.00     0.034 A 
HETATM    7  C7  UNL     1     -35.007  15.250  -2.653  1.00 20.00     0.039 C 
HETATM    8  C8  UNL     1     -33.980  14.509  -3.504  1.00 20.00     0.007 C 
HETATM    9  C9  UNL     1     -34.057  14.898  -4.969  1.00 20.00     0.035 C 
HETATM   10  C10 UNL     1     -33.667  17.506  -4.358  1.00 20.00     0.184 A 
HETATM   11  C11 UNL     1     -33.696  16.308  -5.279  1.00 20.00     0.156 A 
HETATM   12  O12 UNL     1     -34.814  17.208  -5.165  1.00 20.00    -0.370 OA
HETATM   13 CL13 UNL     1     -34.373  18.069   1.648  1.00 20.00    -0.084 Cl
ENDROOT
TORSDOF 0
ENDMDL
MODEL 2
REMARK VINA RESULT:      -5.2      1.104      1.414
REMARK  0 active torsions:
REMARK  status: ('A' for Active; 'I' for Inactive)
ROOT
HETATM    1  C1  UNL     1     -33.691  17.959  -3.554  1.00 20.00     0.012 A 
HETATM    2  C2  UNL     1     -33.663  18.287  -2.197  1.00 20.00     0.024 A 
HETATM    3  C3  UNL     1     -34.733  16.202  -1.704  1.00 20.00     0.031 A 
HETATM    4  C4  UNL     1     -34.235  16.744  -4.038  1.00 20.00    -0.021 A 
HETATM    5  C5  UNL     1     -34.755  15.854  -3.073  1.00 20.00    -0.048 A 
HETATM    6  C6  UNL     1     -34.189  17.407  -1.269  1.00 20.00     0.034 A 
HETATM    7  C7  UNL     1     -35.372  14.524  -3.432  1.00 20.00     0.039 C 
HETATM    8  C8  UNL     1     -34.469  13.665  -4.312  1.00 20.00     0.007 C 
HETATM    9  C9  UNL     1     -34.723  13.888  -5.791  1.00 20.00     0.035 C 
HETATM   10  C10 UNL     1     -34.225  16.537  -5.537  1.00 20.00     0.184 A 
HETATM   11  C11 UNL     1     -34.386  15.244  -6.303  1.00 20.00     0.156 A 
HETATM   12  O12 UNL     1     -35.468  16.182  -6.158  1.00 20.00    -0.370 OA
HETATM   13 CL13 UNL     1     -34.169  17.792   0.405  1.00 20.00    -0.084 Cl
ENDROOT
TORSDOF 0
ENDMDL
MODEL 3
REMARK VINA RESULT:      -4.9      3.001      4.790
REMARK  0 active torsions:
REMARK  status: ('A' for Active; 'I' for Inactive)
ROOT
HETATM    1  C1  UNL     1     -36.916  15.922  -3.785  1.00 20.00     0.012 A 
HETATM    2  C2  UNL     1     -36.370  14.803  -4.415  1.00 20.00     0.024 A 
HETATM    3  C3  UNL     1     -34.390  15.064  -3.092  1.00 20.00     0.031 A 
HETATM    4  C4  UNL     1     -36.227  16.652  -2.785  1.00 20.00    -0.021 A 
HETATM    5  C5  UNL     1     -34.939  16.190  -2.438  1.00 20.00    -0.048 A 
HETATM    6  C6  UNL     1     -35.100  14.374  -4.070  1.00 20.00     0.034 A 
HETATM    7  C7  UNL     1     -34.080  16.864  -1.396  1.00 20.00     0.039 C 
HETATM    8  C8  UNL     1     -34.798  17.058  -0.064  1.00 20.00     0.007 C 
HETATM    9  C9  UNL     1     -35.500  18.401   0.022  1.00 20.00     0.035 C 
HETATM   10  C10 UNL     1     -36.932  17.862  -2.212  1.00 20.00     0.184 A 
HETATM   11  C11 UNL     1     -36.631  18.596  -0.925  1.00 20.00     0.156 A 
HETATM   12  O12 UNL     1     -36.208  19.100  -2.205  1.00 20.00    -0.370 OA
HETATM   13 CL13 UNL     1     -34.406  13.002  -4.836  1.00 20.00    -0.084 Cl
ENDROOT
TORSDOF 0
ENDMDL
MODEL 4
REMARK VINA RESULT:      -4.8      1.904      2.440
REMARK  0 active torsions:
REMARK  status: ('A' for Active; 'I' for Inactive)
ROOT
HETATM    1  C1  UNL     1     -36.585  17.429  -2.259  1.00 20.00     0.012 A 
HETATM    2  C2  UNL     1     -35.857  18.079  -1.261  1.00 20.00     0.024 A 
HETATM    3  C3  UNL     1     -34.096  16.482  -1.550  1.00 20.00     0.031 A 
HETATM    4  C4  UNL     1     -36.099  16.287  -2.943  1.00 20.00    -0.021 A 
HETATM    5  C5  UNL     1     -34.819  15.824  -2.571  1.00 20.00    -0.048 A 
HETATM    6  C6  UNL     1     -34.609  17.601  -0.903  1.00 20.00     0.034 A 
HETATM    7  C7  UNL     1     -34.168  14.618  -3.202  1.00 20.00     0.039 C 
HETATM    8  C8  UNL     1     -34.132  14.688  -4.726  1.00 20.00     0.007 C 
HETATM    9  C9  UNL     1     -35.349  14.040  -5.362  1.00 20.00     0.035 C 
HETATM   10  C10 UNL     1     -37.011  15.670  -3.980  1.00 20.00     0.184 A 
HETATM   11  C11 UNL     1     -36.648  14.712  -5.092  1.00 20.00     0.156 A 
HETATM   12  O12 UNL     1     -37.268  14.263  -3.873  1.00 20.00    -0.370 OA
HETATM   13 CL13 UNL     1     -33.697  18.382   0.327  1.00 20.00    -0.084 Cl
ENDROOT
TORSDOF 0
ENDMDL
MODEL 5
REMARK VINA RESULT:      -4.8      1.222      2.619
REMARK  0 active torsions:
REMARK  status: ('A' for Active; 'I' for Inactive)
ROOT
HETATM    1  C1  UNL     1     -34.512  16.180  -1.855  1.00 20.00     0.012 A 
HETATM    2  C2  UNL     1     -34.635  16.714  -0.571  1.00 20.00     0.024 A 
HETATM    3  C3  UNL     1     -33.902  18.832  -1.415  1.00 20.00     0.031 A 
HETATM    4  C4  UNL     1     -34.084  16.947  -2.966  1.00 20.00    -0.021 A 
HETATM    5  C5  UNL     1     -33.787  18.305  -2.721  1.00 20.00    -0.048 A 
HETATM    6  C6  UNL     1     -34.326  18.044  -0.350  1.00 20.00     0.034 A 
HETATM    7  C7  UNL     1     -33.315  19.249  -3.801  1.00 20.00     0.039 C 
HETATM    8  C8  UNL     1     -34.228  19.262  -5.023  1.00 20.00     0.007 C 
HETATM    9  C9  UNL     1     -33.797  18.257  -6.076  1.00 20.00     0.035 C 
HETATM   10  C10 UNL     1     -33.968  16.228  -4.292  1.00 20.00     0.184 A 
HETATM   11  C11 UNL     1     -33.901  16.827  -5.678  1.00 20.00     0.156 A 
HETATM   12  O12 UNL     1     -32.726  16.350  -4.998  1.00 20.00    -0.370 OA
HETATM   13 CL13 UNL     1     -34.466  18.721   1.224  1.00 20.00    -0.084 Cl
ENDROOT
TORSDOF 0
ENDMDL
MODEL 6
REMARK VINA RESULT:      -4.8      3.144      4.235
REMARK  0 active torsions:
REMARK  status: ('A' for Active; 'I' for Inactive)
ROOT
HETATM    1  C1  UNL     1     -37.361  15.439  -5.288  1.00 20.00     0.012 A 
HETATM    2  C2  UNL     1     -38.178  16.513  -4.932  1.00 20.00     0.024 A 
HETATM    3  C3  UNL     1     -36.764  16.920  -3.042  1.00 20.00     0.031 A 
HETATM    4  C4  UNL     1     -36.216  15.065  -4.542  1.00 20.00    -0.021 A 
HETATM    5  C5  UNL     1     -35.923  15.843  -3.401  1.00 20.00    -0.048 A 
HETATM    6  C6  UNL     1     -37.880  17.254  -3.802  1.00 20.00     0.034 A 
HETATM    7  C7  UNL     1     -34.742  15.567  -2.502  1.00 20.00     0.039 C 
HETATM    8  C8  UNL     1     -33.422  15.473  -3.262  1.00 20.00     0.007 C 
HETATM    9  C9  UNL     1     -33.101  14.052  -3.686  1.00 20.00     0.035 C 
HETATM   10  C10 UNL     1     -35.442  13.860  -5.030  1.00 20.00     0.184 A 
HETATM   11  C11 UNL     1     -34.028  13.453  -4.683  1.00 20.00     0.156 A 
HETATM   12  O12 UNL     1     -35.172  12.824  -4.076  1.00 20.00    -0.370 OA
HETATM   13 CL13 UNL     1     -38.874  18.578  -3.342  1.00 20.00    -0.084 Cl
ENDROOT
TORSDOF 0
ENDMDL
MODEL 7
REMARK VINA RESULT:      -4.7      2.860      4.950
REMARK  0 active torsions:
REMARK  status: ('A' for Active; 'I' for Inactive)
ROOT
HETATM    1  C1  UNL     1     -34.405  15.136  -2.950  1.00 20.00     0.012 A 
HETATM    2  C2  UNL     1     -34.299  14.868  -4.316  1.00 20.00     0.024 A 
HETATM    3  C3  UNL     1     -34.135  17.221  -4.732  1.00 20.00     0.031 A 
HETATM    4  C4  UNL     1     -34.376  16.450  -2.422  1.00 20.00    -0.021 A 
HETATM    5  C5  UNL     1     -34.228  17.503  -3.350  1.00 20.00    -0.048 A 
HETATM    6  C6  UNL     1     -34.168  15.915  -5.211  1.00 20.00     0.034 A 
HETATM    7  C7  UNL     1     -34.185  18.956  -2.943  1.00 20.00     0.039 C 
HETATM    8  C8  UNL     1     -33.152  19.242  -1.858  1.00 20.00     0.007 C 
HETATM    9  C9  UNL     1     -33.737  19.137  -0.462  1.00 20.00     0.035 C 
HETATM   10  C10 UNL     1     -34.532  16.590  -0.923  1.00 20.00     0.184 A 
HETATM   11  C11 UNL     1     -34.186  17.778  -0.054  1.00 20.00     0.156 A 
HETATM   12  O12 UNL     1     -35.540  17.494  -0.451  1.00 20.00    -0.370 OA
HETATM   13 CL13 UNL     1     -34.041  15.609  -6.897  1.00 20.00    -0.084 Cl
ENDROOT
TORSDOF 0
ENDMDL
MODEL 8
REMARK VINA RESULT:      -4.7      2.457      3.518
REMARK  0 active torsions:
REMARK  status: ('A' for Active; 'I' for Inactive)
ROOT
HETATM    1  C1  UNL     1     -33.549  15.061  -4.334  1.00 20.00     0.012 A 
HETATM    2  C2  UNL     1     -33.552  15.418  -2.985  1.00 20.00     0.024 A 
HETATM    3  C3  UNL     1     -35.719  16.394  -3.282  1.00 20.00     0.031 A 
HETATM    4  C4  UNL     1     -34.626  15.350  -5.208  1.00 20.00    -0.021 A 
HETATM    5  C5  UNL     1     -35.732  16.025  -4.647  1.00 20.00    -0.048 A 
HETATM    6  C6  UNL     1     -34.641  16.090  -2.458  1.00 20.00     0.034 A 
HETATM    7  C7  UNL     1     -36.952  16.408  -5.448  1.00 20.00     0.039 C 
HETATM    8  C8  UNL     1     -37.556  15.234  -6.214  1.00 20.00     0.007 C 
HETATM    9  C9  UNL     1     -36.992  15.110  -7.617  1.00 20.00     0.035 C 
HETATM   10  C10 UNL     1     -34.469  14.930  -6.653  1.00 20.00     0.184 A 
HETATM   11  C11 UNL     1     -35.546  14.770  -7.701  1.00 20.00     0.156 A 
HETATM   12  O12 UNL     1     -34.696  15.931  -7.655  1.00 20.00    -0.370 OA
HETATM   13 CL13 UNL     1     -34.665  16.544  -0.801  1.00 20.00    -0.084 Cl
ENDROOT
TORSDOF 0
ENDMDL
MODEL 9
REMARK VINA RESULT:      -4.6      1.890      2.325
REMARK  0 active torsions:
REMARK  status: ('A' for Active; 'I' for Inactive)
ROOT
HETATM    1  C1  UNL     1     -34.078  16.777  -1.242  1.00 20.00     0.012 A 
HETATM    2  C2  UNL     1     -34.834  17.734  -0.563  1.00 20.00     0.024 A 
HETATM    3  C3  UNL     1     -36.571  17.470  -2.190  1.00 20.00     0.031 A 
HETATM    4  C4  UNL     1     -34.537  16.128  -2.414  1.00 20.00    -0.021 A 
HETATM    5  C5  UNL     1     -35.820  16.490  -2.878  1.00 20.00    -0.048 A 
HETATM    6  C6  UNL     1     -36.084  18.084  -1.041  1.00 20.00     0.034 A 
HETATM    7  C7  UNL     1     -36.443  15.892  -4.115  1.00 20.00     0.039 C 
HETATM    8  C8  UNL     1     -36.447  14.367  -4.104  1.00 20.00     0.007 C 
HETATM    9  C9  UNL     1     -35.210  13.782  -4.761  1.00 20.00     0.035 C 
HETATM   10  C10 UNL     1     -33.596  15.135  -3.061  1.00 20.00     0.184 A 
HETATM   11  C11 UNL     1     -33.924  14.053  -4.064  1.00 20.00     0.156 A 
HETATM   12  O12 UNL     1     -33.326  15.302  -4.459  1.00 20.00    -0.370 OA
HETATM   13 CL13 UNL     1     -37.031  19.263  -0.224  1.00 20.00    -0.084 Cl
ENDROOT
TORSDOF 0
ENDMDL
