MODEL 1
REMARK VINA RESULT:      -5.1      0.000      0.000
REMARK  0 active torsions:
REMARK  status: ('A' for Active; 'I' for Inactive)
ROOT
HETATM    1  C1  UNL     1     -33.661  16.890  -4.370  1.00 20.00     0.009 A 
HETATM    2  C2  UNL     1     -33.759  17.398  -3.076  1.00 20.00     0.019 A 
HETATM    3  C3  UNL     1     -34.984  15.424  -2.345  1.00 20.00     0.029 A 
HETATM    4  C4  UNL     1     -34.228  15.653  -4.635  1.00 20.00    -0.047 A 
HETATM    5  C5  UNL     1     -34.890  14.913  -3.633  1.00 20.00    -0.019 A 
HETATM    6  C6  UNL     1     -34.416  16.672  -2.071  1.00 20.00     0.011 A 
HETATM    7  C7  UNL     1     -34.234  14.916  -5.955  1.00 20.00     0.074 A 
HETATM    8  C8  UNL     1     -35.397  13.624  -4.183  1.00 20.00     0.185 A 
HETATM    9  C9  UNL     1     -35.034  13.663  -5.657  1.00 20.00     0.160 A 
HETATM   10  O10 UNL     1     -34.442  12.720  -4.762  1.00 20.00    -0.370 OA
HETATM   11 BR11 UNL     1     -34.531  17.387  -0.323  1.00 20.00    -0.051 Br
ENDROOT
TORSDOF 0
ENDMDL
MODEL 2
REMARK VINA RESULT:      -4.8      1.678      1.960
REMARK  0 active torsions:
REMARK  status: ('A' for Active; 'I' for Inactive)
ROOT
HETATM    1  C1  UNL     1     -33.992  16.215  -2.200  1.00 20.00     0.009 A 
HETATM    2  C2  UNL     1     -35.013  17.109  -1.882  1.00 20.00     0.019 A 
HETATM    3  C3  UNL     1     -36.518  16.019  -3.455  1.00 20.00     0.029 A 
HETATM    4  C4  UNL     1     -34.248  15.234  -3.144  1.00 20.00    -0.047 A 
HETATM    5  C5  UNL     1     -35.505  15.126  -3.776  1.00 20.00    -0.019 A 
HETATM    6  C6  UNL     1     -36.267  17.013  -2.505  1.00 20.00     0.011 A 
HETATM    7  C7  UNL     1     -33.296  14.165  -3.631  1.00 20.00     0.074 A 
HETATM    8  C8  UNL     1     -35.511  13.987  -4.738  1.00 20.00     0.185 A 
HETATM    9  C9  UNL     1     -34.100  13.428  -4.685  1.00 20.00     0.160 A 
HETATM   10  O10 UNL     1     -35.224  12.676  -4.226  1.00 20.00    -0.370 OA
HETATM   11 BR11 UNL     1     -37.634  18.239  -2.050  1.00 20.00    -0.051 Br
ENDROOT
TORSDOF 0
ENDMDL
MODEL 3
REMARK VINA RESULT:      -4.6      2.821      3.890
REMARK  0 active torsions:
REMARK  status: ('A' for Active; 'I' for Inactive)
ROOT
HETATM    1  C1  UNL     1     -35.058  14.625  -7.070  1.00 20.00     0.009 A 
HETATM    2  C2  UNL     1     -34.979  15.866  -7.700  1.00 20.00     0.019 A 
HETATM    3  C3  UNL     1     -33.935  16.848  -5.731  1.00 20.00     0.029 A 
HETATM    4  C4  UNL     1     -34.574  14.513  -5.776  1.00 20.00    -0.047 A 
HETATM    5  C5  UNL     1     -34.012  15.615  -5.099  1.00 20.00    -0.019 A 
HETATM    6  C6  UNL     1     -34.423  16.970  -7.035  1.00 20.00     0.011 A 
HETATM    7  C7  UNL     1     -34.554  13.270  -4.914  1.00 20.00     0.074 A 
HETATM    8  C8  UNL     1     -33.567  15.218  -3.732  1.00 20.00     0.185 A 
HETATM    9  C9  UNL     1     -33.969  13.759  -3.603  1.00 20.00     0.160 A 
HETATM   10  O10 UNL     1     -32.599  14.162  -3.623  1.00 20.00    -0.370 OA
HETATM   11 BR11 UNL     1     -34.327  18.642  -7.917  1.00 20.00    -0.051 Br
ENDROOT
TORSDOF 0
ENDMDL
MODEL 4
REMARK VINA RESULT:      -4.5      1.074      1.339
REMARK  0 active torsions:
REMARK  status: ('A' for Active; 'I' for Inactive)
ROOT
HETATM    1  C1  UNL     1     -33.671  17.956  -3.530  1.00 20.00     0.009 A 
HETATM    2  C2  UNL     1     -33.877  18.406  -2.227  1.00 20.00     0.019 A 
HETATM    3  C3  UNL     1     -34.562  16.179  -1.518  1.00 20.00     0.029 A 
HETATM    4  C4  UNL     1     -33.915  16.621  -3.810  1.00 20.00    -0.047 A 
HETATM    5  C5  UNL     1     -34.359  15.725  -2.814  1.00 20.00    -0.019 A 
HETATM    6  C6  UNL     1     -34.320  17.525  -1.228  1.00 20.00     0.011 A 
HETATM    7  C7  UNL     1     -33.753  15.923  -5.142  1.00 20.00     0.074 A 
HETATM    8  C8  UNL     1     -34.536  14.358  -3.381  1.00 20.00     0.185 A 
HETATM    9  C9  UNL     1     -34.212  14.506  -4.857  1.00 20.00     0.160 A 
HETATM   10  O10 UNL     1     -33.393  13.729  -3.982  1.00 20.00    -0.370 OA
HETATM   11 BR11 UNL     1     -34.589  18.166   0.532  1.00 20.00    -0.051 Br
ENDROOT
TORSDOF 0
ENDMDL
MODEL 5
REMARK VINA RESULT:      -4.5      1.479      1.879
REMARK  0 active torsions:
REMARK  status: ('A' for Active; 'I' for Inactive)
ROOT
HETATM    1  C1  UNL     1     -36.461  16.695  -2.981  1.00 20.00     0.009 A 
HETATM    2  C2  UNL     1     -35.720  17.622  -2.248  1.00 20.00     0.019 A 
HETATM    3  C3  UNL     1     -33.757  16.184  -2.329  1.00 20.00     0.029 A 
HETATM    4  C4  UNL     1     -35.837  15.522  -3.377  1.00 20.00    -0.047 A 
HETATM    5  C5  UNL     1     -34.489  15.257  -3.058  1.00 20.00    -0.019 A 
HETATM    6  C6  UNL     1     -34.379  17.368  -1.923  1.00 20.00     0.011 A 
HETATM    7  C7  UNL     1     -36.444  14.392  -4.178  1.00 20.00     0.074 A 
HETATM    8  C8  UNL     1     -34.071  13.936  -3.608  1.00 20.00     0.185 A 
HETATM    9  C9  UNL     1     -35.324  13.373  -4.256  1.00 20.00     0.160 A 
HETATM   10  O10 UNL     1     -34.178  13.737  -5.027  1.00 20.00    -0.370 OA
HETATM   11 BR11 UNL     1     -33.399  18.646  -0.929  1.00 20.00    -0.051 Br
ENDROOT
TORSDOF 0
ENDMDL
MODEL 6
REMARK VINA RESULT:      -4.4      2.964      4.350
REMARK  0 active torsions:
REMARK  status: ('A' for Active; 'I' for Inactive)
ROOT
HETATM    1  C1  UNL     1     -33.534  17.306  -4.152  1.00 20.00     0.009 A 
HETATM    2  C2  UNL     1     -33.803  16.092  -4.782  1.00 20.00     0.019 A 
HETATM    3  C3  UNL     1     -34.644  15.147  -2.702  1.00 20.00     0.029 A 
HETATM    4  C4  UNL     1     -33.824  17.423  -2.802  1.00 20.00    -0.047 A 
HETATM    5  C5  UNL     1     -34.378  16.353  -2.068  1.00 20.00    -0.019 A 
HETATM    6  C6  UNL     1     -34.353  15.019  -4.063  1.00 20.00     0.011 A 
HETATM    7  C7  UNL     1     -33.621  18.640  -1.927  1.00 20.00     0.074 A 
HETATM    8  C8  UNL     1     -34.595  16.749  -0.647  1.00 20.00     0.185 A 
HETATM    9  C9  UNL     1     -34.058  18.167  -0.555  1.00 20.00     0.160 A 
HETATM   10  O10 UNL     1     -35.447  17.876  -0.388  1.00 20.00    -0.370 OA
HETATM   11 BR11 UNL     1     -34.709  13.385  -4.947  1.00 20.00    -0.051 Br
ENDROOT
TORSDOF 0
ENDMDL
MODEL 7
REMARK VINA RESULT:      -4.4     11.856     13.101
REMARK  0 active torsions:
REMARK  status: ('A' for Active; 'I' for Inactive)
ROOT
HETATM    1  C1  UNL     1     -40.789   5.120  -1.016  1.00 20.00     0.009 A 
HETATM    2  C2  UNL     1     -40.872   3.857  -1.602  1.00 20.00     0.019 A 
HETATM    3  C3  UNL     1     -42.693   4.595  -3.040  1.00 20.00     0.029 A 
HETATM    4  C4  UNL     1     -41.662   6.104  -1.451  1.00 20.00    -0.047 A 
HETATM    5  C5  UNL     1     -42.616   5.854  -2.460  1.00 20.00    -0.019 A 
HETATM    6  C6  UNL     1     -41.817   3.596  -2.606  1.00 20.00     0.011 A 
HETATM    7  C7  UNL     1     -41.743   7.533  -0.962  1.00 20.00     0.074 A 
HETATM    8  C8  UNL     1     -43.417   7.080  -2.738  1.00 20.00     0.185 A 
HETATM    9  C9  UNL     1     -42.903   8.111  -1.749  1.00 20.00     0.160 A 
HETATM   10  O10 UNL     1     -42.714   8.260  -3.157  1.00 20.00    -0.370 OA
HETATM   11 BR11 UNL     1     -41.903   1.873  -3.384  1.00 20.00    -0.051 Br
ENDROOT
TORSDOF 0
ENDMDL
MODEL 8
REMARK VINA RESULT:      -4.4      2.602      3.314
REMARK  0 active torsions:
REMARK  status: ('A' for Active; 'I' for Inactive)
ROOT
HETATM    1  C1  UNL     1     -33.517  16.860  -4.195  1.00 20.00     0.009 A 
HETATM    2  C2  UNL     1     -33.696  17.725  -5.273  1.00 20.00     0.019 A 
HETATM    3  C3  UNL     1     -34.661  15.932  -6.609  1.00 20.00     0.029 A 
HETATM    4  C4  UNL     1     -33.912  15.540  -4.340  1.00 20.00    -0.047 A 
HETATM    5  C5  UNL     1     -34.485  15.066  -5.539  1.00 20.00    -0.019 A 
HETATM    6  C6  UNL     1     -34.263  17.265  -6.472  1.00 20.00     0.011 A 
HETATM    7  C7  UNL     1     -33.818  14.440  -3.305  1.00 20.00     0.074 A 
HETATM    8  C8  UNL     1     -34.822  13.618  -5.422  1.00 20.00     0.185 A 
HETATM    9  C9  UNL     1     -34.342  13.220  -4.037  1.00 20.00     0.160 A 
HETATM   10  O10 UNL     1     -35.729  13.224  -4.380  1.00 20.00    -0.370 OA
HETATM   11 BR11 UNL     1     -34.495  18.464  -7.917  1.00 20.00    -0.051 Br
ENDROOT
TORSDOF 0
ENDMDL
MODEL 9
REMARK VINA RESULT:      -4.3      2.094      3.119
REMARK  0 active torsions:
REMARK  status: ('A' for Active; 'I' for Inactive)
ROOT
HETATM    1  C1  UNL     1     -33.187  18.873  -1.540  1.00 20.00     0.009 A 
HETATM    2  C2  UNL     1     -33.386  19.040  -0.171  1.00 20.00     0.019 A 
HETATM    3  C3  UNL     1     -34.769  17.038  -0.081  1.00 20.00     0.029 A 
HETATM    4  C4  UNL     1     -33.784  17.788  -2.162  1.00 20.00    -0.047 A 
HETATM    5  C5  UNL     1     -34.575  16.866  -1.445  1.00 20.00    -0.019 A 
HETATM    6  C6  UNL     1     -34.172  18.131   0.554  1.00 20.00     0.011 A 
HETATM    7  C7  UNL     1     -33.696  17.413  -3.625  1.00 20.00     0.074 A 
HETATM    8  C8  UNL     1     -35.087  15.799  -2.351  1.00 20.00     0.185 A 
HETATM    9  C9  UNL     1     -34.581  16.186  -3.730  1.00 20.00     0.160 A 
HETATM   10  O10 UNL     1     -34.125  15.007  -3.065  1.00 20.00    -0.370 OA
HETATM   11 BR11 UNL     1     -34.422  18.384   2.412  1.00 20.00    -0.051 Br
ENDROOT
TORSDOF 0
ENDMDL
