MODEL 1
REMARK VINA RESULT:      -4.4      0.000      0.000
REMARK  1 active torsions:
REMARK  status: ('A' for Active; 'I' for Inactive)
REMARK    1  A    between atoms: C3_3  and  C8_8 
ROOT
HETATM    1  C1  UNL     1     -34.335  14.165  -3.394  1.00 20.00     0.058 A 
HETATM    2  C2  UNL     1     -34.093  15.777  -5.013  1.00 20.00    -0.037 A 
HETATM    3  C3  UNL     1     -34.015  15.492  -3.635  1.00 20.00    -0.031 A 
HETATM    4  C4  UNL     1     -34.460  14.684  -5.749  1.00 20.00    -0.011 A 
HETATM    5  C5  UNL     1     -33.876  16.961  -5.879  1.00 20.00     0.040 C 
HETATM    6  C6  UNL     1     -34.552  14.941  -7.204  1.00 20.00     0.047 C 
HETATM    7  C7  UNL     1     -34.511  16.501  -7.230  1.00 20.00     0.010 C 
HETATM    8  S9  UNL     1     -34.719  13.302  -4.845  1.00 20.00    -0.105 SA
ENDROOT
BRANCH   3   9
HETATM    9  C8  UNL     1     -33.643  16.467  -2.587  1.00 20.00     0.154 C 
HETATM   10 CL10 UNL     1     -34.710  16.321  -1.167  1.00 20.00    -0.126 Cl
ENDBRANCH   3   9
TORSDOF 1
ENDMDL
MODEL 2
REMARK VINA RESULT:      -4.3     12.366     13.799
REMARK  1 active torsions:
REMARK  status: ('A' for Active; 'I' for Inactive)
REMARK    1  A    between atoms: C3_3  and  C8_8 
ROOT
HETATM    1  C1  UNL     1     -43.320   4.821  -3.408  1.00 20.00     0.058 A 
HETATM    2  C2  UNL     1     -41.687   4.876  -1.794  1.00 20.00    -0.037 A 
HETATM    3  C3  UNL     1     -42.467   4.054  -2.630  1.00 20.00    -0.031 A 
HETATM    4  C4  UNL     1     -41.967   6.204  -1.962  1.00 20.00    -0.011 A 
HETATM    5  C5  UNL     1     -40.630   4.676  -0.773  1.00 20.00     0.040 C 
HETATM    6  C6  UNL     1     -41.167   7.105  -1.102  1.00 20.00     0.047 C 
HETATM    7  C7  UNL     1     -40.558   6.081  -0.092  1.00 20.00     0.010 C 
HETATM    8  S9  UNL     1     -43.149   6.517  -3.104  1.00 20.00    -0.105 SA
ENDROOT
BRANCH   3   9
HETATM    9  C8  UNL     1     -42.392   2.577  -2.677  1.00 20.00     0.154 C 
HETATM   10 CL10 UNL     1     -41.149   2.036  -3.834  1.00 20.00    -0.126 Cl
ENDBRANCH   3   9
TORSDOF 1
ENDMDL
MODEL 3
REMARK VINA RESULT:      -4.2      1.738      2.619
REMARK  1 active torsions:
REMARK  status: ('A' for Active; 'I' for Inactive)
REMARK    1  A    between atoms: C3_3  and  C8_8 
ROOT
HETATM    1  C1  UNL     1     -33.778  17.489  -3.518  1.00 20.00     0.058 A 
HETATM    2  C2  UNL     1     -34.572  15.353  -3.806  1.00 20.00    -0.037 A 
HETATM    3  C3  UNL     1     -34.321  16.385  -2.880  1.00 20.00    -0.031 A 
HETATM    4  C4  UNL     1     -34.219  15.702  -5.080  1.00 20.00    -0.011 A 
HETATM    5  C5  UNL     1     -35.125  13.978  -3.759  1.00 20.00     0.040 C 
HETATM    6  C6  UNL     1     -34.469  14.644  -6.086  1.00 20.00     0.047 C 
HETATM    7  C7  UNL     1     -34.729  13.414  -5.161  1.00 20.00     0.010 C 
HETATM    8  S9  UNL     1     -33.589  17.244  -5.221  1.00 20.00    -0.105 SA
ENDROOT
BRANCH   3   9
HETATM    9  C8  UNL     1     -34.597  16.308  -1.428  1.00 20.00     0.154 C 
HETATM   10 CL10 UNL     1     -33.732  17.589  -0.543  1.00 20.00    -0.126 Cl
ENDBRANCH   3   9
TORSDOF 1
ENDMDL
MODEL 4
REMARK VINA RESULT:      -4.1      2.546      2.927
REMARK  1 active torsions:
REMARK  status: ('A' for Active; 'I' for Inactive)
REMARK    1  A    between atoms: C3_3  and  C8_8 
ROOT
HETATM    1  C1  UNL     1     -37.152  16.382  -3.210  1.00 20.00     0.058 A 
HETATM    2  C2  UNL     1     -35.128  15.295  -3.213  1.00 20.00    -0.037 A 
HETATM    3  C3  UNL     1     -35.838  16.429  -2.771  1.00 20.00    -0.031 A 
HETATM    4  C4  UNL     1     -35.908  14.450  -3.953  1.00 20.00    -0.011 A 
HETATM    5  C5  UNL     1     -33.746  14.774  -3.082  1.00 20.00     0.040 C 
HETATM    6  C6  UNL     1     -35.200  13.243  -4.436  1.00 20.00     0.047 C 
HETATM    7  C7  UNL     1     -33.716  13.642  -4.158  1.00 20.00     0.010 C 
HETATM    8  S9  UNL     1     -37.488  14.964  -4.144  1.00 20.00    -0.105 SA
ENDROOT
BRANCH   3   9
HETATM    9  C8  UNL     1     -35.268  17.521  -1.951  1.00 20.00     0.154 C 
HETATM   10 CL10 UNL     1     -34.755  16.921  -0.353  1.00 20.00    -0.126 Cl
ENDBRANCH   3   9
TORSDOF 1
ENDMDL
MODEL 5
REMARK VINA RESULT:      -4.1      2.512      4.181
REMARK  1 active torsions:
REMARK  status: ('A' for Active; 'I' for Inactive)
REMARK    1  A    between atoms: C3_3  and  C8_8 
ROOT
HETATM    1  C1  UNL     1     -33.366  16.306  -5.104  1.00 20.00     0.058 A 
HETATM    2  C2  UNL     1     -34.025  16.426  -2.906  1.00 20.00    -0.037 A 
HETATM    3  C3  UNL     1     -33.599  15.578  -3.947  1.00 20.00    -0.031 A 
HETATM    4  C4  UNL     1     -34.098  17.734  -3.299  1.00 20.00    -0.011 A 
HETATM    5  C5  UNL     1     -34.414  16.270  -1.484  1.00 20.00     0.040 C 
HETATM    6  C6  UNL     1     -34.540  18.661  -2.232  1.00 20.00     0.047 C 
HETATM    7  C7  UNL     1     -35.074  17.651  -1.168  1.00 20.00     0.010 C 
HETATM    8  S9  UNL     1     -33.668  17.998  -4.894  1.00 20.00    -0.105 SA
ENDROOT
BRANCH   3   9
HETATM    9  C8  UNL     1     -33.421  14.114  -3.830  1.00 20.00     0.154 C 
HETATM   10 CL10 UNL     1     -34.944  13.254  -4.175  1.00 20.00    -0.126 Cl
ENDBRANCH   3   9
TORSDOF 1
ENDMDL
MODEL 6
REMARK VINA RESULT:      -4.1      2.770      4.357
REMARK  1 active torsions:
REMARK  status: ('A' for Active; 'I' for Inactive)
REMARK    1  A    between atoms: C3_3  and  C8_8 
ROOT
HETATM    1  C1  UNL     1     -34.547  16.657  -6.873  1.00 20.00     0.058 A 
HETATM    2  C2  UNL     1     -34.399  14.746  -5.607  1.00 20.00    -0.037 A 
HETATM    3  C3  UNL     1     -34.854  15.307  -6.817  1.00 20.00    -0.031 A 
HETATM    4  C4  UNL     1     -33.778  15.667  -4.809  1.00 20.00    -0.011 A 
HETATM    5  C5  UNL     1     -34.415  13.407  -4.970  1.00 20.00     0.040 C 
HETATM    6  C6  UNL     1     -33.283  15.117  -3.526  1.00 20.00     0.047 C 
HETATM    7  C7  UNL     1     -34.011  13.736  -3.498  1.00 20.00     0.010 C 
HETATM    8  S9  UNL     1     -33.713  17.207  -5.458  1.00 20.00    -0.105 SA
ENDROOT
BRANCH   3   9
HETATM    9  C8  UNL     1     -35.560  14.564  -7.883  1.00 20.00     0.154 C 
HETATM   10 CL10 UNL     1     -37.292  14.985  -7.918  1.00 20.00    -0.126 Cl
ENDBRANCH   3   9
TORSDOF 1
ENDMDL
MODEL 7
REMARK VINA RESULT:      -4.0      1.727      3.126
REMARK  1 active torsions:
REMARK  status: ('A' for Active; 'I' for Inactive)
REMARK    1  A    between atoms: C3_3  and  C8_8 
ROOT
HETATM    1  C1  UNL     1     -34.709  16.371  -7.128  1.00 20.00     0.058 A 
HETATM    2  C2  UNL     1     -33.976  15.562  -5.107  1.00 20.00    -0.037 A 
HETATM    3  C3  UNL     1     -34.067  16.693  -5.942  1.00 20.00    -0.031 A 
HETATM    4  C4  UNL     1     -34.537  14.450  -5.674  1.00 20.00    -0.011 A 
HETATM    5  C5  UNL     1     -33.428  15.260  -3.762  1.00 20.00     0.040 C 
HETATM    6  C6  UNL     1     -34.463  13.238  -4.826  1.00 20.00     0.047 C 
HETATM    7  C7  UNL     1     -33.436  13.698  -3.744  1.00 20.00     0.010 C 
HETATM    8  S9  UNL     1     -35.184  14.707  -7.194  1.00 20.00    -0.105 SA
ENDROOT
BRANCH   3   9
HETATM    9  C8  UNL     1     -33.554  18.039  -5.607  1.00 20.00     0.154 C 
HETATM   10 CL10 UNL     1     -34.440  18.737  -4.228  1.00 20.00    -0.126 Cl
ENDBRANCH   3   9
TORSDOF 1
ENDMDL
MODEL 8
REMARK VINA RESULT:      -4.0     11.710     13.243
REMARK  1 active torsions:
REMARK  status: ('A' for Active; 'I' for Inactive)
REMARK    1  A    between atoms: C3_3  and  C8_8 
ROOT
HETATM    1  C1  UNL     1     -33.163   5.928   2.382  1.00 20.00     0.058 A 
HETATM    2  C2  UNL     1     -33.565   6.292   4.615  1.00 20.00    -0.037 A 
HETATM    3  C3  UNL     1     -32.803   6.676   3.492  1.00 20.00    -0.031 A 
HETATM    4  C4  UNL     1     -34.452   5.293   4.323  1.00 20.00    -0.011 A 
HETATM    5  C5  UNL     1     -33.657   6.695   6.039  1.00 20.00     0.040 C 
HETATM    6  C6  UNL     1     -35.274   4.862   5.477  1.00 20.00     0.047 C 
HETATM    7  C7  UNL     1     -34.504   5.536   6.655  1.00 20.00     0.010 C 
HETATM    8  S9  UNL     1     -34.415   4.784   2.731  1.00 20.00    -0.105 SA
ENDROOT
BRANCH   3   9
HETATM    9  C8  UNL     1     -31.765   7.729   3.492  1.00 20.00     0.154 C 
HETATM   10 CL10 UNL     1     -31.729   8.593   1.934  1.00 20.00    -0.126 Cl
ENDBRANCH   3   9
TORSDOF 1
ENDMDL
MODEL 9
REMARK VINA RESULT:      -3.9      5.191      7.460
REMARK  1 active torsions:
REMARK  status: ('A' for Active; 'I' for Inactive)
REMARK    1  A    between atoms: C3_3  and  C8_8 
ROOT
HETATM    1  C1  UNL     1     -35.435  17.639   1.099  1.00 20.00     0.058 A 
HETATM    2  C2  UNL     1     -33.317  18.528   1.055  1.00 20.00    -0.037 A 
HETATM    3  C3  UNL     1     -34.365  17.983   0.287  1.00 20.00    -0.031 A 
HETATM    4  C4  UNL     1     -33.621  18.577   2.388  1.00 20.00    -0.011 A 
HETATM    5  C5  UNL     1     -31.962  19.070   0.792  1.00 20.00     0.040 C 
HETATM    6  C6  UNL     1     -32.545  19.147   3.231  1.00 20.00     0.047 C 
HETATM    7  C7  UNL     1     -31.349  19.136   2.228  1.00 20.00     0.010 C 
HETATM    8  S9  UNL     1     -35.138  17.988   2.769  1.00 20.00    -0.105 SA
ENDROOT
BRANCH   3   9
HETATM    9  C8  UNL     1     -34.336  17.802  -1.181  1.00 20.00     0.154 C 
HETATM   10 CL10 UNL     1     -34.592  16.094  -1.620  1.00 20.00    -0.126 Cl
ENDBRANCH   3   9
TORSDOF 1
ENDMDL
