MODEL 1
REMARK VINA RESULT:      -5.3      0.000      0.000
REMARK  3 active torsions:
REMARK  status: ('A' for Active; 'I' for Inactive)
REMARK    1  A    between atoms: C5_5  and  C8_8 
REMARK    2  A    between atoms: C7_7  and  N9_9 
REMARK    3  A    between atoms: C8_8  and  N9_9 
ROOT
HETATM    1  C1  UNL     1     -32.128   8.947   1.195  1.00 20.00     0.013 C 
HETATM    2  C2  UNL     1     -32.042   8.180   2.116  1.00 20.00    -0.087 C 
HETATM    3  C7  UNL     1     -31.934   7.248   3.241  1.00 20.00     0.362 C 
ENDROOT
BRANCH   3   4
HETATM    4  N9  UNL     1     -32.838   6.132   3.067  1.00 20.00     0.098 N 
HETATM    5  H22 UNL     1     -32.380   5.264   3.312  1.00 20.00     0.317 HD
BRANCH   4   6
HETATM    6  C8  UNL     1     -34.014   6.290   3.958  1.00 20.00     0.221 C 
HETATM    7  C6  UNL     1     -35.171   5.477   3.396  1.00 20.00     0.043 C 
BRANCH   6   8
HETATM    8  C5  UNL     1     -33.639   5.840   5.363  1.00 20.00     0.018 A 
HETATM    9  C3  UNL     1     -33.933   6.723   6.545  1.00 20.00     0.007 A 
HETATM   10  C4  UNL     1     -34.711   5.452   6.344  1.00 20.00     0.007 A 
ENDBRANCH   6   8
ENDBRANCH   4   6
ENDBRANCH   3   4
TORSDOF 3
ENDMDL
MODEL 2
REMARK VINA RESULT:      -4.9      1.094      1.916
REMARK  3 active torsions:
REMARK  status: ('A' for Active; 'I' for Inactive)
REMARK    1  A    between atoms: C5_5  and  C8_8 
REMARK    2  A    between atoms: C7_7  and  N9_9 
REMARK    3  A    between atoms: C8_8  and  N9_9 
ROOT
HETATM    1  C1  UNL     1     -32.022   8.745   1.467  1.00 20.00     0.013 C 
HETATM    2  C2  UNL     1     -32.158   7.868   2.276  1.00 20.00    -0.087 C 
HETATM    3  C7  UNL     1     -32.318   6.797   3.262  1.00 20.00     0.362 C 
ENDROOT
BRANCH   3   4
HETATM    4  N9  UNL     1     -33.642   6.833   3.844  1.00 20.00     0.098 N 
HETATM    5  H22 UNL     1     -34.318   6.429   3.210  1.00 20.00     0.317 HD
BRANCH   4   6
HETATM    6  C8  UNL     1     -33.666   6.040   5.098  1.00 20.00     0.221 C 
HETATM    7  C6  UNL     1     -33.593   6.991   6.284  1.00 20.00     0.043 C 
BRANCH   6   8
HETATM    8  C5  UNL     1     -34.933   5.197   5.129  1.00 20.00     0.018 A 
HETATM    9  C3  UNL     1     -34.851   3.702   4.992  1.00 20.00     0.007 A 
HETATM   10  C4  UNL     1     -35.225   4.315   6.312  1.00 20.00     0.007 A 
ENDBRANCH   6   8
ENDBRANCH   4   6
ENDBRANCH   3   4
TORSDOF 3
ENDMDL
MODEL 3
REMARK VINA RESULT:      -4.1     10.918     12.480
REMARK  3 active torsions:
REMARK  status: ('A' for Active; 'I' for Inactive)
REMARK    1  A    between atoms: C5_5  and  C8_8 
REMARK    2  A    between atoms: C7_7  and  N9_9 
REMARK    3  A    between atoms: C8_8  and  N9_9 
ROOT
HETATM    1  C1  UNL     1     -34.380  16.520  -1.305  1.00 20.00     0.013 C 
HETATM    2  C2  UNL     1     -33.973  16.313  -2.416  1.00 20.00    -0.087 C 
HETATM    3  C7  UNL     1     -33.478  16.066  -3.772  1.00 20.00     0.362 C 
ENDROOT
BRANCH   3   4
HETATM    4  N9  UNL     1     -33.147  14.669  -3.948  1.00 20.00     0.098 N 
HETATM    5  H22 UNL     1     -33.230  14.173  -3.070  1.00 20.00     0.317 HD
BRANCH   4   6
HETATM    6  C8  UNL     1     -34.086  14.042  -4.911  1.00 20.00     0.221 C 
HETATM    7  C6  UNL     1     -35.201  13.355  -4.137  1.00 20.00     0.043 C 
BRANCH   6   8
HETATM    8  C5  UNL     1     -34.628  15.113  -5.847  1.00 20.00     0.018 A 
HETATM    9  C3  UNL     1     -34.447  14.981  -7.334  1.00 20.00     0.007 A 
HETATM   10  C4  UNL     1     -35.812  14.821  -6.726  1.00 20.00     0.007 A 
ENDBRANCH   6   8
ENDBRANCH   4   6
ENDBRANCH   3   4
TORSDOF 3
ENDMDL
MODEL 4
REMARK VINA RESULT:      -3.9      1.324      4.660
REMARK  3 active torsions:
REMARK  status: ('A' for Active; 'I' for Inactive)
REMARK    1  A    between atoms: C5_5  and  C8_8 
REMARK    2  A    between atoms: C7_7  and  N9_9 
REMARK    3  A    between atoms: C8_8  and  N9_9 
ROOT
HETATM    1  C1  UNL     1     -35.115   4.404   5.878  1.00 20.00     0.013 C 
HETATM    2  C2  UNL     1     -34.776   4.980   4.879  1.00 20.00    -0.087 C 
HETATM    3  C7  UNL     1     -34.365   5.678   3.659  1.00 20.00     0.362 C 
ENDROOT
BRANCH   3   4
HETATM    4  N9  UNL     1     -33.879   7.004   3.969  1.00 20.00     0.098 N 
HETATM    5  H22 UNL     1     -33.714   7.097   4.963  1.00 20.00     0.317 HD
BRANCH   4   6
HETATM    6  C8  UNL     1     -32.592   7.248   3.272  1.00 20.00     0.221 C 
HETATM    7  C6  UNL     1     -31.943   5.910   2.951  1.00 20.00     0.043 C 
BRANCH   6   8
HETATM    8  C5  UNL     1     -32.852   8.065   2.014  1.00 20.00     0.018 A 
HETATM    9  C3  UNL     1     -32.450   9.512   1.954  1.00 20.00     0.007 A 
HETATM   10  C4  UNL     1     -31.707   8.491   1.139  1.00 20.00     0.007 A 
ENDBRANCH   6   8
ENDBRANCH   4   6
ENDBRANCH   3   4
TORSDOF 3
ENDMDL
MODEL 5
REMARK VINA RESULT:      -3.9     10.990     11.972
REMARK  3 active torsions:
REMARK  status: ('A' for Active; 'I' for Inactive)
REMARK    1  A    between atoms: C5_5  and  C8_8 
REMARK    2  A    between atoms: C7_7  and  N9_9 
REMARK    3  A    between atoms: C8_8  and  N9_9 
ROOT
HETATM    1  C1  UNL     1     -35.082  17.446   0.522  1.00 20.00     0.013 C 
HETATM    2  C2  UNL     1     -34.546  17.104  -0.497  1.00 20.00    -0.087 C 
HETATM    3  C7  UNL     1     -33.888  16.685  -1.737  1.00 20.00     0.362 C 
ENDROOT
BRANCH   3   4
HETATM    4  N9  UNL     1     -34.669  17.081  -2.888  1.00 20.00     0.098 N 
HETATM    5  H22 UNL     1     -34.352  17.976  -3.239  1.00 20.00     0.317 HD
BRANCH   4   6
HETATM    6  C8  UNL     1     -34.509  16.086  -3.976  1.00 20.00     0.221 C 
HETATM    7  C6  UNL     1     -33.236  16.398  -4.748  1.00 20.00     0.043 C 
BRANCH   6   8
HETATM    8  C5  UNL     1     -34.474  14.689  -3.372  1.00 20.00     0.018 A 
HETATM    9  C3  UNL     1     -35.085  13.530  -4.109  1.00 20.00     0.007 A 
HETATM   10  C4  UNL     1     -33.592  13.629  -3.971  1.00 20.00     0.007 A 
ENDBRANCH   6   8
ENDBRANCH   4   6
ENDBRANCH   3   4
TORSDOF 3
ENDMDL
MODEL 6
REMARK VINA RESULT:      -3.9      1.109      4.221
REMARK  3 active torsions:
REMARK  status: ('A' for Active; 'I' for Inactive)
REMARK    1  A    between atoms: C5_5  and  C8_8 
REMARK    2  A    between atoms: C7_7  and  N9_9 
REMARK    3  A    between atoms: C8_8  and  N9_9 
ROOT
HETATM    1  C1  UNL     1     -35.159   3.992   6.090  1.00 20.00     0.013 C 
HETATM    2  C2  UNL     1     -34.622   5.065   6.048  1.00 20.00    -0.087 C 
HETATM    3  C7  UNL     1     -33.966   6.374   6.002  1.00 20.00     0.362 C 
ENDROOT
BRANCH   3   4
HETATM    4  N9  UNL     1     -33.941   6.885   4.649  1.00 20.00     0.098 N 
HETATM    5  H22 UNL     1     -33.371   7.719   4.596  1.00 20.00     0.317 HD
BRANCH   4   6
HETATM    6  C8  UNL     1     -33.351   5.875   3.736  1.00 20.00     0.221 C 
HETATM    7  C6  UNL     1     -34.395   5.470   2.706  1.00 20.00     0.043 C 
BRANCH   6   8
HETATM    8  C5  UNL     1     -32.109   6.462   3.079  1.00 20.00     0.018 A 
HETATM    9  C3  UNL     1     -32.180   7.790   2.378  1.00 20.00     0.007 A 
HETATM   10  C4  UNL     1     -31.435   7.666   3.677  1.00 20.00     0.007 A 
ENDBRANCH   6   8
ENDBRANCH   4   6
ENDBRANCH   3   4
TORSDOF 3
ENDMDL
MODEL 7
REMARK VINA RESULT:      -3.9     10.914     12.416
REMARK  3 active torsions:
REMARK  status: ('A' for Active; 'I' for Inactive)
REMARK    1  A    between atoms: C5_5  and  C8_8 
REMARK    2  A    between atoms: C7_7  and  N9_9 
REMARK    3  A    between atoms: C8_8  and  N9_9 
ROOT
HETATM    1  C1  UNL     1     -35.278  14.511  -7.549  1.00 20.00     0.013 C 
HETATM    2  C2  UNL     1     -34.632  15.280  -6.890  1.00 20.00    -0.087 C 
HETATM    3  C7  UNL     1     -33.846  16.222  -6.089  1.00 20.00     0.362 C 
ENDROOT
BRANCH   3   4
HETATM    4  N9  UNL     1     -33.205  15.542  -4.985  1.00 20.00     0.098 N 
HETATM    5  H22 UNL     1     -32.437  16.095  -4.627  1.00 20.00     0.317 HD
BRANCH   4   6
HETATM    6  C8  UNL     1     -34.174  15.344  -3.879  1.00 20.00     0.221 C 
HETATM    7  C6  UNL     1     -34.286  13.856  -3.581  1.00 20.00     0.043 C 
BRANCH   6   8
HETATM    8  C5  UNL     1     -33.707  16.129  -2.661  1.00 20.00     0.018 A 
HETATM    9  C3  UNL     1     -34.301  17.476  -2.355  1.00 20.00     0.007 A 
HETATM   10  C4  UNL     1     -34.617  16.298  -1.477  1.00 20.00     0.007 A 
ENDBRANCH   6   8
ENDBRANCH   4   6
ENDBRANCH   3   4
TORSDOF 3
ENDMDL
MODEL 8
REMARK VINA RESULT:      -3.9     11.506     13.507
REMARK  3 active torsions:
REMARK  status: ('A' for Active; 'I' for Inactive)
REMARK    1  A    between atoms: C5_5  and  C8_8 
REMARK    2  A    between atoms: C7_7  and  N9_9 
REMARK    3  A    between atoms: C8_8  and  N9_9 
ROOT
HETATM    1  C1  UNL     1     -34.549  16.266  -1.818  1.00 20.00     0.013 C 
HETATM    2  C2  UNL     1     -33.971  15.678  -2.691  1.00 20.00    -0.087 C 
HETATM    3  C7  UNL     1     -33.267  14.956  -3.754  1.00 20.00     0.362 C 
ENDROOT
BRANCH   3   4
HETATM    4  N9  UNL     1     -32.850  15.865  -4.798  1.00 20.00     0.098 N 
HETATM    5  H22 UNL     1     -32.193  15.412  -5.420  1.00 20.00     0.317 HD
BRANCH   4   6
HETATM    6  C8  UNL     1     -34.022  16.283  -5.605  1.00 20.00     0.221 C 
HETATM    7  C6  UNL     1     -33.866  17.749  -5.981  1.00 20.00     0.043 C 
BRANCH   6   8
HETATM    8  C5  UNL     1     -34.123  15.394  -6.836  1.00 20.00     0.018 A 
HETATM    9  C3  UNL     1     -35.285  14.453  -6.999  1.00 20.00     0.007 A 
HETATM   10  C4  UNL     1     -35.169  15.664  -7.881  1.00 20.00     0.007 A 
ENDBRANCH   6   8
ENDBRANCH   4   6
ENDBRANCH   3   4
TORSDOF 3
ENDMDL
MODEL 9
REMARK VINA RESULT:      -3.8     11.225     11.964
REMARK  3 active torsions:
REMARK  status: ('A' for Active; 'I' for Inactive)
REMARK    1  A    between atoms: C5_5  and  C8_8 
REMARK    2  A    between atoms: C7_7  and  N9_9 
REMARK    3  A    between atoms: C8_8  and  N9_9 
ROOT
HETATM    1  C1  UNL     1     -34.642  13.209  -4.584  1.00 20.00     0.013 C 
HETATM    2  C2  UNL     1     -33.931  14.086  -4.173  1.00 20.00    -0.087 C 
HETATM    3  C7  UNL     1     -33.061  15.151  -3.669  1.00 20.00     0.362 C 
ENDROOT
BRANCH   3   4
HETATM    4  N9  UNL     1     -33.436  16.427  -4.238  1.00 20.00     0.098 N 
HETATM    5  H22 UNL     1     -34.063  16.295  -5.021  1.00 20.00     0.317 HD
BRANCH   4   6
HETATM    6  C8  UNL     1     -34.143  17.247  -3.224  1.00 20.00     0.221 C 
HETATM    7  C6  UNL     1     -35.642  17.146  -3.467  1.00 20.00     0.043 C 
BRANCH   6   8
HETATM    8  C5  UNL     1     -33.764  16.757  -1.833  1.00 20.00     0.018 A 
HETATM    9  C3  UNL     1     -33.490  17.743  -0.732  1.00 20.00     0.007 A 
HETATM   10  C4  UNL     1     -34.732  16.897  -0.692  1.00 20.00     0.007 A 
ENDBRANCH   6   8
ENDBRANCH   4   6
ENDBRANCH   3   4
TORSDOF 3
ENDMDL
