MODEL 1
REMARK VINA RESULT:      -3.9      0.000      0.000
REMARK  1 active torsions:
REMARK  status: ('A' for Active; 'I' for Inactive)
REMARK    1  A    between atoms: C1_1  and  C8_8 
ROOT
HETATM    1  C1  UNL     1     -34.257  16.036  -3.288  1.00 20.00     0.014 C 
HETATM    2  C2  UNL     1     -34.732  16.026  -1.869  1.00 20.00     0.057 C 
HETATM    3  C3  UNL     1     -33.918  17.181  -1.337  1.00 20.00     0.027 C 
HETATM    4  C4  UNL     1     -33.733  18.054  -2.565  1.00 20.00     0.149 C 
HETATM    5  N9  UNL     1     -33.699  17.128  -3.714  1.00 20.00    -0.298 NA
ENDROOT
BRANCH   1   6
HETATM    6  C8  UNL     1     -34.468  14.848  -4.168  1.00 20.00    -0.011 C 
HETATM    7  C5  UNL     1     -33.452  13.761  -3.794  1.00 20.00     0.021 C 
HETATM    8  C6  UNL     1     -34.272  15.255  -5.636  1.00 20.00     0.021 C 
HETATM    9  C7  UNL     1     -35.893  14.311  -3.975  1.00 20.00     0.021 C 
ENDBRANCH   1   6
TORSDOF 1
ENDMDL
MODEL 2
REMARK VINA RESULT:      -3.9      0.026      1.448
REMARK  1 active torsions:
REMARK  status: ('A' for Active; 'I' for Inactive)
REMARK    1  A    between atoms: C1_1  and  C8_8 
ROOT
HETATM    1  C1  UNL     1     -34.260  16.014  -3.293  1.00 20.00     0.014 C 
HETATM    2  C2  UNL     1     -34.750  16.009  -1.879  1.00 20.00     0.057 C 
HETATM    3  C3  UNL     1     -33.937  17.162  -1.341  1.00 20.00     0.027 C 
HETATM    4  C4  UNL     1     -33.737  18.032  -2.570  1.00 20.00     0.149 C 
HETATM    5  N9  UNL     1     -33.693  17.102  -3.716  1.00 20.00    -0.298 NA
ENDROOT
BRANCH   1   6
HETATM    6  C8  UNL     1     -34.464  14.824  -4.173  1.00 20.00    -0.011 C 
HETATM    7  C5  UNL     1     -34.265  15.240  -5.635  1.00 20.00     0.021 C 
HETATM    8  C6  UNL     1     -35.888  14.280  -3.980  1.00 20.00     0.021 C 
HETATM    9  C7  UNL     1     -33.450  13.732  -3.804  1.00 20.00     0.021 C 
ENDBRANCH   1   6
TORSDOF 1
ENDMDL
MODEL 3
REMARK VINA RESULT:      -3.9      1.502      3.627
REMARK  1 active torsions:
REMARK  status: ('A' for Active; 'I' for Inactive)
REMARK    1  A    between atoms: C1_1  and  C8_8 
ROOT
HETATM    1  C1  UNL     1     -34.641  15.514  -3.117  1.00 20.00     0.014 C 
HETATM    2  C2  UNL     1     -33.274  15.107  -3.571  1.00 20.00     0.057 C 
HETATM    3  C3  UNL     1     -33.533  13.640  -3.821  1.00 20.00     0.027 C 
HETATM    4  C4  UNL     1     -35.007  13.619  -4.186  1.00 20.00     0.149 C 
HETATM    5  N9  UNL     1     -35.624  14.726  -3.428  1.00 20.00    -0.298 NA
ENDROOT
BRANCH   1   6
HETATM    6  C8  UNL     1     -34.845  16.797  -2.379  1.00 20.00    -0.011 C 
HETATM    7  C5  UNL     1     -36.278  17.289  -2.617  1.00 20.00     0.021 C 
HETATM    8  C6  UNL     1     -33.847  17.847  -2.887  1.00 20.00     0.021 C 
HETATM    9  C7  UNL     1     -34.620  16.567  -0.878  1.00 20.00     0.021 C 
ENDBRANCH   1   6
TORSDOF 1
ENDMDL
MODEL 4
REMARK VINA RESULT:      -3.9      1.500      3.629
REMARK  1 active torsions:
REMARK  status: ('A' for Active; 'I' for Inactive)
REMARK    1  A    between atoms: C1_1  and  C8_8 
ROOT
HETATM    1  C1  UNL     1     -34.628  15.514  -3.127  1.00 20.00     0.014 C 
HETATM    2  C2  UNL     1     -33.262  15.110  -3.585  1.00 20.00     0.057 C 
HETATM    3  C3  UNL     1     -33.515  13.641  -3.825  1.00 20.00     0.027 C 
HETATM    4  C4  UNL     1     -34.991  13.610  -4.182  1.00 20.00     0.149 C 
HETATM    5  N9  UNL     1     -35.609  14.719  -3.428  1.00 20.00    -0.298 NA
ENDROOT
BRANCH   1   6
HETATM    6  C8  UNL     1     -34.835  16.800  -2.396  1.00 20.00    -0.011 C 
HETATM    7  C5  UNL     1     -34.617  16.565  -0.896  1.00 20.00     0.021 C 
HETATM    8  C6  UNL     1     -36.265  17.304  -2.638  1.00 20.00     0.021 C 
HETATM    9  C7  UNL     1     -33.835  17.848  -2.906  1.00 20.00     0.021 C 
ENDBRANCH   1   6
TORSDOF 1
ENDMDL
MODEL 5
REMARK VINA RESULT:      -3.7     11.858     12.931
REMARK  1 active torsions:
REMARK  status: ('A' for Active; 'I' for Inactive)
REMARK    1  A    between atoms: C1_1  and  C8_8 
ROOT
HETATM    1  C1  UNL     1     -34.012   5.765   4.516  1.00 20.00     0.014 C 
HETATM    2  C2  UNL     1     -35.076   4.720   4.644  1.00 20.00     0.057 C 
HETATM    3  C3  UNL     1     -35.010   4.494   6.136  1.00 20.00     0.027 C 
HETATM    4  C4  UNL     1     -34.540   5.840   6.658  1.00 20.00     0.149 C 
HETATM    5  N9  UNL     1     -33.682   6.404   5.597  1.00 20.00    -0.298 NA
ENDROOT
BRANCH   1   6
HETATM    6  C8  UNL     1     -33.403   6.072   3.187  1.00 20.00    -0.011 C 
HETATM    7  C5  UNL     1     -34.195   5.345   2.093  1.00 20.00     0.021 C 
HETATM    8  C6  UNL     1     -31.943   5.597   3.169  1.00 20.00     0.021 C 
HETATM    9  C7  UNL     1     -33.448   7.586   2.938  1.00 20.00     0.021 C 
ENDBRANCH   1   6
TORSDOF 1
ENDMDL
MODEL 6
REMARK VINA RESULT:      -3.7      2.015      4.107
REMARK  1 active torsions:
REMARK  status: ('A' for Active; 'I' for Inactive)
REMARK    1  A    between atoms: C1_1  and  C8_8 
ROOT
HETATM    1  C1  UNL     1     -35.046  14.998  -5.486  1.00 20.00     0.014 C 
HETATM    2  C2  UNL     1     -34.332  14.956  -6.801  1.00 20.00     0.057 C 
HETATM    3  C3  UNL     1     -35.479  14.517  -7.681  1.00 20.00     0.027 C 
HETATM    4  C4  UNL     1     -36.690  15.077  -6.956  1.00 20.00     0.149 C 
HETATM    5  N9  UNL     1     -36.342  15.061  -5.521  1.00 20.00    -0.298 NA
ENDROOT
BRANCH   1   6
HETATM    6  C8  UNL     1     -34.278  15.010  -4.205  1.00 20.00    -0.011 C 
HETATM    7  C5  UNL     1     -33.701  13.611  -3.953  1.00 20.00     0.021 C 
HETATM    8  C6  UNL     1     -35.212  15.399  -3.050  1.00 20.00     0.021 C 
HETATM    9  C7  UNL     1     -33.135  16.031  -4.300  1.00 20.00     0.021 C 
ENDBRANCH   1   6
TORSDOF 1
ENDMDL
MODEL 7
REMARK VINA RESULT:      -3.7     11.858     12.944
REMARK  1 active torsions:
REMARK  status: ('A' for Active; 'I' for Inactive)
REMARK    1  A    between atoms: C1_1  and  C8_8 
ROOT
HETATM    1  C1  UNL     1     -34.014   5.763   4.515  1.00 20.00     0.014 C 
HETATM    2  C2  UNL     1     -35.075   4.716   4.642  1.00 20.00     0.057 C 
HETATM    3  C3  UNL     1     -35.010   4.489   6.133  1.00 20.00     0.027 C 
HETATM    4  C4  UNL     1     -34.543   5.835   6.656  1.00 20.00     0.149 C 
HETATM    5  N9  UNL     1     -33.685   6.402   5.596  1.00 20.00    -0.298 NA
ENDROOT
BRANCH   1   6
HETATM    6  C8  UNL     1     -33.405   6.072   3.186  1.00 20.00    -0.011 C 
HETATM    7  C5  UNL     1     -33.469   7.585   2.945  1.00 20.00     0.021 C 
HETATM    8  C6  UNL     1     -34.182   5.339   2.083  1.00 20.00     0.021 C 
HETATM    9  C7  UNL     1     -31.942   5.608   3.171  1.00 20.00     0.021 C 
ENDBRANCH   1   6
TORSDOF 1
ENDMDL
MODEL 8
REMARK VINA RESULT:      -3.7     11.766     13.391
REMARK  1 active torsions:
REMARK  status: ('A' for Active; 'I' for Inactive)
REMARK    1  A    between atoms: C1_1  and  C8_8 
ROOT
HETATM    1  C1  UNL     1     -42.384   5.636  -2.418  1.00 20.00     0.014 C 
HETATM    2  C2  UNL     1     -41.811   6.953  -1.996  1.00 20.00     0.057 C 
HETATM    3  C3  UNL     1     -42.163   7.768  -3.217  1.00 20.00     0.027 C 
HETATM    4  C4  UNL     1     -43.415   7.080  -3.730  1.00 20.00     0.149 C 
HETATM    5  N9  UNL     1     -43.265   5.655  -3.370  1.00 20.00    -0.298 NA
ENDROOT
BRANCH   1   6
HETATM    6  C8  UNL     1     -41.976   4.375  -1.730  1.00 20.00    -0.011 C 
HETATM    7  C5  UNL     1     -41.821   3.262  -2.773  1.00 20.00     0.021 C 
HETATM    8  C6  UNL     1     -43.049   3.977  -0.706  1.00 20.00     0.021 C 
HETATM    9  C7  UNL     1     -40.640   4.593  -1.005  1.00 20.00     0.021 C 
ENDBRANCH   1   6
TORSDOF 1
ENDMDL
MODEL 9
REMARK VINA RESULT:      -3.7      1.380      3.111
REMARK  1 active torsions:
REMARK  status: ('A' for Active; 'I' for Inactive)
REMARK    1  A    between atoms: C1_1  and  C8_8 
ROOT
HETATM    1  C1  UNL     1     -34.259  15.624  -4.994  1.00 20.00     0.014 C 
HETATM    2  C2  UNL     1     -34.346  15.145  -6.409  1.00 20.00     0.057 C 
HETATM    3  C3  UNL     1     -34.546  16.473  -7.099  1.00 20.00     0.027 C 
HETATM    4  C4  UNL     1     -33.835  17.442  -6.171  1.00 20.00     0.149 C 
HETATM    5  N9  UNL     1     -33.984  16.880  -4.814  1.00 20.00    -0.298 NA
ENDROOT
BRANCH   1   6
HETATM    6  C8  UNL     1     -34.440  14.673  -3.856  1.00 20.00    -0.011 C 
HETATM    7  C5  UNL     1     -34.716  15.470  -2.575  1.00 20.00     0.021 C 
HETATM    8  C6  UNL     1     -33.165  13.835  -3.679  1.00 20.00     0.021 C 
HETATM    9  C7  UNL     1     -35.624  13.741  -4.150  1.00 20.00     0.021 C 
ENDBRANCH   1   6
TORSDOF 1
ENDMDL
