MODEL 1
REMARK VINA RESULT:      -3.3      0.000      0.000
REMARK  3 active torsions:
REMARK  status: ('A' for Active; 'I' for Inactive)
REMARK    1  A    between atoms: C2_2  and  C6_6 
REMARK    2  A    between atoms: C6_6  and  S9_9 
REMARK    3  A    between atoms: C7_7  and  S9_9 
ROOT
HETATM    1  S9  UNL     1     -35.972  16.650  -4.056  1.00 20.00    -0.158 SA
ENDROOT
BRANCH   1   2
HETATM    2  C6  UNL     1     -35.869  14.953  -3.452  1.00 20.00     0.108 C 
BRANCH   2   3
HETATM    3  C2  UNL     1     -35.650  13.989  -4.602  1.00 20.00     0.154 A 
HETATM    4  C1  UNL     1     -34.308  13.359  -4.846  1.00 20.00     0.201 A 
HETATM    5  O8  UNL     1     -35.374  12.642  -4.205  1.00 20.00    -0.380 OA
ENDBRANCH   2   3
ENDBRANCH   1   2
BRANCH   1   6
HETATM    6  C7  UNL     1     -34.260  17.165  -3.642  1.00 20.00    -0.003 C 
HETATM    7  C3  UNL     1     -34.269  18.651  -3.276  1.00 20.00     0.026 C 
HETATM    8  C4  UNL     1     -33.778  16.327  -2.455  1.00 20.00     0.026 C 
HETATM    9  C5  UNL     1     -33.366  16.921  -4.862  1.00 20.00     0.026 C 
ENDBRANCH   1   6
TORSDOF 3
ENDMDL
MODEL 2
REMARK VINA RESULT:      -3.3      0.028      1.451
REMARK  3 active torsions:
REMARK  status: ('A' for Active; 'I' for Inactive)
REMARK    1  A    between atoms: C2_2  and  C6_6 
REMARK    2  A    between atoms: C6_6  and  S9_9 
REMARK    3  A    between atoms: C7_7  and  S9_9 
ROOT
HETATM    1  S9  UNL     1     -35.981  16.660  -4.083  1.00 20.00    -0.158 SA
ENDROOT
BRANCH   1   2
HETATM    2  C6  UNL     1     -35.876  14.969  -3.462  1.00 20.00     0.108 C 
BRANCH   2   3
HETATM    3  C2  UNL     1     -35.664  13.993  -4.605  1.00 20.00     0.154 A 
HETATM    4  C1  UNL     1     -34.325  13.358  -4.848  1.00 20.00     0.201 A 
HETATM    5  O8  UNL     1     -35.390  12.649  -4.195  1.00 20.00    -0.380 OA
ENDBRANCH   2   3
ENDBRANCH   1   2
BRANCH   1   6
HETATM    6  C7  UNL     1     -34.274  17.185  -3.661  1.00 20.00    -0.003 C 
HETATM    7  C3  UNL     1     -33.785  16.354  -2.472  1.00 20.00     0.026 C 
HETATM    8  C4  UNL     1     -33.380  16.945  -4.880  1.00 20.00     0.026 C 
HETATM    9  C5  UNL     1     -34.294  18.673  -3.301  1.00 20.00     0.026 C 
ENDBRANCH   1   6
TORSDOF 3
ENDMDL
MODEL 3
REMARK VINA RESULT:      -3.3      2.074      2.643
REMARK  3 active torsions:
REMARK  status: ('A' for Active; 'I' for Inactive)
REMARK    1  A    between atoms: C2_2  and  C6_6 
REMARK    2  A    between atoms: C6_6  and  S9_9 
REMARK    3  A    between atoms: C7_7  and  S9_9 
ROOT
HETATM    1  S9  UNL     1     -34.390  15.345  -7.151  1.00 20.00    -0.158 SA
ENDROOT
BRANCH   1   2
HETATM    2  C6  UNL     1     -35.357  14.349  -5.999  1.00 20.00     0.108 C 
BRANCH   2   3
HETATM    3  C2  UNL     1     -34.445  13.522  -5.112  1.00 20.00     0.154 A 
HETATM    4  C1  UNL     1     -34.385  13.752  -3.628  1.00 20.00     0.201 A 
HETATM    5  O8  UNL     1     -35.128  12.661  -4.195  1.00 20.00    -0.380 OA
ENDBRANCH   2   3
ENDBRANCH   1   2
BRANCH   1   6
HETATM    6  C7  UNL     1     -34.536  16.950  -6.274  1.00 20.00    -0.003 C 
HETATM    7  C3  UNL     1     -34.442  18.081  -7.302  1.00 20.00     0.026 C 
HETATM    8  C4  UNL     1     -35.891  16.989  -5.563  1.00 20.00     0.026 C 
HETATM    9  C5  UNL     1     -33.397  17.058  -5.256  1.00 20.00     0.026 C 
ENDBRANCH   1   6
TORSDOF 3
ENDMDL
MODEL 4
REMARK VINA RESULT:      -3.3      2.070      2.555
REMARK  3 active torsions:
REMARK  status: ('A' for Active; 'I' for Inactive)
REMARK    1  A    between atoms: C2_2  and  C6_6 
REMARK    2  A    between atoms: C6_6  and  S9_9 
REMARK    3  A    between atoms: C7_7  and  S9_9 
ROOT
HETATM    1  S9  UNL     1     -34.392  15.352  -7.138  1.00 20.00    -0.158 SA
ENDROOT
BRANCH   1   2
HETATM    2  C6  UNL     1     -35.363  14.348  -5.997  1.00 20.00     0.108 C 
BRANCH   2   3
HETATM    3  C2  UNL     1     -34.454  13.514  -5.113  1.00 20.00     0.154 A 
HETATM    4  C1  UNL     1     -34.388  13.741  -3.630  1.00 20.00     0.201 A 
HETATM    5  O8  UNL     1     -35.140  12.656  -4.196  1.00 20.00    -0.380 OA
ENDBRANCH   2   3
ENDBRANCH   1   2
BRANCH   1   6
HETATM    6  C7  UNL     1     -34.547  16.952  -6.254  1.00 20.00    -0.003 C 
HETATM    7  C3  UNL     1     -35.896  16.984  -5.529  1.00 20.00     0.026 C 
HETATM    8  C4  UNL     1     -33.400  17.061  -5.247  1.00 20.00     0.026 C 
HETATM    9  C5  UNL     1     -34.465  18.089  -7.278  1.00 20.00     0.026 C 
ENDBRANCH   1   6
TORSDOF 3
ENDMDL
MODEL 5
REMARK VINA RESULT:      -3.3      2.573      4.073
REMARK  3 active torsions:
REMARK  status: ('A' for Active; 'I' for Inactive)
REMARK    1  A    between atoms: C2_2  and  C6_6 
REMARK    2  A    between atoms: C6_6  and  S9_9 
REMARK    3  A    between atoms: C7_7  and  S9_9 
ROOT
HETATM    1  S9  UNL     1     -33.461  16.255  -4.826  1.00 20.00    -0.158 SA
ENDROOT
BRANCH   1   2
HETATM    2  C6  UNL     1     -33.566  15.763  -3.094  1.00 20.00     0.108 C 
BRANCH   2   3
HETATM    3  C2  UNL     1     -34.221  16.854  -2.267  1.00 20.00     0.154 A 
HETATM    4  C1  UNL     1     -34.634  16.611  -0.844  1.00 20.00     0.201 A 
HETATM    5  O8  UNL     1     -33.431  17.324  -1.170  1.00 20.00    -0.380 OA
ENDBRANCH   2   3
ENDBRANCH   1   2
BRANCH   1   6
HETATM    6  C7  UNL     1     -34.628  15.014  -5.507  1.00 20.00    -0.003 C 
HETATM    7  C3  UNL     1     -34.352  13.663  -4.842  1.00 20.00     0.026 C 
HETATM    8  C4  UNL     1     -36.055  15.475  -5.202  1.00 20.00     0.026 C 
HETATM    9  C5  UNL     1     -34.413  14.917  -7.021  1.00 20.00     0.026 C 
ENDBRANCH   1   6
TORSDOF 3
ENDMDL
MODEL 6
REMARK VINA RESULT:      -3.3      2.574      4.101
REMARK  3 active torsions:
REMARK  status: ('A' for Active; 'I' for Inactive)
REMARK    1  A    between atoms: C2_2  and  C6_6 
REMARK    2  A    between atoms: C6_6  and  S9_9 
REMARK    3  A    between atoms: C7_7  and  S9_9 
ROOT
HETATM    1  S9  UNL     1     -33.473  16.226  -4.785  1.00 20.00    -0.158 SA
ENDROOT
BRANCH   1   2
HETATM    2  C6  UNL     1     -33.625  15.741  -3.053  1.00 20.00     0.108 C 
BRANCH   2   3
HETATM    3  C2  UNL     1     -34.240  16.862  -2.237  1.00 20.00     0.154 A 
HETATM    4  C1  UNL     1     -34.621  16.659  -0.798  1.00 20.00     0.201 A 
HETATM    5  O8  UNL     1     -33.415  17.344  -1.171  1.00 20.00    -0.380 OA
ENDBRANCH   2   3
ENDBRANCH   1   2
BRANCH   1   6
HETATM    6  C7  UNL     1     -34.638  14.998  -5.490  1.00 20.00    -0.003 C 
HETATM    7  C3  UNL     1     -36.069  15.435  -5.164  1.00 20.00     0.026 C 
HETATM    8  C4  UNL     1     -34.430  14.949  -7.005  1.00 20.00     0.026 C 
HETATM    9  C5  UNL     1     -34.344  13.629  -4.868  1.00 20.00     0.026 C 
ENDBRANCH   1   6
TORSDOF 3
ENDMDL
MODEL 7
REMARK VINA RESULT:      -3.3      2.216      3.148
REMARK  3 active torsions:
REMARK  status: ('A' for Active; 'I' for Inactive)
REMARK    1  A    between atoms: C2_2  and  C6_6 
REMARK    2  A    between atoms: C6_6  and  S9_9 
REMARK    3  A    between atoms: C7_7  and  S9_9 
ROOT
HETATM    1  S9  UNL     1     -35.294  15.671  -3.040  1.00 20.00    -0.158 SA
ENDROOT
BRANCH   1   2
HETATM    2  C6  UNL     1     -36.626  16.058  -4.194  1.00 20.00     0.108 C 
BRANCH   2   3
HETATM    3  C2  UNL     1     -37.956  15.553  -3.665  1.00 20.00     0.154 A 
HETATM    4  C1  UNL     1     -38.964  14.912  -4.575  1.00 20.00     0.201 A 
HETATM    5  O8  UNL     1     -38.115  14.132  -3.718  1.00 20.00    -0.380 OA
ENDBRANCH   2   3
ENDBRANCH   1   2
BRANCH   1   6
HETATM    6  C7  UNL     1     -34.212  14.760  -4.208  1.00 20.00    -0.003 C 
HETATM    7  C3  UNL     1     -34.279  15.444  -5.576  1.00 20.00     0.026 C 
HETATM    8  C4  UNL     1     -32.781  14.794  -3.666  1.00 20.00     0.026 C 
HETATM    9  C5  UNL     1     -34.707  13.314  -4.309  1.00 20.00     0.026 C 
ENDBRANCH   1   6
TORSDOF 3
ENDMDL
MODEL 8
REMARK VINA RESULT:      -3.3      1.501      2.044
REMARK  3 active torsions:
REMARK  status: ('A' for Active; 'I' for Inactive)
REMARK    1  A    between atoms: C2_2  and  C6_6 
REMARK    2  A    between atoms: C6_6  and  S9_9 
REMARK    3  A    between atoms: C7_7  and  S9_9 
ROOT
HETATM    1  S9  UNL     1     -33.811  16.539  -3.808  1.00 20.00    -0.158 SA
ENDROOT
BRANCH   1   2
HETATM    2  C6  UNL     1     -34.125  14.851  -3.253  1.00 20.00     0.108 C 
BRANCH   2   3
HETATM    3  C2  UNL     1     -35.162  14.183  -4.137  1.00 20.00     0.154 A 
HETATM    4  C1  UNL     1     -34.766  13.455  -5.389  1.00 20.00     0.201 A 
HETATM    5  O8  UNL     1     -35.079  12.755  -4.175  1.00 20.00    -0.380 OA
ENDBRANCH   2   3
ENDBRANCH   1   2
BRANCH   1   6
HETATM    6  C7  UNL     1     -34.546  17.413  -2.372  1.00 20.00    -0.003 C 
HETATM    7  C3  UNL     1     -34.589  16.451  -1.182  1.00 20.00     0.026 C 
HETATM    8  C4  UNL     1     -33.671  18.625  -2.045  1.00 20.00     0.026 C 
HETATM    9  C5  UNL     1     -35.962  17.864  -2.745  1.00 20.00     0.026 C 
ENDBRANCH   1   6
TORSDOF 3
ENDMDL
MODEL 9
REMARK VINA RESULT:      -3.2      1.402      1.914
REMARK  3 active torsions:
REMARK  status: ('A' for Active; 'I' for Inactive)
REMARK    1  A    between atoms: C2_2  and  C6_6 
REMARK    2  A    between atoms: C6_6  and  S9_9 
REMARK    3  A    between atoms: C7_7  and  S9_9 
ROOT
HETATM    1  S9  UNL     1     -33.841  16.208  -2.655  1.00 20.00    -0.158 SA
ENDROOT
BRANCH   1   2
HETATM    2  C6  UNL     1     -33.347  14.800  -3.669  1.00 20.00     0.108 C 
BRANCH   2   3
HETATM    3  C2  UNL     1     -34.426  13.734  -3.666  1.00 20.00     0.154 A 
HETATM    4  C1  UNL     1     -35.376  13.583  -4.820  1.00 20.00     0.201 A 
HETATM    5  O8  UNL     1     -34.251  12.706  -4.646  1.00 20.00    -0.380 OA
ENDBRANCH   2   3
ENDBRANCH   1   2
BRANCH   1   6
HETATM    6  C7  UNL     1     -34.191  17.385  -4.017  1.00 20.00    -0.003 C 
HETATM    7  C3  UNL     1     -33.776  18.790  -3.572  1.00 20.00     0.026 C 
HETATM    8  C4  UNL     1     -33.384  16.956  -5.245  1.00 20.00     0.026 C 
HETATM    9  C5  UNL     1     -35.691  17.345  -4.327  1.00 20.00     0.026 C 
ENDBRANCH   1   6
TORSDOF 3
ENDMDL
