MODEL 1
REMARK VINA RESULT:      -5.3      0.000      0.000
REMARK  0 active torsions:
REMARK  status: ('A' for Active; 'I' for Inactive)
ROOT
HETATM    1  C1  UNL     1     -33.883  17.258  -4.898  1.00 20.00     0.010 A 
HETATM    2  C2  UNL     1     -33.868  17.612  -3.543  1.00 20.00     0.019 A 
HETATM    3  C3  UNL     1     -34.545  15.367  -2.902  1.00 20.00     0.034 A 
HETATM    4  C4  UNL     1     -34.550  15.048  -4.247  1.00 20.00     0.018 A 
HETATM    5  C5  UNL     1     -34.233  15.962  -5.246  1.00 20.00    -0.040 A 
HETATM    6  C6  UNL     1     -34.198  16.672  -2.553  1.00 20.00     0.011 A 
HETATM    7  C7  UNL     1     -34.860  13.774  -4.873  1.00 20.00     0.160 A 
HETATM    8  C8  UNL     1     -34.696  13.893  -6.369  1.00 20.00     0.093 A 
HETATM    9  C9  UNL     1     -34.315  15.371  -6.625  1.00 20.00     0.023 A 
HETATM   10  C10 UNL     1     -35.342  16.078  -7.503  1.00 20.00     0.015 C 
HETATM   11  O11 UNL     1     -35.189  12.774  -4.263  1.00 20.00    -0.292 OA
HETATM   12 BR12 UNL     1     -34.168  17.181  -0.733  1.00 20.00    -0.051 Br
ENDROOT
TORSDOF 0
ENDMDL
MODEL 2
REMARK VINA RESULT:      -5.2      5.476      7.318
REMARK  0 active torsions:
REMARK  status: ('A' for Active; 'I' for Inactive)
ROOT
HETATM    1  C1  UNL     1     -35.146  17.980   2.327  1.00 20.00     0.010 A 
HETATM    2  C2  UNL     1     -34.741  18.180   3.651  1.00 20.00     0.019 A 
HETATM    3  C3  UNL     1     -32.535  18.890   2.919  1.00 20.00     0.034 A 
HETATM    4  C4  UNL     1     -32.964  18.683   1.622  1.00 20.00     0.018 A 
HETATM    5  C5  UNL     1     -34.241  18.232   1.307  1.00 20.00    -0.040 A 
HETATM    6  C6  UNL     1     -33.444  18.631   3.945  1.00 20.00     0.011 A 
HETATM    7  C7  UNL     1     -32.229  18.883   0.385  1.00 20.00     0.160 A 
HETATM    8  C8  UNL     1     -33.122  18.563  -0.791  1.00 20.00     0.093 A 
HETATM    9  C9  UNL     1     -34.458  18.086  -0.173  1.00 20.00     0.023 A 
HETATM   10  C10 UNL     1     -34.792  16.654  -0.576  1.00 20.00     0.015 C 
HETATM   11  O11 UNL     1     -31.075  19.263   0.328  1.00 20.00    -0.292 OA
HETATM   12 BR12 UNL     1     -32.929  18.892   5.746  1.00 20.00    -0.051 Br
ENDROOT
TORSDOF 0
ENDMDL
MODEL 3
REMARK VINA RESULT:      -5.0      1.374      1.557
REMARK  0 active torsions:
REMARK  status: ('A' for Active; 'I' for Inactive)
ROOT
HETATM    1  C1  UNL     1     -33.257  16.094  -3.661  1.00 20.00     0.010 A 
HETATM    2  C2  UNL     1     -33.413  16.683  -2.401  1.00 20.00     0.019 A 
HETATM    3  C3  UNL     1     -35.672  15.805  -2.218  1.00 20.00     0.034 A 
HETATM    4  C4  UNL     1     -35.488  15.235  -3.463  1.00 20.00     0.018 A 
HETATM    5  C5  UNL     1     -34.312  15.367  -4.194  1.00 20.00    -0.040 A 
HETATM    6  C6  UNL     1     -34.613  16.540  -1.685  1.00 20.00     0.011 A 
HETATM    7  C7  UNL     1     -36.416  14.423  -4.232  1.00 20.00     0.160 A 
HETATM    8  C8  UNL     1     -35.761  13.991  -5.522  1.00 20.00     0.093 A 
HETATM    9  C9  UNL     1     -34.365  14.658  -5.517  1.00 20.00     0.023 A 
HETATM   10  C10 UNL     1     -34.185  15.607  -6.697  1.00 20.00     0.015 C 
HETATM   11  O11 UNL     1     -37.541  14.137  -3.866  1.00 20.00    -0.292 OA
HETATM   12 BR12 UNL     1     -34.790  17.348   0.015  1.00 20.00    -0.051 Br
ENDROOT
TORSDOF 0
ENDMDL
MODEL 4
REMARK VINA RESULT:      -4.9      3.001      4.802
REMARK  0 active torsions:
REMARK  status: ('A' for Active; 'I' for Inactive)
ROOT
HETATM    1  C1  UNL     1     -34.247  14.715  -3.292  1.00 20.00     0.010 A 
HETATM    2  C2  UNL     1     -34.573  14.220  -4.560  1.00 20.00     0.019 A 
HETATM    3  C3  UNL     1     -34.567  16.467  -5.489  1.00 20.00     0.034 A 
HETATM    4  C4  UNL     1     -34.246  16.924  -4.226  1.00 20.00     0.018 A 
HETATM    5  C5  UNL     1     -34.087  16.083  -3.130  1.00 20.00    -0.040 A 
HETATM    6  C6  UNL     1     -34.733  15.091  -5.651  1.00 20.00     0.011 A 
HETATM    7  C7  UNL     1     -34.011  18.291  -3.793  1.00 20.00     0.160 A 
HETATM    8  C8  UNL     1     -33.651  18.302  -2.326  1.00 20.00     0.093 A 
HETATM    9  C9  UNL     1     -33.742  16.826  -1.870  1.00 20.00     0.023 A 
HETATM   10  C10 UNL     1     -34.785  16.634  -0.774  1.00 20.00     0.015 C 
HETATM   11  O11 UNL     1     -34.087  19.263  -4.521  1.00 20.00    -0.292 OA
HETATM   12 BR12 UNL     1     -35.172  14.390  -7.350  1.00 20.00    -0.051 Br
ENDROOT
TORSDOF 0
ENDMDL
MODEL 5
REMARK VINA RESULT:      -4.8      1.364      1.389
REMARK  0 active torsions:
REMARK  status: ('A' for Active; 'I' for Inactive)
ROOT
HETATM    1  C1  UNL     1     -35.937  17.261  -4.129  1.00 20.00     0.010 A 
HETATM    2  C2  UNL     1     -35.742  17.607  -2.786  1.00 20.00     0.019 A 
HETATM    3  C3  UNL     1     -34.477  15.568  -2.396  1.00 20.00     0.034 A 
HETATM    4  C4  UNL     1     -34.686  15.255  -3.726  1.00 20.00     0.018 A 
HETATM    5  C5  UNL     1     -35.404  16.069  -4.595  1.00 20.00    -0.040 A 
HETATM    6  C6  UNL     1     -35.017  16.765  -1.926  1.00 20.00     0.011 A 
HETATM    7  C7  UNL     1     -34.229  14.089  -4.462  1.00 20.00     0.160 A 
HETATM    8  C8  UNL     1     -34.667  14.197  -5.904  1.00 20.00     0.093 A 
HETATM    9  C9  UNL     1     -35.490  15.504  -5.985  1.00 20.00     0.023 A 
HETATM   10  C10 UNL     1     -36.928  15.243  -6.421  1.00 20.00     0.015 C 
HETATM   11  O11 UNL     1     -33.582  13.181  -3.974  1.00 20.00    -0.292 OA
HETATM   12 BR12 UNL     1     -34.772  17.262  -0.119  1.00 20.00    -0.051 Br
ENDROOT
TORSDOF 0
ENDMDL
MODEL 6
REMARK VINA RESULT:      -4.8      2.091      3.162
REMARK  0 active torsions:
REMARK  status: ('A' for Active; 'I' for Inactive)
ROOT
HETATM    1  C1  UNL     1     -34.817  15.697  -1.914  1.00 20.00     0.010 A 
HETATM    2  C2  UNL     1     -34.547  16.702  -0.977  1.00 20.00     0.019 A 
HETATM    3  C3  UNL     1     -33.690  18.163  -2.720  1.00 20.00     0.034 A 
HETATM    4  C4  UNL     1     -33.968  17.153  -3.621  1.00 20.00     0.018 A 
HETATM    5  C5  UNL     1     -34.517  15.931  -3.248  1.00 20.00    -0.040 A 
HETATM    6  C6  UNL     1     -33.987  17.926  -1.378  1.00 20.00     0.011 A 
HETATM    7  C7  UNL     1     -33.767  17.145  -5.060  1.00 20.00     0.160 A 
HETATM    8  C8  UNL     1     -34.255  15.834  -5.632  1.00 20.00     0.093 A 
HETATM    9  C9  UNL     1     -34.720  15.003  -4.412  1.00 20.00     0.023 A 
HETATM   10  C10 UNL     1     -33.926  13.708  -4.272  1.00 20.00     0.015 C 
HETATM   11  O11 UNL     1     -33.288  18.069  -5.690  1.00 20.00    -0.292 OA
HETATM   12 BR12 UNL     1     -33.636  19.262  -0.087  1.00 20.00    -0.051 Br
ENDROOT
TORSDOF 0
ENDMDL
MODEL 7
REMARK VINA RESULT:      -4.7      2.813      3.458
REMARK  0 active torsions:
REMARK  status: ('A' for Active; 'I' for Inactive)
ROOT
HETATM    1  C1  UNL     1     -36.300  17.003  -3.128  1.00 20.00     0.010 A 
HETATM    2  C2  UNL     1     -37.685  16.846  -3.254  1.00 20.00     0.019 A 
HETATM    3  C3  UNL     1     -37.409  14.530  -3.937  1.00 20.00     0.034 A 
HETATM    4  C4  UNL     1     -36.046  14.715  -3.802  1.00 20.00     0.018 A 
HETATM    5  C5  UNL     1     -35.478  15.923  -3.411  1.00 20.00    -0.040 A 
HETATM    6  C6  UNL     1     -38.235  15.618  -3.656  1.00 20.00     0.011 A 
HETATM    7  C7  UNL     1     -34.977  13.755  -4.020  1.00 20.00     0.160 A 
HETATM    8  C8  UNL     1     -33.647  14.400  -3.713  1.00 20.00     0.093 A 
HETATM    9  C9  UNL     1     -33.977  15.866  -3.344  1.00 20.00     0.023 A 
HETATM   10  C10 UNL     1     -33.313  16.855  -4.297  1.00 20.00     0.015 C 
HETATM   11  O11 UNL     1     -35.152  12.607  -4.383  1.00 20.00    -0.292 OA
HETATM   12 BR12 UNL     1     -40.110  15.440  -3.817  1.00 20.00    -0.051 Br
ENDROOT
TORSDOF 0
ENDMDL
MODEL 8
REMARK VINA RESULT:      -4.7      2.134      2.522
REMARK  0 active torsions:
REMARK  status: ('A' for Active; 'I' for Inactive)
ROOT
HETATM    1  C1  UNL     1     -36.497  17.306  -2.920  1.00 20.00     0.010 A 
HETATM    2  C2  UNL     1     -35.644  17.963  -2.026  1.00 20.00     0.019 A 
HETATM    3  C3  UNL     1     -34.089  16.095  -2.066  1.00 20.00     0.034 A 
HETATM    4  C4  UNL     1     -34.952  15.473  -2.947  1.00 20.00     0.018 A 
HETATM    5  C5  UNL     1     -36.143  16.046  -3.378  1.00 20.00    -0.040 A 
HETATM    6  C6  UNL     1     -34.448  17.360  -1.602  1.00 20.00     0.011 A 
HETATM    7  C7  UNL     1     -34.814  14.173  -3.582  1.00 20.00     0.160 A 
HETATM    8  C8  UNL     1     -35.989  13.929  -4.498  1.00 20.00     0.093 A 
HETATM    9  C9  UNL     1     -36.903  15.167  -4.331  1.00 20.00     0.023 A 
HETATM   10  C10 UNL     1     -38.282  14.787  -3.803  1.00 20.00     0.015 C 
HETATM   11  O11 UNL     1     -33.878  13.417  -3.397  1.00 20.00    -0.292 OA
HETATM   12 BR12 UNL     1     -33.317  18.275  -0.394  1.00 20.00    -0.051 Br
ENDROOT
TORSDOF 0
ENDMDL
MODEL 9
REMARK VINA RESULT:      -4.5      2.449      3.059
REMARK  0 active torsions:
REMARK  status: ('A' for Active; 'I' for Inactive)
ROOT
HETATM    1  C1  UNL     1     -34.431  16.265  -1.562  1.00 20.00     0.010 A 
HETATM    2  C2  UNL     1     -35.189  17.389  -1.215  1.00 20.00     0.019 A 
HETATM    3  C3  UNL     1     -36.743  16.962  -3.035  1.00 20.00     0.034 A 
HETATM    4  C4  UNL     1     -35.975  15.859  -3.353  1.00 20.00     0.018 A 
HETATM    5  C5  UNL     1     -34.832  15.499  -2.647  1.00 20.00    -0.040 A 
HETATM    6  C6  UNL     1     -36.337  17.736  -1.947  1.00 20.00     0.011 A 
HETATM    7  C7  UNL     1     -36.178  14.892  -4.418  1.00 20.00     0.160 A 
HETATM    8  C8  UNL     1     -35.102  13.834  -4.355  1.00 20.00     0.093 A 
HETATM    9  C9  UNL     1     -34.174  14.263  -3.193  1.00 20.00     0.023 A 
HETATM   10  C10 UNL     1     -32.749  14.521  -3.670  1.00 20.00     0.015 C 
HETATM   11  O11 UNL     1     -37.092  14.941  -5.221  1.00 20.00    -0.292 OA
HETATM   12 BR12 UNL     1     -37.339  19.260  -1.452  1.00 20.00    -0.051 Br
ENDROOT
TORSDOF 0
ENDMDL
