MODEL 1
REMARK VINA RESULT:      -4.7      0.000      0.000
REMARK  0 active torsions:
REMARK  status: ('A' for Active; 'I' for Inactive)
ROOT
HETATM    1  C1  UNL     1     -34.396  15.505  -2.278  1.00 20.00     0.033 A 
HETATM    2  C2  UNL     1     -33.816  17.665  -3.233  1.00 20.00     0.033 A 
HETATM    3  C3  UNL     1     -34.411  14.989  -3.562  1.00 20.00    -0.028 A 
HETATM    4  C4  UNL     1     -33.825  17.127  -4.522  1.00 20.00    -0.033 A 
HETATM    5  C5  UNL     1     -34.146  15.790  -4.676  1.00 20.00     0.040 A 
HETATM    6  C6  UNL     1     -34.103  16.861  -2.119  1.00 20.00     0.035 A 
HETATM    7  C7  UNL     1     -34.635  13.582  -4.008  1.00 20.00     0.060 C 
HETATM    8  C8  UNL     1     -34.733  13.756  -5.539  1.00 20.00     0.124 C 
HETATM    9  C9  UNL     1     -33.498  17.991  -5.692  1.00 20.00     0.050 C 
HETATM   10  N10 UNL     1     -34.155  15.055  -5.860  1.00 20.00    -0.389 N 
HETATM   11 CL11 UNL     1     -34.076  17.548  -0.540  1.00 20.00    -0.084 Cl
HETATM   12  H21 UNL     1     -34.256  15.494  -6.764  1.00 20.00     0.159 HD
ENDROOT
TORSDOF 0
ENDMDL
MODEL 2
REMARK VINA RESULT:      -4.7      2.489      3.608
REMARK  0 active torsions:
REMARK  status: ('A' for Active; 'I' for Inactive)
ROOT
HETATM    1  C1  UNL     1     -34.442  14.895  -3.021  1.00 20.00     0.033 A 
HETATM    2  C2  UNL     1     -34.019  15.792  -5.241  1.00 20.00     0.033 A 
HETATM    3  C3  UNL     1     -34.228  16.165  -2.513  1.00 20.00    -0.028 A 
HETATM    4  C4  UNL     1     -33.815  17.070  -4.714  1.00 20.00    -0.033 A 
HETATM    5  C5  UNL     1     -33.901  17.240  -3.344  1.00 20.00     0.040 A 
HETATM    6  C6  UNL     1     -34.327  14.711  -4.399  1.00 20.00     0.035 A 
HETATM    7  C7  UNL     1     -34.341  16.646  -1.104  1.00 20.00     0.060 C 
HETATM    8  C8  UNL     1     -33.764  18.073  -1.220  1.00 20.00     0.124 C 
HETATM    9  C9  UNL     1     -33.509  18.210  -5.624  1.00 20.00     0.050 C 
HETATM   10  N10 UNL     1     -33.788  18.433  -2.632  1.00 20.00    -0.389 N 
HETATM   11 CL11 UNL     1     -34.583  13.149  -5.076  1.00 20.00    -0.084 Cl
HETATM   12  H21 UNL     1     -33.303  19.236  -3.004  1.00 20.00     0.159 HD
ENDROOT
TORSDOF 0
ENDMDL
MODEL 3
REMARK VINA RESULT:      -4.7      2.459      4.075
REMARK  0 active torsions:
REMARK  status: ('A' for Active; 'I' for Inactive)
ROOT
HETATM    1  C1  UNL     1     -34.034  15.656  -5.263  1.00 20.00     0.033 A 
HETATM    2  C2  UNL     1     -34.547  14.961  -2.990  1.00 20.00     0.033 A 
HETATM    3  C3  UNL     1     -33.859  16.943  -4.785  1.00 20.00    -0.028 A 
HETATM    4  C4  UNL     1     -34.358  16.264  -2.522  1.00 20.00    -0.033 A 
HETATM    5  C5  UNL     1     -34.035  17.252  -3.435  1.00 20.00     0.040 A 
HETATM    6  C6  UNL     1     -34.390  14.660  -4.352  1.00 20.00     0.035 A 
HETATM    7  C7  UNL     1     -33.429  18.169  -5.521  1.00 20.00     0.060 C 
HETATM    8  C8  UNL     1     -33.656  19.262  -4.455  1.00 20.00     0.124 C 
HETATM    9  C9  UNL     1     -34.510  16.562  -1.069  1.00 20.00     0.050 C 
HETATM   10  N10 UNL     1     -33.752  18.590  -3.165  1.00 20.00    -0.389 N 
HETATM   11 CL11 UNL     1     -34.619  13.044  -4.901  1.00 20.00    -0.084 Cl
HETATM   12  H21 UNL     1     -34.079  19.050  -2.328  1.00 20.00     0.159 HD
ENDROOT
TORSDOF 0
ENDMDL
MODEL 4
REMARK VINA RESULT:      -4.6      2.437      3.498
REMARK  0 active torsions:
REMARK  status: ('A' for Active; 'I' for Inactive)
ROOT
HETATM    1  C1  UNL     1     -33.378  17.166  -5.099  1.00 20.00     0.033 A 
HETATM    2  C2  UNL     1     -34.597  16.722  -7.156  1.00 20.00     0.033 A 
HETATM    3  C3  UNL     1     -33.541  15.832  -4.765  1.00 20.00    -0.028 A 
HETATM    4  C4  UNL     1     -34.744  15.377  -6.809  1.00 20.00    -0.033 A 
HETATM    5  C5  UNL     1     -34.230  14.948  -5.599  1.00 20.00     0.040 A 
HETATM    6  C6  UNL     1     -33.922  17.611  -6.305  1.00 20.00     0.035 A 
HETATM    7  C7  UNL     1     -33.019  15.089  -3.580  1.00 20.00     0.060 C 
HETATM    8  C8  UNL     1     -33.743  13.733  -3.724  1.00 20.00     0.124 C 
HETATM    9  C9  UNL     1     -35.446  14.442  -7.734  1.00 20.00     0.050 C 
HETATM   10  N10 UNL     1     -34.222  13.647  -5.099  1.00 20.00    -0.389 N 
HETATM   11 CL11 UNL     1     -33.747  19.262  -6.760  1.00 20.00    -0.084 Cl
HETATM   12  H21 UNL     1     -34.881  12.948  -5.409  1.00 20.00     0.159 HD
ENDROOT
TORSDOF 0
ENDMDL
MODEL 5
REMARK VINA RESULT:      -4.5      2.188      3.064
REMARK  0 active torsions:
REMARK  status: ('A' for Active; 'I' for Inactive)
ROOT
HETATM    1  C1  UNL     1     -34.185  16.501  -6.285  1.00 20.00     0.033 A 
HETATM    2  C2  UNL     1     -33.692  17.725  -4.242  1.00 20.00     0.033 A 
HETATM    3  C3  UNL     1     -34.422  15.382  -5.507  1.00 20.00    -0.028 A 
HETATM    4  C4  UNL     1     -33.944  16.588  -3.470  1.00 20.00    -0.033 A 
HETATM    5  C5  UNL     1     -34.288  15.414  -4.117  1.00 20.00     0.040 A 
HETATM    6  C6  UNL     1     -33.808  17.680  -5.641  1.00 20.00     0.035 A 
HETATM    7  C7  UNL     1     -34.886  14.026  -5.926  1.00 20.00     0.060 C 
HETATM    8  C8  UNL     1     -34.727  13.227  -4.615  1.00 20.00     0.124 C 
HETATM    9  C9  UNL     1     -33.836  16.659  -1.985  1.00 20.00     0.050 C 
HETATM   10  N10 UNL     1     -34.631  14.197  -3.531  1.00 20.00    -0.389 N 
HETATM   11 CL11 UNL     1     -33.500  19.098  -6.569  1.00 20.00    -0.084 Cl
HETATM   12  H21 UNL     1     -34.342  13.951  -2.595  1.00 20.00     0.159 HD
ENDROOT
TORSDOF 0
ENDMDL
MODEL 6
REMARK VINA RESULT:      -4.3     12.538     13.649
REMARK  0 active torsions:
REMARK  status: ('A' for Active; 'I' for Inactive)
ROOT
HETATM    1  C1  UNL     1     -42.806   4.696  -3.322  1.00 20.00     0.033 A 
HETATM    2  C2  UNL     1     -41.270   4.271  -1.484  1.00 20.00     0.033 A 
HETATM    3  C3  UNL     1     -42.765   6.039  -2.989  1.00 20.00    -0.028 A 
HETATM    4  C4  UNL     1     -41.233   5.632  -1.167  1.00 20.00    -0.033 A 
HETATM    5  C5  UNL     1     -42.003   6.504  -1.915  1.00 20.00     0.040 A 
HETATM    6  C6  UNL     1     -42.055   3.806  -2.552  1.00 20.00     0.035 A 
HETATM    7  C7  UNL     1     -43.417   7.196  -3.670  1.00 20.00     0.060 C 
HETATM    8  C8  UNL     1     -43.142   8.338  -2.669  1.00 20.00     0.124 C 
HETATM    9  C9  UNL     1     -40.379   6.111  -0.043  1.00 20.00     0.050 C 
HETATM   10  N10 UNL     1     -42.061   7.892  -1.797  1.00 20.00    -0.389 N 
HETATM   11 CL11 UNL     1     -42.076   2.126  -2.927  1.00 20.00    -0.084 Cl
HETATM   12  H21 UNL     1     -41.809   8.370  -0.944  1.00 20.00     0.159 HD
ENDROOT
TORSDOF 0
ENDMDL
MODEL 7
REMARK VINA RESULT:      -4.3      3.150      4.347
REMARK  0 active torsions:
REMARK  status: ('A' for Active; 'I' for Inactive)
ROOT
HETATM    1  C1  UNL     1     -34.367  14.904  -3.040  1.00 20.00     0.033 A 
HETATM    2  C2  UNL     1     -36.441  14.763  -4.302  1.00 20.00     0.033 A 
HETATM    3  C3  UNL     1     -34.922  15.953  -2.328  1.00 20.00    -0.028 A 
HETATM    4  C4  UNL     1     -36.990  15.817  -3.567  1.00 20.00    -0.033 A 
HETATM    5  C5  UNL     1     -36.211  16.419  -2.595  1.00 20.00     0.040 A 
HETATM    6  C6  UNL     1     -35.137  14.313  -4.043  1.00 20.00     0.035 A 
HETATM    7  C7  UNL     1     -34.348  16.718  -1.180  1.00 20.00     0.060 C 
HETATM    8  C8  UNL     1     -35.380  17.856  -1.023  1.00 20.00     0.124 C 
HETATM    9  C9  UNL     1     -38.384  16.269  -3.842  1.00 20.00     0.050 C 
HETATM   10  N10 UNL     1     -36.589  17.438  -1.722  1.00 20.00    -0.389 N 
HETATM   11 CL11 UNL     1     -34.487  13.006  -4.957  1.00 20.00    -0.084 Cl
HETATM   12  H21 UNL     1     -37.351  18.068  -1.929  1.00 20.00     0.159 HD
ENDROOT
TORSDOF 0
ENDMDL
MODEL 8
REMARK VINA RESULT:      -4.2      1.852      2.277
REMARK  0 active torsions:
REMARK  status: ('A' for Active; 'I' for Inactive)
ROOT
HETATM    1  C1  UNL     1     -33.732  16.038  -2.354  1.00 20.00     0.033 A 
HETATM    2  C2  UNL     1     -35.803  17.308  -2.234  1.00 20.00     0.033 A 
HETATM    3  C3  UNL     1     -34.393  15.118  -3.150  1.00 20.00    -0.028 A 
HETATM    4  C4  UNL     1     -36.452  16.375  -3.046  1.00 20.00    -0.033 A 
HETATM    5  C5  UNL     1     -35.741  15.270  -3.481  1.00 20.00     0.040 A 
HETATM    6  C6  UNL     1     -34.452  17.138  -1.888  1.00 20.00     0.035 A 
HETATM    7  C7  UNL     1     -33.855  13.897  -3.821  1.00 20.00     0.060 C 
HETATM    8  C8  UNL     1     -35.149  13.238  -4.344  1.00 20.00     0.124 C 
HETATM    9  C9  UNL     1     -37.880  16.582  -3.421  1.00 20.00     0.050 C 
HETATM   10  N10 UNL     1     -36.186  14.264  -4.336  1.00 20.00    -0.389 N 
HETATM   11 CL11 UNL     1     -33.673  18.308  -0.893  1.00 20.00    -0.084 Cl
HETATM   12  H21 UNL     1     -37.166  14.056  -4.458  1.00 20.00     0.159 HD
ENDROOT
TORSDOF 0
ENDMDL
MODEL 9
REMARK VINA RESULT:      -4.2      1.075      2.847
REMARK  0 active torsions:
REMARK  status: ('A' for Active; 'I' for Inactive)
ROOT
HETATM    1  C1  UNL     1     -34.587  17.284  -3.472  1.00 20.00     0.033 A 
HETATM    2  C2  UNL     1     -34.500  14.897  -3.010  1.00 20.00     0.033 A 
HETATM    3  C3  UNL     1     -34.587  16.979  -4.822  1.00 20.00    -0.028 A 
HETATM    4  C4  UNL     1     -34.510  14.606  -4.376  1.00 20.00    -0.033 A 
HETATM    5  C5  UNL     1     -34.532  15.658  -5.275  1.00 20.00     0.040 A 
HETATM    6  C6  UNL     1     -34.535  16.228  -2.561  1.00 20.00     0.035 A 
HETATM    7  C7  UNL     1     -34.693  17.898  -5.994  1.00 20.00     0.060 C 
HETATM    8  C8  UNL     1     -34.411  16.935  -7.167  1.00 20.00     0.124 C 
HETATM    9  C9  UNL     1     -34.494  13.188  -4.835  1.00 20.00     0.050 C 
HETATM   10  N10 UNL     1     -34.602  15.580  -6.664  1.00 20.00    -0.389 N 
HETATM   11 CL11 UNL     1     -34.531  16.558  -0.871  1.00 20.00    -0.084 Cl
HETATM   12  H21 UNL     1     -34.307  14.759  -7.172  1.00 20.00     0.159 HD
ENDROOT
TORSDOF 0
ENDMDL
