MODEL 1
REMARK VINA RESULT:      -5.0      0.000      0.000
REMARK  0 active torsions:
REMARK  status: ('A' for Active; 'I' for Inactive)
ROOT
HETATM    1  C1  UNL     1     -36.398  16.626  -3.906  1.00 20.00     0.010 A 
HETATM    2  C2  UNL     1     -36.085  17.196  -2.668  1.00 20.00     0.019 A 
HETATM    3  C3  UNL     1     -34.355  15.534  -2.284  1.00 20.00     0.034 A 
HETATM    4  C4  UNL     1     -34.688  14.992  -3.512  1.00 20.00     0.018 A 
HETATM    5  C5  UNL     1     -35.684  15.514  -4.329  1.00 20.00    -0.040 A 
HETATM    6  C6  UNL     1     -35.069  16.654  -1.864  1.00 20.00     0.011 A 
HETATM    7  C7  UNL     1     -34.113  13.833  -4.175  1.00 20.00     0.160 A 
HETATM    8  C8  UNL     1     -34.822  13.597  -5.486  1.00 20.00     0.093 A 
HETATM    9  C9  UNL     1     -35.849  14.747  -5.610  1.00 20.00     0.023 A 
HETATM   10  C10 UNL     1     -35.593  15.606  -6.843  1.00 20.00     0.015 C 
HETATM   11  O11 UNL     1     -33.205  13.164  -3.716  1.00 20.00    -0.292 OA
HETATM   12 BR12 UNL     1     -34.673  17.450  -0.194  1.00 20.00    -0.051 Br
ENDROOT
TORSDOF 0
ENDMDL
MODEL 2
REMARK VINA RESULT:      -4.8      2.837      3.892
REMARK  0 active torsions:
REMARK  status: ('A' for Active; 'I' for Inactive)
ROOT
HETATM    1  C1  UNL     1     -34.943  17.225  -5.220  1.00 20.00     0.010 A 
HETATM    2  C2  UNL     1     -35.972  17.270  -6.165  1.00 20.00     0.019 A 
HETATM    3  C3  UNL     1     -36.135  14.846  -6.177  1.00 20.00     0.034 A 
HETATM    4  C4  UNL     1     -35.115  14.833  -5.244  1.00 20.00     0.018 A 
HETATM    5  C5  UNL     1     -34.518  15.988  -4.755  1.00 20.00    -0.040 A 
HETATM    6  C6  UNL     1     -36.566  16.088  -6.639  1.00 20.00     0.011 A 
HETATM    7  C7  UNL     1     -34.481  13.687  -4.613  1.00 20.00     0.160 A 
HETATM    8  C8  UNL     1     -33.388  14.161  -3.686  1.00 20.00     0.093 A 
HETATM    9  C9  UNL     1     -33.437  15.705  -3.750  1.00 20.00     0.023 A 
HETATM   10  C10 UNL     1     -33.733  16.320  -2.386  1.00 20.00     0.015 C 
HETATM   11  O11 UNL     1     -34.794  12.529  -4.826  1.00 20.00    -0.292 OA
HETATM   12 BR12 UNL     1     -37.955  16.187  -7.918  1.00 20.00    -0.051 Br
ENDROOT
TORSDOF 0
ENDMDL
MODEL 3
REMARK VINA RESULT:      -4.8      2.596      3.521
REMARK  0 active torsions:
REMARK  status: ('A' for Active; 'I' for Inactive)
ROOT
HETATM    1  C1  UNL     1     -36.752  17.013  -3.214  1.00 20.00     0.010 A 
HETATM    2  C2  UNL     1     -38.057  16.663  -3.575  1.00 20.00     0.019 A 
HETATM    3  C3  UNL     1     -37.350  14.405  -4.127  1.00 20.00     0.034 A 
HETATM    4  C4  UNL     1     -36.070  14.781  -3.764  1.00 20.00     0.018 A 
HETATM    5  C5  UNL     1     -35.753  16.055  -3.308  1.00 20.00    -0.040 A 
HETATM    6  C6  UNL     1     -38.353  15.366  -4.027  1.00 20.00     0.011 A 
HETATM    7  C7  UNL     1     -34.854  13.985  -3.782  1.00 20.00     0.160 A 
HETATM    8  C8  UNL     1     -33.688  14.833  -3.333  1.00 20.00     0.093 A 
HETATM    9  C9  UNL     1     -34.296  16.210  -2.977  1.00 20.00     0.023 A 
HETATM   10  C10 UNL     1     -34.064  16.570  -1.513  1.00 20.00     0.015 C 
HETATM   11  O11 UNL     1     -34.806  12.817  -4.123  1.00 20.00    -0.292 OA
HETATM   12 BR12 UNL     1     -40.129  14.926  -4.508  1.00 20.00    -0.051 Br
ENDROOT
TORSDOF 0
ENDMDL
MODEL 4
REMARK VINA RESULT:      -4.7      5.413      7.254
REMARK  0 active torsions:
REMARK  status: ('A' for Active; 'I' for Inactive)
ROOT
HETATM    1  C1  UNL     1     -32.313  18.888   1.015  1.00 20.00     0.010 A 
HETATM    2  C2  UNL     1     -31.415  19.110   2.064  1.00 20.00     0.019 A 
HETATM    3  C3  UNL     1     -33.125  18.576   3.706  1.00 20.00     0.034 A 
HETATM    4  C4  UNL     1     -33.989  18.364   2.648  1.00 20.00     0.018 A 
HETATM    5  C5  UNL     1     -33.612  18.506   1.318  1.00 20.00    -0.040 A 
HETATM    6  C6  UNL     1     -31.818  18.953   3.400  1.00 20.00     0.011 A 
HETATM    7  C7  UNL     1     -35.390  17.978   2.689  1.00 20.00     0.160 A 
HETATM    8  C8  UNL     1     -35.934  17.903   1.283  1.00 20.00     0.093 A 
HETATM    9  C9  UNL     1     -34.734  18.218   0.361  1.00 20.00     0.023 A 
HETATM   10  C10 UNL     1     -34.417  17.057  -0.576  1.00 20.00     0.015 C 
HETATM   11  O11 UNL     1     -36.011  17.764   3.714  1.00 20.00    -0.292 OA
HETATM   12 BR12 UNL     1     -30.578  19.263   4.794  1.00 20.00    -0.051 Br
ENDROOT
TORSDOF 0
ENDMDL
MODEL 5
REMARK VINA RESULT:      -4.7     11.725     12.955
REMARK  0 active torsions:
REMARK  status: ('A' for Active; 'I' for Inactive)
ROOT
HETATM    1  C1  UNL     1     -34.298   5.352   3.002  1.00 20.00     0.010 A 
HETATM    2  C2  UNL     1     -33.509   6.153   2.171  1.00 20.00     0.019 A 
HETATM    3  C3  UNL     1     -32.730   7.448   4.074  1.00 20.00     0.034 A 
HETATM    4  C4  UNL     1     -33.520   6.640   4.870  1.00 20.00     0.018 A 
HETATM    5  C5  UNL     1     -34.295   5.601   4.368  1.00 20.00    -0.040 A 
HETATM    6  C6  UNL     1     -32.729   7.193   2.704  1.00 20.00     0.011 A 
HETATM    7  C7  UNL     1     -33.708   6.696   6.311  1.00 20.00     0.160 A 
HETATM    8  C8  UNL     1     -34.694   5.635   6.733  1.00 20.00     0.093 A 
HETATM    9  C9  UNL     1     -35.059   4.874   5.438  1.00 20.00     0.023 A 
HETATM   10  C10 UNL     1     -34.684   3.398   5.521  1.00 20.00     0.015 C 
HETATM   11  O11 UNL     1     -33.151   7.495   7.042  1.00 20.00    -0.292 OA
HETATM   12 BR12 UNL     1     -31.675   8.257   1.549  1.00 20.00    -0.051 Br
ENDROOT
TORSDOF 0
ENDMDL
MODEL 6
REMARK VINA RESULT:      -4.6      2.017      2.666
REMARK  0 active torsions:
REMARK  status: ('A' for Active; 'I' for Inactive)
ROOT
HETATM    1  C1  UNL     1     -33.654  16.635  -3.244  1.00 20.00     0.010 A 
HETATM    2  C2  UNL     1     -34.227  17.728  -2.587  1.00 20.00     0.019 A 
HETATM    3  C3  UNL     1     -36.430  16.713  -2.714  1.00 20.00     0.034 A 
HETATM    4  C4  UNL     1     -35.835  15.647  -3.363  1.00 20.00     0.018 A 
HETATM    5  C5  UNL     1     -34.473  15.584  -3.629  1.00 20.00    -0.040 A 
HETATM    6  C6  UNL     1     -35.606  17.766  -2.322  1.00 20.00     0.011 A 
HETATM    7  C7  UNL     1     -36.460  14.439  -3.879  1.00 20.00     0.160 A 
HETATM    8  C8  UNL     1     -35.415  13.575  -4.542  1.00 20.00     0.093 A 
HETATM    9  C9  UNL     1     -34.076  14.321  -4.341  1.00 20.00     0.023 A 
HETATM   10  C10 UNL     1     -33.077  13.490  -3.543  1.00 20.00     0.015 C 
HETATM   11  O11 UNL     1     -37.648  14.192  -3.787  1.00 20.00    -0.292 OA
HETATM   12 BR12 UNL     1     -36.348  19.260  -1.432  1.00 20.00    -0.051 Br
ENDROOT
TORSDOF 0
ENDMDL
MODEL 7
REMARK VINA RESULT:      -4.6      1.825      2.149
REMARK  0 active torsions:
REMARK  status: ('A' for Active; 'I' for Inactive)
ROOT
HETATM    1  C1  UNL     1     -34.007  17.179  -4.660  1.00 20.00     0.010 A 
HETATM    2  C2  UNL     1     -33.765  17.504  -3.322  1.00 20.00     0.019 A 
HETATM    3  C3  UNL     1     -35.550  16.028  -2.589  1.00 20.00     0.034 A 
HETATM    4  C4  UNL     1     -35.766  15.726  -3.921  1.00 20.00     0.018 A 
HETATM    5  C5  UNL     1     -35.018  16.275  -4.955  1.00 20.00    -0.040 A 
HETATM    6  C6  UNL     1     -34.531  16.931  -2.293  1.00 20.00     0.011 A 
HETATM    7  C7  UNL     1     -36.759  14.834  -4.497  1.00 20.00     0.160 A 
HETATM    8  C8  UNL     1     -36.640  14.850  -6.001  1.00 20.00     0.093 A 
HETATM    9  C9  UNL     1     -35.448  15.785  -6.309  1.00 20.00     0.023 A 
HETATM   10  C10 UNL     1     -34.331  15.056  -7.048  1.00 20.00     0.015 C 
HETATM   11  O11 UNL     1     -37.561  14.191  -3.844  1.00 20.00    -0.292 OA
HETATM   12 BR12 UNL     1     -34.177  17.394  -0.494  1.00 20.00    -0.051 Br
ENDROOT
TORSDOF 0
ENDMDL
MODEL 8
REMARK VINA RESULT:      -4.5      2.356      2.802
REMARK  0 active torsions:
REMARK  status: ('A' for Active; 'I' for Inactive)
ROOT
HETATM    1  C1  UNL     1     -34.645  15.445  -2.663  1.00 20.00     0.010 A 
HETATM    2  C2  UNL     1     -34.438  16.266  -1.551  1.00 20.00     0.019 A 
HETATM    3  C3  UNL     1     -33.727  18.101  -2.975  1.00 20.00     0.034 A 
HETATM    4  C4  UNL     1     -33.940  17.266  -4.055  1.00 20.00     0.018 A 
HETATM    5  C5  UNL     1     -34.395  15.959  -3.928  1.00 20.00    -0.040 A 
HETATM    6  C6  UNL     1     -33.984  17.586  -1.706  1.00 20.00     0.011 A 
HETATM    7  C7  UNL     1     -33.744  17.547  -5.468  1.00 20.00     0.160 A 
HETATM    8  C8  UNL     1     -34.072  16.316  -6.278  1.00 20.00     0.093 A 
HETATM    9  C9  UNL     1     -34.547  15.263  -5.251  1.00 20.00     0.023 A 
HETATM   10  C10 UNL     1     -35.981  14.818  -5.515  1.00 20.00     0.015 C 
HETATM   11  O11 UNL     1     -33.361  18.617  -5.906  1.00 20.00    -0.292 OA
HETATM   12 BR12 UNL     1     -33.714  18.668  -0.178  1.00 20.00    -0.051 Br
ENDROOT
TORSDOF 0
ENDMDL
MODEL 9
REMARK VINA RESULT:      -4.4      3.054      4.846
REMARK  0 active torsions:
REMARK  status: ('A' for Active; 'I' for Inactive)
ROOT
HETATM    1  C1  UNL     1     -33.580  15.470  -2.927  1.00 20.00     0.010 A 
HETATM    2  C2  UNL     1     -33.650  15.044  -4.257  1.00 20.00     0.019 A 
HETATM    3  C3  UNL     1     -35.652  16.369  -4.629  1.00 20.00     0.034 A 
HETATM    4  C4  UNL     1     -35.557  16.772  -3.309  1.00 20.00     0.018 A 
HETATM    5  C5  UNL     1     -34.546  16.348  -2.456  1.00 20.00    -0.040 A 
HETATM    6  C6  UNL     1     -34.678  15.492  -5.102  1.00 20.00     0.011 A 
HETATM    7  C7  UNL     1     -36.437  17.664  -2.571  1.00 20.00     0.160 A 
HETATM    8  C8  UNL     1     -35.956  17.780  -1.145  1.00 20.00     0.093 A 
HETATM    9  C9  UNL     1     -34.666  16.930  -1.076  1.00 20.00     0.023 A 
HETATM   10  C10 UNL     1     -33.453  17.770  -0.689  1.00 20.00     0.015 C 
HETATM   11  O11 UNL     1     -37.413  18.212  -3.049  1.00 20.00    -0.292 OA
HETATM   12 BR12 UNL     1     -34.742  14.895  -6.896  1.00 20.00    -0.051 Br
ENDROOT
TORSDOF 0
ENDMDL
