MODEL 1
REMARK VINA RESULT:      -4.5      0.000      0.000
REMARK  2 active torsions:
REMARK  status: ('A' for Active; 'I' for Inactive)
REMARK    1  A    between atoms: C2_2  and  C8_8 
REMARK    2  A    between atoms: C8_8  and  N9_9 
ROOT
HETATM    1  C3  UNL     1     -35.048   4.410   5.983  1.00 20.00     0.003 C 
HETATM    2  C4  UNL     1     -33.992   5.440   6.366  1.00 20.00     0.030 C 
HETATM    3  C5  UNL     1     -35.053   4.170   4.476  1.00 20.00     0.030 C 
HETATM    4  C6  UNL     1     -34.129   6.715   5.529  1.00 20.00     0.273 C 
HETATM    5  C7  UNL     1     -35.153   5.489   3.705  1.00 20.00     0.273 C 
HETATM    6  N9  UNL     1     -34.140   6.484   4.079  1.00 20.00     0.093 N 
ENDROOT
BRANCH   6   7
HETATM    7  C8  UNL     1     -32.816   6.146   3.562  1.00 20.00     0.317 C 
BRANCH   7   8
HETATM    8  C2  UNL     1     -31.954   7.358   3.342  1.00 20.00     0.007 C 
HETATM    9  C1  UNL     1     -31.040   7.778   4.228  1.00 20.00     0.029 C 
HETATM   10 BR10 UNL     1     -32.178   8.222   1.695  1.00 20.00    -0.055 Br
ENDBRANCH   7   8
ENDBRANCH   6   7
TORSDOF 2
ENDMDL
MODEL 2
REMARK VINA RESULT:      -4.1     11.510     12.358
REMARK  2 active torsions:
REMARK  status: ('A' for Active; 'I' for Inactive)
REMARK    1  A    between atoms: C2_2  and  C8_8 
REMARK    2  A    between atoms: C8_8  and  N9_9 
ROOT
HETATM    1  C3  UNL     1     -34.579  13.336  -4.538  1.00 20.00     0.003 C 
HETATM    2  C4  UNL     1     -35.787  14.178  -4.145  1.00 20.00     0.030 C 
HETATM    3  C5  UNL     1     -33.356  13.718  -3.711  1.00 20.00     0.030 C 
HETATM    4  C6  UNL     1     -35.455  15.672  -4.172  1.00 20.00     0.273 C 
HETATM    5  C7  UNL     1     -33.107  15.228  -3.753  1.00 20.00     0.273 C 
HETATM    6  N9  UNL     1     -34.273  16.040  -3.381  1.00 20.00     0.093 N 
ENDROOT
BRANCH   6   7
HETATM    7  C8  UNL     1     -34.536  16.004  -1.944  1.00 20.00     0.317 C 
BRANCH   7   8
HETATM    8  C2  UNL     1     -34.279  17.326  -1.275  1.00 20.00     0.007 C 
HETATM    9  C1  UNL     1     -33.648  18.342  -1.880  1.00 20.00     0.029 C 
HETATM   10 BR10 UNL     1     -34.968  17.504   0.457  1.00 20.00    -0.055 Br
ENDBRANCH   7   8
ENDBRANCH   6   7
TORSDOF 2
ENDMDL
MODEL 3
REMARK VINA RESULT:      -4.0     11.667     12.325
REMARK  2 active torsions:
REMARK  status: ('A' for Active; 'I' for Inactive)
REMARK    1  A    between atoms: C2_2  and  C8_8 
REMARK    2  A    between atoms: C8_8  and  N9_9 
ROOT
HETATM    1  C3  UNL     1     -34.658  13.386  -4.631  1.00 20.00     0.003 C 
HETATM    2  C4  UNL     1     -35.874  14.191  -4.186  1.00 20.00     0.030 C 
HETATM    3  C5  UNL     1     -33.440  13.725  -3.778  1.00 20.00     0.030 C 
HETATM    4  C6  UNL     1     -35.555  15.687  -4.116  1.00 20.00     0.273 C 
HETATM    5  C7  UNL     1     -33.205  15.236  -3.722  1.00 20.00     0.273 C 
HETATM    6  N9  UNL     1     -34.378  16.013  -3.300  1.00 20.00     0.093 N 
ENDROOT
BRANCH   6   7
HETATM    7  C8  UNL     1     -34.643  15.882  -1.869  1.00 20.00     0.317 C 
BRANCH   7   8
HETATM    8  C2  UNL     1     -34.496  17.184  -1.132  1.00 20.00     0.007 C 
HETATM    9  C1  UNL     1     -34.847  17.343   0.151  1.00 20.00     0.029 C 
HETATM   10 BR10 UNL     1     -33.711  18.580  -2.103  1.00 20.00    -0.055 Br
ENDBRANCH   7   8
ENDBRANCH   6   7
TORSDOF 2
ENDMDL
MODEL 4
REMARK VINA RESULT:      -3.9     11.923     13.016
REMARK  2 active torsions:
REMARK  status: ('A' for Active; 'I' for Inactive)
REMARK    1  A    between atoms: C2_2  and  C8_8 
REMARK    2  A    between atoms: C8_8  and  N9_9 
ROOT
HETATM    1  C3  UNL     1     -34.373  14.843  -6.549  1.00 20.00     0.003 C 
HETATM    2  C4  UNL     1     -34.222  16.181  -5.835  1.00 20.00     0.030 C 
HETATM    3  C5  UNL     1     -35.030  13.810  -5.638  1.00 20.00     0.030 C 
HETATM    4  C6  UNL     1     -33.532  16.013  -4.479  1.00 20.00     0.273 C 
HETATM    5  C7  UNL     1     -34.311  13.724  -4.289  1.00 20.00     0.273 C 
HETATM    6  N9  UNL     1     -34.160  15.015  -3.604  1.00 20.00     0.093 N 
ENDROOT
BRANCH   6   7
HETATM    7  C8  UNL     1     -35.419  15.491  -3.036  1.00 20.00     0.317 C 
BRANCH   7   8
HETATM    8  C2  UNL     1     -35.232  16.667  -2.119  1.00 20.00     0.007 C 
HETATM    9  C1  UNL     1     -34.570  16.592  -0.956  1.00 20.00     0.029 C 
HETATM   10 BR10 UNL     1     -35.925  18.294  -2.738  1.00 20.00    -0.055 Br
ENDBRANCH   7   8
ENDBRANCH   6   7
TORSDOF 2
ENDMDL
MODEL 5
REMARK VINA RESULT:      -3.8     11.758     12.921
REMARK  2 active torsions:
REMARK  status: ('A' for Active; 'I' for Inactive)
REMARK    1  A    between atoms: C2_2  and  C8_8 
REMARK    2  A    between atoms: C8_8  and  N9_9 
ROOT
HETATM    1  C3  UNL     1     -34.195  17.982  -0.502  1.00 20.00     0.003 C 
HETATM    2  C4  UNL     1     -33.318  18.532  -1.622  1.00 20.00     0.030 C 
HETATM    3  C5  UNL     1     -34.656  16.563  -0.819  1.00 20.00     0.030 C 
HETATM    4  C6  UNL     1     -34.000  18.384  -2.984  1.00 20.00     0.273 C 
HETATM    5  C7  UNL     1     -35.292  16.484  -2.209  1.00 20.00     0.273 C 
HETATM    6  N9  UNL     1     -34.451  17.019  -3.287  1.00 20.00     0.093 N 
ENDROOT
BRANCH   6   7
HETATM    7  C8  UNL     1     -33.339  16.130  -3.615  1.00 20.00     0.317 C 
BRANCH   7   8
HETATM    8  C2  UNL     1     -33.777  14.918  -4.390  1.00 20.00     0.007 C 
HETATM    9  C1  UNL     1     -33.705  13.672  -3.903  1.00 20.00     0.029 C 
HETATM   10 BR10 UNL     1     -34.512  15.259  -6.079  1.00 20.00    -0.055 Br
ENDBRANCH   7   8
ENDBRANCH   6   7
TORSDOF 2
ENDMDL
MODEL 6
REMARK VINA RESULT:      -3.8     12.075     13.088
REMARK  2 active torsions:
REMARK  status: ('A' for Active; 'I' for Inactive)
REMARK    1  A    between atoms: C2_2  and  C8_8 
REMARK    2  A    between atoms: C8_8  and  N9_9 
ROOT
HETATM    1  C3  UNL     1     -34.766  14.385  -6.395  1.00 20.00     0.003 C 
HETATM    2  C4  UNL     1     -34.725  13.631  -5.072  1.00 20.00     0.030 C 
HETATM    3  C5  UNL     1     -34.456  15.865  -6.189  1.00 20.00     0.030 C 
HETATM    4  C6  UNL     1     -35.599  14.312  -4.016  1.00 20.00     0.273 C 
HETATM    5  C7  UNL     1     -35.340  16.469  -5.095  1.00 20.00     0.273 C 
HETATM    6  N9  UNL     1     -35.306  15.738  -3.821  1.00 20.00     0.093 N 
ENDROOT
BRANCH   6   7
HETATM    7  C8  UNL     1     -34.056  15.952  -3.095  1.00 20.00     0.317 C 
BRANCH   7   8
HETATM    8  C2  UNL     1     -34.197  16.955  -1.984  1.00 20.00     0.007 C 
HETATM    9  C1  UNL     1     -34.616  16.631  -0.753  1.00 20.00     0.029 C 
HETATM   10 BR10 UNL     1     -33.672  18.704  -2.402  1.00 20.00    -0.055 Br
ENDBRANCH   7   8
ENDBRANCH   6   7
TORSDOF 2
ENDMDL
MODEL 7
REMARK VINA RESULT:      -3.7     12.240     13.558
REMARK  2 active torsions:
REMARK  status: ('A' for Active; 'I' for Inactive)
REMARK    1  A    between atoms: C2_2  and  C8_8 
REMARK    2  A    between atoms: C8_8  and  N9_9 
ROOT
HETATM    1  C3  UNL     1     -34.449  13.247  -4.816  1.00 20.00     0.003 C 
HETATM    2  C4  UNL     1     -33.513  13.912  -3.813  1.00 20.00     0.030 C 
HETATM    3  C5  UNL     1     -34.895  14.239  -5.886  1.00 20.00     0.030 C 
HETATM    4  C6  UNL     1     -34.121  15.202  -3.257  1.00 20.00     0.273 C 
HETATM    5  C7  UNL     1     -35.456  15.517  -5.257  1.00 20.00     0.273 C 
HETATM    6  N9  UNL     1     -34.557  16.155  -4.286  1.00 20.00     0.093 N 
ENDROOT
BRANCH   6   7
HETATM    7  C8  UNL     1     -33.431  16.825  -4.932  1.00 20.00     0.317 C 
BRANCH   7   8
HETATM    8  C2  UNL     1     -33.585  18.320  -4.958  1.00 20.00     0.007 C 
HETATM    9  C1  UNL     1     -33.643  19.032  -6.092  1.00 20.00     0.029 C 
HETATM   10 BR10 UNL     1     -33.770  19.143  -3.285  1.00 20.00    -0.055 Br
ENDBRANCH   7   8
ENDBRANCH   6   7
TORSDOF 2
ENDMDL
MODEL 8
REMARK VINA RESULT:      -3.7     11.797     13.151
REMARK  2 active torsions:
REMARK  status: ('A' for Active; 'I' for Inactive)
REMARK    1  A    between atoms: C2_2  and  C8_8 
REMARK    2  A    between atoms: C8_8  and  N9_9 
ROOT
HETATM    1  C3  UNL     1     -33.280  13.685  -3.678  1.00 20.00     0.003 C 
HETATM    2  C4  UNL     1     -33.233  15.200  -3.515  1.00 20.00     0.030 C 
HETATM    3  C5  UNL     1     -34.368  13.278  -4.668  1.00 20.00     0.030 C 
HETATM    4  C6  UNL     1     -34.617  15.767  -3.192  1.00 20.00     0.273 C 
HETATM    5  C7  UNL     1     -35.713  13.912  -4.305  1.00 20.00     0.273 C 
HETATM    6  N9  UNL     1     -35.666  15.371  -4.141  1.00 20.00     0.093 N 
ENDROOT
BRANCH   6   7
HETATM    7  C8  UNL     1     -35.549  16.068  -5.419  1.00 20.00     0.317 C 
BRANCH   7   8
HETATM    8  C2  UNL     1     -36.588  15.631  -6.414  1.00 20.00     0.007 C 
HETATM    9  C1  UNL     1     -37.892  15.911  -6.282  1.00 20.00     0.029 C 
HETATM   10 BR10 UNL     1     -35.938  14.722  -7.918  1.00 20.00    -0.055 Br
ENDBRANCH   7   8
ENDBRANCH   6   7
TORSDOF 2
ENDMDL
MODEL 9
REMARK VINA RESULT:      -3.6     11.891     13.368
REMARK  2 active torsions:
REMARK  status: ('A' for Active; 'I' for Inactive)
REMARK    1  A    between atoms: C2_2  and  C8_8 
REMARK    2  A    between atoms: C8_8  and  N9_9 
ROOT
HETATM    1  C3  UNL     1     -33.332  13.724  -3.769  1.00 20.00     0.003 C 
HETATM    2  C4  UNL     1     -34.733  13.366  -4.252  1.00 20.00     0.030 C 
HETATM    3  C5  UNL     1     -33.179  15.234  -3.613  1.00 20.00     0.030 C 
HETATM    4  C6  UNL     1     -35.111  14.166  -5.501  1.00 20.00     0.273 C 
HETATM    5  C7  UNL     1     -33.611  15.969  -4.884  1.00 20.00     0.273 C 
HETATM    6  N9  UNL     1     -34.958  15.620  -5.353  1.00 20.00     0.093 N 
ENDROOT
BRANCH   6   7
HETATM    7  C8  UNL     1     -36.004  16.204  -4.517  1.00 20.00     0.317 C 
BRANCH   7   8
HETATM    8  C2  UNL     1     -37.384  15.958  -5.060  1.00 20.00     0.007 C 
HETATM    9  C1  UNL     1     -37.796  16.415  -6.251  1.00 20.00     0.029 C 
HETATM   10 BR10 UNL     1     -38.495  14.891  -3.993  1.00 20.00    -0.055 Br
ENDBRANCH   7   8
ENDBRANCH   6   7
TORSDOF 2
ENDMDL
