MODEL 1
REMARK VINA RESULT:      -4.7      0.000      0.000
REMARK  1 active torsions:
REMARK  status: ('A' for Active; 'I' for Inactive)
REMARK    1  A    between atoms: C1_1  and  C6_6 
ROOT
HETATM    1  C2  UNL     1     -35.134   4.438   4.852  1.00 20.00     0.005 C 
HETATM    2  C3  UNL     1     -34.180   5.155   5.822  1.00 20.00     0.006 C 
HETATM    3  C4  UNL     1     -33.844   5.321   2.889  1.00 20.00     0.018 C 
HETATM    4  C5  UNL     1     -35.088   6.757   4.323  1.00 20.00     0.010 C 
HETATM    5  C6  UNL     1     -32.861   5.982   3.870  1.00 20.00     0.076 C 
HETATM    6  C7  UNL     1     -35.184   5.393   3.645  1.00 20.00    -0.013 C 
HETATM    7  C8  UNL     1     -33.775   6.415   5.035  1.00 20.00    -0.002 C 
ENDROOT
BRANCH   5   8
HETATM    8  C1  UNL     1     -32.165   7.152   3.246  1.00 20.00     0.223 C 
HETATM    9  O9  UNL     1     -32.442   7.541   2.115  1.00 20.00    -0.279 OA
HETATM   10 CL10 UNL     1     -30.970   7.842   4.302  1.00 20.00    -0.043 Cl
ENDBRANCH   5   8
TORSDOF 1
ENDMDL
MODEL 2
REMARK VINA RESULT:      -4.6     11.642     12.597
REMARK  1 active torsions:
REMARK  status: ('A' for Active; 'I' for Inactive)
REMARK    1  A    between atoms: C1_1  and  C6_6 
ROOT
HETATM    1  C2  UNL     1     -34.147  17.347  -2.783  1.00 20.00     0.005 C 
HETATM    2  C3  UNL     1     -34.524  16.080  -1.997  1.00 20.00     0.006 C 
HETATM    3  C4  UNL     1     -34.779  16.230  -4.939  1.00 20.00     0.018 C 
HETATM    4  C5  UNL     1     -32.917  15.503  -3.647  1.00 20.00     0.010 C 
HETATM    5  C6  UNL     1     -35.211  14.991  -4.136  1.00 20.00     0.076 C 
HETATM    6  C7  UNL     1     -33.605  16.784  -4.110  1.00 20.00    -0.013 C 
HETATM    7  C8  UNL     1     -34.185  14.950  -2.985  1.00 20.00    -0.002 C 
ENDROOT
BRANCH   5   8
HETATM    8  C1  UNL     1     -35.160  13.749  -4.971  1.00 20.00     0.223 C 
HETATM    9  O9  UNL     1     -35.080  12.633  -4.464  1.00 20.00    -0.279 OA
HETATM   10 CL10 UNL     1     -35.226  14.099  -6.671  1.00 20.00    -0.043 Cl
ENDBRANCH   5   8
TORSDOF 1
ENDMDL
MODEL 3
REMARK VINA RESULT:      -4.4     11.336     12.418
REMARK  1 active torsions:
REMARK  status: ('A' for Active; 'I' for Inactive)
REMARK    1  A    between atoms: C1_1  and  C6_6 
ROOT
HETATM    1  C2  UNL     1     -34.415  13.991  -5.329  1.00 20.00     0.005 C 
HETATM    2  C3  UNL     1     -34.799  13.625  -3.885  1.00 20.00     0.006 C 
HETATM    3  C4  UNL     1     -33.432  16.162  -4.544  1.00 20.00     0.018 C 
HETATM    4  C5  UNL     1     -35.768  15.725  -4.421  1.00 20.00     0.010 C 
HETATM    5  C6  UNL     1     -33.765  15.757  -3.099  1.00 20.00     0.076 C 
HETATM    6  C7  UNL     1     -34.576  15.522  -5.353  1.00 20.00    -0.013 C 
HETATM    7  C8  UNL     1     -35.098  14.995  -3.252  1.00 20.00    -0.002 C 
ENDROOT
BRANCH   5   8
HETATM    8  C1  UNL     1     -33.909  16.954  -2.210  1.00 20.00     0.223 C 
HETATM    9  O9  UNL     1     -33.530  18.068  -2.561  1.00 20.00    -0.279 OA
HETATM   10 CL10 UNL     1     -34.649  16.556  -0.689  1.00 20.00    -0.043 Cl
ENDBRANCH   5   8
TORSDOF 1
ENDMDL
MODEL 4
REMARK VINA RESULT:      -4.4     11.377     12.264
REMARK  1 active torsions:
REMARK  status: ('A' for Active; 'I' for Inactive)
REMARK    1  A    between atoms: C1_1  and  C6_6 
ROOT
HETATM    1  C2  UNL     1     -35.536  17.367  -2.039  1.00 20.00     0.005 C 
HETATM    2  C3  UNL     1     -34.362  16.590  -1.420  1.00 20.00     0.006 C 
HETATM    3  C4  UNL     1     -35.847  15.573  -3.766  1.00 20.00     0.018 C 
HETATM    4  C5  UNL     1     -33.907  16.951  -3.722  1.00 20.00     0.010 C 
HETATM    5  C6  UNL     1     -34.712  14.777  -3.100  1.00 20.00     0.076 C 
HETATM    6  C7  UNL     1     -35.420  17.036  -3.538  1.00 20.00    -0.013 C 
HETATM    7  C8  UNL     1     -33.741  15.882  -2.637  1.00 20.00    -0.002 C 
ENDROOT
BRANCH   5   8
HETATM    8  C1  UNL     1     -34.062  13.834  -4.065  1.00 20.00     0.223 C 
HETATM    9  O9  UNL     1     -33.127  13.111  -3.730  1.00 20.00    -0.279 OA
HETATM   10 CL10 UNL     1     -34.785  13.910  -5.643  1.00 20.00    -0.043 Cl
ENDBRANCH   5   8
TORSDOF 1
ENDMDL
MODEL 5
REMARK VINA RESULT:      -4.4     11.513     12.526
REMARK  1 active torsions:
REMARK  status: ('A' for Active; 'I' for Inactive)
REMARK    1  A    between atoms: C1_1  and  C6_6 
ROOT
HETATM    1  C2  UNL     1     -34.575  14.142  -5.235  1.00 20.00     0.005 C 
HETATM    2  C3  UNL     1     -33.956  15.480  -5.675  1.00 20.00     0.006 C 
HETATM    3  C4  UNL     1     -35.116  15.104  -2.981  1.00 20.00     0.018 C 
HETATM    4  C5  UNL     1     -32.871  14.755  -3.692  1.00 20.00     0.010 C 
HETATM    5  C6  UNL     1     -34.550  16.454  -3.455  1.00 20.00     0.076 C 
HETATM    6  C7  UNL     1     -34.242  14.083  -3.733  1.00 20.00    -0.013 C 
HETATM    7  C8  UNL     1     -33.375  16.036  -4.364  1.00 20.00    -0.002 C 
ENDROOT
BRANCH   5   8
HETATM    8  C1  UNL     1     -34.090  17.293  -2.302  1.00 20.00     0.223 C 
HETATM    9  O9  UNL     1     -33.491  18.351  -2.472  1.00 20.00    -0.279 OA
HETATM   10 CL10 UNL     1     -34.506  16.585  -0.770  1.00 20.00    -0.043 Cl
ENDBRANCH   5   8
TORSDOF 1
ENDMDL
MODEL 6
REMARK VINA RESULT:      -4.4     11.072     12.321
REMARK  1 active torsions:
REMARK  status: ('A' for Active; 'I' for Inactive)
REMARK    1  A    between atoms: C1_1  and  C6_6 
ROOT
HETATM    1  C2  UNL     1     -35.085  17.878  -3.376  1.00 20.00     0.005 C 
HETATM    2  C3  UNL     1     -36.278  16.915  -3.502  1.00 20.00     0.006 C 
HETATM    3  C4  UNL     1     -33.500  16.038  -4.007  1.00 20.00     0.018 C 
HETATM    4  C5  UNL     1     -34.719  15.999  -1.963  1.00 20.00     0.010 C 
HETATM    5  C6  UNL     1     -34.706  15.101  -4.190  1.00 20.00     0.076 C 
HETATM    6  C7  UNL     1     -33.955  16.966  -2.865  1.00 20.00    -0.013 C 
HETATM    7  C8  UNL     1     -35.674  15.564  -3.080  1.00 20.00    -0.002 C 
ENDROOT
BRANCH   5   8
HETATM    8  C1  UNL     1     -34.318  13.664  -4.024  1.00 20.00     0.223 C 
HETATM    9  O9  UNL     1     -35.102  12.751  -4.265  1.00 20.00    -0.279 OA
HETATM   10 CL10 UNL     1     -32.681  13.488  -3.468  1.00 20.00    -0.043 Cl
ENDBRANCH   5   8
TORSDOF 1
ENDMDL
MODEL 7
REMARK VINA RESULT:      -4.4     11.505     12.651
REMARK  1 active torsions:
REMARK  status: ('A' for Active; 'I' for Inactive)
REMARK    1  A    between atoms: C1_1  and  C6_6 
ROOT
HETATM    1  C2  UNL     1     -33.815  17.011  -2.654  1.00 20.00     0.005 C 
HETATM    2  C3  UNL     1     -34.064  17.312  -4.142  1.00 20.00     0.006 C 
HETATM    3  C4  UNL     1     -33.896  14.545  -3.114  1.00 20.00     0.018 C 
HETATM    4  C5  UNL     1     -35.819  15.928  -3.341  1.00 20.00     0.010 C 
HETATM    5  C6  UNL     1     -34.082  14.859  -4.608  1.00 20.00     0.076 C 
HETATM    6  C7  UNL     1     -34.618  15.717  -2.423  1.00 20.00    -0.013 C 
HETATM    7  C8  UNL     1     -34.950  16.135  -4.586  1.00 20.00    -0.002 C 
ENDROOT
BRANCH   5   8
HETATM    8  C1  UNL     1     -34.763  13.736  -5.326  1.00 20.00     0.223 C 
HETATM    9  O9  UNL     1     -34.860  12.617  -4.830  1.00 20.00    -0.279 OA
HETATM   10 CL10 UNL     1     -35.365  14.222  -6.882  1.00 20.00    -0.043 Cl
ENDBRANCH   5   8
TORSDOF 1
ENDMDL
MODEL 8
REMARK VINA RESULT:      -4.4     11.469     12.575
REMARK  1 active torsions:
REMARK  status: ('A' for Active; 'I' for Inactive)
REMARK    1  A    between atoms: C1_1  and  C6_6 
ROOT
HETATM    1  C2  UNL     1     -32.727  14.953  -3.742  1.00 20.00     0.005 C 
HETATM    2  C3  UNL     1     -33.512  13.631  -3.728  1.00 20.00     0.006 C 
HETATM    3  C4  UNL     1     -34.856  16.250  -3.455  1.00 20.00     0.018 C 
HETATM    4  C5  UNL     1     -34.393  15.020  -5.439  1.00 20.00     0.010 C 
HETATM    5  C6  UNL     1     -35.622  14.918  -3.379  1.00 20.00     0.076 C 
HETATM    6  C7  UNL     1     -33.704  15.929  -4.425  1.00 20.00    -0.013 C 
HETATM    7  C8  UNL     1     -34.854  14.021  -4.372  1.00 20.00    -0.002 C 
ENDROOT
BRANCH   5   8
HETATM    8  C1  UNL     1     -37.057  15.085  -3.777  1.00 20.00     0.223 C 
HETATM    9  O9  UNL     1     -37.846  14.145  -3.756  1.00 20.00    -0.279 OA
HETATM   10 CL10 UNL     1     -37.420  16.717  -4.248  1.00 20.00    -0.043 Cl
ENDBRANCH   5   8
TORSDOF 1
ENDMDL
MODEL 9
REMARK VINA RESULT:      -4.3     12.210     13.439
REMARK  1 active torsions:
REMARK  status: ('A' for Active; 'I' for Inactive)
REMARK    1  A    between atoms: C1_1  and  C6_6 
ROOT
HETATM    1  C2  UNL     1     -35.722  16.909  -6.883  1.00 20.00     0.005 C 
HETATM    2  C3  UNL     1     -34.387  17.034  -6.131  1.00 20.00     0.006 C 
HETATM    3  C4  UNL     1     -36.253  14.795  -5.640  1.00 20.00     0.018 C 
HETATM    4  C5  UNL     1     -34.461  14.917  -7.201  1.00 20.00     0.010 C 
HETATM    5  C6  UNL     1     -34.945  14.965  -4.850  1.00 20.00     0.076 C 
HETATM    6  C7  UNL     1     -35.902  15.386  -7.019  1.00 20.00    -0.013 C 
HETATM    7  C8  UNL     1     -33.985  15.567  -5.898  1.00 20.00    -0.002 C 
ENDROOT
BRANCH   5   8
HETATM    8  C1  UNL     1     -34.444  13.655  -4.326  1.00 20.00     0.223 C 
HETATM    9  O9  UNL     1     -35.103  12.624  -4.426  1.00 20.00    -0.279 OA
HETATM   10 CL10 UNL     1     -32.875  13.800  -3.593  1.00 20.00    -0.043 Cl
ENDBRANCH   5   8
TORSDOF 1
ENDMDL
