MODEL 1
REMARK VINA RESULT:      -4.8      0.000      0.000
REMARK  3 active torsions:
REMARK  status: ('A' for Active; 'I' for Inactive)
REMARK    1  A    between atoms: C5_5  and  N9_9 
REMARK    2  A    between atoms: C6_6  and  C7_7 
REMARK    3  A    between atoms: C7_7  and  N9_9 
ROOT
HETATM    1  C1  UNL     1     -32.108   7.916   2.204  1.00 20.00     0.089 C 
HETATM    2  C5  UNL     1     -32.267   6.841   3.181  1.00 20.00     0.393 C 
HETATM    3  N8  UNL     1     -31.979   8.768   1.428  1.00 20.00    -0.195 NA
ENDROOT
BRANCH   2   4
HETATM    4  N9  UNL     1     -33.567   6.925   3.839  1.00 20.00     0.100 N 
HETATM    5  H23 UNL     1     -34.222   7.403   3.219  1.00 20.00     0.317 HD
BRANCH   4   6
HETATM    6  C7  UNL     1     -34.077   5.608   4.164  1.00 20.00     0.221 C 
HETATM    7  C4  UNL     1     -35.491   5.471   3.606  1.00 20.00     0.043 C 
BRANCH   6   8
HETATM    8  C6  UNL     1     -33.997   5.344   5.686  1.00 20.00     0.010 C 
HETATM    9  C2  UNL     1     -34.022   6.616   6.539  1.00 20.00     0.011 C 
HETATM   10  C3  UNL     1     -35.109   4.392   6.143  1.00 20.00     0.011 C 
ENDBRANCH   6   8
ENDBRANCH   4   6
ENDBRANCH   2   4
TORSDOF 3
ENDMDL
MODEL 2
REMARK VINA RESULT:      -4.8      0.557      1.303
REMARK  3 active torsions:
REMARK  status: ('A' for Active; 'I' for Inactive)
REMARK    1  A    between atoms: C5_5  and  N9_9 
REMARK    2  A    between atoms: C6_6  and  C7_7 
REMARK    3  A    between atoms: C7_7  and  N9_9 
ROOT
HETATM    1  C1  UNL     1     -32.116   8.058   2.144  1.00 20.00     0.089 C 
HETATM    2  C5  UNL     1     -32.074   6.833   2.939  1.00 20.00     0.393 C 
HETATM    3  N8  UNL     1     -32.146   9.030   1.510  1.00 20.00    -0.195 NA
ENDROOT
BRANCH   2   4
HETATM    4  N9  UNL     1     -33.062   6.876   4.012  1.00 20.00     0.100 N 
HETATM    5  H23 UNL     1     -33.738   7.615   3.810  1.00 20.00     0.317 HD
BRANCH   4   6
HETATM    6  C7  UNL     1     -33.751   5.608   4.143  1.00 20.00     0.221 C 
HETATM    7  C4  UNL     1     -34.535   5.334   2.861  1.00 20.00     0.043 C 
BRANCH   6   8
HETATM    8  C6  UNL     1     -34.636   5.588   5.411  1.00 20.00     0.010 C 
HETATM    9  C2  UNL     1     -34.896   4.183   5.964  1.00 20.00     0.011 C 
HETATM   10  C3  UNL     1     -34.050   6.478   6.512  1.00 20.00     0.011 C 
ENDBRANCH   6   8
ENDBRANCH   4   6
ENDBRANCH   2   4
TORSDOF 3
ENDMDL
MODEL 3
REMARK VINA RESULT:      -4.4      0.719      1.885
REMARK  3 active torsions:
REMARK  status: ('A' for Active; 'I' for Inactive)
REMARK    1  A    between atoms: C5_5  and  N9_9 
REMARK    2  A    between atoms: C6_6  and  C7_7 
REMARK    3  A    between atoms: C7_7  and  N9_9 
ROOT
HETATM    1  C1  UNL     1     -32.272   7.727   2.365  1.00 20.00     0.089 C 
HETATM    2  C5  UNL     1     -32.483   6.441   3.026  1.00 20.00     0.393 C 
HETATM    3  N8  UNL     1     -32.104   8.746   1.836  1.00 20.00    -0.195 NA
ENDROOT
BRANCH   2   4
HETATM    4  N9  UNL     1     -32.524   6.603   4.475  1.00 20.00     0.100 N 
HETATM    5  H23 UNL     1     -32.128   7.512   4.718  1.00 20.00     0.317 HD
BRANCH   4   6
HETATM    6  C7  UNL     1     -33.881   6.514   4.976  1.00 20.00     0.221 C 
HETATM    7  C4  UNL     1     -33.869   6.730   6.488  1.00 20.00     0.043 C 
BRANCH   6   8
HETATM    8  C6  UNL     1     -34.537   5.177   4.560  1.00 20.00     0.010 C 
HETATM    9  C2  UNL     1     -34.846   4.244   5.736  1.00 20.00     0.011 C 
HETATM   10  C3  UNL     1     -35.811   5.414   3.741  1.00 20.00     0.011 C 
ENDBRANCH   6   8
ENDBRANCH   4   6
ENDBRANCH   2   4
TORSDOF 3
ENDMDL
MODEL 4
REMARK VINA RESULT:      -4.0     11.382     12.164
REMARK  3 active torsions:
REMARK  status: ('A' for Active; 'I' for Inactive)
REMARK    1  A    between atoms: C5_5  and  N9_9 
REMARK    2  A    between atoms: C6_6  and  C7_7 
REMARK    3  A    between atoms: C7_7  and  N9_9 
ROOT
HETATM    1  C1  UNL     1     -35.592  13.678  -4.416  1.00 20.00     0.089 C 
HETATM    2  C5  UNL     1     -36.454  14.858  -4.404  1.00 20.00     0.393 C 
HETATM    3  N8  UNL     1     -34.908  12.741  -4.429  1.00 20.00    -0.195 NA
ENDROOT
BRANCH   2   4
HETATM    4  N9  UNL     1     -36.774  15.253  -3.037  1.00 20.00     0.100 N 
HETATM    5  H23 UNL     1     -36.532  14.488  -2.405  1.00 20.00     0.317 HD
BRANCH   4   6
HETATM    6  C7  UNL     1     -36.050  16.449  -2.652  1.00 20.00     0.221 C 
HETATM    7  C4  UNL     1     -35.794  17.296  -3.897  1.00 20.00     0.043 C 
BRANCH   6   8
HETATM    8  C6  UNL     1     -34.756  16.089  -1.887  1.00 20.00     0.010 C 
HETATM    9  C2  UNL     1     -33.475  16.299  -2.701  1.00 20.00     0.011 C 
HETATM   10  C3  UNL     1     -34.660  16.859  -0.565  1.00 20.00     0.011 C 
ENDBRANCH   6   8
ENDBRANCH   4   6
ENDBRANCH   2   4
TORSDOF 3
ENDMDL
MODEL 5
REMARK VINA RESULT:      -4.0     11.073     12.407
REMARK  3 active torsions:
REMARK  status: ('A' for Active; 'I' for Inactive)
REMARK    1  A    between atoms: C5_5  and  N9_9 
REMARK    2  A    between atoms: C6_6  and  C7_7 
REMARK    3  A    between atoms: C7_7  and  N9_9 
ROOT
HETATM    1  C1  UNL     1     -34.049  13.391  -4.148  1.00 20.00     0.089 C 
HETATM    2  C5  UNL     1     -32.896  14.093  -3.590  1.00 20.00     0.393 C 
HETATM    3  N8  UNL     1     -34.964  12.830  -4.590  1.00 20.00    -0.195 NA
ENDROOT
BRANCH   2   4
HETATM    4  N9  UNL     1     -32.719  15.393  -4.230  1.00 20.00     0.100 N 
HETATM    5  H23 UNL     1     -32.676  15.260  -5.242  1.00 20.00     0.317 HD
BRANCH   4   6
HETATM    6  C7  UNL     1     -33.809  16.291  -3.904  1.00 20.00     0.221 C 
HETATM    7  C4  UNL     1     -33.873  17.398  -4.954  1.00 20.00     0.043 C 
BRANCH   6   8
HETATM    8  C6  UNL     1     -33.668  16.831  -2.462  1.00 20.00     0.010 C 
HETATM    9  C2  UNL     1     -33.667  18.360  -2.368  1.00 20.00     0.011 C 
HETATM   10  C3  UNL     1     -34.754  16.257  -1.544  1.00 20.00     0.011 C 
ENDBRANCH   6   8
ENDBRANCH   4   6
ENDBRANCH   2   4
TORSDOF 3
ENDMDL
MODEL 6
REMARK VINA RESULT:      -3.8     11.439     12.352
REMARK  3 active torsions:
REMARK  status: ('A' for Active; 'I' for Inactive)
REMARK    1  A    between atoms: C5_5  and  N9_9 
REMARK    2  A    between atoms: C6_6  and  C7_7 
REMARK    3  A    between atoms: C7_7  and  N9_9 
ROOT
HETATM    1  C1  UNL     1     -37.808  15.257  -3.830  1.00 20.00     0.089 C 
HETATM    2  C5  UNL     1     -37.016  16.485  -3.855  1.00 20.00     0.393 C 
HETATM    3  N8  UNL     1     -38.440  14.284  -3.809  1.00 20.00    -0.195 NA
ENDROOT
BRANCH   2   4
HETATM    4  N9  UNL     1     -35.593  16.183  -3.959  1.00 20.00     0.100 N 
HETATM    5  H23 UNL     1     -35.067  17.059  -3.955  1.00 20.00     0.317 HD
BRANCH   4   6
HETATM    6  C7  UNL     1     -35.152  15.345  -2.862  1.00 20.00     0.221 C 
HETATM    7  C4  UNL     1     -34.612  16.234  -1.744  1.00 20.00     0.043 C 
BRANCH   6   8
HETATM    8  C6  UNL     1     -34.129  14.291  -3.346  1.00 20.00     0.010 C 
HETATM    9  C2  UNL     1     -34.633  13.424  -4.505  1.00 20.00     0.011 C 
HETATM   10  C3  UNL     1     -32.797  14.946  -3.730  1.00 20.00     0.011 C 
ENDBRANCH   6   8
ENDBRANCH   4   6
ENDBRANCH   2   4
TORSDOF 3
ENDMDL
MODEL 7
REMARK VINA RESULT:      -3.8     11.110     13.488
REMARK  3 active torsions:
REMARK  status: ('A' for Active; 'I' for Inactive)
REMARK    1  A    between atoms: C5_5  and  N9_9 
REMARK    2  A    between atoms: C6_6  and  C7_7 
REMARK    3  A    between atoms: C7_7  and  N9_9 
ROOT
HETATM    1  C1  UNL     1     -34.154  13.770  -3.939  1.00 20.00     0.089 C 
HETATM    2  C5  UNL     1     -33.346  14.940  -3.604  1.00 20.00     0.393 C 
HETATM    3  N8  UNL     1     -34.796  12.840  -4.202  1.00 20.00    -0.195 NA
ENDROOT
BRANCH   2   4
HETATM    4  N9  UNL     1     -32.781  15.543  -4.807  1.00 20.00     0.100 N 
HETATM    5  H23 UNL     1     -32.979  14.938  -5.605  1.00 20.00     0.317 HD
BRANCH   4   6
HETATM    6  C7  UNL     1     -33.337  16.860  -5.045  1.00 20.00     0.221 C 
HETATM    7  C4  UNL     1     -33.857  17.426  -3.726  1.00 20.00     0.043 C 
BRANCH   6   8
HETATM    8  C6  UNL     1     -34.416  16.812  -6.151  1.00 20.00     0.010 C 
HETATM    9  C2  UNL     1     -34.290  15.608  -7.090  1.00 20.00     0.011 C 
HETATM   10  C3  UNL     1     -35.827  16.857  -5.554  1.00 20.00     0.011 C 
ENDBRANCH   6   8
ENDBRANCH   4   6
ENDBRANCH   2   4
TORSDOF 3
ENDMDL
MODEL 8
REMARK VINA RESULT:      -3.8     11.324     12.648
REMARK  3 active torsions:
REMARK  status: ('A' for Active; 'I' for Inactive)
REMARK    1  A    between atoms: C5_5  and  N9_9 
REMARK    2  A    between atoms: C6_6  and  C7_7 
REMARK    3  A    between atoms: C7_7  and  N9_9 
ROOT
HETATM    1  C1  UNL     1     -35.504  13.713  -4.239  1.00 20.00     0.089 C 
HETATM    2  C5  UNL     1     -36.408  14.844  -4.042  1.00 20.00     0.393 C 
HETATM    3  N8  UNL     1     -34.788  12.814  -4.399  1.00 20.00    -0.195 NA
ENDROOT
BRANCH   2   4
HETATM    4  N9  UNL     1     -36.116  15.530  -2.788  1.00 20.00     0.100 N 
HETATM    5  H23 UNL     1     -36.296  14.891  -2.011  1.00 20.00     0.317 HD
BRANCH   4   6
HETATM    6  C7  UNL     1     -34.737  15.975  -2.742  1.00 20.00     0.221 C 
HETATM    7  C4  UNL     1     -34.418  16.461  -1.329  1.00 20.00     0.043 C 
BRANCH   6   8
HETATM    8  C6  UNL     1     -34.465  17.043  -3.826  1.00 20.00     0.010 C 
HETATM    9  C2  UNL     1     -34.222  18.449  -3.266  1.00 20.00     0.011 C 
HETATM   10  C3  UNL     1     -33.292  16.636  -4.725  1.00 20.00     0.011 C 
ENDBRANCH   6   8
ENDBRANCH   4   6
ENDBRANCH   2   4
TORSDOF 3
ENDMDL
MODEL 9
REMARK VINA RESULT:      -3.7     11.196     12.858
REMARK  3 active torsions:
REMARK  status: ('A' for Active; 'I' for Inactive)
REMARK    1  A    between atoms: C5_5  and  N9_9 
REMARK    2  A    between atoms: C6_6  and  C7_7 
REMARK    3  A    between atoms: C7_7  and  N9_9 
ROOT
HETATM    1  C1  UNL     1     -37.710  14.581  -3.848  1.00 20.00     0.089 C 
HETATM    2  C5  UNL     1     -36.265  14.789  -3.787  1.00 20.00     0.393 C 
HETATM    3  N8  UNL     1     -38.858  14.420  -3.895  1.00 20.00    -0.195 NA
ENDROOT
BRANCH   2   4
HETATM    4  N9  UNL     1     -35.550  13.597  -4.229  1.00 20.00     0.100 N 
HETATM    5  H23 UNL     1     -36.120  13.106  -4.921  1.00 20.00     0.317 HD
BRANCH   4   6
HETATM    6  C7  UNL     1     -34.268  13.940  -4.811  1.00 20.00     0.221 C 
HETATM    7  C4  UNL     1     -33.203  13.920  -3.717  1.00 20.00     0.043 C 
BRANCH   6   8
HETATM    8  C6  UNL     1     -34.343  15.292  -5.558  1.00 20.00     0.010 C 
HETATM    9  C2  UNL     1     -33.232  16.275  -5.177  1.00 20.00     0.011 C 
HETATM   10  C3  UNL     1     -34.354  15.087  -7.078  1.00 20.00     0.011 C 
ENDBRANCH   6   8
ENDBRANCH   4   6
ENDBRANCH   2   4
TORSDOF 3
ENDMDL
