MODEL 1
REMARK VINA RESULT:      -4.0      0.000      0.000
REMARK  4 active torsions:
REMARK  status: ('A' for Active; 'I' for Inactive)
REMARK    1  A    between atoms: C2_2  and  C5_5 
REMARK    2  A    between atoms: C5_5  and  S9_9 
REMARK    3  A    between atoms: C6_6  and  C7_7 
REMARK    4  A    between atoms: C6_6  and  S9_9 
ROOT
HETATM    1  S9  UNL     1     -32.504   5.943   3.137  1.00 20.00    -0.166 SA
ENDROOT
BRANCH   1   2
HETATM    2  C5  UNL     1     -32.011   7.679   3.031  1.00 20.00     0.108 C 
BRANCH   2   3
HETATM    3  C2  UNL     1     -32.524   8.301   1.746  1.00 20.00     0.154 A 
HETATM    4  C1  UNL     1     -32.300   9.756   1.442  1.00 20.00     0.201 A 
HETATM    5  O8  UNL     1     -31.501   8.725   0.840  1.00 20.00    -0.380 OA
ENDBRANCH   2   3
ENDBRANCH   1   2
BRANCH   1   6
HETATM    6  C6  UNL     1     -34.024   6.165   4.113  1.00 20.00     0.077 C 
BRANCH   6   7
HETATM    7  C7  UNL     1     -33.960   5.645   5.559  1.00 20.00    -0.013 C 
HETATM    8  C3  UNL     1     -33.953   6.773   6.595  1.00 20.00     0.010 C 
HETATM    9  C4  UNL     1     -35.064   4.633   5.875  1.00 20.00     0.010 C 
ENDBRANCH   6   7
ENDBRANCH   1   6
TORSDOF 4
ENDMDL
MODEL 2
REMARK VINA RESULT:      -3.7     10.703     11.254
REMARK  4 active torsions:
REMARK  status: ('A' for Active; 'I' for Inactive)
REMARK    1  A    between atoms: C2_2  and  C5_5 
REMARK    2  A    between atoms: C5_5  and  S9_9 
REMARK    3  A    between atoms: C6_6  and  C7_7 
REMARK    4  A    between atoms: C6_6  and  S9_9 
ROOT
HETATM    1  S9  UNL     1     -34.164  16.986  -3.457  1.00 20.00    -0.166 SA
ENDROOT
BRANCH   1   2
HETATM    2  C5  UNL     1     -33.309  15.493  -4.011  1.00 20.00     0.108 C 
BRANCH   2   3
HETATM    3  C2  UNL     1     -34.037  14.253  -3.527  1.00 20.00     0.154 A 
HETATM    4  C1  UNL     1     -34.694  13.309  -4.495  1.00 20.00     0.201 A 
HETATM    5  O8  UNL     1     -33.420  13.016  -3.900  1.00 20.00    -0.380 OA
ENDBRANCH   2   3
ENDBRANCH   1   2
BRANCH   1   6
HETATM    6  C6  UNL     1     -34.709  16.384  -1.829  1.00 20.00     0.077 C 
BRANCH   6   7
HETATM    7  C7  UNL     1     -34.104  17.116  -0.619  1.00 20.00    -0.013 C 
HETATM    8  C3  UNL     1     -33.360  18.395  -1.012  1.00 20.00     0.010 C 
HETATM    9  C4  UNL     1     -35.136  17.409   0.473  1.00 20.00     0.010 C 
ENDBRANCH   6   7
ENDBRANCH   1   6
TORSDOF 4
ENDMDL
MODEL 3
REMARK VINA RESULT:      -3.7     10.820     11.531
REMARK  4 active torsions:
REMARK  status: ('A' for Active; 'I' for Inactive)
REMARK    1  A    between atoms: C2_2  and  C5_5 
REMARK    2  A    between atoms: C5_5  and  S9_9 
REMARK    3  A    between atoms: C6_6  and  C7_7 
REMARK    4  A    between atoms: C6_6  and  S9_9 
ROOT
HETATM    1  S9  UNL     1     -36.574  16.297  -4.222  1.00 20.00    -0.166 SA
ENDROOT
BRANCH   1   2
HETATM    2  C5  UNL     1     -36.374  14.530  -3.901  1.00 20.00     0.108 C 
BRANCH   2   3
HETATM    3  C2  UNL     1     -35.289  13.947  -4.787  1.00 20.00     0.154 A 
HETATM    4  C1  UNL     1     -33.963  13.524  -4.218  1.00 20.00     0.201 A 
HETATM    5  O8  UNL     1     -34.989  12.570  -4.535  1.00 20.00    -0.380 OA
ENDBRANCH   2   3
ENDBRANCH   1   2
BRANCH   1   6
HETATM    6  C6  UNL     1     -36.200  16.908  -2.550  1.00 20.00     0.077 C 
BRANCH   6   7
HETATM    7  C7  UNL     1     -34.865  16.428  -1.956  1.00 20.00    -0.013 C 
HETATM    8  C3  UNL     1     -33.655  16.866  -2.787  1.00 20.00     0.010 C 
HETATM    9  C4  UNL     1     -34.686  16.836  -0.491  1.00 20.00     0.010 C 
ENDBRANCH   6   7
ENDBRANCH   1   6
TORSDOF 4
ENDMDL
MODEL 4
REMARK VINA RESULT:      -3.4     11.102     11.869
REMARK  4 active torsions:
REMARK  status: ('A' for Active; 'I' for Inactive)
REMARK    1  A    between atoms: C2_2  and  C5_5 
REMARK    2  A    between atoms: C5_5  and  S9_9 
REMARK    3  A    between atoms: C6_6  and  C7_7 
REMARK    4  A    between atoms: C6_6  and  S9_9 
ROOT
HETATM    1  S9  UNL     1     -34.299  15.473  -4.787  1.00 20.00    -0.166 SA
ENDROOT
BRANCH   1   2
HETATM    2  C5  UNL     1     -35.909  14.673  -4.971  1.00 20.00     0.108 C 
BRANCH   2   3
HETATM    3  C2  UNL     1     -36.703  14.773  -3.682  1.00 20.00     0.154 A 
HETATM    4  C1  UNL     1     -37.965  15.586  -3.606  1.00 20.00     0.201 A 
HETATM    5  O8  UNL     1     -37.993  14.155  -3.728  1.00 20.00    -0.380 OA
ENDBRANCH   2   3
ENDBRANCH   1   2
BRANCH   1   6
HETATM    6  C6  UNL     1     -34.069  15.186  -3.005  1.00 20.00     0.077 C 
BRANCH   6   7
HETATM    7  C7  UNL     1     -33.792  16.444  -2.165  1.00 20.00    -0.013 C 
HETATM    8  C3  UNL     1     -33.799  17.727  -2.999  1.00 20.00     0.010 C 
HETATM    9  C4  UNL     1     -34.735  16.577  -0.967  1.00 20.00     0.010 C 
ENDBRANCH   6   7
ENDBRANCH   1   6
TORSDOF 4
ENDMDL
MODEL 5
REMARK VINA RESULT:      -3.4     11.049     11.863
REMARK  4 active torsions:
REMARK  status: ('A' for Active; 'I' for Inactive)
REMARK    1  A    between atoms: C2_2  and  C5_5 
REMARK    2  A    between atoms: C5_5  and  S9_9 
REMARK    3  A    between atoms: C6_6  and  C7_7 
REMARK    4  A    between atoms: C6_6  and  S9_9 
ROOT
HETATM    1  S9  UNL     1     -33.728  13.932  -3.784  1.00 20.00    -0.166 SA
ENDROOT
BRANCH   1   2
HETATM    2  C5  UNL     1     -34.822  13.519  -5.162  1.00 20.00     0.108 C 
BRANCH   2   3
HETATM    3  C2  UNL     1     -34.745  14.584  -6.240  1.00 20.00     0.154 A 
HETATM    4  C1  UNL     1     -35.479  14.427  -7.543  1.00 20.00     0.201 A 
HETATM    5  O8  UNL     1     -35.976  15.269  -6.491  1.00 20.00    -0.380 OA
ENDBRANCH   2   3
ENDBRANCH   1   2
BRANCH   1   6
HETATM    6  C6  UNL     1     -34.768  15.203  -3.000  1.00 20.00     0.077 C 
BRANCH   6   7
HETATM    7  C7  UNL     1     -34.005  16.303  -2.243  1.00 20.00    -0.013 C 
HETATM    8  C3  UNL     1     -33.842  17.584  -3.065  1.00 20.00     0.010 C 
HETATM    9  C4  UNL     1     -34.619  16.617  -0.876  1.00 20.00     0.010 C 
ENDBRANCH   6   7
ENDBRANCH   1   6
TORSDOF 4
ENDMDL
MODEL 6
REMARK VINA RESULT:      -3.4      2.458      5.337
REMARK  4 active torsions:
REMARK  status: ('A' for Active; 'I' for Inactive)
REMARK    1  A    between atoms: C2_2  and  C5_5 
REMARK    2  A    between atoms: C5_5  and  S9_9 
REMARK    3  A    between atoms: C6_6  and  C7_7 
REMARK    4  A    between atoms: C6_6  and  S9_9 
ROOT
HETATM    1  S9  UNL     1     -32.459   6.160   3.017  1.00 20.00    -0.166 SA
ENDROOT
BRANCH   1   2
HETATM    2  C5  UNL     1     -33.781   6.417   4.221  1.00 20.00     0.108 C 
BRANCH   2   3
HETATM    3  C2  UNL     1     -34.158   5.107   4.886  1.00 20.00     0.154 A 
HETATM    4  C1  UNL     1     -34.903   5.082   6.192  1.00 20.00     0.201 A 
HETATM    5  O8  UNL     1     -35.565   4.848   4.939  1.00 20.00    -0.380 OA
ENDBRANCH   2   3
ENDBRANCH   1   2
BRANCH   1   6
HETATM    6  C6  UNL     1     -31.895   7.884   2.879  1.00 20.00     0.077 C 
BRANCH   6   7
HETATM    7  C7  UNL     1     -32.398   8.645   1.641  1.00 20.00    -0.013 C 
HETATM    8  C3  UNL     1     -32.730  10.110   1.941  1.00 20.00     0.010 C 
HETATM    9  C4  UNL     1     -31.439   8.544   0.452  1.00 20.00     0.010 C 
ENDBRANCH   6   7
ENDBRANCH   1   6
TORSDOF 4
ENDMDL
MODEL 7
REMARK VINA RESULT:      -3.3     10.990     12.272
REMARK  4 active torsions:
REMARK  status: ('A' for Active; 'I' for Inactive)
REMARK    1  A    between atoms: C2_2  and  C5_5 
REMARK    2  A    between atoms: C5_5  and  S9_9 
REMARK    3  A    between atoms: C6_6  and  C7_7 
REMARK    4  A    between atoms: C6_6  and  S9_9 
ROOT
HETATM    1  S9  UNL     1     -35.285  17.047  -5.040  1.00 20.00    -0.166 SA
ENDROOT
BRANCH   1   2
HETATM    2  C5  UNL     1     -36.592  15.825  -5.295  1.00 20.00     0.108 C 
BRANCH   2   3
HETATM    3  C2  UNL     1     -37.264  15.481  -3.978  1.00 20.00     0.154 A 
HETATM    4  C1  UNL     1     -38.628  14.851  -3.942  1.00 20.00     0.201 A 
HETATM    5  O8  UNL     1     -37.433  14.080  -3.744  1.00 20.00    -0.380 OA
ENDBRANCH   2   3
ENDBRANCH   1   2
BRANCH   1   6
HETATM    6  C6  UNL     1     -33.855  15.931  -5.187  1.00 20.00     0.077 C 
BRANCH   6   7
HETATM    7  C7  UNL     1     -33.394  15.274  -3.875  1.00 20.00    -0.013 C 
HETATM    8  C3  UNL     1     -33.808  16.072  -2.636  1.00 20.00     0.010 C 
HETATM    9  C4  UNL     1     -33.845  13.816  -3.751  1.00 20.00     0.010 C 
ENDBRANCH   6   7
ENDBRANCH   1   6
TORSDOF 4
ENDMDL
MODEL 8
REMARK VINA RESULT:      -3.3     10.905     12.245
REMARK  4 active torsions:
REMARK  status: ('A' for Active; 'I' for Inactive)
REMARK    1  A    between atoms: C2_2  and  C5_5 
REMARK    2  A    between atoms: C5_5  and  S9_9 
REMARK    3  A    between atoms: C6_6  and  C7_7 
REMARK    4  A    between atoms: C6_6  and  S9_9 
ROOT
HETATM    1  S9  UNL     1     -34.930  14.719  -6.116  1.00 20.00    -0.166 SA
ENDROOT
BRANCH   1   2
HETATM    2  C5  UNL     1     -35.291  16.490  -6.080  1.00 20.00     0.108 C 
BRANCH   2   3
HETATM    3  C2  UNL     1     -34.009  17.296  -6.167  1.00 20.00     0.154 A 
HETATM    4  C1  UNL     1     -33.573  18.189  -5.039  1.00 20.00     0.201 A 
HETATM    5  O8  UNL     1     -32.989  16.894  -5.248  1.00 20.00    -0.380 OA
ENDBRANCH   2   3
ENDBRANCH   1   2
BRANCH   1   6
HETATM    6  C6  UNL     1     -35.664  14.273  -4.512  1.00 20.00     0.077 C 
BRANCH   6   7
HETATM    7  C7  UNL     1     -34.684  14.231  -3.328  1.00 20.00    -0.013 C 
HETATM    8  C3  UNL     1     -33.273  13.807  -3.742  1.00 20.00     0.010 C 
HETATM    9  C4  UNL     1     -34.642  15.546  -2.546  1.00 20.00     0.010 C 
ENDBRANCH   6   7
ENDBRANCH   1   6
TORSDOF 4
ENDMDL
MODEL 9
REMARK VINA RESULT:      -3.2     11.437     12.276
REMARK  4 active torsions:
REMARK  status: ('A' for Active; 'I' for Inactive)
REMARK    1  A    between atoms: C2_2  and  C5_5 
REMARK    2  A    between atoms: C5_5  and  S9_9 
REMARK    3  A    between atoms: C6_6  and  C7_7 
REMARK    4  A    between atoms: C6_6  and  S9_9 
ROOT
HETATM    1  S9  UNL     1     -35.798  17.224  -4.319  1.00 20.00    -0.166 SA
ENDROOT
BRANCH   1   2
HETATM    2  C5  UNL     1     -36.960  15.982  -4.929  1.00 20.00     0.108 C 
BRANCH   2   3
HETATM    3  C2  UNL     1     -37.855  15.493  -3.805  1.00 20.00     0.154 A 
HETATM    4  C1  UNL     1     -39.199  14.884  -4.090  1.00 20.00     0.201 A 
HETATM    5  O8  UNL     1     -38.054  14.076  -3.776  1.00 20.00    -0.380 OA
ENDBRANCH   2   3
ENDBRANCH   1   2
BRANCH   1   6
HETATM    6  C6  UNL     1     -36.059  16.970  -2.537  1.00 20.00     0.077 C 
BRANCH   6   7
HETATM    7  C7  UNL     1     -34.910  16.263  -1.797  1.00 20.00    -0.013 C 
HETATM    8  C3  UNL     1     -33.654  16.113  -2.659  1.00 20.00     0.010 C 
HETATM    9  C4  UNL     1     -34.568  16.927  -0.461  1.00 20.00     0.010 C 
ENDBRANCH   6   7
ENDBRANCH   1   6
TORSDOF 4
ENDMDL
