MODEL 1
REMARK VINA RESULT:      -4.0      0.000      0.000
REMARK  1 active torsions:
REMARK  status: ('A' for Active; 'I' for Inactive)
REMARK    1  A    between atoms: C1_1  and  C5_5 
ROOT
HETATM    1  C2  UNL     1     -35.053   4.820   5.758  1.00 20.00     0.193 C 
HETATM    2  C3  UNL     1     -34.303   6.062   6.207  1.00 20.00     0.195 C 
HETATM    3  C4  UNL     1     -34.500   5.292   3.521  1.00 20.00     0.206 C 
HETATM    4  C5  UNL     1     -33.746   6.532   3.976  1.00 20.00     0.206 C 
HETATM    5  O7  UNL     1     -35.562   5.016   4.436  1.00 20.00    -0.386 OA
HETATM    6  O8  UNL     1     -33.239   6.340   5.295  1.00 20.00    -0.375 OA
ENDROOT
BRANCH   4   7
HETATM    7  C1  UNL     1     -32.542   6.773   3.128  1.00 20.00     0.265 C 
HETATM    8  O6  UNL     1     -32.380   7.786   2.455  1.00 20.00    -0.304 OA
ENDBRANCH   4   7
TORSDOF 1
ENDMDL
MODEL 2
REMARK VINA RESULT:      -3.6     11.283     12.158
REMARK  1 active torsions:
REMARK  status: ('A' for Active; 'I' for Inactive)
REMARK    1  A    between atoms: C1_1  and  C5_5 
ROOT
HETATM    1  C2  UNL     1     -33.018  14.564  -3.809  1.00 20.00     0.193 C 
HETATM    2  C3  UNL     1     -33.825  15.660  -3.133  1.00 20.00     0.195 C 
HETATM    3  C4  UNL     1     -34.998  13.371  -4.243  1.00 20.00     0.206 C 
HETATM    4  C5  UNL     1     -35.803  14.472  -3.570  1.00 20.00     0.206 C 
HETATM    5  O7  UNL     1     -33.692  13.311  -3.665  1.00 20.00    -0.386 OA
HETATM    6  O8  UNL     1     -35.131  15.723  -3.709  1.00 20.00    -0.375 OA
ENDROOT
BRANCH   4   7
HETATM    7  C1  UNL     1     -37.122  14.663  -4.239  1.00 20.00     0.265 C 
HETATM    8  O6  UNL     1     -38.179  14.239  -3.783  1.00 20.00    -0.304 OA
ENDBRANCH   4   7
TORSDOF 1
ENDMDL
MODEL 3
REMARK VINA RESULT:      -3.5     11.433     12.660
REMARK  1 active torsions:
REMARK  status: ('A' for Active; 'I' for Inactive)
REMARK    1  A    between atoms: C1_1  and  C5_5 
ROOT
HETATM    1  C2  UNL     1     -33.661  17.356  -3.531  1.00 20.00     0.193 C 
HETATM    2  C3  UNL     1     -33.873  16.449  -2.330  1.00 20.00     0.195 C 
HETATM    3  C4  UNL     1     -33.849  15.502  -4.966  1.00 20.00     0.206 C 
HETATM    4  C5  UNL     1     -34.066  14.599  -3.762  1.00 20.00     0.206 C 
HETATM    5  O7  UNL     1     -33.041  16.619  -4.588  1.00 20.00    -0.386 OA
HETATM    6  O8  UNL     1     -34.682  15.333  -2.705  1.00 20.00    -0.375 OA
ENDROOT
BRANCH   4   7
HETATM    7  C1  UNL     1     -35.021  13.497  -4.078  1.00 20.00     0.265 C 
HETATM    8  O6  UNL     1     -34.753  12.565  -4.829  1.00 20.00    -0.304 OA
ENDBRANCH   4   7
TORSDOF 1
ENDMDL
MODEL 4
REMARK VINA RESULT:      -3.5     11.478     12.251
REMARK  1 active torsions:
REMARK  status: ('A' for Active; 'I' for Inactive)
REMARK    1  A    between atoms: C1_1  and  C5_5 
ROOT
HETATM    1  C2  UNL     1     -33.438  13.747  -3.747  1.00 20.00     0.193 C 
HETATM    2  C3  UNL     1     -34.448  13.245  -4.766  1.00 20.00     0.195 C 
HETATM    3  C4  UNL     1     -34.951  15.416  -3.068  1.00 20.00     0.206 C 
HETATM    4  C5  UNL     1     -35.960  14.907  -4.086  1.00 20.00     0.206 C 
HETATM    5  O7  UNL     1     -33.626  15.149  -3.533  1.00 20.00    -0.386 OA
HETATM    6  O8  UNL     1     -35.773  13.509  -4.302  1.00 20.00    -0.375 OA
ENDROOT
BRANCH   4   7
HETATM    7  C1  UNL     1     -37.356  15.037  -3.574  1.00 20.00     0.265 C 
HETATM    8  O6  UNL     1     -38.223  14.189  -3.753  1.00 20.00    -0.304 OA
ENDBRANCH   4   7
TORSDOF 1
ENDMDL
MODEL 5
REMARK VINA RESULT:      -3.4     11.723     12.153
REMARK  1 active torsions:
REMARK  status: ('A' for Active; 'I' for Inactive)
REMARK    1  A    between atoms: C1_1  and  C5_5 
ROOT
HETATM    1  C2  UNL     1     -34.968  16.319  -1.892  1.00 20.00     0.193 C 
HETATM    2  C3  UNL     1     -33.664  16.239  -2.668  1.00 20.00     0.195 C 
HETATM    3  C4  UNL     1     -36.024  14.994  -3.524  1.00 20.00     0.206 C 
HETATM    4  C5  UNL     1     -34.716  14.912  -4.295  1.00 20.00     0.206 C 
HETATM    5  O7  UNL     1     -36.073  16.222  -2.794  1.00 20.00    -0.386 OA
HETATM    6  O8  UNL     1     -33.612  15.011  -3.397  1.00 20.00    -0.375 OA
ENDROOT
BRANCH   4   7
HETATM    7  C1  UNL     1     -34.560  13.583  -4.956  1.00 20.00     0.265 C 
HETATM    8  O6  UNL     1     -34.993  12.538  -4.483  1.00 20.00    -0.304 OA
ENDBRANCH   4   7
TORSDOF 1
ENDMDL
MODEL 6
REMARK VINA RESULT:      -3.4      1.063      1.833
REMARK  1 active torsions:
REMARK  status: ('A' for Active; 'I' for Inactive)
REMARK    1  A    between atoms: C1_1  and  C5_5 
ROOT
HETATM    1  C2  UNL     1     -35.288   4.813   6.141  1.00 20.00     0.193 C 
HETATM    2  C3  UNL     1     -35.004   4.159   4.799  1.00 20.00     0.195 C 
HETATM    3  C4  UNL     1     -33.757   6.525   5.633  1.00 20.00     0.206 C 
HETATM    4  C5  UNL     1     -33.479   5.870   4.289  1.00 20.00     0.206 C 
HETATM    5  O7  UNL     1     -34.130   5.526   6.585  1.00 20.00    -0.386 OA
HETATM    6  O8  UNL     1     -34.632   5.156   3.846  1.00 20.00    -0.375 OA
ENDROOT
BRANCH   4   7
HETATM    7  C1  UNL     1     -33.225   6.892   3.232  1.00 20.00     0.265 C 
HETATM    8  O6  UNL     1     -32.104   7.180   2.827  1.00 20.00    -0.304 OA
ENDBRANCH   4   7
TORSDOF 1
ENDMDL
MODEL 7
REMARK VINA RESULT:      -3.3     11.419     12.849
REMARK  1 active torsions:
REMARK  status: ('A' for Active; 'I' for Inactive)
REMARK    1  A    between atoms: C1_1  and  C5_5 
ROOT
HETATM    1  C2  UNL     1     -38.180  15.850  -5.042  1.00 20.00     0.193 C 
HETATM    2  C3  UNL     1     -38.272  14.909  -3.853  1.00 20.00     0.195 C 
HETATM    3  C4  UNL     1     -35.835  15.672  -5.006  1.00 20.00     0.206 C 
HETATM    4  C5  UNL     1     -35.931  14.726  -3.819  1.00 20.00     0.206 C 
HETATM    5  O7  UNL     1     -36.946  16.571  -4.992  1.00 20.00    -0.386 OA
HETATM    6  O8  UNL     1     -37.163  14.008  -3.864  1.00 20.00    -0.375 OA
ENDROOT
BRANCH   4   7
HETATM    7  C1  UNL     1     -34.869  13.679  -3.874  1.00 20.00     0.265 C 
HETATM    8  O6  UNL     1     -35.001  12.614  -4.468  1.00 20.00    -0.304 OA
ENDBRANCH   4   7
TORSDOF 1
ENDMDL
MODEL 8
REMARK VINA RESULT:      -3.3     11.664     13.539
REMARK  1 active torsions:
REMARK  status: ('A' for Active; 'I' for Inactive)
REMARK    1  A    between atoms: C1_1  and  C5_5 
ROOT
HETATM    1  C2  UNL     1     -34.116  17.082  -6.179  1.00 20.00     0.193 C 
HETATM    2  C3  UNL     1     -33.483  16.976  -4.802  1.00 20.00     0.195 C 
HETATM    3  C4  UNL     1     -34.612  14.783  -6.131  1.00 20.00     0.206 C 
HETATM    4  C5  UNL     1     -33.982  14.682  -4.751  1.00 20.00     0.206 C 
HETATM    5  O7  UNL     1     -33.985  15.835  -6.867  1.00 20.00    -0.386 OA
HETATM    6  O8  UNL     1     -34.109  15.925  -4.063  1.00 20.00    -0.375 OA
ENDROOT
BRANCH   4   7
HETATM    7  C1  UNL     1     -34.703  13.692  -3.899  1.00 20.00     0.265 C 
HETATM    8  O6  UNL     1     -35.091  12.603  -4.309  1.00 20.00    -0.304 OA
ENDBRANCH   4   7
TORSDOF 1
ENDMDL
MODEL 9
REMARK VINA RESULT:      -3.3     11.523     12.379
REMARK  1 active torsions:
REMARK  status: ('A' for Active; 'I' for Inactive)
REMARK    1  A    between atoms: C1_1  and  C5_5 
ROOT
HETATM    1  C2  UNL     1     -34.813  17.189  -2.879  1.00 20.00     0.193 C 
HETATM    2  C3  UNL     1     -35.940  16.171  -2.921  1.00 20.00     0.195 C 
HETATM    3  C4  UNL     1     -33.265  15.501  -3.414  1.00 20.00     0.206 C 
HETATM    4  C5  UNL     1     -34.396  14.486  -3.460  1.00 20.00     0.206 C 
HETATM    5  O7  UNL     1     -33.595  16.545  -2.495  1.00 20.00    -0.386 OA
HETATM    6  O8  UNL     1     -35.612  15.127  -3.840  1.00 20.00    -0.375 OA
ENDROOT
BRANCH   4   7
HETATM    7  C1  UNL     1     -34.155  13.456  -4.512  1.00 20.00     0.265 C 
HETATM    8  O6  UNL     1     -34.921  12.524  -4.733  1.00 20.00    -0.304 OA
ENDBRANCH   4   7
TORSDOF 1
ENDMDL
