MODEL 1
REMARK VINA RESULT:      -3.0      0.000      0.000
REMARK  1 active torsions:
REMARK  status: ('A' for Active; 'I' for Inactive)
REMARK    1  A    between atoms: C4_4  and  S6_6 
ROOT
HETATM    1  C1  UNL     1     -34.626   5.505   3.516  1.00 20.00     0.026 C 
HETATM    2  C2  UNL     1     -35.219   4.624   4.604  1.00 20.00     0.075 C 
HETATM    3  C3  UNL     1     -33.454   6.481   5.421  1.00 20.00     0.088 C 
HETATM    4  C4  UNL     1     -33.248   5.925   4.018  1.00 20.00     0.054 C 
HETATM    5  S5  UNL     1     -34.704   5.392   6.165  1.00 20.00    -0.168 SA
ENDROOT
BRANCH   4   6
HETATM    6  S6  UNL     1     -32.493   7.166   2.927  1.00 20.00    -0.177 SA
HETATM    7  H14 UNL     1     -32.934   6.619   1.788  1.00 20.00     0.102 HD
ENDBRANCH   4   6
TORSDOF 1
ENDMDL
MODEL 2
REMARK VINA RESULT:      -2.8      0.988      1.795
REMARK  1 active torsions:
REMARK  status: ('A' for Active; 'I' for Inactive)
REMARK    1  A    between atoms: C4_4  and  S6_6 
ROOT
HETATM    1  C1  UNL     1     -33.433   6.371   5.525  1.00 20.00     0.026 C 
HETATM    2  C2  UNL     1     -34.596   5.714   6.251  1.00 20.00     0.075 C 
HETATM    3  C3  UNL     1     -34.345   5.117   3.641  1.00 20.00     0.088 C 
HETATM    4  C4  UNL     1     -33.863   6.497   4.067  1.00 20.00     0.054 C 
HETATM    5  S5  UNL     1     -35.239   4.478   5.088  1.00 20.00    -0.168 SA
ENDROOT
BRANCH   4   6
HETATM    6  S6  UNL     1     -32.493   7.065   3.017  1.00 20.00    -0.177 SA
HETATM    7  H14 UNL     1     -32.256   8.184   3.713  1.00 20.00     0.102 HD
ENDBRANCH   4   6
TORSDOF 1
ENDMDL
MODEL 3
REMARK VINA RESULT:      -2.6     11.741     12.660
REMARK  1 active torsions:
REMARK  status: ('A' for Active; 'I' for Inactive)
REMARK    1  A    between atoms: C4_4  and  S6_6 
ROOT
HETATM    1  C1  UNL     1     -34.183  13.906  -3.558  1.00 20.00     0.026 C 
HETATM    2  C2  UNL     1     -34.575  13.187  -4.840  1.00 20.00     0.075 C 
HETATM    3  C3  UNL     1     -35.118  15.820  -4.749  1.00 20.00     0.088 C 
HETATM    4  C4  UNL     1     -35.150  15.078  -3.419  1.00 20.00     0.054 C 
HETATM    5  S5  UNL     1     -35.019  14.507  -6.002  1.00 20.00    -0.168 SA
ENDROOT
BRANCH   4   6
HETATM    6  S6  UNL     1     -34.676  16.171  -2.048  1.00 20.00    -0.177 SA
HETATM    7  H14 UNL     1     -33.359  16.088  -2.269  1.00 20.00     0.102 HD
ENDBRANCH   4   6
TORSDOF 1
ENDMDL
MODEL 4
REMARK VINA RESULT:      -2.5     12.284     13.227
REMARK  1 active torsions:
REMARK  status: ('A' for Active; 'I' for Inactive)
REMARK    1  A    between atoms: C4_4  and  S6_6 
ROOT
HETATM    1  C1  UNL     1     -34.838  13.580  -4.921  1.00 20.00     0.026 C 
HETATM    2  C2  UNL     1     -33.733  13.685  -3.882  1.00 20.00     0.075 C 
HETATM    3  C3  UNL     1     -34.159  15.879  -5.377  1.00 20.00     0.088 C 
HETATM    4  C4  UNL     1     -34.455  14.541  -6.042  1.00 20.00     0.054 C 
HETATM    5  S5  UNL     1     -33.290  15.444  -3.842  1.00 20.00    -0.168 SA
ENDROOT
BRANCH   4   6
HETATM    6  S6  UNL     1     -35.789  14.700  -7.266  1.00 20.00    -0.177 SA
HETATM    7  H14 UNL     1     -35.799  16.038  -7.270  1.00 20.00     0.102 HD
ENDBRANCH   4   6
TORSDOF 1
ENDMDL
MODEL 5
REMARK VINA RESULT:      -2.5     11.761     12.376
REMARK  1 active torsions:
REMARK  status: ('A' for Active; 'I' for Inactive)
REMARK    1  A    between atoms: C4_4  and  S6_6 
ROOT
HETATM    1  C1  UNL     1     -33.227  15.183  -3.517  1.00 20.00     0.026 C 
HETATM    2  C2  UNL     1     -33.575  13.761  -3.930  1.00 20.00     0.075 C 
HETATM    3  C3  UNL     1     -35.657  15.378  -3.398  1.00 20.00     0.088 C 
HETATM    4  C4  UNL     1     -34.373  15.655  -2.628  1.00 20.00     0.054 C 
HETATM    5  S5  UNL     1     -35.368  13.775  -4.206  1.00 20.00    -0.168 SA
ENDROOT
BRANCH   4   6
HETATM    6  S6  UNL     1     -34.219  17.421  -2.227  1.00 20.00    -0.177 SA
HETATM    7  H14 UNL     1     -34.086  17.240  -0.908  1.00 20.00     0.102 HD
ENDBRANCH   4   6
TORSDOF 1
ENDMDL
MODEL 6
REMARK VINA RESULT:      -2.5     12.279     13.204
REMARK  1 active torsions:
REMARK  status: ('A' for Active; 'I' for Inactive)
REMARK    1  A    between atoms: C4_4  and  S6_6 
ROOT
HETATM    1  C1  UNL     1     -33.132  15.216  -3.857  1.00 20.00     0.026 C 
HETATM    2  C2  UNL     1     -33.725  13.852  -3.544  1.00 20.00     0.075 C 
HETATM    3  C3  UNL     1     -34.709  15.096  -5.716  1.00 20.00     0.088 C 
HETATM    4  C4  UNL     1     -34.224  15.994  -4.585  1.00 20.00     0.054 C 
HETATM    5  S5  UNL     1     -34.721  13.426  -4.999  1.00 20.00    -0.168 SA
ENDROOT
BRANCH   4   6
HETATM    6  S6  UNL     1     -33.598  17.575  -5.227  1.00 20.00    -0.177 SA
HETATM    7  H14 UNL     1     -32.949  17.040  -6.268  1.00 20.00     0.102 HD
ENDBRANCH   4   6
TORSDOF 1
ENDMDL
MODEL 7
REMARK VINA RESULT:      -2.5      9.476     10.140
REMARK  1 active torsions:
REMARK  status: ('A' for Active; 'I' for Inactive)
REMARK    1  A    between atoms: C4_4  and  S6_6 
ROOT
HETATM    1  C1  UNL     1     -41.203   7.243  -1.016  1.00 20.00     0.026 C 
HETATM    2  C2  UNL     1     -40.777   6.090  -0.121  1.00 20.00     0.075 C 
HETATM    3  C3  UNL     1     -42.087   5.415  -2.370  1.00 20.00     0.088 C 
HETATM    4  C4  UNL     1     -42.446   6.762  -1.758  1.00 20.00     0.054 C 
HETATM    5  S5  UNL     1     -41.072   4.595  -1.105  1.00 20.00    -0.168 SA
ENDROOT
BRANCH   4   6
HETATM    6  S6  UNL     1     -42.956   7.947  -3.038  1.00 20.00    -0.177 SA
HETATM    7  H14 UNL     1     -44.090   7.311  -3.355  1.00 20.00     0.102 HD
ENDBRANCH   4   6
TORSDOF 1
ENDMDL
MODEL 8
REMARK VINA RESULT:      -2.5     12.669     13.504
REMARK  1 active torsions:
REMARK  status: ('A' for Active; 'I' for Inactive)
REMARK    1  A    between atoms: C4_4  and  S6_6 
ROOT
HETATM    1  C1  UNL     1     -34.750  15.560  -5.712  1.00 20.00     0.026 C 
HETATM    2  C2  UNL     1     -34.581  14.063  -5.503  1.00 20.00     0.075 C 
HETATM    3  C3  UNL     1     -33.308  15.653  -3.745  1.00 20.00     0.088 C 
HETATM    4  C4  UNL     1     -33.489  16.210  -5.151  1.00 20.00     0.054 C 
HETATM    5  S5  UNL     1     -33.778  13.902  -3.884  1.00 20.00    -0.168 SA
ENDROOT
BRANCH   4   6
HETATM    6  S6  UNL     1     -33.630  18.021  -5.124  1.00 20.00    -0.177 SA
HETATM    7  H14 UNL     1     -34.357  18.074  -4.002  1.00 20.00     0.102 HD
ENDBRANCH   4   6
TORSDOF 1
ENDMDL
MODEL 9
REMARK VINA RESULT:      -2.5     12.240     13.219
REMARK  1 active torsions:
REMARK  status: ('A' for Active; 'I' for Inactive)
REMARK    1  A    between atoms: C4_4  and  S6_6 
ROOT
HETATM    1  C1  UNL     1     -33.675  17.114  -3.729  1.00 20.00     0.026 C 
HETATM    2  C2  UNL     1     -33.293  16.390  -5.010  1.00 20.00     0.075 C 
HETATM    3  C3  UNL     1     -34.835  15.012  -3.292  1.00 20.00     0.088 C 
HETATM    4  C4  UNL     1     -33.882  16.028  -2.677  1.00 20.00     0.054 C 
HETATM    5  S5  UNL     1     -34.318  14.894  -5.030  1.00 20.00    -0.168 SA
ENDROOT
BRANCH   4   6
HETATM    6  S6  UNL     1     -34.561  16.715  -1.138  1.00 20.00    -0.177 SA
HETATM    7  H14 UNL     1     -33.476  16.461  -0.397  1.00 20.00     0.102 HD
ENDBRANCH   4   6
TORSDOF 1
ENDMDL
